@<TRIPOS>MOLECULE
NONAME
42 44 1 0 0 
SMALL
USER_CHARGES


@<TRIPOS>ATOM
  1 O       -1.1230    -1.5800     0.7770 O.3   1 <1>  -0.5600 
  2 C       -0.2820    -1.8820    -0.2820 C.3   1 <1>   0.1200 
  3 C       -1.7390    -0.3350     0.6770 C.3   1 <1>   0.0400 
  4 C        0.3910    -3.2090     0.0590 C.3   1 <1>  -0.1600 
  5 C        1.0640    -3.8280    -1.1710 C.3   1 <1>   0.0960 
  6 N        1.7580    -5.0920    -0.8280 N.pl3 1 <1>   0.0480 
  7 C        1.2880    -6.2770    -0.4060 C.2   1 <1>   0.0060 
  8 C        3.0700    -5.3170    -0.9150 C.2   1 <1>   0.0360 
  9 N        2.2440    -7.1340    -0.2590 N.2   1 <1>  -0.3380 
 10 C       -0.1770    -6.5950    -0.1310 C.3   1 <1>   0.3890 
 11 N        3.3780    -6.5210    -0.5830 N.2   1 <1>  -0.3380 
 12 N       -0.3210    -8.0640     0.0220 N.pl3 1 <1>  -0.8690 
 13 C       -1.3060    -8.8910     0.3970 C.ar  1 <1>   0.4610 
 14 N       -2.5120    -8.3950     0.6970 N.ar  1 <1>  -0.1790 
 15 C       -1.0970   -10.3100     0.4860 C.ar  1 <1>   0.0000 
 16 C       -3.5730    -9.1840     1.0830 C.ar  1 <1>   0.2110 
 17 C       -2.1720   -11.1350     0.8760 C.ar  1 <1>   0.0000 
 18 C        0.1350   -10.9280     0.2030 C.ar  1 <1>  -0.1500 
 19 C       -3.4210   -10.5250     1.1730 C.ar  1 <1>  -0.1500 
 20 C       -1.9890   -12.5210     0.9640 C.ar  1 <1>  -0.1500 
 21 C        0.2940   -12.2890     0.2970 C.ar  1 <1>  -0.1500 
 22 C       -0.7750   -13.0920     0.6790 C.ar  1 <1>  -0.1500 
 23 H        0.4470    -1.0960    -0.3920 H     1 <1>   0.0800 
 24 H       -0.8810    -1.9600    -1.1740 H     1 <1>   0.0800 
 25 H       -2.3720    -0.2050     1.5370 H     1 <1>   0.0800 
 26 H       -2.3340    -0.3000    -0.2190 H     1 <1>   0.0800 
 27 H       -0.9870     0.4340     0.6640 H     1 <1>   0.0800 
 28 H       -0.3630    -3.8730     0.4360 H     1 <1>   0.0800 
 29 H        1.1230    -3.0360     0.8290 H     1 <1>   0.0800 
 30 H        1.7870    -3.1390    -1.5720 H     1 <1>   0.0800 
 31 H        0.3350    -4.0320    -1.9350 H     1 <1>   0.0800 
 32 H        3.7800    -4.5730    -1.2310 H     1 <1>   0.1500 
 33 H       -0.7810    -6.2530    -0.9540 H     1 <1>   0.0800 
 34 H       -0.4820    -6.1040     0.7770 H     1 <1>   0.0800 
 35 H        0.6150    -8.4710    -0.1560 H     1 <1>   0.4000 
 36 H       -2.6330    -7.3880     0.6350 H     1 <1>   0.4570 
 37 H       -4.5100    -8.6970     1.3050 H     1 <1>   0.1500 
 38 H        0.9840   -10.3370    -0.0940 H     1 <1>   0.1500 
 39 H       -4.2350   -11.1640     1.4720 H     1 <1>   0.1500 
 40 H       -2.8120   -13.1480     1.2610 H     1 <1>   0.1500 
 41 H        1.2450   -12.7460     0.0760 H     1 <1>   0.1500 
 42 H       -0.6370   -14.1580     0.7480 H     1 <1>   0.1500 
@<TRIPOS>BOND
  1   1   2  1   
  2   1   3  1   
  3   2   4  1   
  4   2  23  1   
  5   2  24  1   
  6   3  25  1   
  7   3  26  1   
  8   3  27  1   
  9   4   5  1   
 10   4  28  1   
 11   4  29  1   
 12   5   6  1   
 13   5  30  1   
 14   5  31  1   
 15   6   7  1   
 16   6   8  1   
 17   7   9  2   
 18   7  10  1   
 19   8  11  2   
 20   8  32  1   
 21   9  11  1   
 22  10  12  1   
 23  10  33  1   
 24  10  34  1   
 25  12  13  1   
 26  12  35  1   
 27  13  14  ar  
 28  13  15  ar  
 29  14  16  ar  
 30  14  36  1   
 31  15  17  ar  
 32  15  18  ar  
 33  16  19  ar  
 34  16  37  1   
 35  17  19  ar  
 36  17  20  ar  
 37  18  21  ar  
 38  18  38  1   
 39  19  39  1   
 40  20  22  ar  
 41  20  40  1   
 42  21  22  ar  
 43  21  41  1   
 44  22  42  1   
@<TRIPOS>SUBSTRUCTURE
  1 ****  12 GROUP 4 **** **** 0

# MOE 2024.06 (io_trps.svl 2023.06)
