@<TRIPOS>MOLECULE
NONAME
35 36 1 0 0 
SMALL
USER_CHARGES


@<TRIPOS>ATOM
  1 F       -0.8780    -0.9380     1.0400 F     1 <1>  -0.1900 
  2 C       -2.0400    -1.3690     0.5930 C.ar  1 <1>   0.1900 
  3 C       -2.8830    -0.5580    -0.1680 C.ar  1 <1>   0.4100 
  4 C       -2.4210    -2.6500     0.8750 C.ar  1 <1>   0.1600 
  5 N       -4.0290    -1.0480    -0.6080 N.ar  1 <1>  -0.6200 
  6 N       -2.5940     0.7630    -0.5080 N.pl3 1 <1>  -0.8380 
  7 N       -3.5680    -3.1410     0.4450 N.ar  1 <1>  -0.6200 
  8 C       -4.3030    -2.2960    -0.2710 C.ar  1 <1>   0.7200 
  9 C       -3.2140     1.3930    -1.7070 C.3   1 <1>   0.1290 
 10 C       -2.0760     1.7190     0.5090 C.3   1 <1>   0.1290 
 11 N       -5.4950    -2.7360    -0.7380 N.pl3 1 <1>  -0.8690 
 12 C       -5.7650    -4.1610    -1.0480 C.3   1 <1>   0.2090 
 13 C       -6.3840    -4.8550     0.1650 C.3   1 <1>   0.1200 
 14 O       -6.7000    -6.1900    -0.1850 O.3   1 <1>  -0.3420 
 15 C       -7.2760    -6.9690     0.7750 C.2   1 <1>   0.3510 
 16 N       -7.5900    -6.6100     1.9540 N.2   1 <1>  -0.4100 
 17 C       -7.6120    -8.2830     0.6140 C.2   1 <1>   0.1080 
 18 O       -8.1160    -7.6610     2.5450 O.3   1 <1>   0.2420 
 19 N       -8.1230    -8.6770     1.7100 N.2   1 <1>  -0.4100 
 20 C       -7.4240    -9.1340    -0.6250 C.3   1 <1>  -0.0590 
 21 H       -1.7800    -3.2850     1.4600 H     1 <1>   0.1500 
 22 H       -3.3600     0.6560    -2.4780 H     1 <1>   0.0800 
 23 H       -2.5730     2.1670    -2.0900 H     1 <1>   0.0800 
 24 H       -4.1690     1.8150    -1.4430 H     1 <1>   0.0800 
 25 H       -2.1010     1.2780     1.4900 H     1 <1>   0.0800 
 26 H       -2.6810     2.6090     0.5220 H     1 <1>   0.0800 
 27 H       -1.0610     1.9850     0.2690 H     1 <1>   0.0800 
 28 H       -5.9010    -2.0550    -1.3780 H     1 <1>   0.4000 
 29 H       -4.8470    -4.6560    -1.3160 H     1 <1>   0.0800 
 30 H       -6.4470    -4.2150    -1.8780 H     1 <1>   0.0800 
 31 H       -7.2900    -4.3560     0.4610 H     1 <1>   0.0800 
 32 H       -5.6860    -4.8730     0.9840 H     1 <1>   0.0800 
 33 H       -6.4150    -9.0370    -0.9840 H     1 <1>   0.0800 
 34 H       -8.1030    -8.8120    -1.3920 H     1 <1>   0.0800 
 35 H       -7.6160   -10.1670    -0.3960 H     1 <1>   0.0800 
@<TRIPOS>BOND
  1   1   2  1   
  2   2   3  ar  
  3   2   4  ar  
  4   3   5  ar  
  5   3   6  1   
  6   4   7  ar  
  7   4  21  1   
  8   5   8  ar  
  9   6   9  1   
 10   6  10  1   
 11   7   8  ar  
 12   8  11  1   
 13   9  22  1   
 14   9  23  1   
 15   9  24  1   
 16  10  25  1   
 17  10  26  1   
 18  10  27  1   
 19  11  12  1   
 20  11  28  1   
 21  12  13  1   
 22  12  29  1   
 23  12  30  1   
 24  13  14  1   
 25  13  31  1   
 26  13  32  1   
 27  14  15  1   
 28  15  16  2   
 29  15  17  1   
 30  16  18  1   
 31  17  19  2   
 32  17  20  1   
 33  18  19  1   
 34  20  33  1   
 35  20  34  1   
 36  20  35  1   
@<TRIPOS>SUBSTRUCTURE
  1 ****   7 GROUP 4 **** **** 0

# MOE 2024.06 (io_trps.svl 2023.06)
