@<TRIPOS>MOLECULE
NONAME
44 45 1 0 0 
SMALL
USER_CHARGES


@<TRIPOS>ATOM
  1 CL      -7.4080    -0.3670     3.3500 Cl    1 <1>  -0.1770 
  2 C       -6.0210    -0.7240     2.3490 C.ar  1 <1>   0.1770 
  3 C       -4.9120    -1.3620     2.8790 C.ar  1 <1>   0.1770 
  4 C       -6.0550    -0.3750     1.0120 C.ar  1 <1>  -0.1500 
  5 CL      -4.8730    -1.8350     4.5610 Cl    1 <1>  -0.1770 
  6 C       -3.8220    -1.6470     2.0770 C.ar  1 <1>  -0.1500 
  7 C       -4.9690    -0.6670     0.1970 C.ar  1 <1>  -0.1440 
  8 C       -3.8540    -1.2970     0.7360 C.ar  1 <1>  -0.1500 
  9 C       -5.0250    -0.3200    -1.2880 C.3   1 <1>   0.0440 
 10 C       -5.8560    -1.3340    -2.0520 C.2   1 <1>   0.5690 
 11 O       -6.7130    -0.9500    -2.8090 O.2   1 <1>  -0.5700 
 12 N       -5.6380    -2.6540    -1.8330 N.am  1 <1>  -0.7300 
 13 C       -6.4250    -3.7690    -2.4040 C.3   1 <1>   0.2200 
 14 C       -7.3900    -4.3240    -1.3650 C.3   1 <1>  -0.0800 
 15 C       -5.5040    -4.9650    -2.5920 C.3   1 <1>   0.1200 
 16 C       -6.5070    -5.2870    -0.5600 C.3   1 <1>   0.1200 
 17 C       -8.1260    -3.2570    -0.5260 C.3   1 <1>  -0.0550 
 18 O       -5.3450    -5.4940    -1.3120 O.3   1 <1>  -0.5600 
 19 S       -9.4050    -3.9100     0.5490 S.o2  1 <1>   1.3330 
 20 O      -10.0710    -2.8110     1.2100 O.2   1 <1>  -0.6500 
 21 O      -10.1810    -4.8640    -0.2110 O.2   1 <1>  -0.6500 
 22 N       -8.5450    -4.7680     1.7370 N.am  1 <1>  -0.8490 
 23 C       -9.3620    -5.8190     2.3520 C.3   1 <1>   0.1160 
 24 C       -7.9850    -3.9070     2.7860 C.3   1 <1>   0.1160 
 25 H       -6.9300     0.1150     0.6180 H     1 <1>   0.1500 
 26 H       -2.9630    -2.1380     2.4990 H     1 <1>   0.1500 
 27 H       -3.0020    -1.5220     0.1160 H     1 <1>   0.1500 
 28 H       -4.0370    -0.2970    -1.7100 H     1 <1>   0.0800 
 29 H       -5.4580     0.6560    -1.4160 H     1 <1>   0.0800 
 30 H       -4.9470    -2.9550    -1.1400 H     1 <1>   0.3700 
 31 H       -6.9120    -3.4690    -3.3170 H     1 <1>   0.0800 
 32 H       -8.1260    -4.9150    -1.8830 H     1 <1>   0.0800 
 33 H       -4.5450    -4.6960    -2.9980 H     1 <1>   0.0800 
 34 H       -5.9680    -5.7160    -3.2070 H     1 <1>   0.0800 
 35 H       -6.9940    -6.2340    -0.3970 H     1 <1>   0.0800 
 36 H       -6.2090    -4.8660     0.3850 H     1 <1>   0.0800 
 37 H       -8.5830    -2.5620    -1.2050 H     1 <1>   0.0800 
 38 H       -7.4210    -2.7070     0.0640 H     1 <1>   0.0800 
 39 H       -8.7890    -6.3540     3.0900 H     1 <1>   0.0800 
 40 H       -9.6840    -6.5230     1.6020 H     1 <1>   0.0800 
 41 H      -10.2320    -5.3900     2.8200 H     1 <1>   0.0800 
 42 H       -7.3970    -4.4910     3.4730 H     1 <1>   0.0800 
 43 H       -8.7720    -3.4120     3.3320 H     1 <1>   0.0800 
 44 H       -7.3480    -3.1610     2.3480 H     1 <1>   0.0800 
@<TRIPOS>BOND
  1   1   2  1   
  2   2   3  ar  
  3   2   4  ar  
  4   3   5  1   
  5   3   6  ar  
  6   4   7  ar  
  7   4  25  1   
  8   6   8  ar  
  9   6  26  1   
 10   7   8  ar  
 11   7   9  1   
 12   8  27  1   
 13   9  10  1   
 14   9  28  1   
 15   9  29  1   
 16  10  11  2   
 17  10  12  am  
 18  12  13  1   
 19  12  30  1   
 20  13  14  1   
 21  13  15  1   
 22  13  31  1   
 23  14  16  1   
 24  14  17  1   
 25  14  32  1   
 26  15  18  1   
 27  15  33  1   
 28  15  34  1   
 29  16  18  1   
 30  16  35  1   
 31  16  36  1   
 32  17  19  1   
 33  17  37  1   
 34  17  38  1   
 35  19  20  2   
 36  19  21  2   
 37  19  22  am  
 38  22  23  1   
 39  22  24  1   
 40  23  39  1   
 41  23  40  1   
 42  23  41  1   
 43  24  42  1   
 44  24  43  1   
 45  24  44  1   
@<TRIPOS>SUBSTRUCTURE
  1 ****  17 GROUP 4 **** **** 0

# MOE 2024.06 (io_trps.svl 2023.06)
