@<TRIPOS>MOLECULE
NONAME
34 36 1 0 0 
SMALL
USER_CHARGES


@<TRIPOS>ATOM
  1 S       -0.1170    -0.4960     0.5240 S.3   1 <1>  -0.2420 
  2 C       -1.5840     0.4900     0.3480 C.2   1 <1>   0.7410 
  3 C        0.8900     0.9430     0.3160 C.2   1 <1>   0.1150 
  4 O       -1.2250     1.7800     0.1530 O.3   1 <1>  -0.2270 
  5 N       -2.7530    -0.0040     0.3970 N.2   1 <1>  -0.6290 
  6 C        2.2890     1.0290     0.3230 C.2   1 <1>   0.4950 
  7 C        0.1040     1.9890     0.1400 C.2   1 <1>  -0.0610 
  8 C       -3.8490     0.8290     0.2690 C.ar  1 <1>   0.1790 
  9 O        3.0460     0.0960     0.4180 O.2   1 <1>  -0.5700 
 10 C        2.8600     2.4390     0.2200 C.3   1 <1>  -0.0990 
 11 C        0.6360     3.3840    -0.0950 C.3   1 <1>  -0.0220 
 12 C       -4.7680     0.5860    -0.7420 C.ar  1 <1>  -0.1500 
 13 C       -4.0730     1.8950     1.1340 C.ar  1 <1>  -0.1500 
 14 C        2.1690     3.8760    -0.0560 C.3   1 <1>   0.0000 
 15 C       -5.8760     1.3990    -0.9030 C.ar  1 <1>  -0.1500 
 16 C       -5.1790     2.7120     0.9770 C.ar  1 <1>  -0.1500 
 17 C        3.6460     4.5260    -0.0620 C.3   1 <1>  -0.2400 
 18 C        1.6380     5.3780    -0.3090 C.3   1 <1>  -0.2400 
 19 C       -6.0800     2.4650    -0.0440 C.ar  1 <1>  -0.1500 
 20 H        3.6050     2.2770    -0.5450 H     1 <1>   0.0800 
 21 H        3.3560     2.5070     1.1760 H     1 <1>   0.0800 
 22 H        0.0730     3.9510     0.6330 H     1 <1>   0.0800 
 23 H        0.2440     3.5950    -1.0790 H     1 <1>   0.0800 
 24 H       -4.6060    -0.2470    -1.4010 H     1 <1>   0.1500 
 25 H       -3.3810     2.0810     1.9350 H     1 <1>   0.1500 
 26 H       -6.5790     1.2010    -1.6940 H     1 <1>   0.1500 
 27 H       -5.3410     3.5360     1.6500 H     1 <1>   0.1500 
 28 H        4.4950     3.9720     0.3110 H     1 <1>   0.0800 
 29 H        3.7440     5.4240     0.5290 H     1 <1>   0.0800 
 30 H        3.9320     4.7570    -1.0760 H     1 <1>   0.0800 
 31 H        0.6220     5.5580    -0.6290 H     1 <1>   0.0800 
 32 H        2.1700     5.9150    -1.0810 H     1 <1>   0.0800 
 33 H        1.7070     5.9440     0.6070 H     1 <1>   0.0800 
 34 H       -6.9410     3.1000    -0.1680 H     1 <1>   0.1500 
@<TRIPOS>BOND
  1   1   2  1   
  2   1   3  1   
  3   2   4  1   
  4   2   5  2   
  5   3   6  1   
  6   3   7  2   
  7   4   7  1   
  8   5   8  1   
  9   6   9  2   
 10   6  10  1   
 11   7  11  1   
 12   8  12  ar  
 13   8  13  ar  
 14  10  14  1   
 15  10  20  1   
 16  10  21  1   
 17  11  14  1   
 18  11  22  1   
 19  11  23  1   
 20  12  15  ar  
 21  12  24  1   
 22  13  16  ar  
 23  13  25  1   
 24  14  17  1   
 25  14  18  1   
 26  15  19  ar  
 27  15  26  1   
 28  16  19  ar  
 29  16  27  1   
 30  17  28  1   
 31  17  29  1   
 32  17  30  1   
 33  18  31  1   
 34  18  32  1   
 35  18  33  1   
 36  19  34  1   
@<TRIPOS>SUBSTRUCTURE
  1 ****   4 GROUP 4 **** **** 0

# MOE 2024.06 (io_trps.svl 2023.06)
