@<TRIPOS>MOLECULE
NONAME
53 55 1 0 0 
SMALL
USER_CHARGES


@<TRIPOS>ATOM
  1 O       -1.2930    -1.3560     1.1200 O.2   1 <1>  -0.5700 
  2 C       -1.9590    -0.3610     1.0100 C.2   1 <1>   0.5690 
  3 N       -3.3050    -0.4490     0.9870 N.am  1 <1>  -0.7300 
  4 C       -1.2710     0.9770     0.9000 C.3   1 <1>  -0.1790 
  5 C       -4.2970     0.6210     0.7850 C.3   1 <1>   0.2840 
  6 C       -5.5510     0.0120     0.1900 C.ar  1 <1>  -0.1430 
  7 C       -6.7240    -0.0640     0.9250 C.ar  1 <1>   0.1600 
  8 C       -5.5480    -0.4810    -1.1020 C.ar  1 <1>  -0.1500 
  9 N       -7.8640    -0.5730     0.4900 N.ar  1 <1>  -0.6200 
 10 C       -6.7270    -1.0130    -1.5670 C.ar  1 <1>  -0.1500 
 11 C       -7.8530    -1.0420    -0.7520 C.ar  1 <1>   0.4100 
 12 N       -9.0190    -1.6020    -1.2310 N.pl3 1 <1>  -0.8380 
 13 C      -10.3230    -0.9580    -0.8650 C.3   1 <1>   0.2090 
 14 C       -9.1010    -3.0920    -1.1850 C.3   1 <1>   0.2090 
 15 C      -10.9570    -1.5800     0.4000 C.3   1 <1>   0.2950 
 16 C       -9.7760    -3.5870     0.1160 C.3   1 <1>   0.2000 
 17 O      -11.0250    -2.9780     0.2730 O.3   1 <1>  -0.5600 
 18 C      -12.3690    -1.0160     0.6460 C.3   1 <1>  -0.1950 
 19 C      -10.0170    -5.1020     0.1360 C.3   1 <1>  -0.1600 
 20 C      -13.4040    -1.7520     1.4400 C.3   1 <1>  -0.2000 
 21 C      -13.5840    -1.5620    -0.0400 C.3   1 <1>  -0.2000 
 22 C       -8.7140    -5.9190     0.1330 C.3   1 <1>  -0.1600 
 23 C       -9.0040    -7.4190     0.2530 C.3   1 <1>  -0.1600 
 24 C       -7.7060    -8.2320     0.2500 C.3   1 <1>  -0.2400 
 25 H       -3.6920    -1.3930     1.0550 H     1 <1>   0.3700 
 26 H       -1.6610     1.6530     1.6360 H     1 <1>   0.0800 
 27 H       -1.4190     1.3810    -0.0830 H     1 <1>   0.0800 
 28 H       -0.2160     0.8530     1.0680 H     1 <1>   0.0800 
 29 H       -4.5160     1.0850     1.7320 H     1 <1>   0.0800 
 30 H       -3.9050     1.3690     0.1170 H     1 <1>   0.0800 
 31 H       -6.7300     0.3160     1.9320 H     1 <1>   0.1500 
 32 H       -4.6640    -0.4530    -1.7170 H     1 <1>   0.1500 
 33 H       -6.8020    -1.4110    -2.5610 H     1 <1>   0.1500 
 34 H      -10.1720     0.0940    -0.7030 H     1 <1>   0.0800 
 35 H      -11.0090    -1.0660    -1.6870 H     1 <1>   0.0800 
 36 H       -9.6640    -3.4410    -2.0330 H     1 <1>   0.0800 
 37 H       -8.1100    -3.5040    -1.2520 H     1 <1>   0.0800 
 38 H      -10.3410    -1.3550     1.2540 H     1 <1>   0.0800 
 39 H       -9.1650    -3.3140     0.9600 H     1 <1>   0.0800 
 40 H      -12.3370     0.0500     0.7910 H     1 <1>   0.1000 
 41 H      -10.5710    -5.3390     1.0280 H     1 <1>   0.0800 
 42 H      -10.6180    -5.3760    -0.7130 H     1 <1>   0.0800 
 43 H      -13.1770    -2.7400     1.8040 H     1 <1>   0.1000 
 44 H      -14.0300    -1.1970     2.1160 H     1 <1>   0.1000 
 45 H      -14.3370    -0.8760    -0.3880 H     1 <1>   0.1000 
 46 H      -13.4820    -2.4230    -0.6780 H     1 <1>   0.1000 
 47 H       -8.1690    -5.7410    -0.7780 H     1 <1>   0.0800 
 48 H       -8.0970    -5.6090     0.9600 H     1 <1>   0.0800 
 49 H       -9.5410    -7.6130     1.1660 H     1 <1>   0.0800 
 50 H       -9.6220    -7.7360    -0.5700 H     1 <1>   0.0800 
 51 H       -7.0820    -7.9470     1.0780 H     1 <1>   0.0800 
 52 H       -7.1630    -8.0720    -0.6650 H     1 <1>   0.0800 
 53 H       -7.9290    -9.2810     0.3360 H     1 <1>   0.0800 
@<TRIPOS>BOND
  1   1   2  2   
  2   2   3  am  
  3   2   4  1   
  4   3   5  1   
  5   3  25  1   
  6   4  26  1   
  7   4  27  1   
  8   4  28  1   
  9   5   6  1   
 10   5  29  1   
 11   5  30  1   
 12   6   7  ar  
 13   6   8  ar  
 14   7   9  ar  
 15   7  31  1   
 16   8  10  ar  
 17   8  32  1   
 18   9  11  ar  
 19  10  11  ar  
 20  10  33  1   
 21  11  12  1   
 22  12  13  1   
 23  12  14  1   
 24  13  15  1   
 25  13  34  1   
 26  13  35  1   
 27  14  16  1   
 28  14  36  1   
 29  14  37  1   
 30  15  17  1   
 31  15  18  1   
 32  15  38  1   
 33  16  17  1   
 34  16  19  1   
 35  16  39  1   
 36  18  20  1   
 37  18  21  1   
 38  18  40  1   
 39  19  22  1   
 40  19  41  1   
 41  19  42  1   
 42  20  21  1   
 43  20  43  1   
 44  20  44  1   
 45  21  45  1   
 46  21  46  1   
 47  22  23  1   
 48  22  47  1   
 49  22  48  1   
 50  23  24  1   
 51  23  49  1   
 52  23  50  1   
 53  24  51  1   
 54  24  52  1   
 55  24  53  1   
@<TRIPOS>SUBSTRUCTURE
  1 ****  11 GROUP 4 **** **** 0

# MOE 2024.06 (io_trps.svl 2023.06)
