@<TRIPOS>MOLECULE
NONAME
53 55 1 0 0 
SMALL
USER_CHARGES


@<TRIPOS>ATOM
  1 O       -0.5440     1.0740    -0.9190 O.co2 1 <1>  -0.9000 
  2 C       -0.9400     1.4790     0.1840 C.2   1 <1>   0.9060 
  3 O       -0.7900     0.7890     1.2010 O.co2 1 <1>  -0.9000 
  4 C       -1.9230     2.6840     0.2900 C.3   1 <1>   0.4600 
  5 N       -3.3590     2.3200    -0.0560 N.4   1 <1>  -0.9590 
  6 C       -1.6060     3.9930    -0.4490 C.ar  1 <1>  -0.1430 
  7 C       -3.8460     1.2190     0.8210 C.3   1 <1>   0.3430 
  8 C       -3.4720     1.8950    -1.4730 C.3   1 <1>   0.3430 
  9 C       -2.3390     5.1310    -0.1120 C.ar  1 <1>   0.0830 
 10 C       -0.6280     4.0910    -1.4310 C.ar  1 <1>  -0.1500 
 11 C       -4.2710     0.0580    -0.1010 C.3   1 <1>   0.0000 
 12 C       -4.4830     0.7550    -1.4550 C.3   1 <1>  -0.1600 
 13 O       -3.2950     5.0130     0.8500 O.3   1 <1>  -0.3630 
 14 C       -2.0880     6.3360    -0.7610 C.ar  1 <1>  -0.1500 
 15 C       -0.3800     5.2900    -2.0770 C.ar  1 <1>  -0.1430 
 16 C       -5.5540    -0.6240     0.4160 C.3   1 <1>  -0.1600 
 17 C       -3.1430    -0.9980    -0.1820 C.3   1 <1>  -0.1600 
 18 C       -3.8160     6.1560     1.5000 C.3   1 <1>   0.0400 
 19 C       -1.1130     6.4130    -1.7370 C.ar  1 <1>  -0.1500 
 20 C        0.6970     5.3670    -3.1440 C.3   1 <1>  -0.0970 
 21 C       -5.9070    -1.8880    -0.3730 C.3   1 <1>   0.3430 
 22 C       -3.5320    -2.2720    -0.9220 C.3   1 <1>   0.3430 
 23 N       -4.7670    -2.8460    -0.3180 N.4   1 <1>  -0.9590 
 24 C       -5.1160    -4.1440    -0.9720 C.3   1 <1>   0.2630 
 25 H       -1.9030     2.9350     1.3350 H     1 <1>   0.0800 
 26 H       -3.8780     3.1970     0.1040 H     1 <1>   0.4500 
 27 H       -4.6930     1.5680     1.3880 H     1 <1>   0.0800 
 28 H       -3.0810     0.8960     1.5110 H     1 <1>   0.0800 
 29 H       -2.5220     1.5270    -1.8280 H     1 <1>   0.0800 
 30 H       -3.7850     2.7110    -2.1040 H     1 <1>   0.0800 
 31 H       -0.0350     3.2380    -1.7120 H     1 <1>   0.1500 
 32 H       -4.3380     0.1080    -2.3010 H     1 <1>   0.0800 
 33 H       -5.4670     1.1860    -1.5180 H     1 <1>   0.0800 
 34 H       -2.6400     7.2260    -0.5270 H     1 <1>   0.1500 
 35 H       -6.3830     0.0610     0.3640 H     1 <1>   0.0800 
 36 H       -5.4320    -0.8920     1.4510 H     1 <1>   0.0800 
 37 H       -2.8050    -1.2590     0.8070 H     1 <1>   0.0800 
 38 H       -2.2900    -0.6000    -0.6950 H     1 <1>   0.0800 
 39 H       -4.4300     5.8290     2.3200 H     1 <1>   0.0800 
 40 H       -4.4100     6.7190     0.8020 H     1 <1>   0.0800 
 41 H       -2.9980     6.7490     1.8730 H     1 <1>   0.0800 
 42 H       -0.9250     7.3500    -2.2320 H     1 <1>   0.1500 
 43 H        0.7470     4.4430    -3.6920 H     1 <1>   0.0800 
 44 H        1.6520     5.5460    -2.6830 H     1 <1>   0.0800 
 45 H        0.4900     6.1620    -3.8370 H     1 <1>   0.0800 
 46 H       -6.1180    -1.6300    -1.3980 H     1 <1>   0.0800 
 47 H       -6.7890    -2.3420     0.0510 H     1 <1>   0.0800 
 48 H       -2.7200    -2.9800    -0.8580 H     1 <1>   0.0800 
 49 H       -3.7010    -2.0470    -1.9630 H     1 <1>   0.0800 
 50 H       -4.5540    -3.0300     0.6730 H     1 <1>   0.4500 
 51 H       -5.3340    -3.9930    -2.0170 H     1 <1>   0.0800 
 52 H       -5.9810    -4.5820    -0.4990 H     1 <1>   0.0800 
 53 H       -4.2940    -4.8380    -0.8890 H     1 <1>   0.0800 
@<TRIPOS>BOND
  1   1   2  ar  
  2   2   3  ar  
  3   2   4  1   
  4   4   5  1   
  5   4   6  1   
  6   4  25  1   
  7   5   7  1   
  8   5   8  1   
  9   5  26  1   
 10   6   9  ar  
 11   6  10  ar  
 12   7  11  1   
 13   7  27  1   
 14   7  28  1   
 15   8  12  1   
 16   8  29  1   
 17   8  30  1   
 18   9  13  1   
 19   9  14  ar  
 20  10  15  ar  
 21  10  31  1   
 22  11  12  1   
 23  11  16  1   
 24  11  17  1   
 25  12  32  1   
 26  12  33  1   
 27  13  18  1   
 28  14  19  ar  
 29  14  34  1   
 30  15  19  ar  
 31  15  20  1   
 32  16  21  1   
 33  16  35  1   
 34  16  36  1   
 35  17  22  1   
 36  17  37  1   
 37  17  38  1   
 38  18  39  1   
 39  18  40  1   
 40  18  41  1   
 41  19  42  1   
 42  20  43  1   
 43  20  44  1   
 44  20  45  1   
 45  21  23  1   
 46  21  46  1   
 47  21  47  1   
 48  22  23  1   
 49  22  48  1   
 50  22  49  1   
 51  23  24  1   
 52  23  50  1   
 53  24  51  1   
 54  24  52  1   
 55  24  53  1   
@<TRIPOS>SUBSTRUCTURE
  1 ****   5 GROUP 4 **** **** 0

# MOE 2024.06 (io_trps.svl 2023.06)
