@<TRIPOS>MOLECULE
NONAME
49 51 1 0 0 
SMALL
USER_CHARGES


@<TRIPOS>ATOM
  1 O        0.2690     0.1560    -0.0490 O.2   1 <1>  -0.5700 
  2 C        1.0390    -0.1830     0.8210 C.2   1 <1>   0.5690 
  3 N        2.0120     0.7020     1.2490 N.am  1 <1>  -0.6600 
  4 C        0.9010    -1.6200     1.3720 C.3   1 <1>   0.2610 
  5 C        2.9540     0.4970     2.3960 C.3   1 <1>   0.1400 
  6 C        2.3000     1.9290     0.4590 C.3   1 <1>   0.1400 
  7 O        2.1890    -2.1420     1.6700 O.3   1 <1>  -0.2170 
  8 C        0.3780    -2.6450     0.3560 C.3   1 <1>  -0.0990 
  9 C        4.3180    -0.0950     1.9650 C.3   1 <1>   0.3430 
 10 C        3.2170     1.5780    -0.7180 C.3   1 <1>  -0.1600 
 11 N        2.6210    -2.9640     0.7360 N.2   1 <1>  -0.5130 
 12 C        1.6740    -3.2980    -0.0220 C.2   1 <1>   0.3280 
 13 N        4.9390     0.5800     0.7770 N.4   1 <1>  -0.9590 
 14 C        4.1590     0.3940    -0.4780 C.3   1 <1>   0.3430 
 15 C        1.7190    -4.2430    -1.2260 C.3   1 <1>  -0.0190 
 16 C        6.3590     0.1940     0.5830 C.3   1 <1>   0.5230 
 17 C        0.9290    -5.5300    -0.9460 C.3   1 <1>  -0.2400 
 18 C        3.1570    -4.6030    -1.6340 C.3   1 <1>  -0.2400 
 19 C        7.0940     1.4370     0.0940 C.2   1 <1>   0.0060 
 20 N        6.5920     2.6340     0.1710 N.2   1 <1>  -0.5650 
 21 N        8.3320     1.4070    -0.4540 N.pl3 1 <1>   0.0330 
 22 C        7.5500     3.4220    -0.3550 C.2   1 <1>   0.0770 
 23 C        8.6160     2.6890    -0.7410 C.2   1 <1>  -0.3020 
 24 H        0.3140    -1.6180     2.2720 H     1 <1>   0.0800 
 25 H        2.5040    -0.1520     3.1270 H     1 <1>   0.0800 
 26 H        3.1210     1.4380     2.8900 H     1 <1>   0.0800 
 27 H        2.7710     2.6660     1.0870 H     1 <1>   0.0800 
 28 H        1.3820     2.3600     0.0930 H     1 <1>   0.0800 
 29 H       -0.1180    -2.2040    -0.4890 H     1 <1>   0.0800 
 30 H       -0.2760    -3.3510     0.8320 H     1 <1>   0.0800 
 31 H        4.1910    -1.1420     1.7460 H     1 <1>   0.0800 
 32 H        4.9880    -0.0270     2.8060 H     1 <1>   0.0800 
 33 H        3.7860     2.4470    -0.9990 H     1 <1>   0.0800 
 34 H        2.5940     1.3330    -1.5590 H     1 <1>   0.0800 
 35 H        5.0130     1.6030     0.9250 H     1 <1>   0.4500 
 36 H        4.8250     0.3170    -1.3220 H     1 <1>   0.0800 
 37 H        3.5860    -0.5190    -0.4170 H     1 <1>   0.0800 
 38 H        1.2600    -3.7370    -2.0570 H     1 <1>   0.0800 
 39 H        6.4400    -0.6100    -0.1290 H     1 <1>   0.0800 
 40 H        6.7910    -0.1180     1.5200 H     1 <1>   0.0800 
 41 H        1.3450    -6.0480    -0.0990 H     1 <1>   0.0800 
 42 H        0.9660    -6.1850    -1.7990 H     1 <1>   0.0800 
 43 H       -0.1030    -5.3080    -0.7410 H     1 <1>   0.0800 
 44 H        3.6550    -5.1230    -0.8340 H     1 <1>   0.0800 
 45 H        3.7120    -3.7110    -1.8620 H     1 <1>   0.0800 
 46 H        3.1540    -5.2340    -2.5050 H     1 <1>   0.0800 
 47 H        8.9460     0.6020    -0.6230 H     1 <1>   0.2700 
 48 H        7.4240     4.4910    -0.4300 H     1 <1>   0.1500 
 49 H        9.5400     3.0100    -1.1920 H     1 <1>   0.1500 
@<TRIPOS>BOND
  1   1   2  2   
  2   2   3  am  
  3   2   4  1   
  4   3   5  1   
  5   3   6  1   
  6   4   7  1   
  7   4   8  1   
  8   4  24  1   
  9   5   9  1   
 10   5  25  1   
 11   5  26  1   
 12   6  10  1   
 13   6  27  1   
 14   6  28  1   
 15   7  11  1   
 16   8  12  1   
 17   8  29  1   
 18   8  30  1   
 19   9  13  1   
 20   9  31  1   
 21   9  32  1   
 22  10  14  1   
 23  10  33  1   
 24  10  34  1   
 25  11  12  2   
 26  12  15  1   
 27  13  14  1   
 28  13  16  1   
 29  13  35  1   
 30  14  36  1   
 31  14  37  1   
 32  15  17  1   
 33  15  18  1   
 34  15  38  1   
 35  16  19  1   
 36  16  39  1   
 37  16  40  1   
 38  17  41  1   
 39  17  42  1   
 40  17  43  1   
 41  18  44  1   
 42  18  45  1   
 43  18  46  1   
 44  19  20  2   
 45  19  21  1   
 46  20  22  1   
 47  21  23  1   
 48  21  47  1   
 49  22  23  2   
 50  22  48  1   
 51  23  49  1   
@<TRIPOS>SUBSTRUCTURE
  1 ****  14 GROUP 4 **** **** 0

# MOE 2024.06 (io_trps.svl 2023.06)
