@<TRIPOS>MOLECULE
NONAME
48 50 1 0 0 
SMALL
USER_CHARGES


@<TRIPOS>ATOM
  1 S       -4.8630     0.3160     1.4010 S.3   1 <1>  -0.0800 
  2 C       -5.3180    -1.2920     1.9120 C.2   1 <1>   0.1980 
  3 C       -3.4200    -0.3450     0.6950 C.2   1 <1>  -0.1100 
  4 N       -4.5130    -2.2090     1.5440 N.2   1 <1>  -0.5650 
  5 C       -6.5860    -1.4170     2.7270 C.3   1 <1>  -0.0600 
  6 C       -3.4110    -1.6750     0.8810 C.2   1 <1>   0.0460 
  7 C       -2.2820    -2.6040     0.4460 C.3   1 <1>   0.0820 
  8 C       -2.7650    -3.9020    -0.1820 C.2   1 <1>   0.5690 
  9 O       -2.4650    -4.9300     0.3760 O.2   1 <1>  -0.5700 
 10 N       -3.5530    -3.9330    -1.3120 N.am  1 <1>  -0.6600 
 11 C       -4.2000    -2.7440    -1.9490 C.3   1 <1>   0.1400 
 12 C       -4.3250    -5.1750    -1.6050 C.3   1 <1>   0.1400 
 13 C       -5.6930    -2.6240    -1.5270 C.3   1 <1>   0.4230 
 14 C       -5.7090    -5.0880    -0.9250 C.3   1 <1>   0.3430 
 15 N       -6.0910    -3.6770    -0.5130 N.4   1 <1>  -0.9590 
 16 C       -6.6460    -2.6620    -2.7420 C.3   1 <1>   0.1200 
 17 C       -7.5270    -3.4990    -0.1410 C.3   1 <1>   0.4230 
 18 O       -7.9770    -2.5310    -2.3240 O.3   1 <1>  -0.5600 
 19 C       -8.4230    -3.4930    -1.4040 C.3   1 <1>   0.1200 
 20 C       -7.9490    -4.5460     0.9010 C.3   1 <1>  -0.1600 
 21 C       -9.2820    -4.1910     1.5800 C.3   1 <1>  -0.1600 
 22 C       -9.6140    -5.1970     2.6850 C.3   1 <1>  -0.2400 
 23 H       -2.7280     0.3400     0.2370 H     1 <1>   0.1500 
 24 H       -6.7440    -2.4410     3.0100 H     1 <1>   0.0800 
 25 H       -7.4280    -1.0650     2.1620 H     1 <1>   0.0800 
 26 H       -6.4950    -0.8270     3.6210 H     1 <1>   0.0800 
 27 H       -1.7040    -2.8510     1.3180 H     1 <1>   0.0800 
 28 H       -1.6290    -2.1030    -0.2430 H     1 <1>   0.0800 
 29 H       -3.6800    -1.8390    -1.6960 H     1 <1>   0.0800 
 30 H       -4.1270    -2.8430    -3.0190 H     1 <1>   0.0800 
 31 H       -4.4460    -5.2780    -2.6690 H     1 <1>   0.0800 
 32 H       -3.8020    -6.0520    -1.2600 H     1 <1>   0.0800 
 33 H       -5.8110    -1.6540    -1.0740 H     1 <1>   0.0800 
 34 H       -5.6920    -5.7160    -0.0490 H     1 <1>   0.0800 
 35 H       -6.4470    -5.4930    -1.5960 H     1 <1>   0.0800 
 36 H       -5.5080    -3.4540     0.3210 H     1 <1>   0.4500 
 37 H       -6.5470    -3.5810    -3.2930 H     1 <1>   0.0800 
 38 H       -6.4360    -1.8400    -3.4050 H     1 <1>   0.0800 
 39 H       -7.6320    -2.5310     0.3190 H     1 <1>   0.0800 
 40 H       -9.4340    -3.2370    -1.1430 H     1 <1>   0.0800 
 41 H       -8.4300    -4.4550    -1.8850 H     1 <1>   0.0800 
 42 H       -8.0450    -5.5150     0.4420 H     1 <1>   0.0800 
 43 H       -7.1910    -4.6030     1.6640 H     1 <1>   0.0800 
 44 H       -9.2280    -3.2070     2.0130 H     1 <1>   0.0800 
 45 H      -10.0850    -4.1960     0.8620 H     1 <1>   0.0800 
 46 H       -8.8500    -5.1990     3.4430 H     1 <1>   0.0800 
 47 H       -9.7030    -6.1910     2.2820 H     1 <1>   0.0800 
 48 H      -10.5490    -4.9370     3.1500 H     1 <1>   0.0800 
@<TRIPOS>BOND
  1   1   2  1   
  2   1   3  1   
  3   2   4  2   
  4   2   5  1   
  5   3   6  2   
  6   3  23  1   
  7   4   6  1   
  8   5  24  1   
  9   5  25  1   
 10   5  26  1   
 11   6   7  1   
 12   7   8  1   
 13   7  27  1   
 14   7  28  1   
 15   8   9  2   
 16   8  10  am  
 17  10  11  1   
 18  10  12  1   
 19  11  13  1   
 20  11  29  1   
 21  11  30  1   
 22  12  14  1   
 23  12  31  1   
 24  12  32  1   
 25  13  15  1   
 26  13  16  1   
 27  13  33  1   
 28  14  15  1   
 29  14  34  1   
 30  14  35  1   
 31  15  17  1   
 32  15  36  1   
 33  16  18  1   
 34  16  37  1   
 35  16  38  1   
 36  17  19  1   
 37  17  20  1   
 38  17  39  1   
 39  18  19  1   
 40  19  40  1   
 41  19  41  1   
 42  20  21  1   
 43  20  42  1   
 44  20  43  1   
 45  21  22  1   
 46  21  44  1   
 47  21  45  1   
 48  22  46  1   
 49  22  47  1   
 50  22  48  1   
@<TRIPOS>SUBSTRUCTURE
  1 ****  15 GROUP 4 **** **** 0

# MOE 2024.06 (io_trps.svl 2023.06)
