@<TRIPOS>MOLECULE
NONAME
44 46 1 0 0 
SMALL
USER_CHARGES


@<TRIPOS>ATOM
  1 F       -1.1530    -0.0030    -0.7230 F     1 <1>  -0.3400 
  2 C       -0.2170    -0.8980    -1.0130 C.3   1 <1>   0.8800 
  3 F        0.2000    -0.6030    -2.2350 F     1 <1>  -0.3400 
  4 O       -0.8130    -2.1730    -1.0550 O.3   1 <1>  -0.3630 
  5 C       -1.0270    -2.8730     0.0850 C.ar  1 <1>   0.0830 
  6 C       -1.2620    -4.2290    -0.0560 C.ar  1 <1>  -0.1500 
  7 C       -1.0220    -2.3050     1.3570 C.ar  1 <1>  -0.1500 
  8 C       -1.5000    -5.0490     1.0430 C.ar  1 <1>   0.0860 
  9 C       -1.2370    -3.1070     2.4640 C.ar  1 <1>  -0.1500 
 10 C       -1.7740    -6.4650     0.8880 C.2   1 <1>   0.5440 
 11 C       -1.4690    -4.4610     2.3060 C.ar  1 <1>  -0.1500 
 12 O       -1.0650    -7.2650     1.4690 O.2   1 <1>  -0.5700 
 13 N       -2.8200    -6.9320     0.1140 N.am  1 <1>  -0.6600 
 14 C       -3.9500    -6.0470    -0.3030 C.3   1 <1>   0.2200 
 15 C       -2.9240    -8.3960    -0.1760 C.3   1 <1>   0.0600 
 16 C       -5.3320    -6.5620     0.0960 C.3   1 <1>  -0.1600 
 17 C       -4.0390    -5.8560    -1.8140 C.3   1 <1>  -0.1600 
 18 C       -6.2970    -5.8090    -0.8290 C.3   1 <1>  -0.0800 
 19 C       -5.4750    -5.3730    -2.0560 C.3   1 <1>  -0.0800 
 20 C       -6.8610    -4.5240    -0.2070 C.3   1 <1>  -0.1600 
 21 C       -5.5970    -3.8440    -2.1390 C.3   1 <1>  -0.1600 
 22 C       -6.8510    -3.5150    -1.3440 C.3   1 <1>   0.2000 
 23 O       -6.7760    -2.2340    -0.8440 O.3   1 <1>  -0.6800 
 24 H        0.6000    -0.8320    -0.3180 H     1 <1>   0.0800 
 25 H       -1.2560    -4.6620    -1.0400 H     1 <1>   0.1500 
 26 H       -0.8630    -1.2540     1.5120 H     1 <1>   0.1500 
 27 H       -1.2260    -2.6770     3.4520 H     1 <1>   0.1500 
 28 H       -1.6300    -5.0850     3.1700 H     1 <1>   0.1500 
 29 H       -3.8400    -5.0750     0.1460 H     1 <1>   0.0800 
 30 H       -3.4170    -8.5690    -1.1150 H     1 <1>   0.0800 
 31 H       -3.4770    -8.8790     0.6110 H     1 <1>   0.0800 
 32 H       -1.9420    -8.8350    -0.2240 H     1 <1>   0.0800 
 33 H       -5.4230    -7.6120    -0.1120 H     1 <1>   0.0800 
 34 H       -5.5360    -6.3880     1.1370 H     1 <1>   0.0800 
 35 H       -3.3070    -5.1570    -2.1760 H     1 <1>   0.0800 
 36 H       -3.9030    -6.7950    -2.3170 H     1 <1>   0.0800 
 37 H       -7.1080    -6.4490    -1.1340 H     1 <1>   0.0800 
 38 H       -5.8790    -5.8180    -2.9510 H     1 <1>   0.0800 
 39 H       -6.2210    -4.1810     0.5870 H     1 <1>   0.0800 
 40 H       -7.8570    -4.6740     0.1710 H     1 <1>   0.0800 
 41 H       -5.6850    -3.5110    -3.1580 H     1 <1>   0.0800 
 42 H       -4.7430    -3.3760    -1.6800 H     1 <1>   0.0800 
 43 H       -7.7350    -3.6060    -1.9530 H     1 <1>   0.0800 
 44 H       -5.9530    -2.1230    -0.3340 H     1 <1>   0.4000 
@<TRIPOS>BOND
  1   1   2  1   
  2   2   3  1   
  3   2   4  1   
  4   2  24  1   
  5   4   5  1   
  6   5   6  ar  
  7   5   7  ar  
  8   6   8  ar  
  9   6  25  1   
 10   7   9  ar  
 11   7  26  1   
 12   8  10  1   
 13   8  11  ar  
 14   9  11  ar  
 15   9  27  1   
 16  10  12  2   
 17  10  13  am  
 18  11  28  1   
 19  13  14  1   
 20  13  15  1   
 21  14  16  1   
 22  14  17  1   
 23  14  29  1   
 24  15  30  1   
 25  15  31  1   
 26  15  32  1   
 27  16  18  1   
 28  16  33  1   
 29  16  34  1   
 30  17  19  1   
 31  17  35  1   
 32  17  36  1   
 33  18  19  1   
 34  18  20  1   
 35  18  37  1   
 36  19  21  1   
 37  19  38  1   
 38  20  22  1   
 39  20  39  1   
 40  20  40  1   
 41  21  22  1   
 42  21  41  1   
 43  21  42  1   
 44  22  23  1   
 45  22  43  1   
 46  23  44  1   
@<TRIPOS>SUBSTRUCTURE
  1 ****   6 GROUP 4 **** **** 0

# MOE 2024.06 (io_trps.svl 2023.06)
