@<TRIPOS>MOLECULE
NONAME
56 60 1 0 0 
SMALL
USER_CHARGES


@<TRIPOS>ATOM
  1 O       -0.0190     0.2400     1.2720 O.2   1 <1>  -0.5700 
  2 C       -0.9180     0.7140     0.6220 C.2   1 <1>   0.5690 
  3 N       -1.9250    -0.0320     0.0950 N.am  1 <1>  -0.7300 
  4 C       -0.9280     2.2230     0.3890 C.3   1 <1>  -0.0190 
  5 C       -2.1250    -1.4870     0.1790 C.3   1 <1>   0.3000 
  6 C       -2.1850     2.8880     0.9830 C.3   1 <1>  -0.1600 
  7 C       -0.7500     2.5840    -1.1060 C.3   1 <1>  -0.1600 
  8 C       -3.4050    -1.8220    -0.6020 C.3   1 <1>  -0.1600 
  9 C       -0.9420    -2.2410    -0.4560 C.3   1 <1>  -0.1600 
 10 C       -2.3040    -1.9280     1.6430 C.3   1 <1>  -0.1600 
 11 C       -2.1170     4.4280     0.9020 C.3   1 <1>   0.2000 
 12 C       -1.2790     3.9850    -1.4710 C.3   1 <1>  -0.1600 
 13 C       -3.6910    -3.3450    -0.5620 C.3   1 <1>   0.2560 
 14 C       -1.1930    -3.7590    -0.3990 C.3   1 <1>  -0.0800 
 15 C       -2.5600    -3.4450     1.7080 C.3   1 <1>  -0.0800 
 16 O       -3.4270     4.9120     0.7390 O.3   1 <1>  -0.5600 
 17 C       -1.2350     4.9340    -0.2710 C.3   1 <1>   0.2000 
 18 N       -4.9440    -3.6890    -1.3280 N.pl3 1 <1>   0.5800 
 19 C       -2.4800    -4.0880    -1.1780 C.3   1 <1>  -0.1600 
 20 C       -3.8400    -3.7760     0.9190 C.3   1 <1>  -0.1600 
 21 C       -1.3690    -4.1870     1.0710 C.3   1 <1>  -0.1600 
 22 C       -4.1700     5.0150     1.9140 C.3   1 <1>   0.0400 
 23 O       -1.6940     6.1670    -0.6850 O.3   1 <1>  -0.6800 
 24 N       -5.4300    -4.9250    -1.4040 N.2   1 <1>  -0.4180 
 25 N       -5.6780    -2.8150    -2.0020 N.2   1 <1>  -0.7070 
 26 N       -6.4790    -4.8560    -2.1240 N.2   1 <1>  -0.2270 
 27 C       -6.5950    -3.5800    -2.4630 C.2   1 <1>   0.3660 
 28 H       -2.6450     0.4510    -0.4400 H     1 <1>   0.3700 
 29 H       -0.0800     2.6190     0.9220 H     1 <1>   0.0800 
 30 H       -2.2910     2.5940     2.0130 H     1 <1>   0.0800 
 31 H       -3.0480     2.5430     0.4410 H     1 <1>   0.0800 
 32 H        0.3000     2.5280    -1.3400 H     1 <1>   0.0800 
 33 H       -1.2490     1.8640    -1.7310 H     1 <1>   0.0800 
 34 H       -3.2890    -1.5090    -1.6250 H     1 <1>   0.0800 
 35 H       -4.2360    -1.2930    -0.1700 H     1 <1>   0.0800 
 36 H       -0.8120    -1.9290    -1.4770 H     1 <1>   0.0800 
 37 H       -0.0350    -2.0190     0.0780 H     1 <1>   0.0800 
 38 H       -1.4160    -1.7020     2.2070 H     1 <1>   0.0800 
 39 H       -3.1270    -1.3990     2.0910 H     1 <1>   0.0800 
 40 H       -1.7070     4.8300     1.8140 H     1 <1>   0.0800 
 41 H       -2.3010     3.8990    -1.7990 H     1 <1>   0.0800 
 42 H       -0.6980     4.3910    -2.2810 H     1 <1>   0.0800 
 43 H       -0.3580    -4.2820    -0.8330 H     1 <1>   0.0800 
 44 H       -2.6730    -3.7520     2.7350 H     1 <1>   0.0800 
 45 H       -0.2150     5.0520     0.0520 H     1 <1>   0.0800 
 46 H       -2.6480    -5.1510    -1.1480 H     1 <1>   0.0800 
 47 H       -2.3600    -3.8000    -2.2080 H     1 <1>   0.0800 
 48 H       -4.6790    -3.2680     1.3640 H     1 <1>   0.0800 
 49 H       -4.0250    -4.8350     0.9770 H     1 <1>   0.0800 
 50 H       -0.4700    -3.9670     1.6220 H     1 <1>   0.0800 
 51 H       -1.5290    -5.2500     1.1260 H     1 <1>   0.0800 
 52 H       -5.1440     5.3940     1.6610 H     1 <1>   0.0800 
 53 H       -3.6800     5.6980     2.5860 H     1 <1>   0.0800 
 54 H       -4.2690     4.0430     2.3660 H     1 <1>   0.0800 
 55 H       -2.6600     6.1680    -0.4970 H     1 <1>   0.4000 
 56 H       -7.4100    -3.2410    -3.0810 H     1 <1>   0.1500 
@<TRIPOS>BOND
  1   1   2  2   
  2   2   3  am  
  3   2   4  1   
  4   3   5  1   
  5   3  28  1   
  6   4   6  1   
  7   4   7  1   
  8   4  29  1   
  9   5   8  1   
 10   5   9  1   
 11   5  10  1   
 12   6  11  1   
 13   6  30  1   
 14   6  31  1   
 15   7  12  1   
 16   7  32  1   
 17   7  33  1   
 18   8  13  1   
 19   8  34  1   
 20   8  35  1   
 21   9  14  1   
 22   9  36  1   
 23   9  37  1   
 24  10  15  1   
 25  10  38  1   
 26  10  39  1   
 27  11  16  1   
 28  11  17  1   
 29  11  40  1   
 30  12  17  1   
 31  12  41  1   
 32  12  42  1   
 33  13  18  1   
 34  13  19  1   
 35  13  20  1   
 36  14  19  1   
 37  14  21  1   
 38  14  43  1   
 39  15  20  1   
 40  15  21  1   
 41  15  44  1   
 42  16  22  1   
 43  17  23  1   
 44  17  45  1   
 45  18  24  1   
 46  18  25  1   
 47  19  46  1   
 48  19  47  1   
 49  20  48  1   
 50  20  49  1   
 51  21  50  1   
 52  21  51  1   
 53  22  52  1   
 54  22  53  1   
 55  22  54  1   
 56  23  55  1   
 57  24  26  2   
 58  25  27  2   
 59  26  27  1   
 60  27  56  1   
@<TRIPOS>SUBSTRUCTURE
  1 ****   3 GROUP 4 **** **** 0

# MOE 2024.06 (io_trps.svl 2023.06)
