@<TRIPOS>MOLECULE
NONAME
44 46 1 0 0 
SMALL
USER_CHARGES


@<TRIPOS>ATOM
  1 S        2.2720    -0.2990     2.3220 S.3   1 <1>  -0.0800 
  2 C        1.5520    -0.4550     0.7390 C.2   1 <1>   0.1980 
  3 C        1.8540    -1.9500     2.6400 C.2   1 <1>  -0.1100 
  4 N        1.0640    -1.6040     0.4990 N.2   1 <1>  -0.5650 
  5 C        1.5830     0.7600    -0.1690 C.3   1 <1>   0.0200 
  6 C        1.2180    -2.4960     1.5790 C.2   1 <1>   0.1410 
  7 C        0.5710     1.8260     0.2760 C.3   1 <1>  -0.1600 
  8 C        0.7480    -3.8830     1.5420 C.2   1 <1>   0.7160 
  9 C        0.5840     3.0410    -0.6570 C.3   1 <1>  -0.2400 
 10 O        1.1210    -4.6530     2.4110 O.2   1 <1>  -0.5700 
 11 N       -0.1140    -4.3880     0.5870 N.am  1 <1>  -0.6600 
 12 C       -0.9210    -3.6060    -0.3840 C.3   1 <1>   0.1400 
 13 C       -0.4400    -5.8320     0.4790 C.3   1 <1>   0.1400 
 14 C       -2.0610    -4.5450    -0.7760 C.3   1 <1>   0.2000 
 15 C       -1.4240    -5.9360    -0.6910 C.3   1 <1>  -0.0800 
 16 O       -3.0600    -4.4340     0.1790 O.3   1 <1>  -0.6800 
 17 C       -2.4130    -7.1110    -0.5700 C.3   1 <1>  -0.0170 
 18 C       -1.6740    -8.4400    -0.5580 C.ar  1 <1>  -0.1440 
 19 C       -1.3820    -9.1060     0.6150 C.ar  1 <1>  -0.1500 
 20 C       -1.2540    -9.0470    -1.7240 C.ar  1 <1>  -0.1500 
 21 C       -0.6970   -10.3090     0.5670 C.ar  1 <1>   0.1600 
 22 C       -0.5770   -10.2540    -1.6620 C.ar  1 <1>   0.1600 
 23 N       -0.2860   -10.8980    -0.5440 N.ar  1 <1>  -0.6200 
 24 H        2.1220    -2.3700     3.5920 H     1 <1>   0.1500 
 25 H        2.5770     1.1700    -0.1710 H     1 <1>   0.0800 
 26 H        1.3510     0.4420    -1.1710 H     1 <1>   0.0800 
 27 H       -0.4150     1.3940     0.2870 H     1 <1>   0.0800 
 28 H        0.8030     2.1460     1.2780 H     1 <1>   0.0800 
 29 H        0.3290     2.7490    -1.6610 H     1 <1>   0.0800 
 30 H        1.5560     3.5020    -0.6650 H     1 <1>   0.0800 
 31 H       -0.1350     3.7690    -0.3220 H     1 <1>   0.0800 
 32 H       -1.2920    -2.6900     0.0430 H     1 <1>   0.0800 
 33 H       -0.3120    -3.3820    -1.2430 H     1 <1>   0.0800 
 34 H        0.4500    -6.4120     0.2990 H     1 <1>   0.0800 
 35 H       -0.8960    -6.1580     1.3980 H     1 <1>   0.0800 
 36 H       -2.4810    -4.3220    -1.7410 H     1 <1>   0.0800 
 37 H       -0.8410    -6.0800    -1.5840 H     1 <1>   0.0800 
 38 H       -2.6480    -4.4510     1.0670 H     1 <1>   0.4000 
 39 H       -3.0970    -7.0890    -1.4000 H     1 <1>   0.0800 
 40 H       -2.9980    -7.0190     0.3290 H     1 <1>   0.0800 
 41 H       -1.6770    -8.7020     1.5660 H     1 <1>   0.1500 
 42 H       -1.4460    -8.5950    -2.6800 H     1 <1>   0.1500 
 43 H       -0.4760   -10.8130     1.4920 H     1 <1>   0.1500 
 44 H       -0.2570   -10.7130    -2.5820 H     1 <1>   0.1500 
@<TRIPOS>BOND
  1   1   2  1   
  2   1   3  1   
  3   2   4  2   
  4   2   5  1   
  5   3   6  2   
  6   3  24  1   
  7   4   6  1   
  8   5   7  1   
  9   5  25  1   
 10   5  26  1   
 11   6   8  1   
 12   7   9  1   
 13   7  27  1   
 14   7  28  1   
 15   8  10  2   
 16   8  11  am  
 17   9  29  1   
 18   9  30  1   
 19   9  31  1   
 20  11  12  1   
 21  11  13  1   
 22  12  14  1   
 23  12  32  1   
 24  12  33  1   
 25  13  15  1   
 26  13  34  1   
 27  13  35  1   
 28  14  15  1   
 29  14  16  1   
 30  14  36  1   
 31  15  17  1   
 32  15  37  1   
 33  16  38  1   
 34  17  18  1   
 35  17  39  1   
 36  17  40  1   
 37  18  19  ar  
 38  18  20  ar  
 39  19  21  ar  
 40  19  41  1   
 41  20  22  ar  
 42  20  42  1   
 43  21  23  ar  
 44  21  43  1   
 45  22  23  ar  
 46  22  44  1   
@<TRIPOS>SUBSTRUCTURE
  1 ****  11 GROUP 4 **** **** 0

# MOE 2024.06 (io_trps.svl 2023.06)
