@<TRIPOS>MOLECULE
NONAME
54 56 1 0 0 
SMALL
USER_CHARGES


@<TRIPOS>ATOM
  1 O       -1.0890     1.3870    -1.9190 O.2   1 <1>  -0.5700 
  2 C       -1.0320     2.1320    -0.9600 C.2   1 <1>   0.7800 
  3 O       -0.0560     3.0360    -0.8800 O.3   1 <1>  -0.4300 
  4 N       -1.9560     2.0970     0.0550 N.am  1 <1>  -0.6600 
  5 C        0.9290     3.1260    -1.8840 C.3   1 <1>   0.1200 
  6 C       -1.9390     3.0270     1.2050 C.3   1 <1>   0.1400 
  7 C       -3.0770     1.1330     0.0510 C.3   1 <1>   0.1400 
  8 C        1.8940     4.2450    -1.5020 C.3   1 <1>  -0.2400 
  9 C       -3.2310     3.8440     1.1820 C.3   1 <1>  -0.1600 
 10 C       -4.3900     1.9140     0.0110 C.3   1 <1>  -0.1600 
 11 C       -4.4830     2.9470     1.1490 C.3   1 <1>   0.4230 
 12 N       -5.7120     3.7840     0.9720 N.4   1 <1>  -0.9590 
 13 C       -5.8250     4.9490     1.9110 C.3   1 <1>   0.3430 
 14 C       -6.9970     3.0260     0.9240 C.3   1 <1>   0.3430 
 15 C       -7.1280     5.7330     1.7030 C.3   1 <1>  -0.1600 
 16 C       -8.1080     3.8990     0.3300 C.3   1 <1>  -0.1600 
 17 C       -7.7980     5.3990     0.3680 C.3   1 <1>   0.4180 
 18 O       -6.8740     5.6320    -0.6720 O.3   1 <1>  -0.5600 
 19 C       -9.0760     6.2000     0.1540 C.2   1 <1>  -0.2880 
 20 C       -6.7700     6.9440    -1.1620 C.3   1 <1>   0.1200 
 21 C       -9.2380     7.0990    -0.8190 C.2   1 <1>  -0.2760 
 22 C       -8.1000     7.4030    -1.7730 C.3   1 <1>  -0.0220 
 23 C      -10.5210     7.8720    -1.0700 C.3   1 <1>  -0.1020 
 24 H        0.4440     3.3370    -2.8220 H     1 <1>   0.0800 
 25 H        1.4400     2.1790    -1.9460 H     1 <1>   0.0800 
 26 H       -1.0890     3.6870     1.1580 H     1 <1>   0.0800 
 27 H       -1.8650     2.4590     2.1170 H     1 <1>   0.0800 
 28 H       -3.0220     0.5240     0.9370 H     1 <1>   0.0800 
 29 H       -3.0150     0.4790    -0.8040 H     1 <1>   0.0800 
 30 H        1.3680     5.1800    -1.4360 H     1 <1>   0.0800 
 31 H        2.6590     4.3340    -2.2520 H     1 <1>   0.0800 
 32 H        2.3620     4.0250    -0.5600 H     1 <1>   0.0800 
 33 H       -3.2090     4.4800     0.3140 H     1 <1>   0.0800 
 34 H       -3.2290     4.4600     2.0620 H     1 <1>   0.0800 
 35 H       -5.1830     1.1940     0.0800 H     1 <1>   0.0800 
 36 H       -4.4550     2.4070    -0.9440 H     1 <1>   0.0800 
 37 H       -4.5440     2.4170     2.0860 H     1 <1>   0.0800 
 38 H       -5.6520     4.2290     0.0340 H     1 <1>   0.4500 
 39 H       -5.0010     5.6210     1.7360 H     1 <1>   0.0800 
 40 H       -5.7690     4.6100     2.9330 H     1 <1>   0.0800 
 41 H       -7.2690     2.7240     1.9230 H     1 <1>   0.0800 
 42 H       -6.9020     2.1410     0.3200 H     1 <1>   0.0800 
 43 H       -6.9360     6.7880     1.7710 H     1 <1>   0.0800 
 44 H       -7.8060     5.4940     2.5010 H     1 <1>   0.0800 
 45 H       -9.0090     3.7010     0.8810 H     1 <1>   0.0800 
 46 H       -8.3000     3.6090    -0.6880 H     1 <1>   0.0800 
 47 H       -9.8520     5.9650     0.8610 H     1 <1>   0.1500 
 48 H       -5.9950     6.9620    -1.9070 H     1 <1>   0.0800 
 49 H       -6.4890     7.5940    -0.3520 H     1 <1>   0.0800 
 50 H       -8.2660     6.9070    -2.7130 H     1 <1>   0.0800 
 51 H       -8.0430     8.4610    -1.9600 H     1 <1>   0.0800 
 52 H      -10.8870     7.6700    -2.0610 H     1 <1>   0.0800 
 53 H      -10.3460     8.9290    -0.9740 H     1 <1>   0.0800 
 54 H      -11.2810     7.5880    -0.3640 H     1 <1>   0.0800 
@<TRIPOS>BOND
  1   1   2  2   
  2   2   3  1   
  3   2   4  am  
  4   3   5  1   
  5   4   6  1   
  6   4   7  1   
  7   5   8  1   
  8   5  24  1   
  9   5  25  1   
 10   6   9  1   
 11   6  26  1   
 12   6  27  1   
 13   7  10  1   
 14   7  28  1   
 15   7  29  1   
 16   8  30  1   
 17   8  31  1   
 18   8  32  1   
 19   9  11  1   
 20   9  33  1   
 21   9  34  1   
 22  10  11  1   
 23  10  35  1   
 24  10  36  1   
 25  11  12  1   
 26  11  37  1   
 27  12  13  1   
 28  12  14  1   
 29  12  38  1   
 30  13  15  1   
 31  13  39  1   
 32  13  40  1   
 33  14  16  1   
 34  14  41  1   
 35  14  42  1   
 36  15  17  1   
 37  15  43  1   
 38  15  44  1   
 39  16  17  1   
 40  16  45  1   
 41  16  46  1   
 42  17  18  1   
 43  17  19  1   
 44  18  20  1   
 45  19  21  2   
 46  19  47  1   
 47  20  22  1   
 48  20  48  1   
 49  20  49  1   
 50  21  22  1   
 51  21  23  1   
 52  22  50  1   
 53  22  51  1   
 54  23  52  1   
 55  23  53  1   
 56  23  54  1   
@<TRIPOS>SUBSTRUCTURE
  1 ****  12 GROUP 4 **** **** 0

# MOE 2024.06 (io_trps.svl 2023.06)
