@<TRIPOS>MOLECULE
NONAME
46 49 1 0 0 
SMALL
USER_CHARGES


@<TRIPOS>ATOM
  1 CL       0.2170    -0.2050     0.8800 Cl    1 <1>  -0.1400 
  2 C        0.0000    -1.8850     0.4610 C.2   1 <1>   0.1400 
  3 C       -0.9910    -2.6260     1.0410 C.2   1 <1>   0.1910 
  4 C        0.8610    -2.4560    -0.4800 C.2   1 <1>  -0.1500 
  5 N       -1.1680    -3.9570     0.7130 N.pl3 1 <1>  -0.5760 
  6 C        0.6750    -3.7780    -0.7980 C.2   1 <1>  -0.1800 
  7 C       -2.1830    -4.7190     1.3090 C.2   1 <1>   0.9370 
  8 C       -0.3450    -4.5380    -0.2000 C.cat 1 <1>   0.7390 
  9 O       -2.9110    -4.1990     2.1230 O.2   1 <1>  -0.5700 
 10 C       -2.3300    -6.0760     0.9450 C.2   1 <1>  -0.1360 
 11 N       -0.5240    -5.8430    -0.5180 N.pl3 1 <1>  -0.6450 
 12 C       -1.5110    -6.6380     0.0340 C.2   1 <1>   0.2030 
 13 C       -1.6000    -8.1040    -0.4120 C.3   1 <1>   0.2480 
 14 N       -2.8970    -8.7050    -0.0620 N.3   1 <1>  -0.8100 
 15 C       -4.0030    -8.3240    -0.9620 C.3   1 <1>   0.1100 
 16 C       -2.8710   -10.1820    -0.0560 C.3   1 <1>   0.1100 
 17 C       -5.0680    -9.3840    -0.7110 C.3   1 <1>   0.2000 
 18 C       -4.2280   -10.6570    -0.6040 C.3   1 <1>  -0.0800 
 19 O       -5.6500    -9.1020     0.5120 O.3   1 <1>  -0.6800 
 20 C       -4.8590   -11.8120     0.1970 C.3   1 <1>  -0.0170 
 21 C       -3.9410   -13.0240     0.2130 C.ar  1 <1>  -0.1430 
 22 C       -3.7910   -13.8380    -0.8920 C.ar  1 <1>  -0.1500 
 23 C       -3.2070   -13.3720     1.3290 C.ar  1 <1>  -0.1500 
 24 C       -2.9310   -14.9220    -0.8330 C.ar  1 <1>   0.1600 
 25 C       -2.3750   -14.4780     1.2840 C.ar  1 <1>   0.1600 
 26 N       -2.2150   -15.2580     0.2280 N.ar  1 <1>  -0.6200 
 27 H       -1.6480    -2.1680     1.7670 H     1 <1>   0.1500 
 28 H        1.6360    -1.8530    -0.9250 H     1 <1>   0.1500 
 29 H        1.3210    -4.2470    -1.5180 H     1 <1>   0.1500 
 30 H       -3.1190    -6.6140     1.4360 H     1 <1>   0.1500 
 31 H        0.1170    -6.2490    -1.2070 H     1 <1>   0.4500 
 32 H       -0.8140    -8.6520     0.0810 H     1 <1>   0.0800 
 33 H       -1.4460    -8.1830    -1.4740 H     1 <1>   0.0800 
 34 H       -4.3770    -7.3360    -0.7550 H     1 <1>   0.0800 
 35 H       -3.6870    -8.3820    -1.9900 H     1 <1>   0.0800 
 36 H       -2.0780   -10.5680    -0.6760 H     1 <1>   0.0800 
 37 H       -2.7190   -10.5270     0.9530 H     1 <1>   0.0800 
 38 H       -5.8350    -9.4250    -1.4660 H     1 <1>   0.0800 
 39 H       -4.0560   -11.0090    -1.6060 H     1 <1>   0.0800 
 40 H       -4.9220    -8.9670     1.1520 H     1 <1>   0.4000 
 41 H       -5.8010   -12.0830    -0.2460 H     1 <1>   0.0800 
 42 H       -5.0580   -11.5030     1.2080 H     1 <1>   0.0800 
 43 H       -4.3340   -13.6410    -1.7980 H     1 <1>   0.1500 
 44 H       -3.2750   -12.7980     2.2340 H     1 <1>   0.1500 
 45 H       -2.8260   -15.5460    -1.7040 H     1 <1>   0.1500 
 46 H       -1.8100   -14.7350     2.1640 H     1 <1>   0.1500 
@<TRIPOS>BOND
  1   1   2  1   
  2   2   3  2   
  3   2   4  1   
  4   3   5  1   
  5   3  27  1   
  6   4   6  2   
  7   4  28  1   
  8   5   7  1   
  9   5   8  ar  
 10   6   8  1   
 11   6  29  1   
 12   7   9  2   
 13   7  10  1   
 14   8  11  ar  
 15  10  12  2   
 16  10  30  1   
 17  11  12  1   
 18  11  31  1   
 19  12  13  1   
 20  13  14  1   
 21  13  32  1   
 22  13  33  1   
 23  14  15  1   
 24  14  16  1   
 25  15  17  1   
 26  15  34  1   
 27  15  35  1   
 28  16  18  1   
 29  16  36  1   
 30  16  37  1   
 31  17  18  1   
 32  17  19  1   
 33  17  38  1   
 34  18  20  1   
 35  18  39  1   
 36  19  40  1   
 37  20  21  1   
 38  20  41  1   
 39  20  42  1   
 40  21  22  ar  
 41  21  23  ar  
 42  22  24  ar  
 43  22  43  1   
 44  23  25  ar  
 45  23  44  1   
 46  24  26  ar  
 47  24  45  1   
 48  25  26  ar  
 49  25  46  1   
@<TRIPOS>SUBSTRUCTURE
  1 ****  13 GROUP 4 **** **** 0

# MOE 2024.06 (io_trps.svl 2023.06)
