@<TRIPOS>MOLECULE
NONAME
52 55 1 0 0 
SMALL
USER_CHARGES


@<TRIPOS>ATOM
  1 O       -0.3730     0.2380    -0.2080 O.2   1 <1>  -0.5700 
  2 C       -1.4410     0.8020    -0.1990 C.2   1 <1>   0.5690 
  3 N       -2.6140     0.1080    -0.3110 N.am  1 <1>  -0.6600 
  4 C       -1.4880     2.3200    -0.0580 C.3   1 <1>  -0.0990 
  5 C       -3.9840     0.6730    -0.2580 C.3   1 <1>   0.1400 
  6 C       -2.6620    -1.3690    -0.4380 C.3   1 <1>   0.1400 
  7 C       -0.1050     2.9980    -0.0300 C.3   1 <1>  -0.1600 
  8 C       -4.9200    -0.5330    -0.3610 C.3   1 <1>   0.2000 
  9 C       -4.0750    -1.7540     0.0020 C.3   1 <1>  -0.0800 
 10 C       -0.2180     4.5220     0.1040 C.3   1 <1>   0.0210 
 11 O       -5.9890    -0.4200     0.5140 O.3   1 <1>  -0.6800 
 12 C       -4.6040    -3.0490    -0.6370 C.3   1 <1>  -0.0170 
 13 C        1.1380     5.2080     0.1320 C.2   1 <1>  -0.1810 
 14 C       -3.7620    -4.2530    -0.2500 C.ar  1 <1>   0.1670 
 15 C        1.2970     6.6080     0.2450 C.ar  1 <1>   0.0000 
 16 C        2.3780     4.6640     0.0590 C.2   1 <1>  -0.3020 
 17 N       -2.6790    -4.4720    -0.9800 N.ar  1 <1>  -0.6200 
 18 C       -4.1480    -5.0460     0.8210 C.ar  1 <1>  -0.1500 
 19 C        2.6660     6.8540     0.2360 C.ar  1 <1>  -0.1520 
 20 C        0.4070     7.6830     0.3550 C.ar  1 <1>  -0.1500 
 21 N        3.3170     5.6530     0.1210 N.pl3 1 <1>   0.0330 
 22 C       -1.9510    -5.5190    -0.6280 C.ar  1 <1>   0.1600 
 23 C       -3.3810    -6.1340     1.1760 C.ar  1 <1>  -0.1500 
 24 C        3.1650     8.1550     0.3340 C.ar  1 <1>  -0.1500 
 25 C        0.8980     8.9640     0.4510 C.ar  1 <1>  -0.1500 
 26 C       -2.2510    -6.3680     0.4240 C.ar  1 <1>  -0.1500 
 27 C        2.2780     9.2010     0.4410 C.ar  1 <1>  -0.1500 
 28 H       -2.0510     2.7140    -0.8840 H     1 <1>   0.0800 
 29 H       -2.0100     2.5530     0.8510 H     1 <1>   0.0800 
 30 H       -4.1230     1.1900     0.6760 H     1 <1>   0.0800 
 31 H       -4.1430     1.3430    -1.0840 H     1 <1>   0.0800 
 32 H       -2.4900    -1.6390    -1.4660 H     1 <1>   0.0800 
 33 H       -1.9130    -1.8390     0.1790 H     1 <1>   0.0800 
 34 H        0.4640     2.6100     0.7980 H     1 <1>   0.0800 
 35 H        0.4250     2.7600    -0.9370 H     1 <1>   0.0800 
 36 H       -5.3070    -0.6070    -1.3630 H     1 <1>   0.0800 
 37 H       -4.0500    -1.8700     1.0710 H     1 <1>   0.0800 
 38 H       -0.7410     4.7660     1.0120 H     1 <1>   0.0800 
 39 H       -0.7810     4.9160    -0.7240 H     1 <1>   0.0800 
 40 H       -5.6720    -0.4200     1.4380 H     1 <1>   0.4000 
 41 H       -4.6070    -2.9570    -1.7090 H     1 <1>   0.0800 
 42 H       -5.6200    -3.2090    -0.3240 H     1 <1>   0.0800 
 43 H        2.6550     3.6290    -0.0340 H     1 <1>   0.1500 
 44 H       -5.0400    -4.8150     1.3740 H     1 <1>   0.1500 
 45 H       -0.6490     7.4890     0.3620 H     1 <1>   0.1500 
 46 H        4.3330     5.5310     0.0880 H     1 <1>   0.2700 
 47 H       -1.0650    -5.7100    -1.2090 H     1 <1>   0.1500 
 48 H       -3.6510    -6.7710     2.0010 H     1 <1>   0.1500 
 49 H        4.2260     8.3270     0.3240 H     1 <1>   0.1500 
 50 H        0.2250     9.7990     0.5360 H     1 <1>   0.1500 
 51 H       -1.6060    -7.1990     0.6460 H     1 <1>   0.1500 
 52 H        2.6360    10.2120     0.5170 H     1 <1>   0.1500 
@<TRIPOS>BOND
  1   1   2  2   
  2   2   3  am  
  3   2   4  1   
  4   3   5  1   
  5   3   6  1   
  6   4   7  1   
  7   4  28  1   
  8   4  29  1   
  9   5   8  1   
 10   5  30  1   
 11   5  31  1   
 12   6   9  1   
 13   6  32  1   
 14   6  33  1   
 15   7  10  1   
 16   7  34  1   
 17   7  35  1   
 18   8   9  1   
 19   8  11  1   
 20   8  36  1   
 21   9  12  1   
 22   9  37  1   
 23  10  13  1   
 24  10  38  1   
 25  10  39  1   
 26  11  40  1   
 27  12  14  1   
 28  12  41  1   
 29  12  42  1   
 30  13  15  1   
 31  13  16  2   
 32  14  17  ar  
 33  14  18  ar  
 34  15  19  ar  
 35  15  20  ar  
 36  16  21  1   
 37  16  43  1   
 38  17  22  ar  
 39  18  23  ar  
 40  18  44  1   
 41  19  21  1   
 42  19  24  ar  
 43  20  25  ar  
 44  20  45  1   
 45  21  46  1   
 46  22  26  ar  
 47  22  47  1   
 48  23  26  ar  
 49  23  48  1   
 50  24  27  ar  
 51  24  49  1   
 52  25  27  ar  
 53  25  50  1   
 54  26  51  1   
 55  27  52  1   
@<TRIPOS>SUBSTRUCTURE
  1 ****   2 GROUP 4 **** **** 0

# MOE 2024.06 (io_trps.svl 2023.06)
