@<TRIPOS>MOLECULE
NONAME
57 59 1 0 0 
SMALL
USER_CHARGES


@<TRIPOS>ATOM
  1 O        0.2480    -0.2930    -0.8410 O.3   1 <1>  -0.5600 
  2 C        1.5250    -0.8480    -1.0500 C.3   1 <1>   0.2000 
  3 C        0.1790     1.1000    -0.9090 C.3   1 <1>   0.1200 
  4 C        2.5610    -0.2540    -0.0570 C.3   1 <1>   0.5660 
  5 C        1.4290    -2.3730    -0.8770 C.3   1 <1>   0.1200 
  6 C        1.0730     1.7240     0.1760 C.3   1 <1>   0.3430 
  7 N        2.4910     1.2390     0.0700 N.4   1 <1>  -0.9590 
  8 C        3.9870    -0.5950    -0.4670 C.ar  1 <1>  -0.1440 
  9 O        1.3340    -2.6970     0.4740 O.3   1 <1>  -0.6800 
 10 C        3.3480     1.7200     1.1890 C.3   1 <1>   0.4870 
 11 C        4.7670    -1.3550     0.3930 C.ar  1 <1>  -0.1500 
 12 C        4.5340    -0.1500    -1.6660 C.ar  1 <1>  -0.1500 
 13 C        3.7010     3.1600     0.9200 C.ar  1 <1>  -0.1440 
 14 C        6.0800    -1.6580     0.0770 C.ar  1 <1>   0.0820 
 15 C        5.8500    -0.4420    -1.9830 C.ar  1 <1>  -0.1500 
 16 C        3.0160     4.2030     1.5020 C.ar  1 <1>   0.1600 
 17 C        4.7290     3.4870     0.0640 C.ar  1 <1>   0.1600 
 18 O        6.7640    -2.4180     0.9650 O.3   1 <1>  -0.3620 
 19 C        6.6360    -1.1770    -1.1130 C.ar  1 <1>   0.0820 
 20 N        3.2920     5.4520     1.2300 N.ar  1 <1>  -0.6200 
 21 N        5.0240     4.7280    -0.2220 N.ar  1 <1>  -0.6200 
 22 C        7.1870    -3.6900     0.5200 C.3   1 <1>   0.0400 
 23 O        7.9230    -1.3930    -1.4740 O.3   1 <1>  -0.3630 
 24 C        4.2820     5.6550     0.3730 C.ar  1 <1>   0.7200 
 25 C        8.9240    -0.8230    -0.6590 C.3   1 <1>   0.0400 
 26 N        4.5320     6.9520     0.1020 N.pl3 1 <1>  -0.8690 
 27 C        5.7840     7.4520    -0.4860 C.3   1 <1>   0.2090 
 28 C        5.6500     8.9550    -0.6910 C.3   1 <1>  -0.2400 
 29 H        1.8050    -0.6320    -2.0660 H     1 <1>   0.0800 
 30 H        0.4720     1.4200    -1.8950 H     1 <1>   0.0800 
 31 H       -0.8480     1.3820    -0.7490 H     1 <1>   0.0800 
 32 H        2.3660    -0.6930     0.9080 H     1 <1>   0.0800 
 33 H        2.3080    -2.8560    -1.2710 H     1 <1>   0.0800 
 34 H        0.5590    -2.7510    -1.3890 H     1 <1>   0.0800 
 35 H        0.6660     1.4600     1.1390 H     1 <1>   0.0800 
 36 H        1.0430     2.7980     0.0850 H     1 <1>   0.0800 
 37 H        2.8940     1.6120    -0.7950 H     1 <1>   0.4500 
 38 H        1.0340    -3.6250     0.5860 H     1 <1>   0.4000 
 39 H        2.8320     1.6220     2.1310 H     1 <1>   0.0800 
 40 H        4.2600     1.1450     1.2420 H     1 <1>   0.0800 
 41 H        4.3710    -1.7350     1.3190 H     1 <1>   0.1500 
 42 H        3.9590     0.4250    -2.3730 H     1 <1>   0.1500 
 43 H        6.2820    -0.1000    -2.9080 H     1 <1>   0.1500 
 44 H        2.2190     4.0200     2.2030 H     1 <1>   0.1500 
 45 H        5.3250     2.7200    -0.4040 H     1 <1>   0.1500 
 46 H        7.6140    -4.2130     1.3570 H     1 <1>   0.0800 
 47 H        7.9260    -3.5740    -0.2520 H     1 <1>   0.0800 
 48 H        6.3370    -4.2290     0.1440 H     1 <1>   0.0800 
 49 H        9.8770    -1.0050    -1.1220 H     1 <1>   0.0800 
 50 H        8.9000    -1.2780     0.3140 H     1 <1>   0.0800 
 51 H        8.7500     0.2360    -0.5820 H     1 <1>   0.0800 
 52 H        4.0370     7.5940     0.7180 H     1 <1>   0.4000 
 53 H        6.6060     7.2360     0.1760 H     1 <1>   0.0800 
 54 H        5.9620     6.9630    -1.4300 H     1 <1>   0.0800 
 55 H        5.4960     9.4500     0.2510 H     1 <1>   0.0800 
 56 H        4.8270     9.1660    -1.3500 H     1 <1>   0.0800 
 57 H        6.5500     9.3400    -1.1360 H     1 <1>   0.0800 
@<TRIPOS>BOND
  1   1   2  1   
  2   1   3  1   
  3   2   4  1   
  4   2   5  1   
  5   2  29  1   
  6   3   6  1   
  7   3  30  1   
  8   3  31  1   
  9   4   7  1   
 10   4   8  1   
 11   4  32  1   
 12   5   9  1   
 13   5  33  1   
 14   5  34  1   
 15   6   7  1   
 16   6  35  1   
 17   6  36  1   
 18   7  10  1   
 19   7  37  1   
 20   8  11  ar  
 21   8  12  ar  
 22   9  38  1   
 23  10  13  1   
 24  10  39  1   
 25  10  40  1   
 26  11  14  ar  
 27  11  41  1   
 28  12  15  ar  
 29  12  42  1   
 30  13  16  ar  
 31  13  17  ar  
 32  14  18  1   
 33  14  19  ar  
 34  15  19  ar  
 35  15  43  1   
 36  16  20  ar  
 37  16  44  1   
 38  17  21  ar  
 39  17  45  1   
 40  18  22  1   
 41  19  23  1   
 42  20  24  ar  
 43  21  24  ar  
 44  22  46  1   
 45  22  47  1   
 46  22  48  1   
 47  23  25  1   
 48  24  26  1   
 49  25  49  1   
 50  25  50  1   
 51  25  51  1   
 52  26  27  1   
 53  26  52  1   
 54  27  28  1   
 55  27  53  1   
 56  27  54  1   
 57  28  55  1   
 58  28  56  1   
 59  28  57  1   
@<TRIPOS>SUBSTRUCTURE
  1 ****  10 GROUP 4 **** **** 0

# MOE 2024.06 (io_trps.svl 2023.06)
