@<TRIPOS>MOLECULE
NONAME
51 52 1 0 0 
SMALL
USER_CHARGES


@<TRIPOS>ATOM
  1 S        0.7650    -0.1170     1.1150 S.o2  1 <1>   1.0900 
  2 O        0.0880    -1.1980     1.7880 O.2   1 <1>  -0.6500 
  3 O        2.0780    -0.2610     0.5250 O.2   1 <1>  -0.6500 
  4 C        0.7690     1.3450     2.1280 C.3   1 <1>  -0.0550 
  5 C       -0.3050     0.6670    -0.0680 C.3   1 <1>  -0.0550 
  6 C        0.7970     2.5640     1.1810 C.3   1 <1>  -0.0800 
  7 C        0.1170     2.1450    -0.1540 C.3   1 <1>  -0.1600 
  8 C        2.2550     3.0290     0.9780 C.3   1 <1>  -0.1600 
  9 C        2.3750     4.2500     0.0630 C.3   1 <1>   0.3430 
 10 N        3.8200     4.5770    -0.1430 N.4   1 <1>  -0.9590 
 11 C        4.1310     6.0590    -0.3050 C.3   1 <1>   0.5030 
 12 C        4.3070     3.7100    -1.2710 C.3   1 <1>   0.3430 
 13 C        5.6430     6.1950    -0.6290 C.3   1 <1>  -0.1600 
 14 C        3.2440     6.6670    -1.4340 C.3   1 <1>  -0.0220 
 15 C        3.9290     6.8450     1.0300 C.3   1 <1>  -0.0220 
 16 C        5.7980     3.8850    -1.5270 C.3   1 <1>  -0.1600 
 17 C        6.1330     5.3470    -1.8050 C.3   1 <1>  -0.1600 
 18 C        3.5830     8.0980    -1.8400 C.2   1 <1>  -0.2880 
 19 C        2.5760     6.7850     1.7290 C.2   1 <1>  -0.2880 
 20 C        2.7790     9.1510    -1.6680 C.2   1 <1>  -0.3000 
 21 C        1.6490     7.7450     1.6810 C.2   1 <1>  -0.3000 
 22 H        1.5910     1.3400     2.8170 H     1 <1>   0.0800 
 23 H       -0.1430     1.3710     2.6960 H     1 <1>   0.0800 
 24 H       -1.3180     0.6110     0.2860 H     1 <1>   0.0800 
 25 H       -0.2520     0.1830    -1.0250 H     1 <1>   0.0800 
 26 H        0.2370     3.3650     1.6380 H     1 <1>   0.0800 
 27 H       -0.7440     2.7600    -0.3590 H     1 <1>   0.0800 
 28 H        0.8000     2.2380    -0.9800 H     1 <1>   0.0800 
 29 H        2.8260     2.2130     0.5710 H     1 <1>   0.0800 
 30 H        2.6700     3.2790     1.9390 H     1 <1>   0.0800 
 31 H        1.8410     5.0730     0.4990 H     1 <1>   0.0800 
 32 H        1.9140     4.0460    -0.8890 H     1 <1>   0.0800 
 33 H        4.3300     4.2880     0.6990 H     1 <1>   0.4500 
 34 H        3.7700     3.9560    -2.1720 H     1 <1>   0.0800 
 35 H        4.1140     2.6720    -1.0480 H     1 <1>   0.0800 
 36 H        6.2170     5.9070     0.2350 H     1 <1>   0.0800 
 37 H        5.8940     7.2240    -0.8130 H     1 <1>   0.0800 
 38 H        2.2170     6.6590    -1.1160 H     1 <1>   0.0800 
 39 H        3.3100     6.0650    -2.3200 H     1 <1>   0.0800 
 40 H        4.1390     7.8820     0.8290 H     1 <1>   0.0800 
 41 H        4.6690     6.5350     1.7470 H     1 <1>   0.0800 
 42 H        6.0820     3.2860    -2.3760 H     1 <1>   0.0800 
 43 H        6.3560     3.5250    -0.6800 H     1 <1>   0.0800 
 44 H        7.1990     5.4600    -1.9180 H     1 <1>   0.0800 
 45 H        5.6720     5.6710    -2.7240 H     1 <1>   0.0800 
 46 H        4.5470     8.2010    -2.3110 H     1 <1>   0.1500 
 47 H        2.4310     5.8880     2.3080 H     1 <1>   0.1500 
 48 H        3.0340    10.1540    -1.9690 H     1 <1>   0.1500 
 49 H        1.8010     9.1130    -1.2210 H     1 <1>   0.1500 
 50 H        0.7020     7.6970     2.1940 H     1 <1>   0.1500 
 51 H        1.7530     8.6690     1.1370 H     1 <1>   0.1500 
@<TRIPOS>BOND
  1   1   2  2   
  2   1   3  2   
  3   1   4  1   
  4   1   5  1   
  5   4   6  1   
  6   4  22  1   
  7   4  23  1   
  8   5   7  1   
  9   5  24  1   
 10   5  25  1   
 11   6   7  1   
 12   6   8  1   
 13   6  26  1   
 14   7  27  1   
 15   7  28  1   
 16   8   9  1   
 17   8  29  1   
 18   8  30  1   
 19   9  10  1   
 20   9  31  1   
 21   9  32  1   
 22  10  11  1   
 23  10  12  1   
 24  10  33  1   
 25  11  13  1   
 26  11  14  1   
 27  11  15  1   
 28  12  16  1   
 29  12  34  1   
 30  12  35  1   
 31  13  17  1   
 32  13  36  1   
 33  13  37  1   
 34  14  18  1   
 35  14  38  1   
 36  14  39  1   
 37  15  19  1   
 38  15  40  1   
 39  15  41  1   
 40  16  17  1   
 41  16  42  1   
 42  16  43  1   
 43  17  44  1   
 44  17  45  1   
 45  18  20  2   
 46  18  46  1   
 47  19  21  2   
 48  19  47  1   
 49  20  48  1   
 50  20  49  1   
 51  21  50  1   
 52  21  51  1   
@<TRIPOS>SUBSTRUCTURE
  1 ****   9 GROUP 4 **** **** 0

# MOE 2024.06 (io_trps.svl 2023.06)
