@<TRIPOS>MOLECULE
NONAME
51 53 1 0 0 
SMALL
USER_CHARGES


@<TRIPOS>ATOM
  1 O        0.5350    -0.9840     1.7240 O.3   1 <1>  -0.6800 
  2 C        0.7400    -2.1670     1.0430 C.3   1 <1>   0.2000 
  3 C        1.9070    -2.0560     0.0470 C.3   1 <1>   0.0000 
  4 C       -0.4800    -2.5590     0.2140 C.3   1 <1>  -0.1600 
  5 C        3.2320    -2.1970     0.8230 C.3   1 <1>   0.3430 
  6 C        1.8790    -0.7440    -0.7990 C.3   1 <1>  -0.1600 
  7 C        1.6140    -3.2570    -0.8680 C.3   1 <1>  -0.1600 
  8 C        0.0870    -3.2790    -1.0190 C.3   1 <1>  -0.1600 
  9 N        4.3670    -1.6370     0.0280 N.4   1 <1>  -0.9590 
 10 C        2.8080     0.3310    -0.2120 C.3   1 <1>  -0.1600 
 11 C        4.2620    -0.1420    -0.0690 C.3   1 <1>   0.3430 
 12 C        5.6770    -2.0820     0.5720 C.3   1 <1>   0.3430 
 13 C        6.7970    -1.8060    -0.4340 C.3   1 <1>  -0.1600 
 14 C        8.1320    -2.3570     0.0850 C.3   1 <1>  -0.1600 
 15 C        9.2790    -2.1030    -0.9010 C.3   1 <1>  -0.0170 
 16 C       10.5760    -2.6640    -0.3430 C.ar  1 <1>  -0.1440 
 17 C       10.9490    -3.9710    -0.6170 C.ar  1 <1>  -0.1500 
 18 C       11.3960    -1.8750     0.4500 C.ar  1 <1>  -0.1500 
 19 C       12.1270    -4.4840    -0.1040 C.ar  1 <1>  -0.1500 
 20 C       12.5750    -2.3880     0.9630 C.ar  1 <1>  -0.1500 
 21 C       12.9420    -3.6930     0.6870 C.ar  1 <1>  -0.1500 
 22 H       -0.3180    -1.0140     2.2030 H     1 <1>   0.4000 
 23 H        0.9360    -2.9410     1.7680 H     1 <1>   0.0800 
 24 H       -1.1290    -3.2100     0.7740 H     1 <1>   0.0800 
 25 H       -1.0290    -1.6870    -0.1000 H     1 <1>   0.0800 
 26 H        3.4040    -3.2350     1.0530 H     1 <1>   0.0800 
 27 H        3.1490    -1.6540     1.7510 H     1 <1>   0.0800 
 28 H        2.2020    -0.9420    -1.8060 H     1 <1>   0.0800 
 29 H        0.8780    -0.3530    -0.8660 H     1 <1>   0.0800 
 30 H        2.1070    -3.2020    -1.8230 H     1 <1>   0.0800 
 31 H        1.9190    -4.1690    -0.3830 H     1 <1>   0.0800 
 32 H       -0.2800    -4.2900    -1.0900 H     1 <1>   0.0800 
 33 H       -0.2030    -2.7470    -1.9100 H     1 <1>   0.0800 
 34 H        4.2610    -2.0120    -0.9230 H     1 <1>   0.4500 
 35 H        2.4430     0.6220     0.7580 H     1 <1>   0.0800 
 36 H        2.7830     1.2140    -0.8270 H     1 <1>   0.0800 
 37 H        4.6890     0.3150     0.8100 H     1 <1>   0.0800 
 38 H        4.8270     0.1940    -0.9230 H     1 <1>   0.0800 
 39 H        5.8840    -1.5750     1.5010 H     1 <1>   0.0800 
 40 H        5.6440    -3.1420     0.7690 H     1 <1>   0.0800 
 41 H        6.5660    -2.2810    -1.3720 H     1 <1>   0.0800 
 42 H        6.9010    -0.7480    -0.5940 H     1 <1>   0.0800 
 43 H        8.3790    -1.8950     1.0270 H     1 <1>   0.0800 
 44 H        8.0520    -3.4190     0.2520 H     1 <1>   0.0800 
 45 H        9.3930    -1.0460    -1.0740 H     1 <1>   0.0800 
 46 H        9.0670    -2.5690    -1.8470 H     1 <1>   0.0800 
 47 H       10.3260    -4.5960    -1.2310 H     1 <1>   0.1500 
 48 H       11.1240    -0.8590     0.6720 H     1 <1>   0.1500 
 49 H       12.4110    -5.4990    -0.3210 H     1 <1>   0.1500 
 50 H       13.2070    -1.7710     1.5780 H     1 <1>   0.1500 
 51 H       13.8580    -4.0920     1.0860 H     1 <1>   0.1500 
@<TRIPOS>BOND
  1   1   2  1   
  2   1  22  1   
  3   2   3  1   
  4   2   4  1   
  5   2  23  1   
  6   3   5  1   
  7   3   6  1   
  8   3   7  1   
  9   4   8  1   
 10   4  24  1   
 11   4  25  1   
 12   5   9  1   
 13   5  26  1   
 14   5  27  1   
 15   6  10  1   
 16   6  28  1   
 17   6  29  1   
 18   7   8  1   
 19   7  30  1   
 20   7  31  1   
 21   8  32  1   
 22   8  33  1   
 23   9  11  1   
 24   9  12  1   
 25   9  34  1   
 26  10  11  1   
 27  10  35  1   
 28  10  36  1   
 29  11  37  1   
 30  11  38  1   
 31  12  13  1   
 32  12  39  1   
 33  12  40  1   
 34  13  14  1   
 35  13  41  1   
 36  13  42  1   
 37  14  15  1   
 38  14  43  1   
 39  14  44  1   
 40  15  16  1   
 41  15  45  1   
 42  15  46  1   
 43  16  17  ar  
 44  16  18  ar  
 45  17  19  ar  
 46  17  47  1   
 47  18  20  ar  
 48  18  48  1   
 49  19  21  ar  
 50  19  49  1   
 51  20  21  ar  
 52  20  50  1   
 53  21  51  1   
@<TRIPOS>SUBSTRUCTURE
  1 ****  12 GROUP 4 **** **** 0

# MOE 2024.06 (io_trps.svl 2023.06)
