@<TRIPOS>MOLECULE
NONAME
44 45 1 0 0 
SMALL
USER_CHARGES


@<TRIPOS>ATOM
  1 S        0.4400    -0.0410     0.5140 S.o2  1 <1>   1.3330 
  2 O       -0.4410     0.0030     1.6590 O.2   1 <1>  -0.6500 
  3 O        1.8710     0.0180     0.7100 O.2   1 <1>  -0.6500 
  4 N        0.0900    -1.4370    -0.3840 N.am  1 <1>  -0.8490 
  5 C       -0.0500     1.2810    -0.5910 C.3   1 <1>  -0.0550 
  6 C        1.1570    -1.8120    -1.3180 C.3   1 <1>   0.1160 
  7 C       -0.2450    -2.5780     0.4730 C.3   1 <1>   0.1160 
  8 C        0.0610     2.6740     0.0530 C.3   1 <1>  -0.0800 
  9 C       -0.4790     3.7800    -0.8450 C.3   1 <1>   0.2000 
 10 C        1.4940     3.1190     0.3550 C.3   1 <1>   0.1400 
 11 O       -1.8590     3.8420    -0.7480 O.3   1 <1>  -0.6800 
 12 C        0.1870     5.0590    -0.3450 C.3   1 <1>   0.1400 
 13 N        1.4680     4.6030     0.2600 N.am  1 <1>  -0.6600 
 14 C        2.6240     5.3520     0.2840 C.2   1 <1>   0.5440 
 15 O        3.6920     4.7730     0.2470 O.2   1 <1>  -0.5700 
 16 C        2.5990     6.7890     0.3360 C.ar  1 <1>   0.0860 
 17 C        1.6870     7.4990     1.0970 C.ar  1 <1>   0.1600 
 18 C        3.4990     7.5660    -0.3710 C.ar  1 <1>   0.1600 
 19 N        1.6350     8.8080     1.1280 N.ar  1 <1>  -0.6200 
 20 N        3.4800     8.8770    -0.3630 N.ar  1 <1>  -0.6200 
 21 C        2.5380     9.4390     0.3890 C.ar  1 <1>   0.7200 
 22 N        2.4590    10.7830     0.4360 N.pl3 1 <1>  -0.8690 
 23 C        3.3500    11.7700    -0.2230 C.3   1 <1>   0.1290 
 24 H        0.5470     1.2480    -1.4810 H     1 <1>   0.0800 
 25 H       -1.0720     1.1210    -0.8770 H     1 <1>   0.0800 
 26 H        0.8450    -2.6490    -1.9200 H     1 <1>   0.0800 
 27 H        2.0520    -2.0810    -0.7800 H     1 <1>   0.0800 
 28 H        1.3840    -0.9890    -1.9740 H     1 <1>   0.0800 
 29 H       -0.4770    -3.4410    -0.1270 H     1 <1>   0.0800 
 30 H       -1.1080    -2.3470     1.0750 H     1 <1>   0.0800 
 31 H        0.5800    -2.8110     1.1260 H     1 <1>   0.0800 
 32 H       -0.4780     2.6790     0.9860 H     1 <1>   0.0800 
 33 H       -0.2180     3.6130    -1.8770 H     1 <1>   0.0800 
 34 H        2.1840     2.7300    -0.3760 H     1 <1>   0.0800 
 35 H        1.8110     2.8070     1.3370 H     1 <1>   0.0800 
 36 H       -2.1390     3.9110     0.1860 H     1 <1>   0.4000 
 37 H       -0.4170     5.5280     0.4120 H     1 <1>   0.0800 
 38 H        0.3660     5.7410    -1.1580 H     1 <1>   0.0800 
 39 H        0.9810     6.9570     1.7010 H     1 <1>   0.1500 
 40 H        4.2540     7.0740    -0.9610 H     1 <1>   0.1500 
 41 H        1.7310    11.1390     1.0550 H     1 <1>   0.4000 
 42 H        4.0660    11.2770    -0.8580 H     1 <1>   0.0800 
 43 H        3.8810    12.3330     0.5240 H     1 <1>   0.0800 
 44 H        2.7630    12.4430    -0.8240 H     1 <1>   0.0800 
@<TRIPOS>BOND
  1   1   2  2   
  2   1   3  2   
  3   1   4  am  
  4   1   5  1   
  5   4   6  1   
  6   4   7  1   
  7   5   8  1   
  8   5  24  1   
  9   5  25  1   
 10   6  26  1   
 11   6  27  1   
 12   6  28  1   
 13   7  29  1   
 14   7  30  1   
 15   7  31  1   
 16   8   9  1   
 17   8  10  1   
 18   8  32  1   
 19   9  11  1   
 20   9  12  1   
 21   9  33  1   
 22  10  13  1   
 23  10  34  1   
 24  10  35  1   
 25  11  36  1   
 26  12  13  1   
 27  12  37  1   
 28  12  38  1   
 29  13  14  am  
 30  14  15  2   
 31  14  16  1   
 32  16  17  ar  
 33  16  18  ar  
 34  17  19  ar  
 35  17  39  1   
 36  18  20  ar  
 37  18  40  1   
 38  19  21  ar  
 39  20  21  ar  
 40  21  22  1   
 41  22  23  1   
 42  22  41  1   
 43  23  42  1   
 44  23  43  1   
 45  23  44  1   
@<TRIPOS>SUBSTRUCTURE
  1 ****  13 GROUP 4 **** **** 0

# MOE 2024.06 (io_trps.svl 2023.06)
