@<TRIPOS>MOLECULE
NONAME
60 62 1 0 0 
SMALL
USER_CHARGES


@<TRIPOS>ATOM
  1 O        0.3280     0.0530    -0.8110 O.3   1 <1>  -0.5600 
  2 C        1.5470    -0.5700    -1.1380 C.3   1 <1>   0.2000 
  3 C        0.3770     1.4440    -0.7070 C.3   1 <1>   0.1200 
  4 C        2.6620    -0.1940    -0.1220 C.3   1 <1>   0.5660 
  5 C        1.3300    -2.0920    -1.1570 C.3   1 <1>   0.1200 
  6 C        1.3460     1.8520     0.4150 C.3   1 <1>   0.3430 
  7 N        2.7110     1.2660     0.2070 N.4   1 <1>  -0.9590 
  8 C        4.0390    -0.5900    -0.6400 C.ar  1 <1>  -0.1430 
  9 O        1.2480    -2.5830     0.1450 O.3   1 <1>  -0.6800 
 10 C        3.6100     1.5320     1.3560 C.3   1 <1>   0.5240 
 11 C        4.7970    -1.4920     0.0910 C.ar  1 <1>  -0.1500 
 12 C        4.5580    -0.0660    -1.8190 C.ar  1 <1>  -0.1500 
 13 C        3.9340     3.0030     1.3090 C.2   1 <1>  -0.1810 
 14 C        6.0620    -1.8620    -0.3320 C.ar  1 <1>   0.0820 
 15 C        5.8260    -0.4250    -2.2430 C.ar  1 <1>  -0.1500 
 16 C        4.8620     3.6580     0.5730 C.2   1 <1>  -0.3320 
 17 C        3.2890     3.9940     2.0380 C.2   1 <1>   0.1390 
 18 O        6.7230    -2.7660     0.4280 O.3   1 <1>  -0.3620 
 19 C        6.5930    -1.3040    -1.4990 C.ar  1 <1>   0.0820 
 20 N        4.7280     4.9760     0.8670 N.pl3 1 <1>   0.3140 
 21 C        5.8970     3.1040    -0.3980 C.3   1 <1>  -0.0600 
 22 N        3.7460     5.1710     1.7650 N.2   1 <1>  -0.7070 
 23 C        6.9900    -4.0190    -0.1660 C.3   1 <1>   0.0400 
 24 O        7.8380    -1.5780    -1.9580 O.3   1 <1>  -0.3630 
 25 C        5.5090     6.1150     0.3360 C.3   1 <1>   0.0960 
 26 C        8.9260    -1.2090    -1.1370 C.3   1 <1>   0.0400 
 27 C        4.9030     6.6340    -0.9760 C.3   1 <1>  -0.1600 
 28 C        5.7180     7.8030    -1.5410 C.3   1 <1>  -0.2400 
 29 H        1.8130    -0.2490    -2.1290 H     1 <1>   0.0800 
 30 H        0.6740     1.8590    -1.6550 H     1 <1>   0.0800 
 31 H       -0.6170     1.7890    -0.4790 H     1 <1>   0.0800 
 32 H        2.4650    -0.7440     0.7840 H     1 <1>   0.0800 
 33 H        2.1550    -2.5860    -1.6420 H     1 <1>   0.0800 
 34 H        0.4190    -2.3300    -1.6780 H     1 <1>   0.0800 
 35 H        0.9380     1.5080     1.3520 H     1 <1>   0.0800 
 36 H        1.4100     2.9270     0.4550 H     1 <1>   0.0800 
 37 H        3.1530     1.7440    -0.5840 H     1 <1>   0.4500 
 38 H        0.8790    -3.4920     0.1480 H     1 <1>   0.4000 
 39 H        3.1370     1.2710     2.2880 H     1 <1>   0.0800 
 40 H        4.5250     0.9700     1.2590 H     1 <1>   0.0800 
 41 H        4.4190    -1.9350     0.9980 H     1 <1>   0.1500 
 42 H        3.9960     0.6230    -2.4270 H     1 <1>   0.1500 
 43 H        6.2360    -0.0240    -3.1540 H     1 <1>   0.1500 
 44 H        2.4970     3.8340     2.7510 H     1 <1>   0.1500 
 45 H        5.8820     2.0300    -0.4080 H     1 <1>   0.0800 
 46 H        6.8840     3.4150    -0.1010 H     1 <1>   0.0800 
 47 H        5.7100     3.4620    -1.3940 H     1 <1>   0.0800 
 48 H        7.4360    -4.6550     0.5780 H     1 <1>   0.0800 
 49 H        7.6690    -3.8890    -0.9890 H     1 <1>   0.0800 
 50 H        6.0650    -4.4460    -0.5090 H     1 <1>   0.0800 
 51 H        5.5030     6.8960     1.0750 H     1 <1>   0.0800 
 52 H        6.5240     5.8010     0.1850 H     1 <1>   0.0800 
 53 H        9.8340    -1.3820    -1.6860 H     1 <1>   0.0800 
 54 H        8.9220    -1.8060    -0.2440 H     1 <1>   0.0800 
 55 H        8.8380    -0.1660    -0.8900 H     1 <1>   0.0800 
 56 H        4.8760     5.8430    -1.7040 H     1 <1>   0.0800 
 57 H        3.8950     6.9650    -0.7910 H     1 <1>   0.0800 
 58 H        6.7280     7.4980    -1.7510 H     1 <1>   0.0800 
 59 H        5.7410     8.6200    -0.8390 H     1 <1>   0.0800 
 60 H        5.2720     8.1550    -2.4550 H     1 <1>   0.0800 
@<TRIPOS>BOND
  1   1   2  1   
  2   1   3  1   
  3   2   4  1   
  4   2   5  1   
  5   2  29  1   
  6   3   6  1   
  7   3  30  1   
  8   3  31  1   
  9   4   7  1   
 10   4   8  1   
 11   4  32  1   
 12   5   9  1   
 13   5  33  1   
 14   5  34  1   
 15   6   7  1   
 16   6  35  1   
 17   6  36  1   
 18   7  10  1   
 19   7  37  1   
 20   8  11  ar  
 21   8  12  ar  
 22   9  38  1   
 23  10  13  1   
 24  10  39  1   
 25  10  40  1   
 26  11  14  ar  
 27  11  41  1   
 28  12  15  ar  
 29  12  42  1   
 30  13  16  2   
 31  13  17  1   
 32  14  18  1   
 33  14  19  ar  
 34  15  19  ar  
 35  15  43  1   
 36  16  20  1   
 37  16  21  1   
 38  17  22  2   
 39  17  44  1   
 40  18  23  1   
 41  19  24  1   
 42  20  22  1   
 43  20  25  1   
 44  21  45  1   
 45  21  46  1   
 46  21  47  1   
 47  23  48  1   
 48  23  49  1   
 49  23  50  1   
 50  24  26  1   
 51  25  27  1   
 52  25  51  1   
 53  25  52  1   
 54  26  53  1   
 55  26  54  1   
 56  26  55  1   
 57  27  28  1   
 58  27  56  1   
 59  27  57  1   
 60  28  58  1   
 61  28  59  1   
 62  28  60  1   
@<TRIPOS>SUBSTRUCTURE
  1 ****   7 GROUP 4 **** **** 0

# MOE 2024.06 (io_trps.svl 2023.06)
