@<TRIPOS>MOLECULE
NONAME
40 41 1 0 0 
SMALL
USER_CHARGES


@<TRIPOS>ATOM
  1 O        1.8050    -1.3730    -1.7400 O.2   1 <1>  -0.5700 
  2 C        2.0660    -1.1680    -0.5800 C.2   1 <1>   0.5690 
  3 N        1.1270    -1.2240     0.4000 N.am  1 <1>  -0.7300 
  4 C        3.4950    -0.8350    -0.2030 C.3   1 <1>  -0.0990 
  5 C       -0.3080    -1.5370     0.1890 C.3   1 <1>   0.0600 
  6 C        3.8460     0.6300    -0.5130 C.3   1 <1>  -0.0800 
  7 C        5.2970     0.9800    -0.1730 C.3   1 <1>   0.2090 
  8 C        3.0110     1.6390     0.2730 C.3   1 <1>  -0.1600 
  9 N        5.2720     2.3420     0.4190 N.pl3 1 <1>  -0.8210 
 10 C        3.8930     2.8740     0.3370 C.3   1 <1>   0.2090 
 11 C        6.2940     3.2070     0.0250 C.2   1 <1>   0.5990 
 12 N        6.1240     4.4820    -0.1080 N.2   1 <1>  -0.7070 
 13 N        7.5290     2.7360    -0.2180 N.2   1 <1>  -0.5650 
 14 N        7.3450     4.8900    -0.4620 N.pl3 1 <1>   0.3140 
 15 C        8.1480     3.8210    -0.5170 C.2   1 <1>   0.2490 
 16 C        7.6740     6.3040    -0.7280 C.3   1 <1>   0.0960 
 17 O        9.4580     3.9160    -0.8510 O.3   1 <1>  -0.3430 
 18 C        8.0900     7.0250     0.5600 C.3   1 <1>  -0.2400 
 19 C       10.2350     2.7370    -0.8410 C.3   1 <1>   0.0400 
 20 H        1.4050    -1.0320     1.3640 H     1 <1>   0.3700 
 21 H        4.1440    -1.4820    -0.7650 H     1 <1>   0.0800 
 22 H        3.6500    -1.0400     0.8400 H     1 <1>   0.0800 
 23 H       -0.5010    -1.7270    -0.8540 H     1 <1>   0.0800 
 24 H       -0.9130    -0.7060     0.5060 H     1 <1>   0.0800 
 25 H       -0.5780    -2.4110     0.7550 H     1 <1>   0.0800 
 26 H        3.7050     0.8100    -1.5660 H     1 <1>   0.0800 
 27 H        5.9080     0.9450    -1.0590 H     1 <1>   0.0800 
 28 H        5.7010     0.3010     0.5590 H     1 <1>   0.0800 
 29 H        2.8390     1.2930     1.2770 H     1 <1>   0.0800 
 30 H        2.0680     1.8480    -0.1990 H     1 <1>   0.0800 
 31 H        3.6720     3.4830     1.1970 H     1 <1>   0.0800 
 32 H        3.7790     3.4600    -0.5600 H     1 <1>   0.0800 
 33 H        6.8050     6.7760    -1.1500 H     1 <1>   0.0800 
 34 H        8.4710     6.3410    -1.4480 H     1 <1>   0.0800 
 35 H        7.2900     6.9890     1.2790 H     1 <1>   0.0800 
 36 H        8.3130     8.0550     0.3470 H     1 <1>   0.0800 
 37 H        8.9670     6.5630     0.9800 H     1 <1>   0.0800 
 38 H       11.2410     2.9910    -1.1210 H     1 <1>   0.0800 
 39 H        9.8170     2.0400    -1.5460 H     1 <1>   0.0800 
 40 H       10.2190     2.3200     0.1510 H     1 <1>   0.0800 
@<TRIPOS>BOND
  1   1   2  2   
  2   2   3  am  
  3   2   4  1   
  4   3   5  1   
  5   3  20  1   
  6   4   6  1   
  7   4  21  1   
  8   4  22  1   
  9   5  23  1   
 10   5  24  1   
 11   5  25  1   
 12   6   7  1   
 13   6   8  1   
 14   6  26  1   
 15   7   9  1   
 16   7  27  1   
 17   7  28  1   
 18   8  10  1   
 19   8  29  1   
 20   8  30  1   
 21   9  10  1   
 22   9  11  1   
 23  10  31  1   
 24  10  32  1   
 25  11  12  2   
 26  11  13  1   
 27  12  14  1   
 28  13  15  2   
 29  14  15  1   
 30  14  16  1   
 31  15  17  1   
 32  16  18  1   
 33  16  33  1   
 34  16  34  1   
 35  17  19  1   
 36  18  35  1   
 37  18  36  1   
 38  18  37  1   
 39  19  38  1   
 40  19  39  1   
 41  19  40  1   
@<TRIPOS>SUBSTRUCTURE
  1 ****   9 GROUP 4 **** **** 0

# MOE 2024.06 (io_trps.svl 2023.06)
