@<TRIPOS>MOLECULE
NONAME
46 49 1 0 0 
SMALL
USER_CHARGES


@<TRIPOS>ATOM
  1 S       -0.6430     0.0880     1.1060 S.3   1 <1>  -0.0800 
  2 C       -2.0100     0.2510     0.0080 C.2   1 <1>  -0.0450 
  3 C       -0.1280     1.7600     0.8920 C.2   1 <1>  -0.0450 
  4 C       -2.8580    -0.8960    -0.2020 C.2   1 <1>   0.7150 
  5 C       -2.0130     1.5210    -0.4770 C.2   1 <1>  -0.1500 
  6 C        1.0150     2.2690     1.5920 C.2   1 <1>   0.5940 
  7 C       -0.9790     2.3540     0.0150 C.2   1 <1>  -0.1500 
  8 O       -2.3500    -1.9940    -0.3430 O.2   1 <1>  -0.5700 
  9 N       -4.2360    -0.7930    -0.2430 N.am  1 <1>  -0.6600 
 10 O        1.3760     3.4140     1.4930 O.2   1 <1>  -0.5700 
 11 C        1.8210     1.3650     2.5020 C.3   1 <1>  -0.1790 
 12 C       -4.9900     0.3400     0.3870 C.3   1 <1>   0.1400 
 13 C       -5.0840    -1.9820    -0.5550 C.3   1 <1>   0.1400 
 14 C       -6.1790     0.7860    -0.4860 C.3   1 <1>   0.1430 
 15 C       -6.2890    -1.5780    -1.4150 C.3   1 <1>  -0.1600 
 16 C       -6.9090     1.8990     0.2430 C.ar  1 <1>   0.1670 
 17 C       -7.0870    -0.4260    -0.7790 C.3   1 <1>  -0.1600 
 18 C       -5.7200     1.4890    -1.7920 C.3   1 <1>  -0.1600 
 19 N       -7.6550     1.7470     1.3150 N.ar  1 <1>  -0.6200 
 20 C       -6.6840     3.1120    -0.3360 C.ar  1 <1>  -0.1430 
 21 C       -5.7730     3.0060    -1.5330 C.3   1 <1>  -0.0170 
 22 C       -8.1850     2.8710     1.7770 C.ar  1 <1>   0.4770 
 23 C       -7.2810     4.2110     0.2280 C.ar  1 <1>   0.1600 
 24 N       -8.0430     4.0990     1.2960 N.ar  1 <1>  -0.6200 
 25 C       -9.0600     2.7380     3.0000 C.3   1 <1>  -0.0970 
 26 H       -2.7270     1.8960    -1.1860 H     1 <1>   0.1500 
 27 H       -0.8880     3.3820    -0.2960 H     1 <1>   0.1500 
 28 H        1.2010     1.0070     3.3020 H     1 <1>   0.0800 
 29 H        2.6470     1.9100     2.9210 H     1 <1>   0.0800 
 30 H        2.2050     0.5320     1.9430 H     1 <1>   0.0800 
 31 H       -4.3500     1.1800     0.5780 H     1 <1>   0.0800 
 32 H       -5.3690     0.0060     1.3380 H     1 <1>   0.0800 
 33 H       -5.4250    -2.4160     0.3690 H     1 <1>   0.0800 
 34 H       -4.5120    -2.7270    -1.0810 H     1 <1>   0.0800 
 35 H       -6.9320    -2.4320    -1.5380 H     1 <1>   0.0800 
 36 H       -5.9400    -1.2940    -2.3920 H     1 <1>   0.0800 
 37 H       -7.9000    -0.1360    -1.4210 H     1 <1>   0.0800 
 38 H       -7.5170    -0.7710     0.1460 H     1 <1>   0.0800 
 39 H       -6.4190     1.2680    -2.5790 H     1 <1>   0.0800 
 40 H       -4.7470     1.1660    -2.1160 H     1 <1>   0.0800 
 41 H       -6.1670     3.5380    -2.3810 H     1 <1>   0.0800 
 42 H       -4.7990     3.3870    -1.2810 H     1 <1>   0.0800 
 43 H       -7.1360     5.1910    -0.1940 H     1 <1>   0.1500 
 44 H       -8.7860     1.8640     3.5600 H     1 <1>   0.0800 
 45 H      -10.0850     2.6550     2.6930 H     1 <1>   0.0800 
 46 H       -8.9480     3.6030     3.6260 H     1 <1>   0.0800 
@<TRIPOS>BOND
  1   1   2  1   
  2   1   3  1   
  3   2   4  1   
  4   2   5  2   
  5   3   6  1   
  6   3   7  2   
  7   4   8  2   
  8   4   9  am  
  9   5   7  1   
 10   5  26  1   
 11   6  10  2   
 12   6  11  1   
 13   7  27  1   
 14   9  12  1   
 15   9  13  1   
 16  11  28  1   
 17  11  29  1   
 18  11  30  1   
 19  12  14  1   
 20  12  31  1   
 21  12  32  1   
 22  13  15  1   
 23  13  33  1   
 24  13  34  1   
 25  14  16  1   
 26  14  17  1   
 27  14  18  1   
 28  15  17  1   
 29  15  35  1   
 30  15  36  1   
 31  16  19  ar  
 32  16  20  ar  
 33  17  37  1   
 34  17  38  1   
 35  18  21  1   
 36  18  39  1   
 37  18  40  1   
 38  19  22  ar  
 39  20  21  1   
 40  20  23  ar  
 41  21  41  1   
 42  21  42  1   
 43  22  24  ar  
 44  22  25  1   
 45  23  24  ar  
 46  23  43  1   
 47  25  44  1   
 48  25  45  1   
 49  25  46  1   
@<TRIPOS>SUBSTRUCTURE
  1 ****  12 GROUP 4 **** **** 0

# MOE 2024.06 (io_trps.svl 2023.06)
