@<TRIPOS>MOLECULE
NONAME
43 44 1 0 0 
SMALL
USER_CHARGES


@<TRIPOS>ATOM
  1 CL       0.4350     0.4990     2.4190 Cl    1 <1>  -0.1770 
  2 C        1.3790     1.0650     1.0640 C.ar  1 <1>   0.1770 
  3 C        2.0540     0.1500     0.2740 C.ar  1 <1>  -0.1440 
  4 C        1.4200     2.4230     0.8010 C.ar  1 <1>  -0.1500 
  5 C        2.7760     0.6390    -0.8030 C.ar  1 <1>   0.1770 
  6 C        2.0150    -1.3310     0.5820 C.3   1 <1>   0.4870 
  7 C        2.1530     2.8890    -0.2800 C.ar  1 <1>  -0.1500 
  8 CL       3.6240    -0.4780    -1.8440 Cl    1 <1>  -0.1770 
  9 C        2.8330     1.9920    -1.0870 C.ar  1 <1>  -0.1500 
 10 N        1.1780    -2.0350    -0.4310 N.4   1 <1>  -0.9590 
 11 C       -0.2500    -1.5640    -0.4960 C.3   1 <1>   0.3430 
 12 C        1.1630    -3.5140    -0.2270 C.3   1 <1>   0.3430 
 13 C       -1.1290    -2.7900    -0.2250 C.3   1 <1>   0.2000 
 14 C       -0.2460    -3.9750    -0.6090 C.3   1 <1>  -0.0800 
 15 O       -1.4410    -2.8490     1.1290 O.3   1 <1>  -0.6800 
 16 C       -0.6580    -5.3340     0.0070 C.3   1 <1>  -0.0550 
 17 S        0.5020    -6.6360    -0.4010 S.o2  1 <1>   1.3330 
 18 O        0.5170    -6.7740    -1.8370 O.2   1 <1>  -0.6500 
 19 O        1.7250    -6.2860     0.2880 O.2   1 <1>  -0.6500 
 20 N       -0.1690    -8.0220     0.3030 N.am  1 <1>  -0.8490 
 21 C        0.8510    -9.0010     0.6940 C.3   1 <1>   0.1160 
 22 C       -1.1820    -8.6730    -0.5380 C.3   1 <1>   0.1160 
 23 H        0.8860     3.1100     1.4350 H     1 <1>   0.1500 
 24 H        1.6170    -1.4960     1.5700 H     1 <1>   0.0800 
 25 H        3.0200    -1.7220     0.5590 H     1 <1>   0.0800 
 26 H        2.1930     3.9460    -0.4910 H     1 <1>   0.1500 
 27 H        3.4050     2.3410    -1.9300 H     1 <1>   0.1500 
 28 H        1.6180    -1.8460    -1.3460 H     1 <1>   0.4500 
 29 H       -0.4590    -0.7850     0.2200 H     1 <1>   0.0800 
 30 H       -0.4570    -1.1920    -1.4860 H     1 <1>   0.0800 
 31 H        1.9150    -4.0070    -0.8240 H     1 <1>   0.0800 
 32 H        1.3420    -3.7460     0.8110 H     1 <1>   0.0800 
 33 H       -2.0540    -2.7600    -0.7760 H     1 <1>   0.0800 
 34 H       -0.2670    -4.0780    -1.6810 H     1 <1>   0.0800 
 35 H       -0.6640    -2.7830     1.7160 H     1 <1>   0.4000 
 36 H       -1.6320    -5.5990    -0.3550 H     1 <1>   0.0800 
 37 H       -0.7200    -5.2580     1.0750 H     1 <1>   0.0800 
 38 H        0.3900    -9.8540     1.1630 H     1 <1>   0.0800 
 39 H        1.5350    -8.5610     1.4000 H     1 <1>   0.0800 
 40 H        1.4070    -9.3290    -0.1690 H     1 <1>   0.0800 
 41 H       -1.6290    -9.4960    -0.0080 H     1 <1>   0.0800 
 42 H       -0.7360    -9.0430    -1.4470 H     1 <1>   0.0800 
 43 H       -1.9590    -7.9740    -0.7940 H     1 <1>   0.0800 
@<TRIPOS>BOND
  1   1   2  1   
  2   2   3  ar  
  3   2   4  ar  
  4   3   5  ar  
  5   3   6  1   
  6   4   7  ar  
  7   4  23  1   
  8   5   8  1   
  9   5   9  ar  
 10   6  10  1   
 11   6  24  1   
 12   6  25  1   
 13   7   9  ar  
 14   7  26  1   
 15   9  27  1   
 16  10  11  1   
 17  10  12  1   
 18  10  28  1   
 19  11  13  1   
 20  11  29  1   
 21  11  30  1   
 22  12  14  1   
 23  12  31  1   
 24  12  32  1   
 25  13  14  1   
 26  13  15  1   
 27  13  33  1   
 28  14  16  1   
 29  14  34  1   
 30  15  35  1   
 31  16  17  1   
 32  16  36  1   
 33  16  37  1   
 34  17  18  2   
 35  17  19  2   
 36  17  20  am  
 37  20  21  1   
 38  20  22  1   
 39  21  38  1   
 40  21  39  1   
 41  21  40  1   
 42  22  41  1   
 43  22  42  1   
 44  22  43  1   
@<TRIPOS>SUBSTRUCTURE
  1 ****  10 GROUP 4 **** **** 0

# MOE 2024.06 (io_trps.svl 2023.06)
