@<TRIPOS>MOLECULE
NONAME
47 49 1 0 0 
SMALL
USER_CHARGES


@<TRIPOS>ATOM
  1 O        0.2030    -0.9880    -0.7710 O.2   1 <1>  -0.5700 
  2 C       -0.7670    -1.5190    -1.2650 C.2   1 <1>   0.5440 
  3 N       -1.0190    -1.2050    -2.5570 N.am  1 <1>  -0.8000 
  4 C       -1.6020    -2.4320    -0.5030 C.ar  1 <1>   0.0860 
  5 C       -2.6460    -3.1610    -1.0480 C.ar  1 <1>  -0.1500 
  6 C       -1.4060    -2.6400     0.8580 C.ar  1 <1>  -0.1500 
  7 C       -3.4110    -4.0120    -0.2660 C.ar  1 <1>   0.4100 
  8 C       -2.2170    -3.5100     1.5570 C.ar  1 <1>   0.1600 
  9 N       -3.2130    -4.1980     1.0300 N.ar  1 <1>  -0.6200 
 10 N       -4.4400    -4.7140    -0.8500 N.pl3 1 <1>  -0.8380 
 11 C       -5.8260    -4.3750    -0.3910 C.3   1 <1>   0.2090 
 12 C       -4.2410    -6.1890    -0.9990 C.3   1 <1>   0.2090 
 13 C       -6.3150    -5.2820     0.7650 C.3   1 <1>   0.2950 
 14 C       -4.8230    -6.9910     0.1910 C.3   1 <1>   0.2000 
 15 O       -6.1550    -6.6280     0.4170 O.3   1 <1>  -0.5600 
 16 C       -7.7930    -5.0960     1.1550 C.3   1 <1>  -0.1950 
 17 C       -4.8140    -8.5090    -0.0390 C.3   1 <1>  -0.1600 
 18 C       -8.9070    -4.9430     0.1650 C.3   1 <1>  -0.2000 
 19 C       -8.5220    -3.7900     1.0500 C.3   1 <1>  -0.2000 
 20 C       -3.3960    -9.0910    -0.1590 C.3   1 <1>  -0.1600 
 21 C       -3.4390   -10.6180    -0.2840 C.3   1 <1>  -0.1600 
 22 C       -2.0290   -11.2020    -0.4070 C.3   1 <1>  -0.2400 
 23 H       -0.3950    -0.5490    -3.0290 H     1 <1>   0.3700 
 24 H       -1.8230    -1.5380    -3.0870 H     1 <1>   0.3700 
 25 H       -2.8900    -3.0890    -2.0890 H     1 <1>   0.1500 
 26 H       -0.6150    -2.1170     1.3650 H     1 <1>   0.1500 
 27 H       -2.0370    -3.6480     2.6100 H     1 <1>   0.1500 
 28 H       -5.8490    -3.3510    -0.0630 H     1 <1>   0.0800 
 29 H       -6.4950    -4.4690    -1.2260 H     1 <1>   0.0800 
 30 H       -4.7130    -6.5160    -1.9080 H     1 <1>   0.0800 
 31 H       -3.1880    -6.3950    -1.0820 H     1 <1>   0.0800 
 32 H       -5.7100    -5.0880     1.6340 H     1 <1>   0.0800 
 33 H       -4.2610    -6.7670     1.0820 H     1 <1>   0.0800 
 34 H       -8.0160    -5.6850     2.0280 H     1 <1>   0.1000 
 35 H       -5.3090    -8.9740     0.7950 H     1 <1>   0.0800 
 36 H       -5.3740    -8.7350    -0.9300 H     1 <1>   0.0800 
 37 H       -8.6790    -4.9010    -0.8860 H     1 <1>   0.1000 
 38 H       -9.8280    -5.4660     0.3570 H     1 <1>   0.1000 
 39 H       -9.1890    -3.5100     1.8470 H     1 <1>   0.1000 
 40 H       -8.0580    -2.9350     0.5910 H     1 <1>   0.1000 
 41 H       -2.9020    -8.6840    -1.0240 H     1 <1>   0.0800 
 42 H       -2.8240    -8.8220     0.7130 H     1 <1>   0.0800 
 43 H       -3.9210   -11.0390     0.5820 H     1 <1>   0.0800 
 44 H       -4.0140   -10.8950    -1.1520 H     1 <1>   0.0800 
 45 H       -1.4430   -10.9560     0.4610 H     1 <1>   0.0800 
 46 H       -1.5350   -10.8140    -1.2810 H     1 <1>   0.0800 
 47 H       -2.0800   -12.2730    -0.4910 H     1 <1>   0.0800 
@<TRIPOS>BOND
  1   1   2  2   
  2   2   3  am  
  3   2   4  1   
  4   3  23  1   
  5   3  24  1   
  6   4   5  ar  
  7   4   6  ar  
  8   5   7  ar  
  9   5  25  1   
 10   6   8  ar  
 11   6  26  1   
 12   7   9  ar  
 13   7  10  1   
 14   8   9  ar  
 15   8  27  1   
 16  10  11  1   
 17  10  12  1   
 18  11  13  1   
 19  11  28  1   
 20  11  29  1   
 21  12  14  1   
 22  12  30  1   
 23  12  31  1   
 24  13  15  1   
 25  13  16  1   
 26  13  32  1   
 27  14  15  1   
 28  14  17  1   
 29  14  33  1   
 30  16  18  1   
 31  16  19  1   
 32  16  34  1   
 33  17  20  1   
 34  17  35  1   
 35  17  36  1   
 36  18  19  1   
 37  18  37  1   
 38  18  38  1   
 39  19  39  1   
 40  19  40  1   
 41  20  21  1   
 42  20  41  1   
 43  20  42  1   
 44  21  22  1   
 45  21  43  1   
 46  21  44  1   
 47  22  45  1   
 48  22  46  1   
 49  22  47  1   
@<TRIPOS>SUBSTRUCTURE
  1 ****  10 GROUP 4 **** **** 0

# MOE 2024.06 (io_trps.svl 2023.06)
