@<TRIPOS>MOLECULE
NONAME
48 50 1 0 0 
SMALL
USER_CHARGES


@<TRIPOS>ATOM
  1 CL      -0.2650    -0.4830    -1.0730 Cl    1 <1>  -0.1770 
  2 C       -1.9240    -1.0140    -1.0070 C.ar  1 <1>   0.1770 
  3 C       -2.7110    -0.6630     0.0600 C.ar  1 <1>  -0.1500 
  4 C       -2.4180    -1.7910    -2.0490 C.ar  1 <1>  -0.1500 
  5 C       -4.0510    -1.0850     0.1290 C.ar  1 <1>   0.0000 
  6 C       -3.7260    -2.2150    -2.0060 C.ar  1 <1>  -0.1500 
  7 C       -4.5530    -1.8700    -0.9290 C.ar  1 <1>   0.3610 
  8 C       -4.9370    -0.7700     1.2040 C.ar  1 <1>  -0.1440 
  9 N       -5.8710    -2.2870    -0.8820 N.ar  1 <1>  -0.1790 
 10 C       -6.2220    -1.2230     1.1730 C.ar  1 <1>  -0.1500 
 11 C       -4.4460     0.0610     2.3840 C.3   1 <1>  -0.0970 
 12 C       -6.7280    -2.0010     0.0980 C.ar  1 <1>   0.4610 
 13 N       -7.9970    -2.4510     0.0170 N.pl3 1 <1>  -0.8380 
 14 C       -8.4830    -3.4840    -0.9860 C.3   1 <1>   0.2090 
 15 C       -9.0590    -2.0430     1.0180 C.3   1 <1>   0.2090 
 16 C       -9.5280    -4.4070    -0.3550 C.3   1 <1>   0.2000 
 17 C      -10.4610    -2.1770     0.4170 C.3   1 <1>  -0.1600 
 18 O       -9.8150    -5.4640    -1.1980 O.3   1 <1>  -0.6800 
 19 C      -10.8140    -3.6590     0.0760 C.3   1 <1>  -0.1060 
 20 C      -11.2390    -4.4380     1.3300 C.2   1 <1>   0.9060 
 21 C      -11.9920    -3.6750    -0.9530 C.3   1 <1>  -0.1600 
 22 O      -11.1640    -3.9050     2.4430 O.co2 1 <1>  -0.9000 
 23 O      -11.5530    -5.6270     1.1900 O.co2 1 <1>  -0.9000 
 24 C      -11.7030    -3.1310    -2.3660 C.3   1 <1>  -0.1600 
 25 C      -12.9520    -3.2260    -3.2470 C.3   1 <1>  -0.2400 
 26 H       -2.2810    -0.0610     0.8400 H     1 <1>   0.1500 
 27 H       -1.7640    -2.0440    -2.8680 H     1 <1>   0.1500 
 28 H       -4.1090    -2.8160    -2.8130 H     1 <1>   0.1500 
 29 H       -6.2440    -2.8330    -1.6490 H     1 <1>   0.4570 
 30 H       -6.8850    -1.0020     1.9880 H     1 <1>   0.1500 
 31 H       -5.2270     0.2020     3.1110 H     1 <1>   0.0800 
 32 H       -4.1250     1.0320     2.0490 H     1 <1>   0.0800 
 33 H       -3.6230    -0.4310     2.8710 H     1 <1>   0.0800 
 34 H       -8.9220    -2.9830    -1.8310 H     1 <1>   0.0800 
 35 H       -7.6710    -4.1030    -1.3190 H     1 <1>   0.0800 
 36 H       -8.9870    -2.6600     1.9000 H     1 <1>   0.0800 
 37 H       -8.9230    -1.0170     1.3100 H     1 <1>   0.0800 
 38 H       -9.0630    -4.8460     0.5140 H     1 <1>   0.0800 
 39 H      -11.1830    -1.7910     1.1150 H     1 <1>   0.0800 
 40 H      -10.5030    -1.5450    -0.4470 H     1 <1>   0.0800 
 41 H      -10.5120    -5.9910    -0.7310 H     1 <1>   0.4000 
 42 H      -12.3420    -4.6880    -1.0560 H     1 <1>   0.0800 
 43 H      -12.8100    -3.1200    -0.5270 H     1 <1>   0.0800 
 44 H      -11.3930    -2.1040    -2.3300 H     1 <1>   0.0800 
 45 H      -10.9190    -3.7070    -2.8260 H     1 <1>   0.0800 
 46 H      -13.7540    -2.6480    -2.8240 H     1 <1>   0.0800 
 47 H      -13.2710    -4.2510    -3.3310 H     1 <1>   0.0800 
 48 H      -12.7400    -2.8520    -4.2320 H     1 <1>   0.0800 
@<TRIPOS>BOND
  1   1   2  1   
  2   2   3  ar  
  3   2   4  ar  
  4   3   5  ar  
  5   3  26  1   
  6   4   6  ar  
  7   4  27  1   
  8   5   7  ar  
  9   5   8  ar  
 10   6   7  ar  
 11   6  28  1   
 12   7   9  ar  
 13   8  10  ar  
 14   8  11  1   
 15   9  12  ar  
 16   9  29  1   
 17  10  12  ar  
 18  10  30  1   
 19  11  31  1   
 20  11  32  1   
 21  11  33  1   
 22  12  13  1   
 23  13  14  1   
 24  13  15  1   
 25  14  16  1   
 26  14  34  1   
 27  14  35  1   
 28  15  17  1   
 29  15  36  1   
 30  15  37  1   
 31  16  18  1   
 32  16  19  1   
 33  16  38  1   
 34  17  19  1   
 35  17  39  1   
 36  17  40  1   
 37  18  41  1   
 38  19  20  1   
 39  19  21  1   
 40  20  22  ar  
 41  20  23  ar  
 42  21  24  1   
 43  21  42  1   
 44  21  43  1   
 45  24  25  1   
 46  24  44  1   
 47  24  45  1   
 48  25  46  1   
 49  25  47  1   
 50  25  48  1   
@<TRIPOS>SUBSTRUCTURE
  1 ****  13 GROUP 4 **** **** 0

# MOE 2024.06 (io_trps.svl 2023.06)
