@<TRIPOS>MOLECULE
NONAME
47 49 1 0 0 
SMALL
USER_CHARGES


@<TRIPOS>ATOM
  1 S        0.5510     0.4180    -0.1870 S.o2  1 <1>   1.3330 
  2 O        0.4770    -0.0480     1.1800 O.2   1 <1>  -0.6500 
  3 O        0.2580    -0.4950    -1.2680 O.2   1 <1>  -0.6500 
  4 N       -0.4690     1.7680    -0.3330 N.am  1 <1>  -0.8490 
  5 C        2.1760     1.1090    -0.4820 C.3   1 <1>  -0.0550 
  6 C       -1.8160     1.4000    -0.7790 C.3   1 <1>   0.1160 
  7 C       -0.5490     2.5740     0.8900 C.3   1 <1>   0.1160 
  8 C        3.2930     0.0470    -0.4920 C.3   1 <1>  -0.0800 
  9 C        4.6750     0.5660    -0.8660 C.3   1 <1>   0.2200 
 10 C        3.5340    -0.6360     0.8610 C.3   1 <1>   0.1200 
 11 N        4.9380     1.8760    -0.2240 N.am  1 <1>  -0.7300 
 12 C        5.5540    -0.4860    -0.2060 C.3   1 <1>   0.1200 
 13 O        4.9190    -0.7700     1.0020 O.3   1 <1>  -0.5600 
 14 C        4.9010     3.0930    -0.8390 C.2   1 <1>   0.7150 
 15 O        4.5840     3.1370    -2.0120 O.2   1 <1>  -0.5700 
 16 C        5.2020     4.2980    -0.1100 C.2   1 <1>   0.0550 
 17 O        5.5060     4.2350     1.1760 O.3   1 <1>  -0.0190 
 18 C        5.2270     5.5800    -0.5200 C.2   1 <1>  -0.1500 
 19 N        5.7200     5.4600     1.5880 N.2   1 <1>  -0.4100 
 20 C        5.5690     6.2960     0.6090 C.2   1 <1>   0.2350 
 21 C        5.7280     7.7360     0.7050 C.ar  1 <1>   0.0540 
 22 C        5.8950     8.5360    -0.4270 C.ar  1 <1>  -0.1500 
 23 C        5.7210     8.3770     1.9440 C.ar  1 <1>  -0.1500 
 24 C        6.0390     9.9090    -0.3260 C.ar  1 <1>  -0.1500 
 25 C        5.8650     9.7480     2.0520 C.ar  1 <1>  -0.1500 
 26 C        6.0240    10.5180     0.9150 C.ar  1 <1>  -0.1500 
 27 H        2.1690     1.6060    -1.4340 H     1 <1>   0.0800 
 28 H        2.3830     1.8460     0.2680 H     1 <1>   0.0800 
 29 H       -2.4290     2.2790    -0.8780 H     1 <1>   0.0800 
 30 H       -2.2720     0.7250    -0.0740 H     1 <1>   0.0800 
 31 H       -1.7660     0.9150    -1.7390 H     1 <1>   0.0800 
 32 H       -1.1360     3.4590     0.7110 H     1 <1>   0.0800 
 33 H        0.4360     2.8780     1.2010 H     1 <1>   0.0800 
 34 H       -1.0030     2.0070     1.6860 H     1 <1>   0.0800 
 35 H        3.0250    -0.7190    -1.1990 H     1 <1>   0.0800 
 36 H        4.8290     0.6200    -1.9310 H     1 <1>   0.0800 
 37 H        3.0830    -1.6140     0.9020 H     1 <1>   0.0800 
 38 H        3.1790    -0.0410     1.6860 H     1 <1>   0.0800 
 39 H        5.1890     1.8190     0.7670 H     1 <1>   0.3700 
 40 H        6.5560    -0.1400    -0.0200 H     1 <1>   0.0800 
 41 H        5.5780    -1.3900    -0.7900 H     1 <1>   0.0800 
 42 H        5.0200     5.9640    -1.5010 H     1 <1>   0.1500 
 43 H        5.9180     8.0880    -1.4030 H     1 <1>   0.1500 
 44 H        5.5990     7.7900     2.8380 H     1 <1>   0.1500 
 45 H        6.1650    10.5040    -1.2140 H     1 <1>   0.1500 
 46 H        5.8550    10.2160     3.0210 H     1 <1>   0.1500 
 47 H        6.1360    11.5860     0.9960 H     1 <1>   0.1500 
@<TRIPOS>BOND
  1   1   2  2   
  2   1   3  2   
  3   1   4  am  
  4   1   5  1   
  5   4   6  1   
  6   4   7  1   
  7   5   8  1   
  8   5  27  1   
  9   5  28  1   
 10   6  29  1   
 11   6  30  1   
 12   6  31  1   
 13   7  32  1   
 14   7  33  1   
 15   7  34  1   
 16   8   9  1   
 17   8  10  1   
 18   8  35  1   
 19   9  11  1   
 20   9  12  1   
 21   9  36  1   
 22  10  13  1   
 23  10  37  1   
 24  10  38  1   
 25  11  14  am  
 26  11  39  1   
 27  12  13  1   
 28  12  40  1   
 29  12  41  1   
 30  14  15  2   
 31  14  16  1   
 32  16  17  1   
 33  16  18  2   
 34  17  19  1   
 35  18  20  1   
 36  18  42  1   
 37  19  20  2   
 38  20  21  1   
 39  21  22  ar  
 40  21  23  ar  
 41  22  24  ar  
 42  22  43  1   
 43  23  25  ar  
 44  23  44  1   
 45  24  26  ar  
 46  24  45  1   
 47  25  26  ar  
 48  25  46  1   
 49  26  47  1   
@<TRIPOS>SUBSTRUCTURE
  1 ****  16 GROUP 4 **** **** 0

# MOE 2024.06 (io_trps.svl 2023.06)
