@<TRIPOS>MOLECULE
NONAME
53 56 1 0 0 
SMALL
USER_CHARGES


@<TRIPOS>ATOM
  1 O        2.3290     1.6980    -1.2390 O.3   1 <1>  -0.0190 
  2 N        3.1900     0.7970    -0.8750 N.2   1 <1>  -0.4100 
  3 C        1.4270     1.9100    -0.3180 C.2   1 <1>  -0.0400 
  4 C        2.8260     0.4040     0.2930 C.2   1 <1>   0.1080 
  5 C        1.6910     1.0920     0.7120 C.2   1 <1>  -0.1500 
  6 C        0.3550     2.9580    -0.5400 C.3   1 <1>   0.0200 
  7 C        3.5430    -0.6620     1.0930 C.3   1 <1>  -0.0590 
  8 C        0.9890     4.2750    -1.0310 C.3   1 <1>  -0.0800 
  9 C        0.0650     5.4900    -1.1250 C.3   1 <1>   0.2000 
 10 C        2.1590     4.7440    -0.1560 C.3   1 <1>   0.3430 
 11 O       -0.7090     5.5870     0.0310 O.3   1 <1>  -0.6800 
 12 C        1.0640     6.6500    -1.1360 C.3   1 <1>   0.3430 
 13 N        2.1530     6.2360    -0.1980 N.4   1 <1>  -0.9590 
 14 C        1.9340     6.8320     1.1500 C.3   1 <1>   0.5240 
 15 C        2.2240     8.3200     1.0560 C.2   1 <1>   0.0460 
 16 N        3.3300     8.7600     0.4210 N.2   1 <1>  -0.5650 
 17 C        1.5160     9.3650     1.5050 C.2   1 <1>  -0.0400 
 18 C        3.2490    10.0550     0.5230 C.2   1 <1>   0.4250 
 19 O        2.1620    10.4420     1.1680 O.3   1 <1>  -0.2800 
 20 C        0.2120     9.5050     2.2640 C.3   1 <1>  -0.0600 
 21 C        4.1830    11.0400     0.0180 C.ar  1 <1>   0.0530 
 22 C        5.3880    10.6570    -0.5740 C.ar  1 <1>  -0.1500 
 23 C        3.9220    12.4090     0.0970 C.ar  1 <1>  -0.1500 
 24 C        6.2830    11.5900    -1.0650 C.ar  1 <1>  -0.1500 
 25 C        4.8140    13.3460    -0.3920 C.ar  1 <1>  -0.1500 
 26 C        6.0010    12.9420    -0.9790 C.ar  1 <1>  -0.1430 
 27 C        6.9810    13.9700    -1.5150 C.3   1 <1>  -0.0970 
 28 H        1.1800     0.9640     1.6490 H     1 <1>   0.1500 
 29 H       -0.3430     2.5950    -1.2740 H     1 <1>   0.0800 
 30 H       -0.1750     3.1010     0.3860 H     1 <1>   0.0800 
 31 H        2.8820    -1.4910     1.2710 H     1 <1>   0.0800 
 32 H        3.8690    -0.2600     2.0340 H     1 <1>   0.0800 
 33 H        4.4010    -1.0150     0.5490 H     1 <1>   0.0800 
 34 H        1.3910     4.0960    -2.0140 H     1 <1>   0.0800 
 35 H       -0.5810     5.4900    -1.9880 H     1 <1>   0.0800 
 36 H        3.0900     4.3450    -0.5290 H     1 <1>   0.0800 
 37 H        2.0150     4.4010     0.8550 H     1 <1>   0.0800 
 38 H       -1.5450     5.0810    -0.0620 H     1 <1>   0.4000 
 39 H        0.5990     7.5780    -0.8450 H     1 <1>   0.0800 
 40 H        1.4700     6.7560    -2.1280 H     1 <1>   0.0800 
 41 H        3.0510     6.6400    -0.5140 H     1 <1>   0.4500 
 42 H        0.9240     6.6630     1.4840 H     1 <1>   0.0800 
 43 H        2.6170     6.3930     1.8580 H     1 <1>   0.0800 
 44 H       -0.2220     8.5440     2.4690 H     1 <1>   0.0800 
 45 H       -0.4850    10.0860     1.6870 H     1 <1>   0.0800 
 46 H        0.3890    10.0130     3.1960 H     1 <1>   0.0800 
 47 H        5.6290     9.6120    -0.6500 H     1 <1>   0.1500 
 48 H        3.0070    12.7500     0.5490 H     1 <1>   0.1500 
 49 H        7.2040    11.2610    -1.5140 H     1 <1>   0.1500 
 50 H        4.5810    14.3940    -0.3130 H     1 <1>   0.1500 
 51 H        7.5430    13.5620    -2.3360 H     1 <1>   0.0800 
 52 H        7.6640    14.2600    -0.7370 H     1 <1>   0.0800 
 53 H        6.4590    14.8420    -1.8630 H     1 <1>   0.0800 
@<TRIPOS>BOND
  1   1   2  1   
  2   1   3  1   
  3   2   4  2   
  4   3   5  2   
  5   3   6  1   
  6   4   5  1   
  7   4   7  1   
  8   5  28  1   
  9   6   8  1   
 10   6  29  1   
 11   6  30  1   
 12   7  31  1   
 13   7  32  1   
 14   7  33  1   
 15   8   9  1   
 16   8  10  1   
 17   8  34  1   
 18   9  11  1   
 19   9  12  1   
 20   9  35  1   
 21  10  13  1   
 22  10  36  1   
 23  10  37  1   
 24  11  38  1   
 25  12  13  1   
 26  12  39  1   
 27  12  40  1   
 28  13  14  1   
 29  13  41  1   
 30  14  15  1   
 31  14  42  1   
 32  14  43  1   
 33  15  16  1   
 34  15  17  2   
 35  16  18  2   
 36  17  19  1   
 37  17  20  1   
 38  18  19  1   
 39  18  21  1   
 40  20  44  1   
 41  20  45  1   
 42  20  46  1   
 43  21  22  ar  
 44  21  23  ar  
 45  22  24  ar  
 46  22  47  1   
 47  23  25  ar  
 48  23  48  1   
 49  24  26  ar  
 50  24  49  1   
 51  25  26  ar  
 52  25  50  1   
 53  26  27  1   
 54  27  51  1   
 55  27  52  1   
 56  27  53  1   
@<TRIPOS>SUBSTRUCTURE
  1 ****  13 GROUP 4 **** **** 0

# MOE 2024.06 (io_trps.svl 2023.06)
