@<TRIPOS>MOLECULE
NONAME
41 42 1 0 0 
SMALL
USER_CHARGES


@<TRIPOS>ATOM
  1 O        1.5560     0.3680    -1.1290 O.3   1 <1>  -0.6800 
  2 C        1.2010    -0.1300     0.1300 C.3   1 <1>   0.1200 
  3 C        2.4640    -0.3550     0.9870 C.3   1 <1>   0.3430 
  4 N        3.6010    -0.7690     0.1040 N.4   1 <1>  -0.9590 
  5 C        3.9270    -2.2260     0.2270 C.3   1 <1>   0.5240 
  6 C        4.8120     0.0840     0.2550 C.3   1 <1>   0.3430 
  7 C        2.7200    -3.1120    -0.0650 C.2   1 <1>   0.0460 
  8 C        4.5830     1.5020    -0.2750 C.3   1 <1>  -0.0170 
  9 N        1.7510    -3.2970     0.8560 N.2   1 <1>  -0.5650 
 10 C        2.4490    -3.8120    -1.1890 C.2   1 <1>  -0.3020 
 11 C        5.8790     2.2790    -0.1500 C.ar  1 <1>  -0.1440 
 12 C        0.9210    -4.1050     0.2820 C.2   1 <1>   0.0060 
 13 N        1.2880    -4.4560    -0.9690 N.pl3 1 <1>   0.0330 
 14 C        6.1780     2.9570     1.0220 C.ar  1 <1>  -0.1500 
 15 C        6.7810     2.3090    -1.2040 C.ar  1 <1>  -0.1500 
 16 C       -0.3420    -4.6240     0.9370 C.3   1 <1>  -0.0600 
 17 C        7.3690     3.6520     1.1420 C.ar  1 <1>  -0.1500 
 18 C        7.9720     3.0040    -1.0840 C.ar  1 <1>  -0.1500 
 19 C        8.2670     3.6740     0.0900 C.ar  1 <1>  -0.1500 
 20 H        0.7520     0.5640    -1.6600 H     1 <1>   0.4000 
 21 H        0.6740    -1.0580    -0.0130 H     1 <1>   0.0800 
 22 H        0.5410     0.5710     0.6120 H     1 <1>   0.0800 
 23 H        2.2670    -1.0980     1.7430 H     1 <1>   0.0800 
 24 H        2.7030     0.5670     1.4890 H     1 <1>   0.0800 
 25 H        3.2030    -0.6180    -0.8410 H     1 <1>   0.4500 
 26 H        4.2780    -2.4420     1.2220 H     1 <1>   0.0800 
 27 H        4.7090    -2.4770    -0.4680 H     1 <1>   0.0800 
 28 H        5.6290    -0.3480    -0.2990 H     1 <1>   0.0800 
 29 H        5.1050     0.1320     1.2910 H     1 <1>   0.0800 
 30 H        3.8150     2.0030     0.2850 H     1 <1>   0.0800 
 31 H        4.2830     1.4670    -1.3070 H     1 <1>   0.0800 
 32 H        2.9980    -3.8990    -2.1110 H     1 <1>   0.1500 
 33 H        0.7880    -5.0900    -1.6010 H     1 <1>   0.2700 
 34 H        5.4920     2.9570     1.8500 H     1 <1>   0.1500 
 35 H        6.5680     1.7980    -2.1270 H     1 <1>   0.1500 
 36 H       -0.4320    -4.2230     1.9310 H     1 <1>   0.0800 
 37 H       -0.3100    -5.6960     1.0040 H     1 <1>   0.0800 
 38 H       -1.2050    -4.3310     0.3680 H     1 <1>   0.0800 
 39 H        7.6000     4.1790     2.0520 H     1 <1>   0.1500 
 40 H        8.6700     3.0270    -1.9030 H     1 <1>   0.1500 
 41 H        9.1930     4.2160     0.1820 H     1 <1>   0.1500 
@<TRIPOS>BOND
  1   1   2  1   
  2   1  20  1   
  3   2   3  1   
  4   2  21  1   
  5   2  22  1   
  6   3   4  1   
  7   3  23  1   
  8   3  24  1   
  9   4   5  1   
 10   4   6  1   
 11   4  25  1   
 12   5   7  1   
 13   5  26  1   
 14   5  27  1   
 15   6   8  1   
 16   6  28  1   
 17   6  29  1   
 18   7   9  1   
 19   7  10  2   
 20   8  11  1   
 21   8  30  1   
 22   8  31  1   
 23   9  12  2   
 24  10  13  1   
 25  10  32  1   
 26  11  14  ar  
 27  11  15  ar  
 28  12  13  1   
 29  12  16  1   
 30  13  33  1   
 31  14  17  ar  
 32  14  34  1   
 33  15  18  ar  
 34  15  35  1   
 35  16  36  1   
 36  16  37  1   
 37  16  38  1   
 38  17  19  ar  
 39  17  39  1   
 40  18  19  ar  
 41  18  40  1   
 42  19  41  1   
@<TRIPOS>SUBSTRUCTURE
  1 ****   4 GROUP 4 **** **** 0

# MOE 2024.06 (io_trps.svl 2023.06)
