@<TRIPOS>MOLECULE
NONAME
41 43 1 0 0 
SMALL
USER_CHARGES


@<TRIPOS>ATOM
  1 O        1.4440    -0.7200     1.0240 O.3   1 <1>  -0.6800 
  2 C        1.1690    -1.0890    -0.2800 C.3   1 <1>   0.2000 
  3 C        1.3850    -2.5930    -0.4140 C.3   1 <1>  -0.1600 
  4 C        2.2270    -0.4740    -1.1890 C.3   1 <1>  -0.1600 
  5 C        2.8910    -2.7840    -0.6560 C.3   1 <1>  -0.0800 
  6 C        3.4270    -1.4320    -1.1520 C.3   1 <1>  -0.0800 
  7 C        3.6840    -3.0970     0.6230 C.3   1 <1>  -0.1600 
  8 C        4.5040    -1.0090    -0.1410 C.3   1 <1>  -0.1600 
  9 C        4.9860    -2.2950     0.5250 C.3   1 <1>   0.4230 
 10 N        6.0430    -2.9130    -0.3490 N.4   1 <1>  -0.9590 
 11 C        7.4150    -2.6270     0.1710 C.3   1 <1>   0.4860 
 12 C        5.9140    -4.3830    -0.6050 C.3   1 <1>   0.2630 
 13 C        7.7310    -1.1510     0.0680 C.ar  1 <1>  -0.1430 
 14 C        8.1170    -0.6110    -1.1500 C.ar  1 <1>   0.1600 
 15 C        7.6390    -0.3190     1.1680 C.ar  1 <1>  -0.1500 
 16 N        8.3840     0.6640    -1.3560 N.ar  1 <1>  -0.6200 
 17 C        7.9250     1.0140     0.9680 C.ar  1 <1>  -0.1500 
 18 C        8.2850     1.4500    -0.2960 C.ar  1 <1>   0.1600 
 19 H        0.7060    -0.9810     1.6070 H     1 <1>   0.4000 
 20 H        0.1690    -0.7720    -0.5280 H     1 <1>   0.0800 
 21 H        1.0120    -3.1440     0.4330 H     1 <1>   0.0800 
 22 H        0.8550    -2.9260    -1.2890 H     1 <1>   0.0800 
 23 H        1.8350    -0.4540    -2.1910 H     1 <1>   0.0800 
 24 H        2.4710     0.5350    -0.9050 H     1 <1>   0.0800 
 25 H        3.0550    -3.5480    -1.3970 H     1 <1>   0.0800 
 26 H        3.8560    -1.5310    -2.1340 H     1 <1>   0.0800 
 27 H        3.8030    -4.1480     0.8060 H     1 <1>   0.0800 
 28 H        3.1460    -2.7020     1.4670 H     1 <1>   0.0800 
 29 H        4.0560    -0.3980     0.6240 H     1 <1>   0.0800 
 30 H        5.2780    -0.4250    -0.6040 H     1 <1>   0.0800 
 31 H        5.3800    -2.0980     1.5090 H     1 <1>   0.0800 
 32 H        5.9490    -2.4230    -1.2480 H     1 <1>   0.4500 
 33 H        7.4940    -2.9440     1.1980 H     1 <1>   0.0800 
 34 H        8.1450    -3.1740    -0.4030 H     1 <1>   0.0800 
 35 H        5.9650    -4.9310     0.3220 H     1 <1>   0.0800 
 36 H        6.7060    -4.7240    -1.2530 H     1 <1>   0.0800 
 37 H        4.9720    -4.6000    -1.0820 H     1 <1>   0.0800 
 38 H        8.2110    -1.2510    -2.0110 H     1 <1>   0.1500 
 39 H        7.3590    -0.6740     2.1460 H     1 <1>   0.1500 
 40 H        7.8720     1.7180     1.7810 H     1 <1>   0.1500 
 41 H        8.5040     2.4950    -0.4420 H     1 <1>   0.1500 
@<TRIPOS>BOND
  1   1   2  1   
  2   1  19  1   
  3   2   3  1   
  4   2   4  1   
  5   2  20  1   
  6   3   5  1   
  7   3  21  1   
  8   3  22  1   
  9   4   6  1   
 10   4  23  1   
 11   4  24  1   
 12   5   6  1   
 13   5   7  1   
 14   5  25  1   
 15   6   8  1   
 16   6  26  1   
 17   7   9  1   
 18   7  27  1   
 19   7  28  1   
 20   8   9  1   
 21   8  29  1   
 22   8  30  1   
 23   9  10  1   
 24   9  31  1   
 25  10  11  1   
 26  10  12  1   
 27  10  32  1   
 28  11  13  1   
 29  11  33  1   
 30  11  34  1   
 31  12  35  1   
 32  12  36  1   
 33  12  37  1   
 34  13  14  ar  
 35  13  15  ar  
 36  14  16  ar  
 37  14  38  1   
 38  15  17  ar  
 39  15  39  1   
 40  16  18  ar  
 41  17  18  ar  
 42  17  40  1   
 43  18  41  1   
@<TRIPOS>SUBSTRUCTURE
  1 ****   8 GROUP 4 **** **** 0

# MOE 2024.06 (io_trps.svl 2023.06)
