@<TRIPOS>MOLECULE
NONAME
59 62 1 0 0 
SMALL
USER_CHARGES


@<TRIPOS>ATOM
  1 O        0.1780    -3.3220    -3.3140 O.2   1 <1>  -0.5700 
  2 C       -0.4500    -3.4810    -2.2850 C.2   1 <1>   0.5440 
  3 N        0.2520    -3.9280    -1.1730 N.am  1 <1>  -0.6600 
  4 C       -1.8760    -3.1660    -2.2560 C.ar  1 <1>   0.3960 
  5 C        1.6890    -3.5740    -0.9930 C.3   1 <1>   0.1400 
  6 C       -0.3980    -4.3820     0.0920 C.3   1 <1>   0.1400 
  7 N       -2.3970    -2.5740    -1.1680 N.ar  1 <1>  -0.6200 
  8 C       -2.6600    -3.4890    -3.3660 C.ar  1 <1>   0.1600 
  9 C        1.8120    -2.4640     0.0720 C.3   1 <1>   0.3430 
 10 C       -0.3070    -3.2620     1.1470 C.3   1 <1>   0.3430 
 11 C       -3.7000    -2.3770    -1.2430 C.ar  1 <1>   0.4100 
 12 N       -3.9660    -3.2880    -3.4650 N.ar  1 <1>  -0.6200 
 13 N        1.1230    -2.8220     1.3710 N.4   1 <1>  -0.9590 
 14 N       -4.2620    -1.8080    -0.1160 N.pl3 1 <1>  -0.8380 
 15 C       -4.4530    -2.7250    -2.3770 C.ar  1 <1>   0.1600 
 16 C        1.1760    -1.6800     2.3310 C.3   1 <1>   0.2630 
 17 C       -5.5170    -2.3710     0.4850 C.3   1 <1>   0.2090 
 18 C       -3.9360    -0.3850     0.1810 C.3   1 <1>   0.2090 
 19 C       -6.5870    -1.2890     0.7750 C.3   1 <1>   0.0000 
 20 C       -4.4640    -0.0030     1.5630 C.3   1 <1>  -0.1600 
 21 C       -7.8280    -1.9680     1.3910 C.3   1 <1>   0.2000 
 22 C       -5.9870    -0.1940     1.7010 C.3   1 <1>  -0.1600 
 23 C       -7.1540    -0.7170    -0.5420 C.3   1 <1>  -0.1600 
 24 O       -8.6380    -0.9970     1.9900 O.3   1 <1>  -0.5600 
 25 C       -8.5910    -2.5630     0.2020 C.3   1 <1>  -0.1600 
 26 C       -8.2290    -1.7020    -1.0160 C.3   1 <1>  -0.1600 
 27 C       -9.4790    -1.4640     2.9970 C.3   1 <1>   0.0400 
 28 H        2.2410    -4.4460    -0.6910 H     1 <1>   0.0800 
 29 H        2.1150    -3.2250    -1.9190 H     1 <1>   0.0800 
 30 H       -1.4280    -4.6450    -0.0770 H     1 <1>   0.0800 
 31 H        0.0990    -5.2660     0.4520 H     1 <1>   0.0800 
 32 H       -2.1720    -3.9410    -4.2140 H     1 <1>   0.1500 
 33 H        1.3700    -1.5680    -0.3330 H     1 <1>   0.0800 
 34 H        2.8550    -2.2630     0.2520 H     1 <1>   0.0800 
 35 H       -0.7360    -3.6110     2.0710 H     1 <1>   0.0800 
 36 H       -0.8980    -2.4280     0.8050 H     1 <1>   0.0800 
 37 H        1.6300    -3.6210     1.7780 H     1 <1>   0.4500 
 38 H       -5.5050    -2.5140    -2.3620 H     1 <1>   0.1500 
 39 H        0.6480    -0.8300     1.9290 H     1 <1>   0.0800 
 40 H        2.1980    -1.3930     2.5180 H     1 <1>   0.0800 
 41 H        0.7210    -1.9560     3.2690 H     1 <1>   0.0800 
 42 H       -5.9190    -3.1330    -0.1580 H     1 <1>   0.0800 
 43 H       -5.2520    -2.8460     1.4140 H     1 <1>   0.0800 
 44 H       -2.8700    -0.2470     0.1480 H     1 <1>   0.0800 
 45 H       -4.3790     0.2500    -0.5670 H     1 <1>   0.0800 
 46 H       -3.9620    -0.6140     2.2910 H     1 <1>   0.0800 
 47 H       -4.2130     1.0210     1.7740 H     1 <1>   0.0800 
 48 H       -7.5570    -2.7060     2.1280 H     1 <1>   0.0800 
 49 H       -6.4850     0.7430     1.5170 H     1 <1>   0.0800 
 50 H       -6.1890    -0.4450     2.7280 H     1 <1>   0.0800 
 51 H       -7.6380     0.2240    -0.3410 H     1 <1>   0.0800 
 52 H       -6.4050    -0.5520    -1.2950 H     1 <1>   0.0800 
 53 H       -8.2570    -3.5700     0.0330 H     1 <1>   0.0800 
 54 H       -9.6530    -2.5810     0.3700 H     1 <1>   0.0800 
 55 H       -7.8570    -2.3230    -1.8120 H     1 <1>   0.0800 
 56 H       -9.0920    -1.1640    -1.3710 H     1 <1>   0.0800 
 57 H      -10.0680    -0.6360     3.3500 H     1 <1>   0.0800 
 58 H       -8.8830    -1.8540     3.8030 H     1 <1>   0.0800 
 59 H      -10.1270    -2.2270     2.6010 H     1 <1>   0.0800 
@<TRIPOS>BOND
  1   1   2  2   
  2   2   3  am  
  3   2   4  1   
  4   3   5  1   
  5   3   6  1   
  6   4   7  ar  
  7   4   8  ar  
  8   5   9  1   
  9   5  28  1   
 10   5  29  1   
 11   6  10  1   
 12   6  30  1   
 13   6  31  1   
 14   7  11  ar  
 15   8  12  ar  
 16   8  32  1   
 17   9  13  1   
 18   9  33  1   
 19   9  34  1   
 20  10  13  1   
 21  10  35  1   
 22  10  36  1   
 23  11  14  1   
 24  11  15  ar  
 25  12  15  ar  
 26  13  16  1   
 27  13  37  1   
 28  14  17  1   
 29  14  18  1   
 30  15  38  1   
 31  16  39  1   
 32  16  40  1   
 33  16  41  1   
 34  17  19  1   
 35  17  42  1   
 36  17  43  1   
 37  18  20  1   
 38  18  44  1   
 39  18  45  1   
 40  19  21  1   
 41  19  22  1   
 42  19  23  1   
 43  20  22  1   
 44  20  46  1   
 45  20  47  1   
 46  21  24  1   
 47  21  25  1   
 48  21  48  1   
 49  22  49  1   
 50  22  50  1   
 51  23  26  1   
 52  23  51  1   
 53  23  52  1   
 54  24  27  1   
 55  25  26  1   
 56  25  53  1   
 57  25  54  1   
 58  26  55  1   
 59  26  56  1   
 60  27  57  1   
 61  27  58  1   
 62  27  59  1   
@<TRIPOS>SUBSTRUCTURE
  1 ****  14 GROUP 4 **** **** 0

# MOE 2024.06 (io_trps.svl 2023.06)
