@<TRIPOS>MOLECULE
NONAME
52 54 1 0 0 
SMALL
USER_CHARGES


@<TRIPOS>ATOM
  1 O       -0.3240    -0.1050    -0.2660 O.2   1 <1>  -0.5700 
  2 C       -1.0460     0.8740    -0.3230 C.2   1 <1>   0.5440 
  3 N       -2.4130     0.7060    -0.1930 N.am  1 <1>  -0.6600 
  4 C       -0.4530     2.1840    -0.5210 C.ar  1 <1>   0.0860 
  5 C       -3.0200    -0.6580    -0.1200 C.3   1 <1>   0.1400 
  6 C       -3.3560     1.8430     0.0090 C.3   1 <1>   0.1400 
  7 C        0.3040     2.8270     0.4690 C.ar  1 <1>  -0.1440 
  8 C       -0.6380     2.8430    -1.7380 C.ar  1 <1>  -0.1500 
  9 C       -3.6500    -0.9370     1.2520 C.3   1 <1>   0.1400 
 10 C       -3.6330     2.0220     1.5050 C.3   1 <1>  -0.1600 
 11 C        0.8270     4.0880     0.2370 C.ar  1 <1>  -0.1500 
 12 C        0.5720     2.1480     1.8060 C.3   1 <1>  -0.0960 
 13 C       -0.1130     4.1000    -1.9700 C.ar  1 <1>  -0.1500 
 14 N       -4.9250    -0.1720     1.4290 N.am  1 <1>  -0.6600 
 15 C       -4.8030     1.1850     2.0450 C.3   1 <1>   0.1400 
 16 C        0.6180     4.7230    -0.9730 C.ar  1 <1>   0.0820 
 17 C       -6.1650    -0.6720     1.1100 C.2   1 <1>   0.5690 
 18 O        1.1330     5.9420    -1.1720 O.3   1 <1>  -0.5320 
 19 O       -7.1750    -0.0400     1.3180 O.2   1 <1>  -0.5700 
 20 C       -6.3020    -2.0530     0.4820 C.3   1 <1>  -0.0990 
 21 C       -7.7120    -2.3620    -0.0430 C.3   1 <1>  -0.0170 
 22 C       -7.7410    -3.7370    -0.6900 C.ar  1 <1>  -0.1440 
 23 C       -7.4670    -3.9180    -2.0300 C.ar  1 <1>  -0.1500 
 24 C       -8.0370    -4.8760     0.0310 C.ar  1 <1>  -0.1500 
 25 C       -7.4970    -5.1940    -2.5690 C.ar  1 <1>   0.1600 
 26 C       -8.0400    -6.1060    -0.6040 C.ar  1 <1>   0.1600 
 27 N       -7.7740    -6.2930    -1.8870 N.ar  1 <1>  -0.6200 
 28 H       -2.2700    -1.4060    -0.3060 H     1 <1>   0.0800 
 29 H       -3.7630    -0.7570    -0.8910 H     1 <1>   0.0800 
 30 H       -4.2730     1.6620    -0.5270 H     1 <1>   0.0800 
 31 H       -2.9300     2.7500    -0.3780 H     1 <1>   0.0800 
 32 H       -1.2030     2.3510    -2.5100 H     1 <1>   0.1500 
 33 H       -2.9500    -0.6810     2.0280 H     1 <1>   0.0800 
 34 H       -3.8430    -1.9910     1.3390 H     1 <1>   0.0800 
 35 H       -3.8720     3.0540     1.6830 H     1 <1>   0.0800 
 36 H       -2.7430     1.8120     2.0690 H     1 <1>   0.0800 
 37 H        1.4080     4.5940     0.9880 H     1 <1>   0.1500 
 38 H       -0.3530     1.8840     2.2840 H     1 <1>   0.0800 
 39 H        1.1240     2.7930     2.4650 H     1 <1>   0.0800 
 40 H        1.1470     1.2520     1.6490 H     1 <1>   0.0800 
 41 H       -0.2720     4.5850    -2.9160 H     1 <1>   0.1500 
 42 H       -5.7100     1.7380     1.8650 H     1 <1>   0.0800 
 43 H       -4.7040     1.0770     3.1110 H     1 <1>   0.0800 
 44 H        0.9650     6.3020    -2.0600 H     1 <1>   0.4500 
 45 H       -6.0400    -2.7880     1.2200 H     1 <1>   0.0800 
 46 H       -5.6140    -2.1330    -0.3370 H     1 <1>   0.0800 
 47 H       -8.0040    -1.6160    -0.7620 H     1 <1>   0.0800 
 48 H       -8.4200    -2.3260     0.7680 H     1 <1>   0.0800 
 49 H       -7.2310    -3.0800    -2.6600 H     1 <1>   0.1500 
 50 H       -8.2640    -4.8170     1.0800 H     1 <1>   0.1500 
 51 H       -7.2800    -5.3150    -3.6160 H     1 <1>   0.1500 
 52 H       -8.2740    -6.9840    -0.0260 H     1 <1>   0.1500 
@<TRIPOS>BOND
  1   1   2  2   
  2   2   3  am  
  3   2   4  1   
  4   3   5  1   
  5   3   6  1   
  6   4   7  ar  
  7   4   8  ar  
  8   5   9  1   
  9   5  28  1   
 10   5  29  1   
 11   6  10  1   
 12   6  30  1   
 13   6  31  1   
 14   7  11  ar  
 15   7  12  1   
 16   8  13  ar  
 17   8  32  1   
 18   9  14  1   
 19   9  33  1   
 20   9  34  1   
 21  10  15  1   
 22  10  35  1   
 23  10  36  1   
 24  11  16  ar  
 25  11  37  1   
 26  12  38  1   
 27  12  39  1   
 28  12  40  1   
 29  13  16  ar  
 30  13  41  1   
 31  14  15  1   
 32  14  17  am  
 33  15  42  1   
 34  15  43  1   
 35  16  18  1   
 36  17  19  2   
 37  17  20  1   
 38  18  44  1   
 39  20  21  1   
 40  20  45  1   
 41  20  46  1   
 42  21  22  1   
 43  21  47  1   
 44  21  48  1   
 45  22  23  ar  
 46  22  24  ar  
 47  23  25  ar  
 48  23  49  1   
 49  24  26  ar  
 50  24  50  1   
 51  25  27  ar  
 52  25  51  1   
 53  26  27  ar  
 54  26  52  1   
@<TRIPOS>SUBSTRUCTURE
  1 ****   5 GROUP 4 **** **** 0

# MOE 2024.06 (io_trps.svl 2023.06)
