@<TRIPOS>MOLECULE
NONAME
50 52 1 0 0 
SMALL
USER_CHARGES


@<TRIPOS>ATOM
  1 O        0.6870    -0.3610     0.2820 O.3   1 <1>  -0.5600 
  2 C        2.0260    -0.0190     0.1210 C.3   1 <1>   0.2000 
  3 C        0.2850    -1.5330    -0.3780 C.3   1 <1>   0.2640 
  4 C        2.4220     0.8290     1.3300 C.3   1 <1>  -0.1600 
  5 C        2.1990     0.7690    -1.1830 C.3   1 <1>  -0.1600 
  6 C       -1.1960    -1.8400    -0.1670 C.ar  1 <1>   0.1660 
  7 C        3.8510     1.3480     1.1770 C.3   1 <1>   0.2090 
  8 C        3.6300     1.2950    -1.3040 C.3   1 <1>   0.2090 
  9 N       -1.6270    -2.9530    -0.7470 N.ar  1 <1>  -0.6200 
 10 C       -2.0130    -0.9990     0.5800 C.ar  1 <1>  -0.1500 
 11 N        3.9650     2.0890    -0.0990 N.pl3 1 <1>  -0.8380 
 12 C       -2.9080    -3.2370    -0.5760 C.ar  1 <1>   0.1600 
 13 C       -3.3460    -1.3080     0.7500 C.ar  1 <1>  -0.1500 
 14 C        4.9980     2.9880    -0.2020 C.ar  1 <1>   0.4100 
 15 C       -3.7960    -2.4630     0.1500 C.ar  1 <1>  -0.1500 
 16 N        6.1680     2.4970    -0.5580 N.ar  1 <1>  -0.6200 
 17 C        4.8190     4.3400     0.0640 C.ar  1 <1>  -0.1430 
 18 C        7.1520     3.3670    -0.6380 C.ar  1 <1>   0.4770 
 19 C        5.9310     5.1360    -0.0590 C.ar  1 <1>   0.1600 
 20 C        3.4330     4.8560     0.4630 C.3   1 <1>  -0.0170 
 21 N        7.1110     4.6650    -0.4090 N.ar  1 <1>  -0.6200 
 22 C        8.4940     2.8100    -1.0470 C.3   1 <1>  -0.0970 
 23 C        3.3210     6.3800     0.6200 C.3   1 <1>  -0.1600 
 24 C        1.8930     6.7970     0.9870 C.3   1 <1>  -0.2400 
 25 H        2.6240    -0.9150     0.1060 H     1 <1>   0.0800 
 26 H        0.8690    -2.3530     0.0000 H     1 <1>   0.0800 
 27 H        0.4680    -1.4200    -1.4310 H     1 <1>   0.0800 
 28 H        2.3520     0.2380     2.2240 H     1 <1>   0.0800 
 29 H        1.7570     1.6700     1.4190 H     1 <1>   0.0800 
 30 H        1.5240     1.6060    -1.1940 H     1 <1>   0.0800 
 31 H        1.9910     0.1460    -2.0310 H     1 <1>   0.0800 
 32 H        4.5500     0.5280     1.1750 H     1 <1>   0.0800 
 33 H        4.0960     2.0000     1.9990 H     1 <1>   0.0800 
 34 H        3.7230     1.9150    -2.1800 H     1 <1>   0.0800 
 35 H        4.3250     0.4760    -1.3940 H     1 <1>   0.0800 
 36 H       -1.6130    -0.1080     1.0280 H     1 <1>   0.1500 
 37 H       -3.2720    -4.1380    -1.0400 H     1 <1>   0.1500 
 38 H       -4.0000    -0.6750     1.3230 H     1 <1>   0.1500 
 39 H       -4.8240    -2.7620     0.2420 H     1 <1>   0.1500 
 40 H        5.8760     6.1920     0.1300 H     1 <1>   0.1500 
 41 H        3.1520     4.3860     1.3890 H     1 <1>   0.0800 
 42 H        2.7290     4.5330    -0.2850 H     1 <1>   0.0800 
 43 H        8.5900     1.7940    -0.7110 H     1 <1>   0.0800 
 44 H        9.2840     3.3960    -0.6170 H     1 <1>   0.0800 
 45 H        8.5760     2.8380    -2.1170 H     1 <1>   0.0800 
 46 H        3.5990     6.8580    -0.3030 H     1 <1>   0.0800 
 47 H        3.9900     6.7130     1.3950 H     1 <1>   0.0800 
 48 H        1.2020     6.4950     0.2190 H     1 <1>   0.0800 
 49 H        1.8370     7.8660     1.0930 H     1 <1>   0.0800 
 50 H        1.5950     6.3470     1.9180 H     1 <1>   0.0800 
@<TRIPOS>BOND
  1   1   2  1   
  2   1   3  1   
  3   2   4  1   
  4   2   5  1   
  5   2  25  1   
  6   3   6  1   
  7   3  26  1   
  8   3  27  1   
  9   4   7  1   
 10   4  28  1   
 11   4  29  1   
 12   5   8  1   
 13   5  30  1   
 14   5  31  1   
 15   6   9  ar  
 16   6  10  ar  
 17   7  11  1   
 18   7  32  1   
 19   7  33  1   
 20   8  11  1   
 21   8  34  1   
 22   8  35  1   
 23   9  12  ar  
 24  10  13  ar  
 25  10  36  1   
 26  11  14  1   
 27  12  15  ar  
 28  12  37  1   
 29  13  15  ar  
 30  13  38  1   
 31  14  16  ar  
 32  14  17  ar  
 33  15  39  1   
 34  16  18  ar  
 35  17  19  ar  
 36  17  20  1   
 37  18  21  ar  
 38  18  22  1   
 39  19  21  ar  
 40  19  40  1   
 41  20  23  1   
 42  20  41  1   
 43  20  42  1   
 44  22  43  1   
 45  22  44  1   
 46  22  45  1   
 47  23  24  1   
 48  23  46  1   
 49  23  47  1   
 50  24  48  1   
 51  24  49  1   
 52  24  50  1   
@<TRIPOS>SUBSTRUCTURE
  1 ****   5 GROUP 4 **** **** 0

# MOE 2024.06 (io_trps.svl 2023.06)
