@<TRIPOS>MOLECULE
NONAME
50 52 1 0 0 
SMALL
USER_CHARGES


@<TRIPOS>ATOM
  1 O       -0.7870     0.3250     2.2870 O.2   1 <1>  -0.5700 
  2 C       -1.5200     0.9710     1.5610 C.2   1 <1>   0.5440 
  3 N       -2.5620     0.3340     0.9310 N.am  1 <1>  -0.6600 
  4 C       -1.3020     2.3900     1.3990 C.ar  1 <1>   0.0860 
  5 C       -3.4230     0.9380    -0.1160 C.3   1 <1>   0.1400 
  6 C       -2.8090    -1.1200     1.0160 C.3   1 <1>   0.1400 
  7 C       -0.7230     2.9210     0.2440 C.ar  1 <1>   0.0830 
  8 C       -1.6670     3.2730     2.4140 C.ar  1 <1>  -0.1500 
  9 C       -4.2840    -0.2110    -0.6600 C.3   1 <1>   0.2000 
 10 C       -3.4830    -1.4700    -0.3110 C.3   1 <1>  -0.0800 
 11 O       -0.3570     2.0840    -0.7540 O.3   1 <1>  -0.3630 
 12 C       -0.5320     4.2970     0.1000 C.ar  1 <1>   0.0830 
 13 C       -1.4800     4.6350     2.2840 C.ar  1 <1>  -0.1500 
 14 O       -5.5110    -0.2540     0.0140 O.3   1 <1>  -0.5600 
 15 C       -4.3120    -2.7660    -0.2590 C.3   1 <1>   0.0200 
 16 C        0.9730     1.6210    -0.7120 C.3   1 <1>   0.0400 
 17 O        0.0310     4.7480    -1.0580 O.3   1 <1>  -0.3630 
 18 C       -0.9150     5.1500     1.1290 C.ar  1 <1>  -0.1500 
 19 C       -6.4970     0.5900    -0.4930 C.3   1 <1>   0.0400 
 20 C       -3.4620    -4.0140    -0.0900 C.2   1 <1>  -0.0400 
 21 C        0.2260     6.1230    -1.3020 C.3   1 <1>   0.0400 
 22 O       -4.0610    -5.1690     0.0400 O.3   1 <1>  -0.0190 
 23 C       -2.1380    -4.2360    -0.0440 C.2   1 <1>  -0.1500 
 24 N       -3.2130    -6.1470     0.1730 N.2   1 <1>  -0.4100 
 25 C       -2.0450    -5.6140     0.1280 C.2   1 <1>   0.1080 
 26 C       -0.7580    -6.3980     0.2490 C.3   1 <1>  -0.0590 
 27 H       -4.0220     1.7320     0.2940 H     1 <1>   0.0800 
 28 H       -2.8000     1.3230    -0.9030 H     1 <1>   0.0800 
 29 H       -1.8910    -1.6620     1.1620 H     1 <1>   0.0800 
 30 H       -3.4740    -1.3090     1.8420 H     1 <1>   0.0800 
 31 H       -2.1020     2.8720     3.3140 H     1 <1>   0.1500 
 32 H       -4.4630    -0.1290    -1.7190 H     1 <1>   0.0800 
 33 H       -2.7110    -1.5800    -1.0520 H     1 <1>   0.0800 
 34 H       -1.7710     5.2970     3.0810 H     1 <1>   0.1500 
 35 H       -4.8780    -2.8620    -1.1690 H     1 <1>   0.0800 
 36 H       -5.0140    -2.7160     0.5560 H     1 <1>   0.0800 
 37 H        1.1320     0.9750    -1.5560 H     1 <1>   0.0800 
 38 H        1.1250     1.0780     0.2050 H     1 <1>   0.0800 
 39 H        1.6360     2.4670    -0.7640 H     1 <1>   0.0800 
 40 H       -0.7830     6.2130     1.0570 H     1 <1>   0.1500 
 41 H       -7.3790     0.4720     0.1120 H     1 <1>   0.0800 
 42 H       -6.7160     0.3110    -1.5090 H     1 <1>   0.0800 
 43 H       -6.1600     1.6110    -0.4430 H     1 <1>   0.0800 
 44 H        0.6650     6.2290    -2.2770 H     1 <1>   0.0800 
 45 H        0.8930     6.5190    -0.5570 H     1 <1>   0.0800 
 46 H       -0.7270     6.6210    -1.2750 H     1 <1>   0.0800 
 47 H       -1.3150    -3.5500    -0.1170 H     1 <1>   0.1500 
 48 H        0.0900    -5.7410     0.1900 H     1 <1>   0.0800 
 49 H       -0.7010    -7.1190    -0.5450 H     1 <1>   0.0800 
 50 H       -0.7390    -6.9140     1.1910 H     1 <1>   0.0800 
@<TRIPOS>BOND
  1   1   2  2   
  2   2   3  am  
  3   2   4  1   
  4   3   5  1   
  5   3   6  1   
  6   4   7  ar  
  7   4   8  ar  
  8   5   9  1   
  9   5  27  1   
 10   5  28  1   
 11   6  10  1   
 12   6  29  1   
 13   6  30  1   
 14   7  11  1   
 15   7  12  ar  
 16   8  13  ar  
 17   8  31  1   
 18   9  10  1   
 19   9  14  1   
 20   9  32  1   
 21  10  15  1   
 22  10  33  1   
 23  11  16  1   
 24  12  17  1   
 25  12  18  ar  
 26  13  18  ar  
 27  13  34  1   
 28  14  19  1   
 29  15  20  1   
 30  15  35  1   
 31  15  36  1   
 32  16  37  1   
 33  16  38  1   
 34  16  39  1   
 35  17  21  1   
 36  18  40  1   
 37  19  41  1   
 38  19  42  1   
 39  19  43  1   
 40  20  22  1   
 41  20  23  2   
 42  21  44  1   
 43  21  45  1   
 44  21  46  1   
 45  22  24  1   
 46  23  25  1   
 47  23  47  1   
 48  24  25  2   
 49  25  26  1   
 50  26  48  1   
 51  26  49  1   
 52  26  50  1   
@<TRIPOS>SUBSTRUCTURE
  1 ****   3 GROUP 4 **** **** 0

# MOE 2024.06 (io_trps.svl 2023.06)
