@<TRIPOS>MOLECULE
NONAME
35 36 1 0 0 
SMALL
USER_CHARGES


@<TRIPOS>ATOM
  1 S       -0.6050     1.1580    -1.0170 S.3   1 <1>  -0.4600 
  2 C        0.4180    -0.1540    -0.2670 C.3   1 <1>   0.2510 
  3 C       -2.2130     0.3420    -1.2510 C.3   1 <1>   0.0700 
  4 C        1.8910     0.2270    -0.2670 C.2   1 <1>   0.0460 
  5 C       -2.9360     0.2630     0.0940 C.3   1 <1>   0.1400 
  6 N        2.7970    -0.6580    -0.7310 N.2   1 <1>  -0.5650 
  7 C        2.5020     1.3620     0.1560 C.2   1 <1>  -0.3320 
  8 N       -4.0280    -0.7460     0.0120 N.am  1 <1>  -0.4690 
  9 C        3.9270    -0.0460    -0.6010 C.2   1 <1>   0.0360 
 10 N        3.8170     1.1880    -0.0690 N.pl3 1 <1>   0.0330 
 11 C        1.9460     2.6350     0.7730 C.3   1 <1>  -0.0600 
 12 C       -5.2660    -0.3500    -0.5260 C.2   1 <1>   0.6160 
 13 C       -3.8510    -2.0850     0.3860 C.2   1 <1>  -0.0290 
 14 O       -5.4080     0.8400    -0.8750 O.2   1 <1>  -0.5700 
 15 C       -6.2870    -1.2830    -0.6680 C.2   1 <1>  -0.1360 
 16 C       -4.8600    -2.9810     0.2360 C.2   1 <1>  -0.1500 
 17 C       -2.5180    -2.5400     0.9600 C.3   1 <1>  -0.1020 
 18 C       -6.1190    -2.6070    -0.3000 C.2   1 <1>  -0.1500 
 19 O       -7.0180    -3.4530    -0.4280 O.3   1 <1>  -0.8500 
 20 H        0.2670    -1.0410    -0.8560 H     1 <1>   0.0800 
 21 H        0.0680    -0.3130     0.7350 H     1 <1>   0.0800 
 22 H       -2.0200    -0.6360    -1.6560 H     1 <1>   0.0800 
 23 H       -2.7770     0.9300    -1.9530 H     1 <1>   0.0800 
 24 H       -3.3450     1.2270     0.3400 H     1 <1>   0.0800 
 25 H       -2.2510    -0.0010     0.8750 H     1 <1>   0.0800 
 26 H        4.8780    -0.4640    -0.8830 H     1 <1>   0.1500 
 27 H        4.5750     1.8480     0.1200 H     1 <1>   0.2700 
 28 H        0.8990     2.5260     0.9890 H     1 <1>   0.0800 
 29 H        2.0680     3.4570     0.0910 H     1 <1>   0.0800 
 30 H        2.4580     2.8600     1.6910 H     1 <1>   0.0800 
 31 H       -7.2280    -0.9790    -1.0750 H     1 <1>   0.1500 
 32 H       -4.7760    -4.0150     0.5070 H     1 <1>   0.1500 
 33 H       -1.7290    -2.3580     0.2550 H     1 <1>   0.0800 
 34 H       -2.5450    -3.5940     1.1680 H     1 <1>   0.0800 
 35 H       -2.3160    -2.0230     1.8790 H     1 <1>   0.0800 
@<TRIPOS>BOND
  1   1   2  1   
  2   1   3  1   
  3   2   4  1   
  4   2  20  1   
  5   2  21  1   
  6   3   5  1   
  7   3  22  1   
  8   3  23  1   
  9   4   6  1   
 10   4   7  2   
 11   5   8  1   
 12   5  24  1   
 13   5  25  1   
 14   6   9  2   
 15   7  10  1   
 16   7  11  1   
 17   8  12  am  
 18   8  13  1   
 19   9  10  1   
 20   9  26  1   
 21  10  27  1   
 22  11  28  1   
 23  11  29  1   
 24  11  30  1   
 25  12  14  2   
 26  12  15  1   
 27  13  16  2   
 28  13  17  1   
 29  15  18  2   
 30  15  31  1   
 31  16  18  1   
 32  16  32  1   
 33  17  33  1   
 34  17  34  1   
 35  17  35  1   
 36  18  19  1   
@<TRIPOS>SUBSTRUCTURE
  1 ****   3 GROUP 4 **** **** 0

# MOE 2024.06 (io_trps.svl 2023.06)
