@<TRIPOS>MOLECULE
NONAME
40 42 1 0 0 
SMALL
USER_CHARGES


@<TRIPOS>ATOM
  1 O        0.7200     0.7520    -1.4050 O.2   1 <1>  -0.5700 
  2 C        1.5070     0.0890    -0.7740 C.2   1 <1>   0.5690 
  3 N        2.5280     0.6540    -0.0570 N.am  1 <1>  -0.6600 
  4 C        1.3270    -1.4110    -0.8020 C.3   1 <1>  -0.1790 
  5 C        2.7130     2.1350     0.0030 C.3   1 <1>   0.1400 
  6 C        3.5840    -0.0840     0.6980 C.3   1 <1>   0.1400 
  7 C        4.1340     2.5300    -0.4310 C.3   1 <1>   0.1100 
  8 C        4.9850     0.3520     0.2340 C.3   1 <1>   0.1100 
  9 N        5.1720     1.8130     0.3470 N.3   1 <1>  -0.8100 
 10 C        6.5440     2.2000    -0.0780 C.3   1 <1>   0.2910 
 11 C        6.8950     3.6750     0.1450 C.2   1 <1>   0.3350 
 12 N        7.4910     4.1330     1.1740 N.2   1 <1>  -0.4100 
 13 N        6.6200     4.6080    -0.7620 N.2   1 <1>  -0.5650 
 14 O        7.6350     5.4110     0.9990 O.3   1 <1>  -0.0190 
 15 C        7.0960     5.6360    -0.1750 C.2   1 <1>   0.2980 
 16 C        7.0670     7.0680    -0.7080 C.3   1 <1>   0.3800 
 17 O        8.3450     7.6480    -0.6730 O.3   1 <1>  -0.5600 
 18 C        6.1530     7.9970     0.1000 C.3   1 <1>  -0.1600 
 19 C        8.4200     8.6460     0.2900 C.3   1 <1>   0.1200 
 20 C        7.0150     9.2160     0.3740 C.3   1 <1>  -0.1600 
 21 H        1.2170    -1.7830     0.1980 H     1 <1>   0.0800 
 22 H        2.1740    -1.8690    -1.2750 H     1 <1>   0.0800 
 23 H        0.4440    -1.6580    -1.3610 H     1 <1>   0.0800 
 24 H        2.5470     2.4690     1.0110 H     1 <1>   0.0800 
 25 H        2.0000     2.6320    -0.6310 H     1 <1>   0.0800 
 26 H        3.4860    -1.1450     0.5670 H     1 <1>   0.0800 
 27 H        3.4800     0.1330     1.7470 H     1 <1>   0.0800 
 28 H        4.2410     3.5900    -0.2860 H     1 <1>   0.0800 
 29 H        4.2500     2.3230    -1.4810 H     1 <1>   0.0800 
 30 H        5.1260     0.0430    -0.7880 H     1 <1>   0.0800 
 31 H        5.7190    -0.1470     0.8420 H     1 <1>   0.0800 
 32 H        6.6770     1.9730    -1.1210 H     1 <1>   0.0800 
 33 H        7.2530     1.6160     0.4790 H     1 <1>   0.0800 
 34 H        6.7600     7.0530    -1.7390 H     1 <1>   0.0800 
 35 H        5.8720     7.5250     1.0250 H     1 <1>   0.0800 
 36 H        5.2610     8.2420    -0.4480 H     1 <1>   0.0800 
 37 H        9.1510     9.3770    -0.0110 H     1 <1>   0.0800 
 38 H        8.7120     8.1890     1.2200 H     1 <1>   0.0800 
 39 H        6.8170     9.6620     1.3320 H     1 <1>   0.0800 
 40 H        6.8860     9.9540    -0.3990 H     1 <1>   0.0800 
@<TRIPOS>BOND
  1   1   2  2   
  2   2   3  am  
  3   2   4  1   
  4   3   5  1   
  5   3   6  1   
  6   4  21  1   
  7   4  22  1   
  8   4  23  1   
  9   5   7  1   
 10   5  24  1   
 11   5  25  1   
 12   6   8  1   
 13   6  26  1   
 14   6  27  1   
 15   7   9  1   
 16   7  28  1   
 17   7  29  1   
 18   8   9  1   
 19   8  30  1   
 20   8  31  1   
 21   9  10  1   
 22  10  11  1   
 23  10  32  1   
 24  10  33  1   
 25  11  12  2   
 26  11  13  1   
 27  12  14  1   
 28  13  15  2   
 29  14  15  1   
 30  15  16  1   
 31  16  17  1   
 32  16  18  1   
 33  16  34  1   
 34  17  19  1   
 35  18  20  1   
 36  18  35  1   
 37  18  36  1   
 38  19  20  1   
 39  19  37  1   
 40  19  38  1   
 41  20  39  1   
 42  20  40  1   
@<TRIPOS>SUBSTRUCTURE
  1 ****  11 GROUP 4 **** **** 0

# MOE 2024.06 (io_trps.svl 2023.06)
