@<TRIPOS>MOLECULE
NONAME
47 48 1 0 0 
SMALL
USER_CHARGES


@<TRIPOS>ATOM
  1 O       -0.3710     0.2570    -0.1090 O.2   1 <1>  -0.5700 
  2 C       -1.4340     0.8250    -0.1880 C.2   1 <1>   0.5690 
  3 N       -2.6020     0.1280    -0.3310 N.am  1 <1>  -0.6600 
  4 C       -1.4800     2.3490    -0.1230 C.3   1 <1>  -0.0990 
  5 C       -3.9700     0.6970    -0.3840 C.3   1 <1>   0.1400 
  6 C       -2.6470    -1.3530    -0.3890 C.3   1 <1>   0.1400 
  7 C       -0.1010     3.0290    -0.0400 C.3   1 <1>  -0.1600 
  8 C       -4.9020    -0.5130    -0.4810 C.3   1 <1>   0.2000 
  9 C       -4.0830    -1.7150    -0.0100 C.3   1 <1>  -0.0800 
 10 C       -0.2290     4.5570     0.0140 C.3   1 <1>  -0.1600 
 11 O       -6.0200    -0.3610     0.3230 O.3   1 <1>  -0.6800 
 12 C       -4.5820    -3.0400    -0.6110 C.3   1 <1>  -0.0170 
 13 C        1.1510     5.2250     0.0970 C.3   1 <1>  -0.1600 
 14 C       -3.7770    -4.2280    -0.1080 C.ar  1 <1>   0.1670 
 15 C        1.0300     6.7470     0.1520 C.3   1 <1>   0.1200 
 16 N       -2.6410    -4.4810    -0.7370 N.ar  1 <1>  -0.6200 
 17 C       -4.2470    -4.9840     0.9660 C.ar  1 <1>   0.1600 
 18 O        2.3120     7.2770     0.2240 O.3   1 <1>  -0.5600 
 19 C       -2.0100    -5.5240    -0.2240 C.ar  1 <1>   0.1600 
 20 N       -3.6180    -6.0280     1.4800 N.ar  1 <1>  -0.6200 
 21 C        2.3470     8.6650     0.2800 C.3   1 <1>   0.0400 
 22 C       -2.4820    -6.2710     0.8480 C.ar  1 <1>   0.1600 
 23 H       -1.9880     2.7040    -1.0010 H     1 <1>   0.0800 
 24 H       -2.0580     2.6270     0.7380 H     1 <1>   0.0800 
 25 H       -4.1600     1.2590     0.5140 H     1 <1>   0.0800 
 26 H       -4.0790     1.3260    -1.2500 H     1 <1>   0.0800 
 27 H       -2.4190    -1.6720    -1.3920 H     1 <1>   0.0800 
 28 H       -1.9340    -1.7910     0.2900 H     1 <1>   0.0800 
 29 H        0.4140     2.6780     0.8380 H     1 <1>   0.0800 
 30 H        0.4850     2.7450    -0.8990 H     1 <1>   0.0800 
 31 H       -5.2300    -0.6370    -1.5000 H     1 <1>   0.0800 
 32 H       -4.1190    -1.7740     1.0640 H     1 <1>   0.0800 
 33 H       -0.8110     4.8370     0.8760 H     1 <1>   0.0800 
 34 H       -0.7400     4.9060    -0.8670 H     1 <1>   0.0800 
 35 H       -5.7550    -0.2620     1.2580 H     1 <1>   0.4000 
 36 H       -4.5170    -3.0050    -1.6850 H     1 <1>   0.0800 
 37 H       -5.6180    -3.1760    -0.3550 H     1 <1>   0.0800 
 38 H        1.7350     4.9530    -0.7650 H     1 <1>   0.0800 
 39 H        1.6640     4.8840     0.9800 H     1 <1>   0.0800 
 40 H        0.4800     7.0530     1.0260 H     1 <1>   0.0800 
 41 H        0.5510     7.1220    -0.7370 H     1 <1>   0.0800 
 42 H       -5.1830    -4.7120     1.4200 H     1 <1>   0.1500 
 43 H       -1.0730    -5.8000    -0.6730 H     1 <1>   0.1500 
 44 H        3.3780     8.9710     0.3330 H     1 <1>   0.0800 
 45 H        1.8240     8.9990     1.1590 H     1 <1>   0.0800 
 46 H        1.8950     9.0690    -0.6090 H     1 <1>   0.0800 
 47 H       -1.8960    -7.1030     1.1950 H     1 <1>   0.1500 
@<TRIPOS>BOND
  1   1   2  2   
  2   2   3  am  
  3   2   4  1   
  4   3   5  1   
  5   3   6  1   
  6   4   7  1   
  7   4  23  1   
  8   4  24  1   
  9   5   8  1   
 10   5  25  1   
 11   5  26  1   
 12   6   9  1   
 13   6  27  1   
 14   6  28  1   
 15   7  10  1   
 16   7  29  1   
 17   7  30  1   
 18   8   9  1   
 19   8  11  1   
 20   8  31  1   
 21   9  12  1   
 22   9  32  1   
 23  10  13  1   
 24  10  33  1   
 25  10  34  1   
 26  11  35  1   
 27  12  14  1   
 28  12  36  1   
 29  12  37  1   
 30  13  15  1   
 31  13  38  1   
 32  13  39  1   
 33  14  16  ar  
 34  14  17  ar  
 35  15  18  1   
 36  15  40  1   
 37  15  41  1   
 38  16  19  ar  
 39  17  20  ar  
 40  17  42  1   
 41  18  21  1   
 42  19  22  ar  
 43  19  43  1   
 44  20  22  ar  
 45  21  44  1   
 46  21  45  1   
 47  21  46  1   
 48  22  47  1   
@<TRIPOS>SUBSTRUCTURE
  1 ****   3 GROUP 4 **** **** 0

# MOE 2024.06 (io_trps.svl 2023.06)
