@<TRIPOS>MOLECULE
NONAME
41 42 1 0 0 
SMALL
USER_CHARGES


@<TRIPOS>ATOM
  1 CL       1.7670    -1.5270     2.7970 Cl    1 <1>  -0.1770 
  2 C        0.9740    -2.6560     1.7330 C.ar  1 <1>   0.1770 
  3 C        1.6190    -3.8270     1.3800 C.ar  1 <1>  -0.1500 
  4 C       -0.2890    -2.3660     1.2530 C.ar  1 <1>  -0.1500 
  5 C        0.9830    -4.7210     0.5360 C.ar  1 <1>  -0.1500 
  6 C       -0.9150    -3.2670     0.4090 C.ar  1 <1>  -0.1500 
  7 C       -0.2960    -4.4630     0.0390 C.ar  1 <1>   0.0860 
  8 C       -0.9520    -5.4060    -0.8440 C.2   1 <1>   0.5440 
  9 O       -0.5030    -5.5690    -1.9630 O.2   1 <1>  -0.5700 
 10 N       -2.0640    -6.1200    -0.4530 N.am  1 <1>  -0.6600 
 11 C       -2.7770    -7.0170    -1.4310 C.3   1 <1>   0.1400 
 12 C       -2.6040    -6.1180     0.9470 C.3   1 <1>   0.1400 
 13 C       -3.6450    -8.0540    -0.7050 C.3   1 <1>   0.2000 
 14 C       -4.1320    -6.1270     0.8910 C.3   1 <1>  -0.1600 
 15 O       -4.2590    -8.9180    -1.5970 O.3   1 <1>  -0.6800 
 16 C       -4.6930    -7.4440     0.2640 C.3   1 <1>  -0.1060 
 17 C       -4.8590    -8.5530     1.3200 C.2   1 <1>   0.9060 
 18 C       -6.0950    -7.1380    -0.3610 C.3   1 <1>  -0.1600 
 19 O       -4.4810    -8.3720     2.4830 O.co2 1 <1>  -0.9000 
 20 O       -5.3160    -9.6450     0.9480 O.co2 1 <1>  -0.9000 
 21 C       -6.1240    -6.2650    -1.6310 C.3   1 <1>  -0.1600 
 22 C       -7.5650    -5.9880    -2.0670 C.3   1 <1>  -0.2400 
 23 H        2.6030    -4.0310     1.7620 H     1 <1>   0.1500 
 24 H       -0.7700    -1.4460     1.5370 H     1 <1>   0.1500 
 25 H        1.4730    -5.6350     0.2470 H     1 <1>   0.1500 
 26 H       -1.8980    -3.0530     0.0240 H     1 <1>   0.1500 
 27 H       -3.3880    -6.4110    -2.0720 H     1 <1>   0.0800 
 28 H       -2.0520    -7.5340    -2.0350 H     1 <1>   0.0800 
 29 H       -2.2570    -6.9920     1.4730 H     1 <1>   0.0800 
 30 H       -2.2750    -5.2520     1.4900 H     1 <1>   0.0800 
 31 H       -2.9630    -8.6660    -0.1360 H     1 <1>   0.0800 
 32 H       -4.5270    -5.9980     1.8840 H     1 <1>   0.0800 
 33 H       -4.4350    -5.2630     0.3330 H     1 <1>   0.0800 
 34 H       -4.8160    -9.5150    -1.0340 H     1 <1>   0.4000 
 35 H       -6.5770    -8.0710    -0.6000 H     1 <1>   0.0800 
 36 H       -6.7010    -6.6750     0.3990 H     1 <1>   0.0800 
 37 H       -5.6260    -5.3270    -1.4690 H     1 <1>   0.0800 
 38 H       -5.6180    -6.7780    -2.4300 H     1 <1>   0.0800 
 39 H       -8.0950    -5.4570    -1.2960 H     1 <1>   0.0800 
 40 H       -8.0770    -6.9130    -2.2660 H     1 <1>   0.0800 
 41 H       -7.5710    -5.3930    -2.9630 H     1 <1>   0.0800 
@<TRIPOS>BOND
  1   1   2  1   
  2   2   3  ar  
  3   2   4  ar  
  4   3   5  ar  
  5   3  23  1   
  6   4   6  ar  
  7   4  24  1   
  8   5   7  ar  
  9   5  25  1   
 10   6   7  ar  
 11   6  26  1   
 12   7   8  1   
 13   8   9  2   
 14   8  10  am  
 15  10  11  1   
 16  10  12  1   
 17  11  13  1   
 18  11  27  1   
 19  11  28  1   
 20  12  14  1   
 21  12  29  1   
 22  12  30  1   
 23  13  15  1   
 24  13  16  1   
 25  13  31  1   
 26  14  16  1   
 27  14  32  1   
 28  14  33  1   
 29  15  34  1   
 30  16  17  1   
 31  16  18  1   
 32  17  19  ar  
 33  17  20  ar  
 34  18  21  1   
 35  18  35  1   
 36  18  36  1   
 37  21  22  1   
 38  21  37  1   
 39  21  38  1   
 40  22  39  1   
 41  22  40  1   
 42  22  41  1   
@<TRIPOS>SUBSTRUCTURE
  1 ****  12 GROUP 4 **** **** 0

# MOE 2024.06 (io_trps.svl 2023.06)
