@<TRIPOS>MOLECULE
NONAME
36 37 1 0 0 
SMALL
USER_CHARGES


@<TRIPOS>ATOM
  1 N       -0.2040    -0.7660     0.8580 N.ar  1 <1>  -0.6200 
  2 C        0.1810    -1.9170     0.3320 C.ar  1 <1>   0.7200 
  3 C        0.5050     0.2810     0.5170 C.ar  1 <1>   0.1660 
  4 N        1.1900    -2.1270    -0.5060 N.ar  1 <1>  -0.6200 
  5 N       -0.5710    -2.9700     0.7080 N.pl3 1 <1>  -0.8690 
  6 C        1.5780     0.1800    -0.3380 C.ar  1 <1>  -0.1500 
  7 C        0.0910     1.6120     1.1070 C.3   1 <1>  -0.0970 
  8 C        1.8860    -1.0670    -0.8310 C.ar  1 <1>   0.1670 
  9 C       -0.7980    -4.1270    -0.1560 C.3   1 <1>   0.4330 
 10 C        3.0500    -1.2740    -1.7770 C.3   1 <1>  -0.0960 
 11 C       -2.2760    -4.4820    -0.1000 C.ar  1 <1>  -0.1430 
 12 C        0.0730    -5.2760     0.3370 C.3   1 <1>  -0.2400 
 13 C       -3.0200    -4.5180    -1.2700 C.ar  1 <1>   0.1600 
 14 C       -2.9140    -4.7720     1.0920 C.ar  1 <1>  -0.1500 
 15 N       -4.3070    -4.8170    -1.3450 N.ar  1 <1>  -0.6200 
 16 C       -4.2550    -5.0820     1.0300 C.ar  1 <1>  -0.1500 
 17 C       -4.8990    -5.0910    -0.1970 C.ar  1 <1>   0.1670 
 18 C       -6.3720    -5.4290    -0.2800 C.3   1 <1>  -0.0970 
 19 H       -1.4110    -2.6640     1.1900 H     1 <1>   0.4000 
 20 H        2.1540     1.0430    -0.6100 H     1 <1>   0.1500 
 21 H        0.1360     1.5570     2.1800 H     1 <1>   0.0800 
 22 H       -0.9180     1.8350     0.8150 H     1 <1>   0.0800 
 23 H        0.7360     2.4020     0.7710 H     1 <1>   0.0800 
 24 H       -0.5240    -3.8850    -1.1700 H     1 <1>   0.0800 
 25 H        3.7420    -1.9730    -1.3450 H     1 <1>   0.0800 
 26 H        3.5620    -0.3500    -1.9700 H     1 <1>   0.0800 
 27 H        2.6900    -1.6750    -2.7070 H     1 <1>   0.0800 
 28 H       -0.1430    -5.5050     1.3630 H     1 <1>   0.0800 
 29 H        1.1100    -5.0060     0.2460 H     1 <1>   0.0800 
 30 H       -0.1070    -6.1510    -0.2610 H     1 <1>   0.0800 
 31 H       -2.5330    -4.2870    -2.2020 H     1 <1>   0.1500 
 32 H       -2.3880    -4.7580     2.0310 H     1 <1>   0.1500 
 33 H       -4.7930    -5.3140     1.9310 H     1 <1>   0.1500 
 34 H       -6.9040    -4.6010    -0.7120 H     1 <1>   0.0800 
 35 H       -6.7800    -5.6380     0.6910 H     1 <1>   0.0800 
 36 H       -6.5060    -6.2900    -0.9090 H     1 <1>   0.0800 
@<TRIPOS>BOND
  1   1   2  ar  
  2   1   3  ar  
  3   2   4  ar  
  4   2   5  1   
  5   3   6  ar  
  6   3   7  1   
  7   4   8  ar  
  8   5   9  1   
  9   5  19  1   
 10   6   8  ar  
 11   6  20  1   
 12   7  21  1   
 13   7  22  1   
 14   7  23  1   
 15   8  10  1   
 16   9  11  1   
 17   9  12  1   
 18   9  24  1   
 19  10  25  1   
 20  10  26  1   
 21  10  27  1   
 22  11  13  ar  
 23  11  14  ar  
 24  12  28  1   
 25  12  29  1   
 26  12  30  1   
 27  13  15  ar  
 28  13  31  1   
 29  14  16  ar  
 30  14  32  1   
 31  15  17  ar  
 32  16  17  ar  
 33  16  33  1   
 34  17  18  1   
 35  18  34  1   
 36  18  35  1   
 37  18  36  1   
@<TRIPOS>SUBSTRUCTURE
  1 ****   5 GROUP 4 **** **** 0

# MOE 2024.06 (io_trps.svl 2023.06)
