@<TRIPOS>MOLECULE
NONAME
47 49 1 0 0 
SMALL
USER_CHARGES


@<TRIPOS>ATOM
  1 O       -0.2410     0.1430     0.3220 O.2   1 <1>  -0.5700 
  2 C       -1.2510     0.8180     0.2630 C.2   1 <1>   0.5440 
  3 N       -2.4660     0.1750     0.1950 N.am  1 <1>  -0.6600 
  4 C       -1.1580     2.2640     0.2540 C.ar  1 <1>   0.0860 
  5 C       -3.7060     0.7830    -0.3510 C.3   1 <1>   0.1400 
  6 C       -2.5680    -1.3040     0.2000 C.3   1 <1>   0.1400 
  7 C       -0.3080     2.9210    -0.6310 C.ar  1 <1>  -0.1500 
  8 C       -1.9070     3.0520     1.1260 C.ar  1 <1>  -0.1500 
  9 C       -4.5150    -0.3960    -0.8910 C.3   1 <1>   0.2000 
 10 C       -4.0340    -1.6150    -0.1080 C.3   1 <1>  -0.0800 
 11 C       -0.2110     4.3000    -0.6690 C.ar  1 <1>   0.0830 
 12 C       -1.8310     4.4320     1.1010 C.ar  1 <1>  -0.1500 
 13 O       -5.8760    -0.2120    -0.7000 O.3   1 <1>  -0.6800 
 14 C       -4.2380    -2.9340    -0.8690 C.3   1 <1>  -0.0170 
 15 O        0.6610     4.7990    -1.5870 O.3   1 <1>  -0.3630 
 16 C       -0.9920     5.0810     0.1980 C.ar  1 <1>   0.0830 
 17 C       -3.7530    -4.1190    -0.0480 C.ar  1 <1>  -0.1430 
 18 C        1.5080     5.8750    -1.2420 C.3   1 <1>   0.0400 
 19 O       -0.9280     6.4380     0.1300 O.3   1 <1>  -0.3620 
 20 C       -2.4920    -4.6580    -0.2080 C.ar  1 <1>  -0.1500 
 21 C       -4.5530    -4.7150     0.9050 C.ar  1 <1>  -0.1500 
 22 C       -1.7480     7.2780     0.9120 C.3   1 <1>   0.0400 
 23 C       -2.1030    -5.7330     0.5730 C.ar  1 <1>   0.1600 
 24 C       -4.0680    -5.7890     1.6330 C.ar  1 <1>   0.1600 
 25 N       -2.8600    -6.3110     1.4910 N.ar  1 <1>  -0.6200 
 26 H       -4.2350     1.2780     0.4430 H     1 <1>   0.0800 
 27 H       -3.4750     1.4800    -1.1380 H     1 <1>   0.0800 
 28 H       -1.9210    -1.6990    -0.5650 H     1 <1>   0.0800 
 29 H       -2.2700    -1.7030     1.1550 H     1 <1>   0.0800 
 30 H        0.2950     2.3380    -1.3040 H     1 <1>   0.1500 
 31 H       -2.5540     2.5670     1.8360 H     1 <1>   0.1500 
 32 H       -4.3320    -0.5090    -1.9470 H     1 <1>   0.0800 
 33 H       -4.5520    -1.6620     0.8340 H     1 <1>   0.0800 
 34 H       -2.4360     4.9850     1.7950 H     1 <1>   0.1500 
 35 H       -6.0800    -0.1420     0.2520 H     1 <1>   0.4000 
 36 H       -3.7130    -2.9040    -1.8070 H     1 <1>   0.0800 
 37 H       -5.2840    -3.0600    -1.0890 H     1 <1>   0.0800 
 38 H        2.3660     5.8450    -1.8880 H     1 <1>   0.0800 
 39 H        1.8130     5.7700    -0.2160 H     1 <1>   0.0800 
 40 H        0.9750     6.7970    -1.3890 H     1 <1>   0.0800 
 41 H       -1.8060    -4.2540    -0.9310 H     1 <1>   0.1500 
 42 H       -5.5490    -4.3560     1.0880 H     1 <1>   0.1500 
 43 H       -1.5300     8.2970     0.6470 H     1 <1>   0.0800 
 44 H       -1.5240     7.1170     1.9520 H     1 <1>   0.0800 
 45 H       -2.7780     7.0590     0.6980 H     1 <1>   0.0800 
 46 H       -1.1150    -6.1390     0.4360 H     1 <1>   0.1500 
 47 H       -4.7060    -6.2410     2.3720 H     1 <1>   0.1500 
@<TRIPOS>BOND
  1   1   2  2   
  2   2   3  am  
  3   2   4  1   
  4   3   5  1   
  5   3   6  1   
  6   4   7  ar  
  7   4   8  ar  
  8   5   9  1   
  9   5  26  1   
 10   5  27  1   
 11   6  10  1   
 12   6  28  1   
 13   6  29  1   
 14   7  11  ar  
 15   7  30  1   
 16   8  12  ar  
 17   8  31  1   
 18   9  10  1   
 19   9  13  1   
 20   9  32  1   
 21  10  14  1   
 22  10  33  1   
 23  11  15  1   
 24  11  16  ar  
 25  12  16  ar  
 26  12  34  1   
 27  13  35  1   
 28  14  17  1   
 29  14  36  1   
 30  14  37  1   
 31  15  18  1   
 32  16  19  1   
 33  17  20  ar  
 34  17  21  ar  
 35  18  38  1   
 36  18  39  1   
 37  18  40  1   
 38  19  22  1   
 39  20  23  ar  
 40  20  41  1   
 41  21  24  ar  
 42  21  42  1   
 43  22  43  1   
 44  22  44  1   
 45  22  45  1   
 46  23  25  ar  
 47  23  46  1   
 48  24  25  ar  
 49  24  47  1   
@<TRIPOS>SUBSTRUCTURE
  1 ****   3 GROUP 4 **** **** 0

# MOE 2024.06 (io_trps.svl 2023.06)
