@<TRIPOS>MOLECULE
NONAME
29 30 1 0 0 
SMALL
USER_CHARGES


@<TRIPOS>ATOM
  1 O        2.9690    -1.0080     1.3280 O.2   1 <1>  -0.5700 
  2 C        2.1960    -1.1310     0.4070 C.2   1 <1>   0.5690 
  3 N        1.6890    -0.0820    -0.3020 N.am  1 <1>  -0.4930 
  4 C        1.7890    -2.5370     0.0240 C.3   1 <1>   0.1570 
  5 C        1.8710     1.3150    -0.1470 C.2   1 <1>   0.0630 
  6 N        0.3440    -2.6000    -0.2440 N.pl3 1 <1>   0.3140 
  7 C        2.9950     2.0680     0.2140 C.2   1 <1>   0.1080 
  8 C        0.9090     2.2350    -0.3610 C.2   1 <1>  -0.3020 
  9 N       -0.1990    -2.0430    -1.3470 N.2   1 <1>  -0.7070 
 10 C       -0.6000    -3.1840     0.5210 C.2   1 <1>  -0.3020 
 11 N        2.7460     3.3430     0.2270 N.2   1 <1>  -0.7070 
 12 C        4.3720     1.5360     0.5440 C.3   1 <1>  -0.0590 
 13 N        1.4560     3.4450    -0.1250 N.pl3 1 <1>   0.3140 
 14 C       -1.4710    -2.2940    -1.2550 C.2   1 <1>   0.1390 
 15 C       -1.7830    -3.0050    -0.1040 C.2   1 <1>  -0.1500 
 16 C        0.7810     4.7430    -0.2180 C.3   1 <1>   0.0160 
 17 H        0.9390    -0.3440    -0.9590 H     1 <1>   0.3700 
 18 H        2.0290    -3.2130     0.8220 H     1 <1>   0.0800 
 19 H        2.3170    -2.8330    -0.8610 H     1 <1>   0.0800 
 20 H       -0.1130     2.0980    -0.6580 H     1 <1>   0.1500 
 21 H       -0.3860    -3.6830     1.4490 H     1 <1>   0.1500 
 22 H        4.5960     0.6830    -0.0660 H     1 <1>   0.0800 
 23 H        4.4060     1.2520     1.5790 H     1 <1>   0.0800 
 24 H        5.1090     2.2970     0.3660 H     1 <1>   0.0800 
 25 H       -2.1940    -1.9830    -1.9920 H     1 <1>   0.1500 
 26 H       -2.7640    -3.3280     0.1970 H     1 <1>   0.1500 
 27 H        0.2570     4.8040    -1.1520 H     1 <1>   0.0800 
 28 H        1.5160     5.5250    -0.1640 H     1 <1>   0.0800 
 29 H        0.0920     4.8390     0.6000 H     1 <1>   0.0800 
@<TRIPOS>BOND
  1   1   2  2   
  2   2   3  am  
  3   2   4  1   
  4   3   5  1   
  5   3  17  1   
  6   4   6  1   
  7   4  18  1   
  8   4  19  1   
  9   5   7  1   
 10   5   8  2   
 11   6   9  1   
 12   6  10  1   
 13   7  11  2   
 14   7  12  1   
 15   8  13  1   
 16   8  20  1   
 17   9  14  2   
 18  10  15  2   
 19  10  21  1   
 20  11  13  1   
 21  12  22  1   
 22  12  23  1   
 23  12  24  1   
 24  13  16  1   
 25  14  15  1   
 26  14  25  1   
 27  15  26  1   
 28  16  27  1   
 29  16  28  1   
 30  16  29  1   
@<TRIPOS>SUBSTRUCTURE
  1 ****   3 GROUP 4 **** **** 0

# MOE 2024.06 (io_trps.svl 2023.06)
