@<TRIPOS>MOLECULE
NONAME
49 50 1 0 0 
SMALL
USER_CHARGES


@<TRIPOS>ATOM
  1 S        0.5800     0.0850    -0.1300 S.o2  1 <1>   1.0900 
  2 O        0.5120    -0.7200    -1.3260 O.2   1 <1>  -0.6500 
  3 O        0.0220    -0.3660     1.1240 O.2   1 <1>  -0.6500 
  4 C        2.2570     0.5950     0.1460 C.3   1 <1>  -0.0550 
  5 C       -0.0370     1.7260    -0.4600 C.3   1 <1>  -0.0550 
  6 C        2.2010     2.0730     0.5330 C.3   1 <1>   0.1900 
  7 C        1.1500     2.6960    -0.4030 C.3   1 <1>  -0.1600 
  8 N        3.5160     2.7330     0.3820 N.3   1 <1>  -0.8100 
  9 C        3.4740     4.1690     0.7330 C.3   1 <1>   0.1100 
 10 C        4.5780     2.0640     1.1560 C.3   1 <1>   0.0300 
 11 C        3.6720     5.0010    -0.5320 C.3   1 <1>  -0.0990 
 12 C        3.6160     6.4730    -0.1990 C.2   1 <1>   0.5690 
 13 O        2.5710     6.9220     0.2060 O.2   1 <1>  -0.5700 
 14 N        4.7530     7.2150    -0.3710 N.am  1 <1>  -0.4940 
 15 C        4.9690     8.5930    -0.1140 C.2   1 <1>  -0.0880 
 16 N        6.1310     9.2620    -0.3510 N.pl3 1 <1>   0.3140 
 17 C        4.1150     9.5080     0.4020 C.2   1 <1>  -0.1500 
 18 N        6.0370    10.5640    -0.0010 N.2   1 <1>  -0.7070 
 19 C        7.3770     8.7220    -0.9300 C.3   1 <1>   0.0960 
 20 C        4.8300    10.6970     0.4460 C.2   1 <1>   0.1080 
 21 C        8.1840     7.9460     0.1230 C.3   1 <1>  -0.1600 
 22 C        4.2950    12.0160     0.9510 C.3   1 <1>  -0.0590 
 23 C        9.4590     7.3480    -0.4820 C.3   1 <1>  -0.2400 
 24 H        2.8150     0.4960    -0.7660 H     1 <1>   0.0800 
 25 H        2.7110     0.0030     0.9160 H     1 <1>   0.0800 
 26 H       -0.7500     1.9930     0.2980 H     1 <1>   0.0800 
 27 H       -0.5210     1.7740    -1.4170 H     1 <1>   0.0800 
 28 H        1.8640     2.1560     1.5550 H     1 <1>   0.0800 
 29 H        0.8250     3.6640    -0.0660 H     1 <1>   0.0800 
 30 H        1.5690     2.7830    -1.3910 H     1 <1>   0.0800 
 31 H        4.2540     4.4160     1.4340 H     1 <1>   0.0800 
 32 H        2.5380     4.4270     1.2020 H     1 <1>   0.0800 
 33 H        4.7360     1.0610     0.7990 H     1 <1>   0.0800 
 34 H        4.3210     2.0330     2.2010 H     1 <1>   0.0800 
 35 H        5.5080     2.5960     1.0410 H     1 <1>   0.0800 
 36 H        2.8920     4.7910    -1.2380 H     1 <1>   0.0800 
 37 H        4.6160     4.7520    -0.9800 H     1 <1>   0.0800 
 38 H        5.5550     6.7000    -0.7290 H     1 <1>   0.3700 
 39 H        3.0970     9.3630     0.7160 H     1 <1>   0.1500 
 40 H        7.9570     9.5470    -1.3000 H     1 <1>   0.0800 
 41 H        7.1210     8.0880    -1.7580 H     1 <1>   0.0800 
 42 H        7.5840     7.1550     0.5370 H     1 <1>   0.0800 
 43 H        8.4530     8.6190     0.9200 H     1 <1>   0.0800 
 44 H        3.2780    11.9080     1.2780 H     1 <1>   0.0800 
 45 H        4.3380    12.7440     0.1620 H     1 <1>   0.0800 
 46 H        4.8980    12.3560     1.7730 H     1 <1>   0.0800 
 47 H        9.2190     6.6590    -1.2730 H     1 <1>   0.0800 
 48 H       10.0110     6.8190     0.2750 H     1 <1>   0.0800 
 49 H       10.0880     8.1260    -0.8780 H     1 <1>   0.0800 
@<TRIPOS>BOND
  1   1   2  2   
  2   1   3  2   
  3   1   4  1   
  4   1   5  1   
  5   4   6  1   
  6   4  24  1   
  7   4  25  1   
  8   5   7  1   
  9   5  26  1   
 10   5  27  1   
 11   6   7  1   
 12   6   8  1   
 13   6  28  1   
 14   7  29  1   
 15   7  30  1   
 16   8   9  1   
 17   8  10  1   
 18   9  11  1   
 19   9  31  1   
 20   9  32  1   
 21  10  33  1   
 22  10  34  1   
 23  10  35  1   
 24  11  12  1   
 25  11  36  1   
 26  11  37  1   
 27  12  13  2   
 28  12  14  am  
 29  14  15  1   
 30  14  38  1   
 31  15  16  1   
 32  15  17  2   
 33  16  18  1   
 34  16  19  1   
 35  17  20  1   
 36  17  39  1   
 37  18  20  2   
 38  19  21  1   
 39  19  40  1   
 40  19  41  1   
 41  20  22  1   
 42  21  23  1   
 43  21  42  1   
 44  21  43  1   
 45  22  44  1   
 46  22  45  1   
 47  22  46  1   
 48  23  47  1   
 49  23  48  1   
 50  23  49  1   
@<TRIPOS>SUBSTRUCTURE
  1 ****  11 GROUP 4 **** **** 0

# MOE 2024.06 (io_trps.svl 2023.06)
