@<TRIPOS>MOLECULE
NONAME
54 56 1 0 0 
SMALL
USER_CHARGES


@<TRIPOS>ATOM
  1 O        1.4280     0.0210     0.3590 O.2   1 <1>  -0.5700 
  2 C        2.2030    -0.7990     0.7880 C.2   1 <1>   0.5690 
  3 N        3.2540    -0.4160     1.5800 N.am  1 <1>  -0.6600 
  4 C        2.0310    -2.2600     0.4010 C.3   1 <1>  -0.0990 
  5 C        4.5910    -1.0680     1.5270 C.3   1 <1>   0.1400 
  6 C        3.1900     0.8640     2.3390 C.3   1 <1>   0.1400 
  7 C        0.6550    -2.5620    -0.2080 C.3   1 <1>   0.0210 
  8 C        5.3450    -0.6510     0.2450 C.3   1 <1>   0.3430 
  9 C        4.1130     1.9350     1.7460 C.3   1 <1>  -0.1600 
 10 C        0.4320    -4.0110    -0.6310 C.2   1 <1>  -0.1810 
 11 N        5.6330     0.8200     0.1390 N.4   1 <1>  -0.9590 
 12 C        4.4470     1.7270     0.2690 C.3   1 <1>   0.3430 
 13 C        1.1270    -5.1640    -0.5280 C.2   1 <1>  -0.0400 
 14 C       -0.7300    -4.4120    -1.2980 C.2   1 <1>   0.1080 
 15 C        6.4180     1.1350    -1.0820 C.3   1 <1>   0.4860 
 16 O        0.4180    -6.1080    -1.0870 O.3   1 <1>  -0.0190 
 17 C        2.4610    -5.5900     0.0560 C.3   1 <1>  -0.0600 
 18 N       -0.7080    -5.6670    -1.5570 N.2   1 <1>  -0.4100 
 19 C       -1.8890    -3.5150    -1.6830 C.3   1 <1>  -0.0590 
 20 C        7.0280     2.5110    -0.9260 C.ar  1 <1>  -0.1440 
 21 C        7.8260     2.8040     0.1820 C.ar  1 <1>   0.4100 
 22 C        6.7930     3.5000    -1.8570 C.ar  1 <1>  -0.1500 
 23 N        8.3590     3.9770     0.4280 N.ar  1 <1>  -0.6200 
 24 N        8.1160     1.8900     1.1450 N.pl3 1 <1>  -0.9000 
 25 C        7.3650     4.7330    -1.6160 C.ar  1 <1>  -0.1500 
 26 C        8.1250     4.9160    -0.4750 C.ar  1 <1>   0.1600 
 27 H        2.1470    -2.8520     1.2890 H     1 <1>   0.0800 
 28 H        2.7900    -2.5250    -0.3100 H     1 <1>   0.0800 
 29 H        4.4720    -2.1370     1.5360 H     1 <1>   0.0800 
 30 H        5.1680    -0.8020     2.3960 H     1 <1>   0.0800 
 31 H        3.4450     0.6860     3.3700 H     1 <1>   0.0800 
 32 H        2.1750     1.2320     2.3280 H     1 <1>   0.0800 
 33 H        0.5190    -1.9380    -1.0740 H     1 <1>   0.0800 
 34 H       -0.1060    -2.2930     0.5050 H     1 <1>   0.0800 
 35 H        4.7590    -0.9600    -0.6050 H     1 <1>   0.0800 
 36 H        6.2760    -1.1920     0.2120 H     1 <1>   0.0800 
 37 H        5.0140     2.0140     2.3270 H     1 <1>   0.0800 
 38 H        3.6050     2.8780     1.8440 H     1 <1>   0.0800 
 39 H        6.2920     1.0890     0.8970 H     1 <1>   0.4500 
 40 H        4.6840     2.6900    -0.1550 H     1 <1>   0.0800 
 41 H        3.5940     1.3290    -0.2590 H     1 <1>   0.0800 
 42 H        5.7840     1.1020    -1.9540 H     1 <1>   0.0800 
 43 H        7.2120     0.4170    -1.2050 H     1 <1>   0.0800 
 44 H        3.0010    -4.7720     0.4820 H     1 <1>   0.0800 
 45 H        3.0610    -6.0340    -0.7180 H     1 <1>   0.0800 
 46 H        2.2930    -6.3270     0.8210 H     1 <1>   0.0800 
 47 H       -2.2850    -3.0310    -0.8100 H     1 <1>   0.0800 
 48 H       -2.6680    -4.0980    -2.1390 H     1 <1>   0.0800 
 49 H       -1.5580    -2.7720    -2.3850 H     1 <1>   0.0800 
 50 H        6.1940     3.3420    -2.7390 H     1 <1>   0.1500 
 51 H        8.3180     2.4150     2.0070 H     1 <1>   0.4000 
 52 H        9.0030     1.4170     0.9410 H     1 <1>   0.4000 
 53 H        7.2240     5.5480    -2.3050 H     1 <1>   0.1500 
 54 H        8.5640     5.8840    -0.2950 H     1 <1>   0.1500 
@<TRIPOS>BOND
  1   1   2  2   
  2   2   3  am  
  3   2   4  1   
  4   3   5  1   
  5   3   6  1   
  6   4   7  1   
  7   4  27  1   
  8   4  28  1   
  9   5   8  1   
 10   5  29  1   
 11   5  30  1   
 12   6   9  1   
 13   6  31  1   
 14   6  32  1   
 15   7  10  1   
 16   7  33  1   
 17   7  34  1   
 18   8  11  1   
 19   8  35  1   
 20   8  36  1   
 21   9  12  1   
 22   9  37  1   
 23   9  38  1   
 24  10  13  2   
 25  10  14  1   
 26  11  12  1   
 27  11  15  1   
 28  11  39  1   
 29  12  40  1   
 30  12  41  1   
 31  13  16  1   
 32  13  17  1   
 33  14  18  2   
 34  14  19  1   
 35  15  20  1   
 36  15  42  1   
 37  15  43  1   
 38  16  18  1   
 39  17  44  1   
 40  17  45  1   
 41  17  46  1   
 42  19  47  1   
 43  19  48  1   
 44  19  49  1   
 45  20  21  ar  
 46  20  22  ar  
 47  21  23  ar  
 48  21  24  1   
 49  22  25  ar  
 50  22  50  1   
 51  23  26  ar  
 52  24  51  1   
 53  24  52  1   
 54  25  26  ar  
 55  25  53  1   
 56  26  54  1   
@<TRIPOS>SUBSTRUCTURE
  1 ****   8 GROUP 4 **** **** 0

# MOE 2024.06 (io_trps.svl 2023.06)
