@<TRIPOS>MOLECULE
NONAME
46 49 1 0 0 
SMALL
USER_CHARGES


@<TRIPOS>ATOM
  1 O        2.1680     0.3000     1.8820 O.3   1 <1>  -0.6800 
  2 C        1.5590    -0.1710     0.7220 C.3   1 <1>   0.2000 
  3 C        2.0350    -1.5890     0.4140 C.3   1 <1>  -0.0800 
  4 C        2.1240     0.6150    -0.4640 C.3   1 <1>   0.3430 
  5 C        3.4120    -1.3950    -0.2330 C.3   1 <1>   0.3430 
  6 C        2.0520    -2.5840     1.5940 C.3   1 <1>  -0.0170 
  7 N        3.4760     0.0160    -0.7500 N.4   1 <1>  -0.9590 
  8 C        2.7260    -3.8870     1.1770 C.ar  1 <1>  -0.1440 
  9 C        4.5850     0.7450    -0.0420 C.3   1 <1>   0.3430 
 10 C        2.1070    -4.8210     0.3100 C.ar  1 <1>   0.0000 
 11 C        3.9810    -4.1790     1.6260 C.ar  1 <1>  -0.1500 
 12 C        4.7950     2.1780    -0.5490 C.3   1 <1>   0.0960 
 13 C        2.8660    -5.9490    -0.0880 C.ar  1 <1>   0.3100 
 14 C        0.7850    -4.7080    -0.1800 C.ar  1 <1>  -0.1500 
 15 C        4.6330    -5.3410     1.1940 C.ar  1 <1>   0.1600 
 16 N        5.9520     2.7540     0.1500 N.pl3 1 <1>   0.0480 
 17 N        4.1230    -6.1870     0.3590 N.ar  1 <1>  -0.6200 
 18 C        2.2990    -6.8690    -0.9830 C.ar  1 <1>  -0.1500 
 19 C        0.2590    -5.6280    -1.0470 C.ar  1 <1>  -0.1500 
 20 C        6.0040     3.2920     1.3700 C.2   1 <1>   0.0360 
 21 C        7.2240     2.8150    -0.2500 C.2   1 <1>   0.0360 
 22 C        1.0260    -6.7190    -1.4610 C.ar  1 <1>  -0.1500 
 23 N        7.2010     3.6380     1.6870 N.2   1 <1>  -0.3380 
 24 N        7.9820     3.3320     0.6500 N.2   1 <1>  -0.3380 
 25 H        1.6750     0.0130     2.6820 H     1 <1>   0.4000 
 26 H        0.4900    -0.0740     0.8160 H     1 <1>   0.0800 
 27 H        1.3930    -1.9860    -0.3510 H     1 <1>   0.0800 
 28 H        2.1720     1.6670    -0.2390 H     1 <1>   0.0800 
 29 H        1.4790     0.4660    -1.3150 H     1 <1>   0.0800 
 30 H        3.5570    -2.1130    -1.0260 H     1 <1>   0.0800 
 31 H        4.1770    -1.5500     0.5110 H     1 <1>   0.0800 
 32 H        1.0520    -2.7800     1.9390 H     1 <1>   0.0800 
 33 H        2.5950    -2.1670     2.4250 H     1 <1>   0.0800 
 34 H        3.6490    -0.0060    -1.7650 H     1 <1>   0.4500 
 35 H        4.3710     0.7770     1.0150 H     1 <1>   0.0800 
 36 H        5.5050     0.1980    -0.1770 H     1 <1>   0.0800 
 37 H        4.5080    -3.5400     2.3110 H     1 <1>   0.1500 
 38 H        3.9360     2.7900    -0.3420 H     1 <1>   0.0800 
 39 H        4.9950     2.1810    -1.6050 H     1 <1>   0.0800 
 40 H        0.1650    -3.8930     0.1380 H     1 <1>   0.1500 
 41 H        5.6210    -5.5400     1.5740 H     1 <1>   0.1500 
 42 H        2.9040    -7.7070    -1.2800 H     1 <1>   0.1500 
 43 H       -0.7480    -5.5310    -1.4170 H     1 <1>   0.1500 
 44 H        5.1480     3.4180     2.0100 H     1 <1>   0.1500 
 45 H        7.5700     2.4700    -1.2080 H     1 <1>   0.1500 
 46 H        0.6040    -7.4340    -2.1470 H     1 <1>   0.1500 
@<TRIPOS>BOND
  1   1   2  1   
  2   1  25  1   
  3   2   3  1   
  4   2   4  1   
  5   2  26  1   
  6   3   5  1   
  7   3   6  1   
  8   3  27  1   
  9   4   7  1   
 10   4  28  1   
 11   4  29  1   
 12   5   7  1   
 13   5  30  1   
 14   5  31  1   
 15   6   8  1   
 16   6  32  1   
 17   6  33  1   
 18   7   9  1   
 19   7  34  1   
 20   8  10  ar  
 21   8  11  ar  
 22   9  12  1   
 23   9  35  1   
 24   9  36  1   
 25  10  13  ar  
 26  10  14  ar  
 27  11  15  ar  
 28  11  37  1   
 29  12  16  1   
 30  12  38  1   
 31  12  39  1   
 32  13  17  ar  
 33  13  18  ar  
 34  14  19  ar  
 35  14  40  1   
 36  15  17  ar  
 37  15  41  1   
 38  16  20  1   
 39  16  21  1   
 40  18  22  ar  
 41  18  42  1   
 42  19  22  ar  
 43  19  43  1   
 44  20  23  2   
 45  20  44  1   
 46  21  24  2   
 47  21  45  1   
 48  22  46  1   
 49  23  24  1   
@<TRIPOS>SUBSTRUCTURE
  1 ****   5 GROUP 4 **** **** 0

# MOE 2024.06 (io_trps.svl 2023.06)
