@<TRIPOS>MOLECULE
NONAME
56 58 1 0 0 
SMALL
USER_CHARGES


@<TRIPOS>ATOM
  1 O        1.2460    -1.0370    -2.0480 O.2   1 <1>  -0.5700 
  2 C        1.6500    -0.1850    -1.2770 C.2   1 <1>   0.5440 
  3 N        1.0780     1.0680    -1.3260 N.am  1 <1>  -0.6600 
  4 C        2.7270    -0.4680    -0.3650 C.ar  1 <1>   0.0860 
  5 C        1.4530     2.2170    -0.4720 C.3   1 <1>   0.1400 
  6 C       -0.0830     1.3880    -2.1810 C.3   1 <1>   0.1400 
  7 C        2.5440    -1.2270     0.8100 C.ar  1 <1>   0.4100 
  8 C        4.0000     0.0130    -0.6400 C.ar  1 <1>  -0.1500 
  9 C        0.5640     3.3610    -0.9500 C.3   1 <1>  -0.1600 
 10 C       -0.6390     2.6810    -1.5980 C.3   1 <1>  -0.1600 
 11 N        3.5300    -1.4890     1.6700 N.ar  1 <1>  -0.6200 
 12 N        1.3200    -1.7680     1.1680 N.pl3 1 <1>  -0.8380 
 13 C        5.0100    -0.2640     0.2510 C.ar  1 <1>  -0.1500 
 14 C        4.7210    -1.0110     1.3780 C.ar  1 <1>   0.1600 
 15 C        1.2130    -3.2080     1.5090 C.3   1 <1>   0.2090 
 16 C        0.0730    -0.9620     1.2400 C.3   1 <1>   0.1290 
 17 C        0.4450    -3.9440     0.4110 C.3   1 <1>  -0.1600 
 18 C        0.4340    -5.4460     0.6860 C.3   1 <1>   0.1200 
 19 O       -0.3540    -6.0720    -0.2990 O.3   1 <1>  -0.3630 
 20 C       -0.5560    -7.4170    -0.3060 C.ar  1 <1>   0.0830 
 21 C       -1.3470    -7.9450    -1.3220 C.ar  1 <1>  -0.1430 
 22 C       -0.0110    -8.2690     0.6520 C.ar  1 <1>  -0.1500 
 23 C       -1.5850    -9.3100    -1.3680 C.ar  1 <1>  -0.1500 
 24 C       -1.9510    -7.0340    -2.3810 C.3   1 <1>  -0.0970 
 25 C       -0.2560    -9.6290     0.5940 C.ar  1 <1>  -0.1500 
 26 C       -1.0420   -10.1570    -0.4150 C.ar  1 <1>  -0.1430 
 27 C       -1.3130   -11.6490    -0.4780 C.3   1 <1>  -0.0970 
 28 H        2.4950     2.4590    -0.5860 H     1 <1>   0.0800 
 29 H        1.2450     1.9820     0.5570 H     1 <1>   0.0800 
 30 H       -0.8080     0.5920    -2.1610 H     1 <1>   0.0800 
 31 H        0.2600     1.5390    -3.1900 H     1 <1>   0.0800 
 32 H        4.1810     0.5840    -1.5330 H     1 <1>   0.1500 
 33 H        1.1000     3.9330    -1.6880 H     1 <1>   0.0800 
 34 H        0.2820     4.0120    -0.1410 H     1 <1>   0.0800 
 35 H       -1.3720     2.4380    -0.8480 H     1 <1>   0.0800 
 36 H       -1.1010     3.2930    -2.3540 H     1 <1>   0.0800 
 37 H        6.0110     0.0880     0.0780 H     1 <1>   0.1500 
 38 H        5.5150    -1.2250     2.0740 H     1 <1>   0.1500 
 39 H        0.7150    -3.3150     2.4570 H     1 <1>   0.0800 
 40 H        2.1980    -3.6340     1.5990 H     1 <1>   0.0800 
 41 H        0.3130     0.0830     1.3180 H     1 <1>   0.0800 
 42 H       -0.4990    -1.2470     2.1050 H     1 <1>   0.0800 
 43 H       -0.5160    -1.1220     0.3540 H     1 <1>   0.0800 
 44 H        0.9230    -3.7610    -0.5360 H     1 <1>   0.0800 
 45 H       -0.5660    -3.5860     0.3750 H     1 <1>   0.0800 
 46 H       -0.0050    -5.6530     1.6470 H     1 <1>   0.0800 
 47 H        1.4300    -5.8510     0.6320 H     1 <1>   0.0800 
 48 H        0.6040    -7.8960     1.4470 H     1 <1>   0.1500 
 49 H       -2.1970    -9.7190    -2.1510 H     1 <1>   0.1500 
 50 H       -2.5890    -6.3060    -1.9130 H     1 <1>   0.0800 
 51 H       -2.5300    -7.5940    -3.0930 H     1 <1>   0.0800 
 52 H       -1.1670    -6.5170    -2.9040 H     1 <1>   0.0800 
 53 H        0.1700   -10.2760     1.3410 H     1 <1>   0.1500 
 54 H       -1.3840   -11.9730    -1.5010 H     1 <1>   0.0800 
 55 H       -2.2380   -11.8710     0.0220 H     1 <1>   0.0800 
 56 H       -0.5200   -12.1980    -0.0040 H     1 <1>   0.0800 
@<TRIPOS>BOND
  1   1   2  2   
  2   2   3  am  
  3   2   4  1   
  4   3   5  1   
  5   3   6  1   
  6   4   7  ar  
  7   4   8  ar  
  8   5   9  1   
  9   5  28  1   
 10   5  29  1   
 11   6  10  1   
 12   6  30  1   
 13   6  31  1   
 14   7  11  ar  
 15   7  12  1   
 16   8  13  ar  
 17   8  32  1   
 18   9  10  1   
 19   9  33  1   
 20   9  34  1   
 21  10  35  1   
 22  10  36  1   
 23  11  14  ar  
 24  12  15  1   
 25  12  16  1   
 26  13  14  ar  
 27  13  37  1   
 28  14  38  1   
 29  15  17  1   
 30  15  39  1   
 31  15  40  1   
 32  16  41  1   
 33  16  42  1   
 34  16  43  1   
 35  17  18  1   
 36  17  44  1   
 37  17  45  1   
 38  18  19  1   
 39  18  46  1   
 40  18  47  1   
 41  19  20  1   
 42  20  21  ar  
 43  20  22  ar  
 44  21  23  ar  
 45  21  24  1   
 46  22  25  ar  
 47  22  48  1   
 48  23  26  ar  
 49  23  49  1   
 50  24  50  1   
 51  24  51  1   
 52  24  52  1   
 53  25  26  ar  
 54  25  53  1   
 55  26  27  1   
 56  27  54  1   
 57  27  55  1   
 58  27  56  1   
@<TRIPOS>SUBSTRUCTURE
  1 ****  17 GROUP 4 **** **** 0

# MOE 2024.06 (io_trps.svl 2023.06)
