@<TRIPOS>MOLECULE
NONAME
38 39 1 0 0 
SMALL
USER_CHARGES


@<TRIPOS>ATOM
  1 S        0.4650     0.3700    -1.1380 S.3   1 <1>  -0.3320 
  2 C        0.4970     1.8480    -0.1310 C.ar  1 <1>   0.7220 
  3 C       -1.0300    -0.5620    -0.5780 C.3   1 <1>  -0.0100 
  4 N        1.5020     2.6590    -0.3850 N.ar  1 <1>  -0.6200 
  5 N       -0.4830     1.9630     0.7520 N.ar  1 <1>  -0.6200 
  6 C        1.5320     3.7500     0.3510 C.ar  1 <1>   0.4100 
  7 C       -0.4250     3.0610     1.4770 C.ar  1 <1>   0.1600 
  8 N        2.5440     4.6540     0.1280 N.pl3 1 <1>  -0.8380 
  9 C        0.5680     3.9880     1.3130 C.ar  1 <1>  -0.1500 
 10 C        3.8600     4.1180    -0.3310 C.3   1 <1>   0.3900 
 11 C        2.1770     5.9760    -0.4420 C.3   1 <1>   0.2090 
 12 C        4.9960     5.0010     0.1500 C.2   1 <1>  -0.1810 
 13 C        2.3530     7.0670     0.6090 C.3   1 <1>  -0.2400 
 14 C        5.3240     5.2310     1.4800 C.2   1 <1>   0.1390 
 15 C        5.8970     5.7220    -0.5520 C.2   1 <1>  -0.3020 
 16 N        6.3430     6.0270     1.6050 N.2   1 <1>  -0.7070 
 17 N        6.6990     6.3320     0.3440 N.pl3 1 <1>   0.3140 
 18 C        7.8310     7.2320     0.0490 C.3   1 <1>   0.0960 
 19 C        9.0820     6.4400    -0.3500 C.3   1 <1>  -0.2400 
 20 H       -1.0920    -1.4640    -1.1590 H     1 <1>   0.0800 
 21 H       -1.8890     0.0630    -0.7410 H     1 <1>   0.0800 
 22 H       -0.9080    -0.7830     0.4680 H     1 <1>   0.0800 
 23 H       -1.1910     3.2140     2.2190 H     1 <1>   0.1500 
 24 H        0.6140     4.8760     1.9100 H     1 <1>   0.1500 
 25 H        3.8680     4.0580    -1.4050 H     1 <1>   0.0800 
 26 H        4.0070     3.1260     0.0600 H     1 <1>   0.0800 
 27 H        1.1510     5.9540    -0.7710 H     1 <1>   0.0800 
 28 H        2.7920     6.1940    -1.2990 H     1 <1>   0.0800 
 29 H        1.7610     6.8560     1.4790 H     1 <1>   0.0800 
 30 H        2.0410     8.0110     0.2030 H     1 <1>   0.0800 
 31 H        3.3850     7.1510     0.8950 H     1 <1>   0.0800 
 32 H        4.7930     4.8050     2.3140 H     1 <1>   0.1500 
 33 H        6.0120     5.8340    -1.6140 H     1 <1>   0.1500 
 34 H        8.0310     7.8150     0.9300 H     1 <1>   0.0800 
 35 H        7.5400     7.8970    -0.7430 H     1 <1>   0.0800 
 36 H        9.3660     5.7770     0.4500 H     1 <1>   0.0800 
 37 H        9.8970     7.1140    -0.5400 H     1 <1>   0.0800 
 38 H        8.8950     5.8650    -1.2390 H     1 <1>   0.0800 
@<TRIPOS>BOND
  1   1   2  1   
  2   1   3  1   
  3   2   4  ar  
  4   2   5  ar  
  5   3  20  1   
  6   3  21  1   
  7   3  22  1   
  8   4   6  ar  
  9   5   7  ar  
 10   6   8  1   
 11   6   9  ar  
 12   7   9  ar  
 13   7  23  1   
 14   8  10  1   
 15   8  11  1   
 16   9  24  1   
 17  10  12  1   
 18  10  25  1   
 19  10  26  1   
 20  11  13  1   
 21  11  27  1   
 22  11  28  1   
 23  12  14  1   
 24  12  15  2   
 25  13  29  1   
 26  13  30  1   
 27  13  31  1   
 28  14  16  2   
 29  14  32  1   
 30  15  17  1   
 31  15  33  1   
 32  16  17  1   
 33  17  18  1   
 34  18  19  1   
 35  18  34  1   
 36  18  35  1   
 37  19  36  1   
 38  19  37  1   
 39  19  38  1   
@<TRIPOS>SUBSTRUCTURE
  1 ****   8 GROUP 4 **** **** 0

# MOE 2024.06 (io_trps.svl 2023.06)
