@<TRIPOS>MOLECULE
NONAME
55 58 1 0 0 
SMALL
USER_CHARGES


@<TRIPOS>ATOM
  1 O       -0.4200    -1.3480     0.1570 O.co2 1 <1>  -0.9000 
  2 C       -1.0420    -0.8310    -0.7930 C.2   1 <1>   0.9790 
  3 O       -0.7450    -1.1750    -1.9520 O.co2 1 <1>  -0.9000 
  4 C       -2.1650     0.0390    -0.5610 C.ar  1 <1>  -0.1790 
  5 C       -2.0110     1.3840    -0.2030 C.ar  1 <1>   0.4100 
  6 C       -3.4530    -0.4450    -0.7140 C.ar  1 <1>  -0.1500 
  7 N       -3.0250     2.2220    -0.0010 N.ar  1 <1>  -0.6200 
  8 N       -0.7660     1.9500    -0.0330 N.pl3 1 <1>  -0.8380 
  9 C       -4.4990     0.4190    -0.5040 C.ar  1 <1>  -0.1500 
 10 C       -4.2550     1.7430    -0.1550 C.ar  1 <1>   0.3100 
 11 C       -0.4360     3.2630    -0.6510 C.3   1 <1>   0.2090 
 12 C        0.0930     1.5190     1.0970 C.3   1 <1>   0.2090 
 13 C       -5.3660     2.6480     0.0590 C.ar  1 <1>   0.0000 
 14 C       -0.4300     4.3610     0.4200 C.3   1 <1>   0.2000 
 15 C        0.1430     2.6240     2.1610 C.3   1 <1>  -0.1600 
 16 C       -6.4300     2.7270    -0.8410 C.ar  1 <1>  -0.1500 
 17 C       -5.4130     3.4750     1.1810 C.ar  1 <1>  -0.1500 
 18 O        0.0100     5.5550    -0.1580 O.3   1 <1>  -0.5600 
 19 C        0.5140     3.9980     1.5760 C.3   1 <1>  -0.1600 
 20 C       -7.4940     3.5810    -0.6220 C.ar  1 <1>  -0.1500 
 21 C       -6.4740     4.3330     1.4080 C.ar  1 <1>  -0.1500 
 22 C       -0.5790     6.7090     0.3800 C.3   1 <1>   0.2630 
 23 C       -7.5290     4.3890     0.5030 C.ar  1 <1>   0.0830 
 24 C       -0.0030     7.9870    -0.2270 C.ar  1 <1>   0.1670 
 25 O       -8.6080     5.1950     0.6470 O.3   1 <1>  -0.3630 
 26 N       -0.3520     9.1140     0.3850 N.ar  1 <1>  -0.6200 
 27 C        0.8230     7.9470    -1.3440 C.ar  1 <1>  -0.1500 
 28 C       -8.7400     6.0580     1.7540 C.3   1 <1>   0.0400 
 29 C        0.1390    10.2290    -0.1320 C.ar  1 <1>   0.1600 
 30 C        1.3260     9.1170    -1.8710 C.ar  1 <1>  -0.1500 
 31 C        0.9680    10.2870    -1.2390 C.ar  1 <1>  -0.1500 
 32 H       -3.6060    -1.4740    -0.9930 H     1 <1>   0.1500 
 33 H       -5.5090     0.0710    -0.6060 H     1 <1>   0.1500 
 34 H       -1.1630     3.4980    -1.4090 H     1 <1>   0.0800 
 35 H        0.5340     3.1930    -1.1090 H     1 <1>   0.0800 
 36 H        1.0790     1.2980     0.7240 H     1 <1>   0.0800 
 37 H       -0.3030     0.6220     1.5420 H     1 <1>   0.0800 
 38 H       -1.4410     4.4800     0.7730 H     1 <1>   0.0800 
 39 H        0.8500     2.3450     2.9200 H     1 <1>   0.0800 
 40 H       -0.8280     2.6810     2.6220 H     1 <1>   0.0800 
 41 H       -6.4160     2.1150    -1.7260 H     1 <1>   0.1500 
 42 H       -4.5950     3.4350     1.8800 H     1 <1>   0.1500 
 43 H        0.4550     4.7400     2.3500 H     1 <1>   0.0800 
 44 H        1.5230     3.9600     1.2050 H     1 <1>   0.0800 
 45 H       -8.3080     3.6320    -1.3230 H     1 <1>   0.1500 
 46 H       -6.4620     4.9470     2.2880 H     1 <1>   0.1500 
 47 H       -0.4080     6.7180     1.4420 H     1 <1>   0.0800 
 48 H       -1.6370     6.6720     0.1900 H     1 <1>   0.0800 
 49 H        1.0720     7.0060    -1.8020 H     1 <1>   0.1500 
 50 H       -9.6650     6.5970     1.6490 H     1 <1>   0.0800 
 51 H       -7.9140     6.7470     1.7600 H     1 <1>   0.0800 
 52 H       -8.7600     5.4700     2.6540 H     1 <1>   0.0800 
 53 H       -0.1340    11.1500     0.3540 H     1 <1>   0.1500 
 54 H        1.9680     9.1140    -2.7350 H     1 <1>   0.1500 
 55 H        1.3260    11.2350    -1.5970 H     1 <1>   0.1500 
@<TRIPOS>BOND
  1   1   2  ar  
  2   2   3  ar  
  3   2   4  1   
  4   4   5  ar  
  5   4   6  ar  
  6   5   7  ar  
  7   5   8  1   
  8   6   9  ar  
  9   6  32  1   
 10   7  10  ar  
 11   8  11  1   
 12   8  12  1   
 13   9  10  ar  
 14   9  33  1   
 15  10  13  1   
 16  11  14  1   
 17  11  34  1   
 18  11  35  1   
 19  12  15  1   
 20  12  36  1   
 21  12  37  1   
 22  13  16  ar  
 23  13  17  ar  
 24  14  18  1   
 25  14  19  1   
 26  14  38  1   
 27  15  19  1   
 28  15  39  1   
 29  15  40  1   
 30  16  20  ar  
 31  16  41  1   
 32  17  21  ar  
 33  17  42  1   
 34  18  22  1   
 35  19  43  1   
 36  19  44  1   
 37  20  23  ar  
 38  20  45  1   
 39  21  23  ar  
 40  21  46  1   
 41  22  24  1   
 42  22  47  1   
 43  22  48  1   
 44  23  25  1   
 45  24  26  ar  
 46  24  27  ar  
 47  25  28  1   
 48  26  29  ar  
 49  27  30  ar  
 50  27  49  1   
 51  28  50  1   
 52  28  51  1   
 53  28  52  1   
 54  29  31  ar  
 55  29  53  1   
 56  30  31  ar  
 57  30  54  1   
 58  31  55  1   
@<TRIPOS>SUBSTRUCTURE
  1 ****   7 GROUP 4 **** **** 0

# MOE 2024.06 (io_trps.svl 2023.06)
