@<TRIPOS>MOLECULE
NONAME
53 58 1 0 0 
SMALL
USER_CHARGES


@<TRIPOS>ATOM
  1 O        0.2430    -0.1680    -2.4640 O.2   1 <1>  -0.5700 
  2 C        0.9670    -0.6780    -1.6500 C.2   1 <1>   0.6590 
  3 O        1.4350    -2.1260    -1.7610 O.3   1 <1>  -0.4300 
  4 C        2.1990     0.1790     0.0340 C.3   1 <1>   0.3410 
  5 C        2.9230    -2.4920    -0.9260 C.3   1 <1>   0.2000 
  6 O        3.2620     0.6970     1.1170 O.3   1 <1>  -0.5600 
  7 C        1.1110     1.1400     0.3330 C.3   1 <1>   0.2800 
  8 C        3.4320    -0.9680    -0.1780 C.3   1 <1>   0.0000 
  9 C        3.7960    -3.4170    -0.0360 C.3   1 <1>  -0.1600 
 10 C        4.6600     0.3500     0.9460 C.3   1 <1>   0.4800 
 11 O        1.4010     2.0420     1.3720 O.3   1 <1>  -0.6800 
 12 C        1.1090    -0.3230     0.7660 C.3   1 <1>   0.2000 
 13 C       -0.3580     1.4170    -0.1170 C.3   1 <1>  -0.0190 
 14 C        4.8560    -0.9280     0.0750 C.3   1 <1>   0.0000 
 15 C        2.4840    -0.9890    -0.2730 C.3   1 <1>  -0.1600 
 16 C        4.9180    -2.4440     0.6220 C.3   1 <1>  -0.0800 
 17 O        5.1920     1.4210     0.2210 O.3   1 <1>  -0.4300 
 18 O       -0.2160    -0.8210     0.6210 O.3   1 <1>  -0.4300 
 19 C       -1.0690     0.1220     0.2520 C.2   1 <1>   0.6590 
 20 C       -1.0730     2.6370     0.5190 C.3   1 <1>  -0.2400 
 21 C        5.7590    -0.4540    -1.0770 C.3   1 <1>   0.2610 
 22 C        6.3140    -3.1140     0.8120 C.3   1 <1>   0.0000 
 23 C        5.7250     1.0560    -0.9250 C.2   1 <1>   0.6590 
 24 O       -2.2550    -0.0580     0.2130 O.2   1 <1>  -0.5700 
 25 O        5.3220    -0.9060    -2.3280 O.3   1 <1>  -0.6800 
 26 C        6.9690    -3.5840    -0.5020 C.3   1 <1>  -0.2400 
 27 C        6.1560    -4.3630     1.7010 C.3   1 <1>  -0.2400 
 28 C        7.2760    -2.1660     1.5530 C.3   1 <1>  -0.2400 
 29 O        6.1400     1.8330    -1.7410 O.2   1 <1>  -0.5700 
 30 H        3.5360    -2.6000    -1.8110 H     1 <1>   0.0800 
 31 H        3.2000    -3.8740     0.7360 H     1 <1>   0.0800 
 32 H        4.2270    -4.1920    -0.6420 H     1 <1>   0.0800 
 33 H        5.1470     0.2960     1.9060 H     1 <1>   0.0800 
 34 H        2.3470     1.8750     1.6100 H     1 <1>   0.4000 
 35 H        1.2700    -0.4250     1.8540 H     1 <1>   0.0800 
 36 H       -0.4130     1.5890    -1.1690 H     1 <1>   0.0800 
 37 H        2.4840    -1.6540     0.7670 H     1 <1>   0.0800 
 38 H        3.0470    -0.6150    -1.4490 H     1 <1>   0.0800 
 39 H        4.5700    -2.3330     1.6370 H     1 <1>   0.0800 
 40 H       -1.1450     2.5260     1.5870 H     1 <1>   0.0800 
 41 H       -2.0690     2.7260     0.1230 H     1 <1>   0.0800 
 42 H       -0.5370     3.5440     0.2980 H     1 <1>   0.0800 
 43 H        6.7780    -0.7560    -0.9500 H     1 <1>   0.0800 
 44 H        5.7580    -0.3830    -3.0370 H     1 <1>   0.4000 
 45 H        7.9430    -3.9950    -0.3010 H     1 <1>   0.0800 
 46 H        7.0950    -2.7950    -1.2130 H     1 <1>   0.0800 
 47 H        6.3920    -4.3570    -0.9730 H     1 <1>   0.0800 
 48 H        7.1130    -4.8190     1.8880 H     1 <1>   0.0800 
 49 H        5.5330    -5.1030     1.2320 H     1 <1>   0.0800 
 50 H        5.7220    -4.1090     2.6520 H     1 <1>   0.0800 
 51 H        8.1980    -2.6740     1.7780 H     1 <1>   0.0800 
 52 H        6.8460    -1.8410     2.4840 H     1 <1>   0.0800 
 53 H        7.5270    -1.3000     0.9730 H     1 <1>   0.0800 
@<TRIPOS>BOND
  1   1   2  2   
  2   2   3  1   
  3   2   4  1   
  4   3   5  1   
  5   4   6  1   
  6   4   7  1   
  7   4   8  1   
  8   5   8  1   
  9   5   9  1   
 10   5  30  1   
 11   6  10  1   
 12   7  11  1   
 13   7  12  1   
 14   7  13  1   
 15   8  14  1   
 16   8  15  1   
 17   9  16  1   
 18   9  31  1   
 19   9  32  1   
 20  10  14  1   
 21  10  17  1   
 22  10  33  1   
 23  11  34  1   
 24  12  15  1   
 25  12  18  1   
 26  12  35  1   
 27  13  19  1   
 28  13  20  1   
 29  13  36  1   
 30  14  16  1   
 31  14  21  1   
 32  15  37  1   
 33  15  38  1   
 34  16  22  1   
 35  16  39  1   
 36  17  23  1   
 37  18  19  1   
 38  19  24  2   
 39  20  40  1   
 40  20  41  1   
 41  20  42  1   
 42  21  23  1   
 43  21  25  1   
 44  21  43  1   
 45  22  26  1   
 46  22  27  1   
 47  22  28  1   
 48  23  29  2   
 49  25  44  1   
 50  26  45  1   
 51  26  46  1   
 52  26  47  1   
 53  27  48  1   
 54  27  49  1   
 55  27  50  1   
 56  28  51  1   
 57  28  52  1   
 58  28  53  1   
@<TRIPOS>SUBSTRUCTURE
  1 ****   8 GROUP 4 **** **** 0

# MOE 2024.06 (io_trps.svl 2023.06)
