@<TRIPOS>MOLECULE
NONAME
54 60 1 0 0 
SMALL
USER_CHARGES


@<TRIPOS>ATOM
  1 O        0.0070    -1.0320    -1.5310 O.2   1 <1>  -0.5700 
  2 C        0.0850    -1.9160    -0.6960 C.2   1 <1>   0.5440 
  3 N       -0.8040    -2.9600    -0.7320 N.am  1 <1>  -0.4200 
  4 C        1.0630    -1.9030     0.3540 C.ar  1 <1>   0.0860 
  5 C       -0.7950    -3.9360     0.2460 C.2   1 <1>   0.4490 
  6 C       -1.8660    -3.0440    -1.7820 C.3   1 <1>   0.2810 
  7 C        1.0090    -2.9410     1.2910 C.ar  1 <1>   0.1790 
  8 C        2.0470    -0.9200     0.4880 C.ar  1 <1>  -0.1500 
  9 N        0.0580    -3.9400     1.2090 N.2   1 <1>  -0.6290 
 10 C       -1.8960    -5.0390     0.0840 C.3   1 <1>   0.6410 
 11 C       -2.0440    -4.4890    -2.2650 C.2   1 <1>   0.5690 
 12 C       -3.1750    -2.5870    -1.1200 C.3   1 <1>  -0.1600 
 13 C        1.9300    -2.9710     2.3320 C.ar  1 <1>  -0.1500 
 14 C        2.9560    -0.9630     1.5260 C.ar  1 <1>  -0.1500 
 15 O       -3.1430    -4.5380     0.4810 O.3   1 <1>  -0.5600 
 16 N       -2.0060    -5.4470    -1.3180 N.am  1 <1>  -0.7300 
 17 C       -1.6510    -6.2920     0.9180 C.3   1 <1>  -0.2400 
 18 O       -2.3650    -4.7310    -3.4000 O.2   1 <1>  -0.5700 
 19 C       -3.9490    -3.6740    -0.3080 C.3   1 <1>   0.4240 
 20 C        2.8970    -1.9940     2.4530 C.ar  1 <1>  -0.1500 
 21 C       -4.8590    -2.9750     0.6920 C.ar  1 <1>  -0.1430 
 22 C       -5.0170    -4.4610    -1.1800 C.3   1 <1>   0.4900 
 23 C       -6.1640    -3.3950     0.5390 C.ar  1 <1>   0.1170 
 24 C       -4.5300    -2.0570     1.6760 C.ar  1 <1>  -0.1500 
 25 N       -6.2910    -4.3440    -0.4630 N.am  1 <1>  -0.4770 
 26 N       -4.8290    -5.9110    -1.4610 N.3   1 <1>  -0.9000 
 27 C       -7.1670    -2.8950     1.3540 C.ar  1 <1>  -0.1500 
 28 C       -5.5310    -1.5490     2.4900 C.ar  1 <1>  -0.1500 
 29 C       -6.9020    -5.5430    -0.3470 C.2   1 <1>   0.5690 
 30 C       -6.0170    -6.6160    -0.9550 C.3   1 <1>   0.2510 
 31 C       -6.8450    -1.9650     2.3290 C.ar  1 <1>  -0.1500 
 32 O       -7.9760    -5.7550     0.1690 O.2   1 <1>  -0.5700 
 33 C       -5.5420    -7.6470     0.0670 C.3   1 <1>  -0.2400 
 34 H       -1.6200    -2.4160    -2.6210 H     1 <1>   0.0800 
 35 H        2.0900    -0.1210    -0.2330 H     1 <1>   0.1500 
 36 H       -3.8280    -2.2270    -1.8940 H     1 <1>   0.0800 
 37 H       -2.9690    -1.7310    -0.5040 H     1 <1>   0.0800 
 38 H        1.8750    -3.7740     3.0450 H     1 <1>   0.1500 
 39 H        3.7100    -0.2010     1.6200 H     1 <1>   0.1500 
 40 H       -2.5730    -6.2850    -1.4680 H     1 <1>   0.3700 
 41 H       -0.7070    -6.7300     0.6520 H     1 <1>   0.0800 
 42 H       -2.4370    -7.0080     0.7610 H     1 <1>   0.0800 
 43 H       -1.6190    -6.0310     1.9600 H     1 <1>   0.0800 
 44 H        3.6050    -2.0280     3.2630 H     1 <1>   0.1500 
 45 H       -5.1400    -3.9470    -2.1170 H     1 <1>   0.0800 
 46 H       -3.5100    -1.7440     1.8190 H     1 <1>   0.1500 
 47 H       -4.8190    -6.0100    -2.4840 H     1 <1>   0.3600 
 48 H       -8.1780    -3.2390     1.2260 H     1 <1>   0.1500 
 49 H       -5.2870    -0.8320     3.2560 H     1 <1>   0.1500 
 50 H       -6.5420    -7.0970    -1.7620 H     1 <1>   0.0800 
 51 H       -7.6170    -1.5700     2.9660 H     1 <1>   0.1500 
 52 H       -5.0230    -7.1570     0.8730 H     1 <1>   0.0800 
 53 H       -4.8900    -8.3630    -0.4000 H     1 <1>   0.0800 
 54 H       -6.3890    -8.1670     0.4760 H     1 <1>   0.0800 
@<TRIPOS>BOND
  1   1   2  2   
  2   2   3  am  
  3   2   4  1   
  4   3   5  1   
  5   3   6  1   
  6   4   7  ar  
  7   4   8  ar  
  8   5   9  2   
  9   5  10  1   
 10   6  11  1   
 11   6  12  1   
 12   6  34  1   
 13   7   9  1   
 14   7  13  ar  
 15   8  14  ar  
 16   8  35  1   
 17  10  15  1   
 18  10  16  1   
 19  10  17  1   
 20  11  16  am  
 21  11  18  2   
 22  12  19  1   
 23  12  36  1   
 24  12  37  1   
 25  13  20  ar  
 26  13  38  1   
 27  14  20  ar  
 28  14  39  1   
 29  15  19  1   
 30  16  40  1   
 31  17  41  1   
 32  17  42  1   
 33  17  43  1   
 34  19  21  1   
 35  19  22  1   
 36  20  44  1   
 37  21  23  ar  
 38  21  24  ar  
 39  22  25  1   
 40  22  26  1   
 41  22  45  1   
 42  23  25  1   
 43  23  27  ar  
 44  24  28  ar  
 45  24  46  1   
 46  25  29  am  
 47  26  30  1   
 48  26  47  1   
 49  27  31  ar  
 50  27  48  1   
 51  28  31  ar  
 52  28  49  1   
 53  29  30  1   
 54  29  32  2   
 55  30  33  1   
 56  30  50  1   
 57  31  51  1   
 58  33  52  1   
 59  33  53  1   
 60  33  54  1   
@<TRIPOS>SUBSTRUCTURE
  1 ****  15 GROUP 4 **** **** 0

# MOE 2024.06 (io_trps.svl 2023.06)
