@<TRIPOS>MOLECULE
NONAME
39 41 1 0 0 
SMALL
USER_CHARGES


@<TRIPOS>ATOM
  1 O        2.0570    -0.1570    -0.8440 O.3   1 <1>  -0.5600 
  2 C        2.7750    -0.4340     0.3330 C.3   1 <1>   0.1200 
  3 C        1.1430     0.8980    -0.7650 C.3   1 <1>   0.1200 
  4 C        2.8090     0.7340     1.3460 C.3   1 <1>   0.1100 
  5 C        1.8290     2.2130    -0.3320 C.3   1 <1>   0.1100 
  6 N        2.9160     2.0260     0.6580 N.3   1 <1>  -0.8100 
  7 C        3.0380     3.1720     1.6040 C.3   1 <1>   0.2540 
  8 C        3.2610     4.5450     0.9500 C.ar  1 <1>   0.4770 
  9 N        4.5160     4.8990     0.7290 N.ar  1 <1>  -0.6200 
 10 N        2.1730     5.2600     0.6890 N.ar  1 <1>  -0.6200 
 11 C        4.7180     6.0780     0.1650 C.ar  1 <1>   0.3100 
 12 C        2.3770     6.4280     0.1280 C.ar  1 <1>   0.1670 
 13 C        6.0750     6.5020    -0.1130 C.ar  1 <1>   0.0000 
 14 C        3.6400     6.8780    -0.1570 C.ar  1 <1>  -0.1500 
 15 C        1.1510     7.2550    -0.1930 C.3   1 <1>  -0.0970 
 16 C        6.9930     5.6280    -0.6930 C.ar  1 <1>  -0.1500 
 17 C        6.5140     7.7930     0.1850 C.ar  1 <1>  -0.1500 
 18 C        8.2870     6.0240    -0.9760 C.ar  1 <1>  -0.1500 
 19 C        7.8070     8.1960    -0.0970 C.ar  1 <1>  -0.1500 
 20 C        8.6960     7.3120    -0.6810 C.ar  1 <1>  -0.1500 
 21 H        3.7790    -0.6740     0.0350 H     1 <1>   0.0800 
 22 H        2.3410    -1.3040     0.7900 H     1 <1>   0.0800 
 23 H        0.3780     0.6260    -0.0610 H     1 <1>   0.0800 
 24 H        0.6890     1.0180    -1.7320 H     1 <1>   0.0800 
 25 H        3.6490     0.6010     2.0050 H     1 <1>   0.0800 
 26 H        1.9130     0.7130     1.9430 H     1 <1>   0.0800 
 27 H        1.0710     2.8670     0.0630 H     1 <1>   0.0800 
 28 H        2.2450     2.6940    -1.2010 H     1 <1>   0.0800 
 29 H        3.8700     2.9880     2.2590 H     1 <1>   0.0800 
 30 H        2.1510     3.2270     2.2090 H     1 <1>   0.0800 
 31 H        3.7970     7.8300    -0.6260 H     1 <1>   0.1500 
 32 H        0.5150     6.7090    -0.8660 H     1 <1>   0.0800 
 33 H        1.4230     8.1880    -0.6510 H     1 <1>   0.0800 
 34 H        0.6060     7.4560     0.7110 H     1 <1>   0.0800 
 35 H        6.6800     4.6230    -0.9200 H     1 <1>   0.1500 
 36 H        5.8380     8.4880     0.6490 H     1 <1>   0.1500 
 37 H        8.9750     5.3290    -1.4260 H     1 <1>   0.1500 
 38 H        8.1240     9.1970     0.1400 H     1 <1>   0.1500 
 39 H        9.7030     7.6220    -0.9010 H     1 <1>   0.1500 
@<TRIPOS>BOND
  1   1   2  1   
  2   1   3  1   
  3   2   4  1   
  4   2  21  1   
  5   2  22  1   
  6   3   5  1   
  7   3  23  1   
  8   3  24  1   
  9   4   6  1   
 10   4  25  1   
 11   4  26  1   
 12   5   6  1   
 13   5  27  1   
 14   5  28  1   
 15   6   7  1   
 16   7   8  1   
 17   7  29  1   
 18   7  30  1   
 19   8   9  ar  
 20   8  10  ar  
 21   9  11  ar  
 22  10  12  ar  
 23  11  13  1   
 24  11  14  ar  
 25  12  14  ar  
 26  12  15  1   
 27  13  16  ar  
 28  13  17  ar  
 29  14  31  1   
 30  15  32  1   
 31  15  33  1   
 32  15  34  1   
 33  16  18  ar  
 34  16  35  1   
 35  17  19  ar  
 36  17  36  1   
 37  18  20  ar  
 38  18  37  1   
 39  19  20  ar  
 40  19  38  1   
 41  20  39  1   
@<TRIPOS>SUBSTRUCTURE
  1 ****   9 GROUP 4 **** **** 0

# MOE 2024.06 (io_trps.svl 2023.06)
