@<TRIPOS>MOLECULE
NONAME
57 61 1 0 0 
SMALL
USER_CHARGES


@<TRIPOS>ATOM
  1 O       -0.5180    -2.0070     3.6480 O.2   1 <1>  -0.5700 
  2 C       -0.3730    -2.6280     2.6050 C.2   1 <1>   0.5650 
  3 N        0.5320    -2.2390     1.5810 N.pl3 1 <1>   0.5610 
  4 C       -1.1500    -3.8000     2.3650 C.2   1 <1>  -0.1360 
  5 N        1.3800    -1.1640     1.4930 N.2   1 <1>  -0.7070 
  6 C        0.6440    -3.0010     0.4410 C.2   1 <1>  -0.0680 
  7 C       -1.0390    -4.5420     1.2290 C.2   1 <1>  -0.0380 
  8 C        1.9810    -1.2870     0.3550 C.2   1 <1>   0.1080 
  9 N       -0.1260    -4.1650     0.2600 N.pl3 1 <1>  -0.5840 
 10 C        1.5680    -2.4120    -0.3500 C.2   1 <1>  -0.1500 
 11 C       -1.9160    -5.7660     0.9730 C.3   1 <1>   0.4810 
 12 C        3.0150    -0.2920    -0.1180 C.3   1 <1>  -0.0590 
 13 N       -2.8400    -5.4540    -0.1550 N.4   1 <1>  -0.9590 
 14 C       -3.7790    -4.3370     0.2160 C.3   1 <1>   0.3430 
 15 C       -3.5930    -6.6560    -0.6160 C.3   1 <1>   0.3430 
 16 C       -4.6550    -3.9030    -0.9690 C.3   1 <1>   0.1430 
 17 C       -4.4480    -6.2960    -1.8370 C.3   1 <1>  -0.1600 
 18 C       -5.6300    -2.8750    -0.4560 C.ar  1 <1>   0.1670 
 19 C       -5.4010    -5.1190    -1.5550 C.3   1 <1>  -0.1600 
 20 C       -3.8720    -3.1120    -2.0520 C.3   1 <1>  -0.1600 
 21 N       -6.3260    -3.0100     0.6420 N.ar  1 <1>  -0.6200 
 22 C       -5.6760    -1.7720    -1.2500 C.ar  1 <1>  -0.1430 
 23 C       -4.7470    -1.8990    -2.4310 C.3   1 <1>  -0.0170 
 24 C       -7.1110    -1.9690     0.9380 C.ar  1 <1>   0.7200 
 25 C       -6.5130    -0.7550    -0.8690 C.ar  1 <1>   0.1600 
 26 N       -7.2320    -0.8450     0.2250 N.ar  1 <1>  -0.6200 
 27 N       -7.8550    -2.0640     2.0940 N.pl3 1 <1>  -0.8380 
 28 C       -8.3130    -3.3710     2.6410 C.3   1 <1>   0.1290 
 29 C       -8.4760    -0.8630     2.7200 C.3   1 <1>   0.1290 
 30 H       -1.8390    -4.0490     3.1520 H     1 <1>   0.1500 
 31 H        0.1210    -4.7520    -0.5510 H     1 <1>   0.4000 
 32 H        1.9290    -2.7170    -1.3150 H     1 <1>   0.1500 
 33 H       -2.4820    -6.0060     1.8580 H     1 <1>   0.0800 
 34 H       -1.2920    -6.6080     0.7260 H     1 <1>   0.0800 
 35 H        2.5730     0.6860    -0.1750 H     1 <1>   0.0800 
 36 H        3.3920    -0.5650    -1.0860 H     1 <1>   0.0800 
 37 H        3.8300    -0.2620     0.5820 H     1 <1>   0.0800 
 38 H       -2.2630    -5.1070    -0.9300 H     1 <1>   0.4500 
 39 H       -3.2280    -3.4800     0.5650 H     1 <1>   0.0800 
 40 H       -4.4270    -4.6590     1.0160 H     1 <1>   0.0800 
 41 H       -4.2350    -7.0100     0.1750 H     1 <1>   0.0800 
 42 H       -2.9090    -7.4480    -0.8790 H     1 <1>   0.0800 
 43 H       -5.0310    -7.1570    -2.1180 H     1 <1>   0.0800 
 44 H       -3.8050    -6.0680    -2.6690 H     1 <1>   0.0800 
 45 H       -5.9210    -4.8370    -2.4560 H     1 <1>   0.0800 
 46 H       -6.1480    -5.4410    -0.8480 H     1 <1>   0.0800 
 47 H       -3.6380    -3.7020    -2.9210 H     1 <1>   0.0800 
 48 H       -2.9530    -2.7370    -1.6350 H     1 <1>   0.0800 
 49 H       -5.3200    -2.1010    -3.3200 H     1 <1>   0.0800 
 50 H       -4.1570    -1.0090    -2.5720 H     1 <1>   0.0800 
 51 H       -6.5930     0.1420    -1.4600 H     1 <1>   0.1500 
 52 H       -8.1680    -4.1600     1.9240 H     1 <1>   0.0800 
 53 H       -9.3620    -3.3210     2.8780 H     1 <1>   0.0800 
 54 H       -7.7590    -3.6010     3.5340 H     1 <1>   0.0800 
 55 H       -7.8620     0.0060     2.5540 H     1 <1>   0.0800 
 56 H       -8.5780    -1.0090     3.7800 H     1 <1>   0.0800 
 57 H       -9.4460    -0.6920     2.2870 H     1 <1>   0.0800 
@<TRIPOS>BOND
  1   1   2  2   
  2   2   3  1   
  3   2   4  1   
  4   3   5  1   
  5   3   6  1   
  6   4   7  2   
  7   4  30  1   
  8   5   8  2   
  9   6   9  1   
 10   6  10  2   
 11   7   9  1   
 12   7  11  1   
 13   8  10  1   
 14   8  12  1   
 15   9  31  1   
 16  10  32  1   
 17  11  13  1   
 18  11  33  1   
 19  11  34  1   
 20  12  35  1   
 21  12  36  1   
 22  12  37  1   
 23  13  14  1   
 24  13  15  1   
 25  13  38  1   
 26  14  16  1   
 27  14  39  1   
 28  14  40  1   
 29  15  17  1   
 30  15  41  1   
 31  15  42  1   
 32  16  18  1   
 33  16  19  1   
 34  16  20  1   
 35  17  19  1   
 36  17  43  1   
 37  17  44  1   
 38  18  21  ar  
 39  18  22  ar  
 40  19  45  1   
 41  19  46  1   
 42  20  23  1   
 43  20  47  1   
 44  20  48  1   
 45  21  24  ar  
 46  22  23  1   
 47  22  25  ar  
 48  23  49  1   
 49  23  50  1   
 50  24  26  ar  
 51  24  27  1   
 52  25  26  ar  
 53  25  51  1   
 54  27  28  1   
 55  27  29  1   
 56  28  52  1   
 57  28  53  1   
 58  28  54  1   
 59  29  55  1   
 60  29  56  1   
 61  29  57  1   
@<TRIPOS>SUBSTRUCTURE
  1 ****  14 GROUP 4 **** **** 0

# MOE 2024.06 (io_trps.svl 2023.06)
