@<TRIPOS>MOLECULE
NONAME
48 49 1 0 0 
SMALL
USER_CHARGES


@<TRIPOS>ATOM
  1 O        0.1750    -0.3780    -0.9760 O.2   1 <1>  -0.5700 
  2 C        1.0210    -0.7290    -0.1930 C.2   1 <1>   0.5690 
  3 N        2.0150     0.0790     0.2830 N.am  1 <1>  -0.5470 
  4 C        0.9840    -2.1640     0.2860 C.3   1 <1>  -0.0990 
  5 C        2.2930     1.4340     0.0360 C.ar  1 <1>   0.1170 
  6 C       -0.2050    -2.8870    -0.3480 C.3   1 <1>   0.3430 
  7 C        3.5750     1.9050     0.2980 C.ar  1 <1>  -0.1500 
  8 C        1.3450     2.3340    -0.4410 C.ar  1 <1>  -0.1500 
  9 N       -0.2520    -4.3030     0.0910 N.4   1 <1>  -0.9060 
 10 C        3.9120     3.2310     0.0880 C.ar  1 <1>  -0.1430 
 11 C        1.6730     3.6600    -0.6540 C.ar  1 <1>  -0.1500 
 12 C       -1.3370    -5.0660    -0.5540 C.3   1 <1>   0.4860 
 13 C        2.9540     4.1090    -0.3900 C.ar  1 <1>  -0.1500 
 14 C        5.3160     3.7340     0.3760 C.3   1 <1>  -0.0970 
 15 C       -1.1730    -6.5220    -0.1500 C.ar  1 <1>  -0.1430 
 16 C       -0.0040    -7.2120    -0.4390 C.ar  1 <1>   0.0820 
 17 C       -2.1710    -7.2380     0.4990 C.ar  1 <1>  -0.1430 
 18 O        1.0000    -6.5720    -1.0820 O.3   1 <1>  -0.5330 
 19 C        0.1210    -8.5520    -0.0710 C.ar  1 <1>   0.1670 
 20 C       -1.9380    -8.5670     0.8190 C.ar  1 <1>   0.1600 
 21 C       -3.5170    -6.6340     0.8770 C.3   1 <1>   0.2640 
 22 N       -0.8260    -9.2270     0.5510 N.ar  1 <1>  -0.6200 
 23 C        1.3860    -9.3410    -0.3680 C.3   1 <1>  -0.0970 
 24 O       -4.0830    -6.0790    -0.2570 O.3   1 <1>  -0.6800 
 25 H        2.7000    -0.3620     0.8930 H     1 <1>   0.3700 
 26 H        0.8900    -2.1640     1.3560 H     1 <1>   0.0800 
 27 H        1.9020    -2.6420    -0.0010 H     1 <1>   0.0800 
 28 H       -0.1140    -2.8360    -1.4220 H     1 <1>   0.0800 
 29 H       -1.1170    -2.3810    -0.0710 H     1 <1>   0.0800 
 30 H        4.3210     1.2270     0.6680 H     1 <1>   0.1500 
 31 H        0.3420     2.0110    -0.6470 H     1 <1>   0.1500 
 32 H       -0.3480    -4.3970     1.1060 H     1 <1>   0.4500 
 33 H        0.6040    -4.8130    -0.1830 H     1 <1>   0.4500 
 34 H        0.9290     4.3430    -1.0250 H     1 <1>   0.1500 
 35 H       -1.2640    -4.9870    -1.6270 H     1 <1>   0.0800 
 36 H       -2.2950    -4.6810    -0.2460 H     1 <1>   0.0800 
 37 H        3.2010     5.1430    -0.5580 H     1 <1>   0.1500 
 38 H        5.9990     2.9150     0.5080 H     1 <1>   0.0800 
 39 H        5.3130     4.3300     1.2710 H     1 <1>   0.0800 
 40 H        5.6650     4.3390    -0.4420 H     1 <1>   0.0800 
 41 H        1.6970    -7.1910    -1.3900 H     1 <1>   0.4500 
 42 H       -2.7060    -9.1300     1.3230 H     1 <1>   0.1500 
 43 H       -3.3950    -5.8530     1.6090 H     1 <1>   0.0800 
 44 H       -4.1980    -7.3730     1.2660 H     1 <1>   0.0800 
 45 H        2.2610    -8.7770    -0.1040 H     1 <1>   0.0800 
 46 H        1.4180    -9.6010    -1.4100 H     1 <1>   0.0800 
 47 H        1.3960   -10.2520     0.2060 H     1 <1>   0.0800 
 48 H       -4.4070    -6.7900    -0.8490 H     1 <1>   0.4000 
@<TRIPOS>BOND
  1   1   2  2   
  2   2   3  am  
  3   2   4  1   
  4   3   5  1   
  5   3  25  1   
  6   4   6  1   
  7   4  26  1   
  8   4  27  1   
  9   5   7  ar  
 10   5   8  ar  
 11   6   9  1   
 12   6  28  1   
 13   6  29  1   
 14   7  10  ar  
 15   7  30  1   
 16   8  11  ar  
 17   8  31  1   
 18   9  12  1   
 19   9  32  1   
 20   9  33  1   
 21  10  13  ar  
 22  10  14  1   
 23  11  13  ar  
 24  11  34  1   
 25  12  15  1   
 26  12  35  1   
 27  12  36  1   
 28  13  37  1   
 29  14  38  1   
 30  14  39  1   
 31  14  40  1   
 32  15  16  ar  
 33  15  17  ar  
 34  16  18  1   
 35  16  19  ar  
 36  17  20  ar  
 37  17  21  1   
 38  18  41  1   
 39  19  22  ar  
 40  19  23  1   
 41  20  22  ar  
 42  20  42  1   
 43  21  24  1   
 44  21  43  1   
 45  21  44  1   
 46  23  45  1   
 47  23  46  1   
 48  23  47  1   
 49  24  48  1   
@<TRIPOS>SUBSTRUCTURE
  1 ****   6 GROUP 4 **** **** 0

# MOE 2024.06 (io_trps.svl 2023.06)
