@<TRIPOS>MOLECULE
NONAME
42 43 1 0 0 
SMALL
USER_CHARGES


@<TRIPOS>ATOM
  1 O       -0.5230    -0.1980    -1.8190 O.2   1 <1>  -0.5700 
  2 C       -0.8090     0.1960    -0.7130 C.2   1 <1>   0.5690 
  3 N       -1.2080    -0.6530     0.2650 N.am  1 <1>  -0.7300 
  4 C       -0.7340     1.6920    -0.4110 C.3   1 <1>   0.1810 
  5 C       -1.3590    -2.1190     0.1450 C.3   1 <1>   0.2200 
  6 O       -1.3070     1.9980     0.8420 O.3   1 <1>  -0.5600 
  7 C       -2.8260    -2.5220     0.0990 C.3   1 <1>  -0.0800 
  8 C       -0.9250    -2.7780     1.4480 C.3   1 <1>   0.1200 
  9 C       -1.2790     3.3380     1.1970 C.3   1 <1>   0.2000 
 10 C       -3.2110    -2.5780     1.5800 C.3   1 <1>   0.1200 
 11 C       -3.7420    -1.6290    -0.7580 C.3   1 <1>  -0.0160 
 12 O       -2.0210    -2.6750     2.3080 O.3   1 <1>  -0.5600 
 13 C       -1.3300     3.3840     2.7200 C.3   1 <1>  -0.2400 
 14 C       -2.4930     4.0360     0.5840 C.3   1 <1>  -0.2400 
 15 C       -5.1590    -2.1810    -0.7930 C.ar  1 <1>  -0.1440 
 16 C       -5.5180    -3.2030    -1.6480 C.ar  1 <1>  -0.1500 
 17 C       -6.1560    -1.6930     0.0260 C.ar  1 <1>  -0.1500 
 18 C       -6.8200    -3.6780    -1.6390 C.ar  1 <1>   0.1600 
 19 C       -7.4280    -2.2380    -0.0430 C.ar  1 <1>   0.1600 
 20 N       -7.7830    -3.2210    -0.8550 N.ar  1 <1>  -0.6200 
 21 H       -1.4720    -0.2440     1.1690 H     1 <1>   0.3700 
 22 H       -1.2610     2.2270    -1.1780 H     1 <1>   0.0800 
 23 H        0.2970     1.9940    -0.4010 H     1 <1>   0.0800 
 24 H       -0.8020    -2.4860    -0.7010 H     1 <1>   0.0800 
 25 H       -2.8790    -3.5250    -0.2840 H     1 <1>   0.0800 
 26 H       -0.0690    -2.2990     1.8920 H     1 <1>   0.0800 
 27 H       -0.7240    -3.8240     1.2970 H     1 <1>   0.0800 
 28 H       -0.3590     3.7830     0.8530 H     1 <1>   0.0800 
 29 H       -3.8310    -3.4300     1.8020 H     1 <1>   0.0800 
 30 H       -3.7060    -1.6750     1.8940 H     1 <1>   0.0800 
 31 H       -3.3530    -1.5770    -1.7600 H     1 <1>   0.0800 
 32 H       -3.7620    -0.6260    -0.3690 H     1 <1>   0.0800 
 33 H       -2.2300     2.9190     3.0800 H     1 <1>   0.0800 
 34 H       -1.3080     4.4030     3.0600 H     1 <1>   0.0800 
 35 H       -0.4780     2.8720     3.1300 H     1 <1>   0.0800 
 36 H       -3.3990     3.5410     0.8860 H     1 <1>   0.0800 
 37 H       -2.4310     4.0430    -0.4880 H     1 <1>   0.0800 
 38 H       -2.5340     5.0560     0.9190 H     1 <1>   0.0800 
 39 H       -4.8000    -3.6340    -2.3200 H     1 <1>   0.1500 
 40 H       -5.9590    -0.8940     0.7170 H     1 <1>   0.1500 
 41 H       -7.0820    -4.4750    -2.3120 H     1 <1>   0.1500 
 42 H       -8.1930    -1.8450     0.6040 H     1 <1>   0.1500 
@<TRIPOS>BOND
  1   1   2  2   
  2   2   3  am  
  3   2   4  1   
  4   3   5  1   
  5   3  21  1   
  6   4   6  1   
  7   4  22  1   
  8   4  23  1   
  9   5   7  1   
 10   5   8  1   
 11   5  24  1   
 12   6   9  1   
 13   7  10  1   
 14   7  11  1   
 15   7  25  1   
 16   8  12  1   
 17   8  26  1   
 18   8  27  1   
 19   9  13  1   
 20   9  14  1   
 21   9  28  1   
 22  10  12  1   
 23  10  29  1   
 24  10  30  1   
 25  11  15  1   
 26  11  31  1   
 27  11  32  1   
 28  13  33  1   
 29  13  34  1   
 30  13  35  1   
 31  14  36  1   
 32  14  37  1   
 33  14  38  1   
 34  15  16  ar  
 35  15  17  ar  
 36  16  18  ar  
 37  16  39  1   
 38  17  19  ar  
 39  17  40  1   
 40  18  20  ar  
 41  18  41  1   
 42  19  20  ar  
 43  19  42  1   
@<TRIPOS>SUBSTRUCTURE
  1 ****  11 GROUP 4 **** **** 0

# MOE 2024.06 (io_trps.svl 2023.06)
