@<TRIPOS>MOLECULE
NONAME
50 53 1 0 0 
SMALL
USER_CHARGES


@<TRIPOS>ATOM
  1 O        0.2540     3.6850     2.0180 O.2   1 <1>  -0.5700 
  2 C        0.3830     3.6610     0.8130 C.2   1 <1>   0.6300 
  3 N       -0.7040     3.5710    -0.0240 N.am  1 <1>  -0.6600 
  4 C        1.8130     3.6990     0.2500 C.3   1 <1>   0.0320 
  5 C       -2.0680     3.3010     0.5150 C.3   1 <1>   0.1400 
  6 C       -0.6330     3.4510    -1.5010 C.3   1 <1>   0.1400 
  7 C        2.2860     2.3210    -0.2060 C.ar  1 <1>  -0.0320 
  8 C        2.8420     4.5490     0.9440 C.3   1 <1>  -0.2000 
  9 C        2.3260     4.9600    -0.3950 C.3   1 <1>  -0.2000 
 10 C       -2.4740     1.8390     0.2140 C.3   1 <1>   0.0000 
 11 C       -1.0030     2.0210    -1.9030 C.3   1 <1>  -0.1600 
 12 C        2.6430     2.0650    -1.5210 C.ar  1 <1>  -0.1500 
 13 C        2.3470     1.2900     0.7180 C.ar  1 <1>  -0.1500 
 14 C       -3.9070     1.5100     0.6800 C.3   1 <1>   0.2000 
 15 C       -2.3600     1.5870    -1.3150 C.3   1 <1>  -0.1600 
 16 C       -1.6170     0.8260     1.0040 C.3   1 <1>  -0.1600 
 17 C        3.0490     0.7990    -1.9060 C.ar  1 <1>  -0.1500 
 18 C        2.7510     0.0230     0.3350 C.ar  1 <1>  -0.1500 
 19 O       -4.1540     2.0740     1.9190 O.3   1 <1>  -0.6800 
 20 C       -3.9290    -0.0050     0.8640 C.3   1 <1>  -0.1600 
 21 C       -2.4970    -0.4100     1.2380 C.3   1 <1>  -0.1600 
 22 C        3.1020    -0.2300    -0.9800 C.ar  1 <1>  -0.1430 
 23 C        3.5460    -1.6200    -1.3970 C.3   1 <1>  -0.0970 
 24 H       -2.0930     3.4880     1.5750 H     1 <1>   0.0800 
 25 H       -2.7690     3.9750     0.0540 H     1 <1>   0.0800 
 26 H       -1.3290     4.1450    -1.9400 H     1 <1>   0.0800 
 27 H        0.3470     3.6950    -1.8660 H     1 <1>   0.0800 
 28 H        2.5410     5.1040     1.8160 H     1 <1>   0.1000 
 29 H        3.8450     4.1680     1.0240 H     1 <1>   0.1000 
 30 H        3.0040     4.9080    -1.2270 H     1 <1>   0.1000 
 31 H        1.6700     5.8110    -0.4500 H     1 <1>   0.1000 
 32 H       -1.0400     1.9550    -2.9760 H     1 <1>   0.0800 
 33 H       -0.2260     1.3550    -1.5720 H     1 <1>   0.0800 
 34 H        2.6060     2.8480    -2.2560 H     1 <1>   0.1500 
 35 H        2.0740     1.4770     1.7430 H     1 <1>   0.1500 
 36 H       -4.6660     1.8600     0.0000 H     1 <1>   0.0800 
 37 H       -2.5200     0.5470    -1.5400 H     1 <1>   0.0800 
 38 H       -3.1320     2.1470    -1.8140 H     1 <1>   0.0800 
 39 H       -0.7020     0.5710     0.5010 H     1 <1>   0.0800 
 40 H       -1.3530     1.2490     1.9580 H     1 <1>   0.0800 
 41 H        3.3240     0.6180    -2.9300 H     1 <1>   0.1500 
 42 H        2.7910    -0.7630     1.0680 H     1 <1>   0.1500 
 43 H       -3.4920     1.7390     2.5540 H     1 <1>   0.4000 
 44 H       -4.6530    -0.3150     1.5990 H     1 <1>   0.0800 
 45 H       -4.1860    -0.4620    -0.0750 H     1 <1>   0.0800 
 46 H       -2.4420    -0.7130     2.2700 H     1 <1>   0.0800 
 47 H       -2.1700    -1.2280     0.6190 H     1 <1>   0.0800 
 48 H        3.3680    -1.7760    -2.4460 H     1 <1>   0.0800 
 49 H        3.0030    -2.3670    -0.8460 H     1 <1>   0.0800 
 50 H        4.5960    -1.7390    -1.2010 H     1 <1>   0.0800 
@<TRIPOS>BOND
  1   1   2  2   
  2   2   3  am  
  3   2   4  1   
  4   3   5  1   
  5   3   6  1   
  6   4   7  1   
  7   4   8  1   
  8   4   9  1   
  9   5  10  1   
 10   5  24  1   
 11   5  25  1   
 12   6  11  1   
 13   6  26  1   
 14   6  27  1   
 15   7  12  ar  
 16   7  13  ar  
 17   8   9  1   
 18   8  28  1   
 19   8  29  1   
 20   9  30  1   
 21   9  31  1   
 22  10  14  1   
 23  10  15  1   
 24  10  16  1   
 25  11  15  1   
 26  11  32  1   
 27  11  33  1   
 28  12  17  ar  
 29  12  34  1   
 30  13  18  ar  
 31  13  35  1   
 32  14  19  1   
 33  14  20  1   
 34  14  36  1   
 35  15  37  1   
 36  15  38  1   
 37  16  21  1   
 38  16  39  1   
 39  16  40  1   
 40  17  22  ar  
 41  17  41  1   
 42  18  22  ar  
 43  18  42  1   
 44  19  43  1   
 45  20  21  1   
 46  20  44  1   
 47  20  45  1   
 48  21  46  1   
 49  21  47  1   
 50  22  23  1   
 51  23  48  1   
 52  23  49  1   
 53  23  50  1   
@<TRIPOS>SUBSTRUCTURE
  1 ****   3 GROUP 4 **** **** 0

# MOE 2024.06 (io_trps.svl 2023.06)
