@<TRIPOS>MOLECULE
NONAME
42 43 1 0 0 
SMALL
USER_CHARGES


@<TRIPOS>ATOM
  1 CL      -0.2130    -1.0350    -3.0300 Cl    1 <1>  -0.1770 
  2 C       -0.4090    -2.5760    -2.2350 C.ar  1 <1>   0.1770 
  3 C        0.3580    -3.6520    -2.6430 C.ar  1 <1>  -0.1500 
  4 C       -1.3270    -2.6990    -1.2090 C.ar  1 <1>  -0.1500 
  5 C        0.2010    -4.8740    -2.0100 C.ar  1 <1>  -0.1500 
  6 C       -1.4800    -3.9230    -0.5810 C.ar  1 <1>  -0.1500 
  7 C       -0.7160    -5.0130    -0.9780 C.ar  1 <1>  -0.1430 
  8 C       -0.8950    -6.3530    -0.2840 C.3   1 <1>  -0.0160 
  9 C       -2.0690    -7.1200    -0.9030 C.3   1 <1>  -0.0990 
 10 C       -2.3370    -8.4110    -0.1460 C.2   1 <1>   0.5690 
 11 O       -1.4730    -9.2560    -0.1900 O.2   1 <1>  -0.5700 
 12 N       -3.4940    -8.6200     0.5630 N.am  1 <1>  -0.6600 
 13 C       -3.6240    -9.8220     1.4290 C.3   1 <1>   0.3200 
 14 C       -4.7810    -7.8820     0.3400 C.3   1 <1>   0.1400 
 15 C       -4.1360   -10.9680     0.5890 C.2   1 <1>  -0.3320 
 16 C       -5.0460    -6.8370     1.4360 C.3   1 <1>   0.1200 
 17 N       -3.4350   -11.4510    -0.4510 N.pl3 1 <1>   0.0330 
 18 C       -5.2680   -11.7010     0.6560 C.2   1 <1>   0.0770 
 19 O       -3.9060    -6.0810     1.6590 O.3   1 <1>  -0.6800 
 20 C       -4.1890   -12.4490    -0.9570 C.2   1 <1>   0.0060 
 21 N       -5.2990   -12.6300    -0.3190 N.2   1 <1>  -0.5650 
 22 C       -3.7630   -13.2670    -2.1560 C.3   1 <1>  -0.0600 
 23 H        1.0650    -3.5300    -3.4430 H     1 <1>   0.1500 
 24 H       -1.9120    -1.8480    -0.9100 H     1 <1>   0.1500 
 25 H        0.7960    -5.7140    -2.3250 H     1 <1>   0.1500 
 26 H       -2.1960    -4.0250     0.2180 H     1 <1>   0.1500 
 27 H       -1.0790    -6.1870     0.7630 H     1 <1>   0.0800 
 28 H        0.0060    -6.9360    -0.3680 H     1 <1>   0.0800 
 29 H       -1.8350    -7.3640    -1.9230 H     1 <1>   0.0800 
 30 H       -2.9250    -6.4760    -0.9110 H     1 <1>   0.0800 
 31 H       -4.3010    -9.6210     2.2410 H     1 <1>   0.0800 
 32 H       -2.6660   -10.0790     1.8500 H     1 <1>   0.0800 
 33 H       -5.5960    -8.5850     0.3230 H     1 <1>   0.0800 
 34 H       -4.7810    -7.4020    -0.6210 H     1 <1>   0.0800 
 35 H       -5.3140    -7.3200     2.3590 H     1 <1>   0.0800 
 36 H       -5.8420    -6.1730     1.1460 H     1 <1>   0.0800 
 37 H       -2.5240   -11.0980    -0.7730 H     1 <1>   0.2700 
 38 H       -6.0780   -11.6150     1.3610 H     1 <1>   0.1500 
 39 H       -3.1550    -6.6880     1.8190 H     1 <1>   0.4000 
 40 H       -2.8390   -13.7730    -1.9460 H     1 <1>   0.0800 
 41 H       -3.6360   -12.6290    -3.0110 H     1 <1>   0.0800 
 42 H       -4.5160   -14.0020    -2.3800 H     1 <1>   0.0800 
@<TRIPOS>BOND
  1   1   2  1   
  2   2   3  ar  
  3   2   4  ar  
  4   3   5  ar  
  5   3  23  1   
  6   4   6  ar  
  7   4  24  1   
  8   5   7  ar  
  9   5  25  1   
 10   6   7  ar  
 11   6  26  1   
 12   7   8  1   
 13   8   9  1   
 14   8  27  1   
 15   8  28  1   
 16   9  10  1   
 17   9  29  1   
 18   9  30  1   
 19  10  11  2   
 20  10  12  am  
 21  12  13  1   
 22  12  14  1   
 23  13  15  1   
 24  13  31  1   
 25  13  32  1   
 26  14  16  1   
 27  14  33  1   
 28  14  34  1   
 29  15  17  1   
 30  15  18  2   
 31  16  19  1   
 32  16  35  1   
 33  16  36  1   
 34  17  20  1   
 35  17  37  1   
 36  18  21  1   
 37  18  38  1   
 38  19  39  1   
 39  20  21  2   
 40  20  22  1   
 41  22  40  1   
 42  22  41  1   
 43  22  42  1   
@<TRIPOS>SUBSTRUCTURE
  1 ****   9 GROUP 4 **** **** 0

# MOE 2024.06 (io_trps.svl 2023.06)
