@<TRIPOS>MOLECULE
NONAME
43 44 1 0 0 
SMALL
USER_CHARGES


@<TRIPOS>ATOM
  1 O        0.3480     0.6340     1.5500 O.2   1 <1>  -0.5700 
  2 C        0.8590     1.3970     0.7540 C.2   1 <1>   0.7800 
  3 O        0.1290     2.0730    -0.1350 O.3   1 <1>  -0.4300 
  4 N        2.2020     1.5970     0.7120 N.am  1 <1>  -0.5100 
  5 C       -1.2680     2.0080    -0.3200 C.3   1 <1>   0.2800 
  6 C        2.9660     1.8580    -0.5490 C.3   1 <1>   0.2250 
  7 C        3.1990     0.5630     1.1310 C.3   1 <1>   0.2250 
  8 C       -1.9940     2.4900     0.9410 C.3   1 <1>  -0.2400 
  9 C       -1.5620     2.9690    -1.4720 C.3   1 <1>  -0.2400 
 10 C       -1.6810     0.5890    -0.7290 C.3   1 <1>  -0.2400 
 11 C        4.1950     1.1880     0.1160 C.3   1 <1>   0.0000 
 12 C        4.9730     0.1930    -0.7750 C.3   1 <1>  -0.0190 
 13 C        5.1590     2.1940     0.7770 C.3   1 <1>  -0.1600 
 14 C        4.1150    -0.9000    -1.3940 C.2   1 <1>   0.6590 
 15 C        6.1450    -0.4050     0.0170 C.3   1 <1>   0.1200 
 16 C        6.3200     1.4580     1.4540 C.3   1 <1>   0.1200 
 17 O        3.6280    -0.7640    -2.4860 O.2   1 <1>  -0.5700 
 18 O        3.9260    -2.0000    -0.6730 O.3   1 <1>  -0.4300 
 19 O        6.9410     0.6260     0.5220 O.3   1 <1>  -0.5600 
 20 C        3.1090    -3.0570    -1.1330 C.3   1 <1>   0.0400 
 21 H        3.0860     2.9110    -0.7330 H     1 <1>   0.0000 
 22 H        2.5430     1.3170    -1.3760 H     1 <1>   0.0000 
 23 H        2.8450    -0.4230     0.8940 H     1 <1>   0.0000 
 24 H        3.4850     0.6820     2.1610 H     1 <1>   0.0000 
 25 H       -1.6270     3.4560     1.2370 H     1 <1>   0.0800 
 26 H       -1.8650     1.7980     1.7520 H     1 <1>   0.0800 
 27 H       -3.0480     2.5700     0.7480 H     1 <1>   0.0800 
 28 H       -1.2550     3.9660    -1.2130 H     1 <1>   0.0800 
 29 H       -2.6150     2.9840    -1.6870 H     1 <1>   0.0800 
 30 H       -1.0390     2.6600    -2.3590 H     1 <1>   0.0800 
 31 H       -1.5530    -0.1020     0.0830 H     1 <1>   0.0800 
 32 H       -1.1010     0.2580    -1.5710 H     1 <1>   0.0800 
 33 H       -2.7200     0.5750    -1.0050 H     1 <1>   0.0800 
 34 H        5.3980     0.7450    -1.5950 H     1 <1>   0.0800 
 35 H        4.6420     2.7960     1.5040 H     1 <1>   0.0800 
 36 H        5.5620     2.8570     0.0320 H     1 <1>   0.0800 
 37 H        6.7630    -1.0100    -0.6250 H     1 <1>   0.0800 
 38 H        5.8020    -1.0080     0.8400 H     1 <1>   0.0800 
 39 H        5.9820     0.8570     2.2810 H     1 <1>   0.0800 
 40 H        7.0560     2.1590     1.8090 H     1 <1>   0.0800 
 41 H        3.1050    -3.8340    -0.3900 H     1 <1>   0.0800 
 42 H        3.5100    -3.4300    -2.0600 H     1 <1>   0.0800 
 43 H        2.1110    -2.6840    -1.2840 H     1 <1>   0.0800 
@<TRIPOS>BOND
  1   1   2  2   
  2   2   3  1   
  3   2   4  am  
  4   3   5  1   
  5   4   6  1   
  6   4   7  1   
  7   5   8  1   
  8   5   9  1   
  9   5  10  1   
 10   6  11  1   
 11   6  21  1   
 12   6  22  1   
 13   7  11  1   
 14   7  23  1   
 15   7  24  1   
 16   8  25  1   
 17   8  26  1   
 18   8  27  1   
 19   9  28  1   
 20   9  29  1   
 21   9  30  1   
 22  10  31  1   
 23  10  32  1   
 24  10  33  1   
 25  11  12  1   
 26  11  13  1   
 27  12  14  1   
 28  12  15  1   
 29  12  34  1   
 30  13  16  1   
 31  13  35  1   
 32  13  36  1   
 33  14  17  2   
 34  14  18  1   
 35  15  19  1   
 36  15  37  1   
 37  15  38  1   
 38  16  19  1   
 39  16  39  1   
 40  16  40  1   
 41  18  20  1   
 42  20  41  1   
 43  20  42  1   
 44  20  43  1   
@<TRIPOS>SUBSTRUCTURE
  1 ****   4 GROUP 4 **** **** 0

# MOE 2024.06 (io_trps.svl 2023.06)
