@<TRIPOS>MOLECULE
NONAME
40 41 1 0 0 
SMALL
USER_CHARGES


@<TRIPOS>ATOM
  1 S        0.3920     0.4980    -1.4760 S.o2  1 <1>   1.3330 
  2 O        0.5460    -0.7710    -2.1510 O.2   1 <1>  -0.6500 
  3 O       -0.4450     1.5230    -2.0590 O.2   1 <1>  -0.6500 
  4 N       -0.2070     0.1870     0.0840 N.am  1 <1>  -0.8490 
  5 C        2.0300     1.1700    -1.1830 C.3   1 <1>  -0.0550 
  6 C       -1.2190    -0.8740     0.0840 C.3   1 <1>   0.1160 
  7 C       -0.7430     1.3810     0.7480 C.3   1 <1>   0.1160 
  8 C        3.0400     0.1530    -0.6090 C.3   1 <1>  -0.0800 
  9 C        4.4760     0.6500    -0.5330 C.3   1 <1>   0.2200 
 10 C        2.7620    -0.3030     0.8290 C.3   1 <1>   0.1200 
 11 N        4.5270     2.0450    -0.0350 N.am  1 <1>  -0.7300 
 12 C        5.0350    -0.2760     0.5390 C.3   1 <1>   0.1200 
 13 O        4.0030    -0.4150     1.4650 O.3   1 <1>  -0.5600 
 14 C        4.7560     3.1580    -0.7890 C.2   1 <1>   0.7150 
 15 O        4.8700     3.0250    -1.9930 O.2   1 <1>  -0.5700 
 16 C        4.8360     4.4570    -0.1770 C.2   1 <1>   0.0550 
 17 O        4.6730     4.6140     1.1170 O.3   1 <1>  -0.0190 
 18 C        5.0590     5.6920    -0.6810 C.2   1 <1>  -0.1500 
 19 N        4.7710     5.8520     1.4940 N.2   1 <1>  -0.4100 
 20 C        5.0060     6.5270     0.4250 C.2   1 <1>   0.1080 
 21 C        5.1940     8.0270     0.4060 C.3   1 <1>  -0.0590 
 22 H        2.4160     1.5270    -2.1190 H     1 <1>   0.0800 
 23 H        1.9520     2.0160    -0.5290 H     1 <1>   0.0800 
 24 H       -1.5700    -1.0560     1.0850 H     1 <1>   0.0800 
 25 H       -0.7940    -1.7890    -0.2950 H     1 <1>   0.0800 
 26 H       -2.0520    -0.5960    -0.5400 H     1 <1>   0.0800 
 27 H       -1.0270     1.1450     1.7600 H     1 <1>   0.0800 
 28 H       -1.6070     1.7510     0.2200 H     1 <1>   0.0800 
 29 H        0.0010     2.1580     0.7780 H     1 <1>   0.0800 
 30 H        3.0300    -0.7240    -1.2340 H     1 <1>   0.0800 
 31 H        5.0020     0.5560    -1.4690 H     1 <1>   0.0800 
 32 H        2.2650    -1.2580     0.8560 H     1 <1>   0.0800 
 33 H        2.1840     0.4220     1.3750 H     1 <1>   0.0800 
 34 H        4.4220     2.1390     0.9800 H     1 <1>   0.3700 
 35 H        5.9100     0.1210     1.0230 H     1 <1>   0.0800 
 36 H        5.2480    -1.2490     0.1320 H     1 <1>   0.0800 
 37 H        5.2370     5.9720    -1.7030 H     1 <1>   0.1500 
 38 H        5.3660     8.3730    -0.5970 H     1 <1>   0.0800 
 39 H        6.0370     8.2920     1.0180 H     1 <1>   0.0800 
 40 H        4.3150     8.5060     0.7970 H     1 <1>   0.0800 
@<TRIPOS>BOND
  1   1   2  2   
  2   1   3  2   
  3   1   4  am  
  4   1   5  1   
  5   4   6  1   
  6   4   7  1   
  7   5   8  1   
  8   5  22  1   
  9   5  23  1   
 10   6  24  1   
 11   6  25  1   
 12   6  26  1   
 13   7  27  1   
 14   7  28  1   
 15   7  29  1   
 16   8   9  1   
 17   8  10  1   
 18   8  30  1   
 19   9  11  1   
 20   9  12  1   
 21   9  31  1   
 22  10  13  1   
 23  10  32  1   
 24  10  33  1   
 25  11  14  am  
 26  11  34  1   
 27  12  13  1   
 28  12  35  1   
 29  12  36  1   
 30  14  15  2   
 31  14  16  1   
 32  16  17  1   
 33  16  18  2   
 34  17  19  1   
 35  18  20  1   
 36  18  37  1   
 37  19  20  2   
 38  20  21  1   
 39  21  38  1   
 40  21  39  1   
 41  21  40  1   
@<TRIPOS>SUBSTRUCTURE
  1 ****  11 GROUP 4 **** **** 0

# MOE 2024.06 (io_trps.svl 2023.06)
