@<TRIPOS>MOLECULE
NONAME
56 59 1 0 0 
SMALL
USER_CHARGES


@<TRIPOS>ATOM
  1 O       -0.6120     0.4060     1.4750 O.2   1 <1>  -0.5700 
  2 C       -1.3470     0.8060     0.5840 C.2   1 <1>   0.7160 
  3 N       -2.0830    -0.1460    -0.1030 N.am  1 <1>  -0.6600 
  4 C       -1.3960     2.2410     0.2790 C.2   1 <1>   0.2030 
  5 C       -2.0140    -1.5970     0.2750 C.3   1 <1>   0.3640 
  6 C       -2.9870     0.1880    -1.2450 C.3   1 <1>   0.1400 
  7 N       -2.4030     2.9070    -0.2740 N.2   1 <1>  -0.7070 
  8 C       -0.3450     3.1370     0.5470 C.2   1 <1>  -0.1810 
  9 C       -0.8940    -2.3410    -0.4750 C.ar  1 <1>  -0.1430 
 10 C       -3.3990    -2.2900     0.0840 C.3   1 <1>   0.2000 
 11 C       -3.4820    -1.0630    -1.9850 C.3   1 <1>   0.1200 
 12 N       -2.0060     4.1870    -0.3390 N.pl3 1 <1>   0.3000 
 13 C       -0.7660     4.3480     0.1510 C.2   1 <1>  -0.3320 
 14 C        1.0240     2.8900     1.1610 C.3   1 <1>   0.0210 
 15 C       -0.5980    -3.6430    -0.0880 C.ar  1 <1>  -0.1500 
 16 C       -0.1520    -1.7770    -1.5090 C.ar  1 <1>  -0.1500 
 17 O       -4.0930    -1.9580    -1.1030 O.3   1 <1>  -0.5600 
 18 C       -4.3430    -1.9690     1.2500 C.3   1 <1>   0.1200 
 19 C        0.0250     5.6390     0.2440 C.3   1 <1>   0.0200 
 20 C        1.9510     4.0950     0.9120 C.3   1 <1>  -0.1600 
 21 C        0.3880    -4.3780    -0.7240 C.ar  1 <1>   0.0830 
 22 C        0.8500    -2.4950    -2.1400 C.ar  1 <1>  -0.1500 
 23 O       -3.9360    -2.6430     2.3990 O.3   1 <1>  -0.6800 
 24 C        1.2360     5.4370     1.1730 C.3   1 <1>  -0.1600 
 25 O        0.5730    -5.6570    -0.3120 O.3   1 <1>  -0.3630 
 26 C        1.1380    -3.7890    -1.7470 C.ar  1 <1>   0.0830 
 27 C        0.3060    -6.6690    -1.2580 C.3   1 <1>   0.0400 
 28 O        2.1550    -4.4250    -2.3780 O.3   1 <1>  -0.3630 
 29 C        3.2920    -4.7080    -1.5920 C.3   1 <1>   0.0400 
 30 H       -1.7710    -1.6690     1.3220 H     1 <1>   0.0800 
 31 H       -3.8380     0.7320    -0.8730 H     1 <1>   0.0800 
 32 H       -2.4660     0.8240    -1.9400 H     1 <1>   0.0800 
 33 H       -3.2630    -3.3560     0.0550 H     1 <1>   0.0800 
 34 H       -2.6710    -1.5690    -2.4790 H     1 <1>   0.0800 
 35 H       -4.2100    -0.7890    -2.7270 H     1 <1>   0.0800 
 36 H       -2.6020     4.9320    -0.7190 H     1 <1>   0.2700 
 37 H        0.9010     2.7360     2.2190 H     1 <1>   0.0800 
 38 H        1.4630     2.0020     0.7420 H     1 <1>   0.0800 
 39 H       -1.1340    -4.1090     0.7190 H     1 <1>   0.1500 
 40 H       -0.3340    -0.7690    -1.8340 H     1 <1>   0.1500 
 41 H       -5.3480    -2.2790     1.0210 H     1 <1>   0.0800 
 42 H       -4.3300    -0.9140     1.4610 H     1 <1>   0.0800 
 43 H        0.3660     5.9120    -0.7400 H     1 <1>   0.0800 
 44 H       -0.5930     6.4330     0.6250 H     1 <1>   0.0800 
 45 H        2.8180     4.0130     1.5430 H     1 <1>   0.0800 
 46 H        2.2830     4.0710    -0.1120 H     1 <1>   0.0800 
 47 H        1.4200    -2.0500    -2.9340 H     1 <1>   0.1500 
 48 H       -4.1930    -3.5850     2.3590 H     1 <1>   0.4000 
 49 H        1.9270     6.2520     1.0430 H     1 <1>   0.0800 
 50 H        0.8960     5.4520     2.1940 H     1 <1>   0.0800 
 51 H        0.3570    -7.6190    -0.7580 H     1 <1>   0.0800 
 52 H        1.0410    -6.6290    -2.0420 H     1 <1>   0.0800 
 53 H       -0.6790    -6.5160    -1.6620 H     1 <1>   0.0800 
 54 H        4.0510    -5.1180    -2.2330 H     1 <1>   0.0800 
 55 H        3.0310    -5.4200    -0.8300 H     1 <1>   0.0800 
 56 H        3.6400    -3.7940    -1.1440 H     1 <1>   0.0800 
@<TRIPOS>BOND
  1   1   2  2   
  2   2   3  am  
  3   2   4  1   
  4   3   5  1   
  5   3   6  1   
  6   4   7  2   
  7   4   8  1   
  8   5   9  1   
  9   5  10  1   
 10   5  30  1   
 11   6  11  1   
 12   6  31  1   
 13   6  32  1   
 14   7  12  1   
 15   8  13  2   
 16   8  14  1   
 17   9  15  ar  
 18   9  16  ar  
 19  10  17  1   
 20  10  18  1   
 21  10  33  1   
 22  11  17  1   
 23  11  34  1   
 24  11  35  1   
 25  12  13  1   
 26  12  36  1   
 27  13  19  1   
 28  14  20  1   
 29  14  37  1   
 30  14  38  1   
 31  15  21  ar  
 32  15  39  1   
 33  16  22  ar  
 34  16  40  1   
 35  18  23  1   
 36  18  41  1   
 37  18  42  1   
 38  19  24  1   
 39  19  43  1   
 40  19  44  1   
 41  20  24  1   
 42  20  45  1   
 43  20  46  1   
 44  21  25  1   
 45  21  26  ar  
 46  22  26  ar  
 47  22  47  1   
 48  23  48  1   
 49  24  49  1   
 50  24  50  1   
 51  25  27  1   
 52  26  28  1   
 53  27  51  1   
 54  27  52  1   
 55  27  53  1   
 56  28  29  1   
 57  29  54  1   
 58  29  55  1   
 59  29  56  1   
@<TRIPOS>SUBSTRUCTURE
  1 ****   3 GROUP 4 **** **** 0

# MOE 2024.06 (io_trps.svl 2023.06)
