@<TRIPOS>MOLECULE
NONAME
52 55 1 0 0 
SMALL
USER_CHARGES


@<TRIPOS>ATOM
  1 F       -2.6250    -0.1760     2.4780 F     1 <1>  -0.1900 
  2 C       -3.2270    -0.8650     1.5490 C.ar  1 <1>   0.1900 
  3 C       -3.7990    -0.2020     0.4900 C.ar  1 <1>  -0.1500 
  4 C       -3.2650    -2.2440     1.6660 C.ar  1 <1>  -0.1500 
  5 C       -4.4430    -0.9390    -0.4990 C.ar  1 <1>   0.1170 
  6 C       -3.9030    -2.9740     0.6850 C.ar  1 <1>  -0.1500 
  7 N       -5.0310    -0.2950    -1.5800 N.am  1 <1>  -0.5470 
  8 C       -4.5080    -2.3470    -0.4150 C.ar  1 <1>   0.0280 
  9 C       -5.6750    -0.9560    -2.5760 C.2   1 <1>   0.6160 
 10 C       -5.2010    -3.0690    -1.4600 C.2   1 <1>  -0.0140 
 11 O       -6.1710    -0.3120    -3.4800 O.2   1 <1>  -0.5700 
 12 C       -5.7470    -2.3680    -2.4940 C.2   1 <1>  -0.1360 
 13 C       -5.3210    -4.5060    -1.3940 C.2   1 <1>   0.6160 
 14 O       -4.3290    -5.1970    -1.5220 O.2   1 <1>  -0.5700 
 15 N       -6.5410    -5.1090    -1.1870 N.am  1 <1>  -0.6600 
 16 C       -7.7710    -4.3870    -0.7370 C.3   1 <1>   0.1400 
 17 C       -6.7200    -6.5940    -1.2270 C.3   1 <1>   0.1400 
 18 C       -8.3400    -5.0190     0.5520 C.3   1 <1>   0.2950 
 19 C       -7.3600    -7.1100     0.0800 C.3   1 <1>   0.2000 
 20 O       -8.5280    -6.3910     0.3600 O.3   1 <1>  -0.5600 
 21 C       -9.6900    -4.4410     1.0120 C.3   1 <1>  -0.1950 
 22 C       -7.7590    -8.5890     0.0130 C.3   1 <1>  -0.1600 
 23 C      -10.8230    -4.1230     0.0860 C.3   1 <1>  -0.2000 
 24 C      -10.0990    -3.0140     0.7990 C.3   1 <1>  -0.2000 
 25 C       -6.5550    -9.5330    -0.1440 C.3   1 <1>  -0.1600 
 26 C       -7.0000   -10.9990    -0.1100 C.3   1 <1>  -0.1600 
 27 C       -5.8030   -11.9410    -0.2680 C.3   1 <1>  -0.2400 
 28 H       -3.7460     0.8690     0.4340 H     1 <1>   0.1500 
 29 H       -2.7990    -2.7220     2.5090 H     1 <1>   0.1500 
 30 H       -3.9250    -4.0470     0.7730 H     1 <1>   0.1500 
 31 H       -4.9910     0.7180    -1.6860 H     1 <1>   0.3700 
 32 H       -6.2610    -2.8570    -3.3000 H     1 <1>   0.1500 
 33 H       -7.5570    -3.3520    -0.5480 H     1 <1>   0.0800 
 34 H       -8.5090    -4.4390    -1.5180 H     1 <1>   0.0800 
 35 H       -7.3560    -6.8480    -2.0570 H     1 <1>   0.0800 
 36 H       -5.7740    -7.0830    -1.3780 H     1 <1>   0.0800 
 37 H       -7.6270    -4.8880     1.3480 H     1 <1>   0.0800 
 38 H       -6.6750    -6.9660     0.8980 H     1 <1>   0.0800 
 39 H       -9.9650    -4.8680     1.9620 H     1 <1>   0.1000 
 40 H       -8.2760    -8.8370     0.9240 H     1 <1>   0.0800 
 41 H       -8.4400    -8.7350    -0.8080 H     1 <1>   0.0800 
 42 H      -10.6920    -4.2390    -0.9750 H     1 <1>   0.1000 
 43 H      -11.8200    -4.3810     0.4000 H     1 <1>   0.1000 
 44 H      -10.6080    -2.5010     1.5980 H     1 <1>   0.1000 
 45 H       -9.5020    -2.3440     0.2060 H     1 <1>   0.1000 
 46 H       -6.0550    -9.3420    -1.0780 H     1 <1>   0.0800 
 47 H       -5.8540    -9.3560     0.6550 H     1 <1>   0.0800 
 48 H       -7.4920   -11.2080     0.8250 H     1 <1>   0.0800 
 49 H       -7.7030   -11.1840    -0.9050 H     1 <1>   0.0800 
 50 H       -5.0970   -11.7900     0.5300 H     1 <1>   0.0800 
 51 H       -5.3080   -11.7680    -1.2070 H     1 <1>   0.0800 
 52 H       -6.1340   -12.9640    -0.2400 H     1 <1>   0.0800 
@<TRIPOS>BOND
  1   1   2  1   
  2   2   3  ar  
  3   2   4  ar  
  4   3   5  ar  
  5   3  28  1   
  6   4   6  ar  
  7   4  29  1   
  8   5   7  1   
  9   5   8  ar  
 10   6   8  ar  
 11   6  30  1   
 12   7   9  am  
 13   7  31  1   
 14   8  10  1   
 15   9  11  2   
 16   9  12  1   
 17  10  12  2   
 18  10  13  1   
 19  12  32  1   
 20  13  14  2   
 21  13  15  am  
 22  15  16  1   
 23  15  17  1   
 24  16  18  1   
 25  16  33  1   
 26  16  34  1   
 27  17  19  1   
 28  17  35  1   
 29  17  36  1   
 30  18  20  1   
 31  18  21  1   
 32  18  37  1   
 33  19  20  1   
 34  19  22  1   
 35  19  38  1   
 36  21  23  1   
 37  21  24  1   
 38  21  39  1   
 39  22  25  1   
 40  22  40  1   
 41  22  41  1   
 42  23  24  1   
 43  23  42  1   
 44  23  43  1   
 45  24  44  1   
 46  24  45  1   
 47  25  26  1   
 48  25  46  1   
 49  25  47  1   
 50  26  27  1   
 51  26  48  1   
 52  26  49  1   
 53  27  50  1   
 54  27  51  1   
 55  27  52  1   
@<TRIPOS>SUBSTRUCTURE
  1 ****  15 GROUP 4 **** **** 0

# MOE 2024.06 (io_trps.svl 2023.06)
