@<TRIPOS>MOLECULE
NONAME
46 49 1 0 0 
SMALL
USER_CHARGES


@<TRIPOS>ATOM
  1 O        0.6630    -0.2970    -1.1760 O.2   1 <1>  -0.5700 
  2 C        1.3720    -0.8340    -0.3450 C.2   1 <1>   0.5440 
  3 N        2.2180    -0.0700     0.4260 N.am  1 <1>  -0.4940 
  4 C        1.3210    -2.2710    -0.1530 C.ar  1 <1>   0.0860 
  5 C        2.4060     1.3330     0.4180 C.2   1 <1>  -0.0880 
  6 C        0.1600    -2.9820    -0.4220 C.ar  1 <1>  -0.1500 
  7 C        2.4420    -2.9960     0.3120 C.ar  1 <1>  -0.1500 
  8 N        3.6120     1.9580     0.3100 N.pl3 1 <1>   0.3140 
  9 C        1.4770     2.3130     0.5230 C.2   1 <1>  -0.1810 
 10 C        0.1050    -4.3620    -0.2180 C.ar  1 <1>  -0.1520 
 11 C        2.3970    -4.3550     0.5180 C.ar  1 <1>  -0.1500 
 12 N        3.4730     3.3070     0.3690 N.2   1 <1>  -0.7070 
 13 C        4.9300     1.2930     0.1000 C.3   1 <1>   0.1760 
 14 C        2.1970     3.5010     0.4860 C.2   1 <1>   0.1390 
 15 C       -0.0300     2.1940     0.6530 C.3   1 <1>  -0.0590 
 16 N       -0.9170    -5.2630    -0.4070 N.pl3 1 <1>   0.0480 
 17 C        1.2150    -5.0520     0.2560 C.ar  1 <1>   0.0000 
 18 C        5.9130     1.5300     1.2490 C.3   1 <1>  -0.1600 
 19 C        5.6790     1.7980    -1.1340 C.3   1 <1>  -0.1600 
 20 C       -0.4540    -6.4970    -0.0530 C.2   1 <1>  -0.3020 
 21 C       -2.2630    -4.9510    -0.9140 C.3   1 <1>   0.0160 
 22 C        0.8350    -6.4040     0.3530 C.2   1 <1>  -0.1500 
 23 C        7.3070     1.3380     0.6390 C.3   1 <1>  -0.1600 
 24 C        7.1350     1.4040    -0.8840 C.3   1 <1>  -0.1600 
 25 H        2.7070    -0.5760     1.1630 H     1 <1>   0.3700 
 26 H       -0.7070    -2.4650    -0.7910 H     1 <1>   0.1500 
 27 H        3.3630    -2.4760     0.5010 H     1 <1>   0.1500 
 28 H        3.2520    -4.9010     0.8720 H     1 <1>   0.1500 
 29 H        4.7750     0.2370    -0.0120 H     1 <1>   0.0800 
 30 H        1.7540     4.4800     0.5480 H     1 <1>   0.1500 
 31 H       -0.2980     1.2140     1.0030 H     1 <1>   0.0800 
 32 H       -0.4870     2.3510    -0.3070 H     1 <1>   0.0800 
 33 H       -0.4030     2.9240     1.3480 H     1 <1>   0.0800 
 34 H        5.7380     0.8560     2.0680 H     1 <1>   0.0800 
 35 H        5.8210     2.5460     1.5950 H     1 <1>   0.0800 
 36 H        5.6110     2.8720    -1.1870 H     1 <1>   0.0800 
 37 H        5.2920     1.3680    -2.0410 H     1 <1>   0.0800 
 38 H       -1.0710    -7.3760    -0.1120 H     1 <1>   0.1500 
 39 H       -2.7440    -4.2650    -0.2410 H     1 <1>   0.0800 
 40 H       -2.8410    -5.8530    -0.9820 H     1 <1>   0.0800 
 41 H       -2.1790    -4.5030    -1.8870 H     1 <1>   0.0800 
 42 H        1.4820    -7.1930     0.6930 H     1 <1>   0.1500 
 43 H        7.7140     0.3820     0.9210 H     1 <1>   0.0800 
 44 H        7.9720     2.1120     0.9830 H     1 <1>   0.0800 
 45 H        7.8110     2.1150    -1.3300 H     1 <1>   0.0800 
 46 H        7.3250     0.4330    -1.3090 H     1 <1>   0.0800 
@<TRIPOS>BOND
  1   1   2  2   
  2   2   3  am  
  3   2   4  1   
  4   3   5  1   
  5   3  25  1   
  6   4   6  ar  
  7   4   7  ar  
  8   5   8  1   
  9   5   9  2   
 10   6  10  ar  
 11   6  26  1   
 12   7  11  ar  
 13   7  27  1   
 14   8  12  1   
 15   8  13  1   
 16   9  14  1   
 17   9  15  1   
 18  10  16  1   
 19  10  17  ar  
 20  11  17  ar  
 21  11  28  1   
 22  12  14  2   
 23  13  18  1   
 24  13  19  1   
 25  13  29  1   
 26  14  30  1   
 27  15  31  1   
 28  15  32  1   
 29  15  33  1   
 30  16  20  1   
 31  16  21  1   
 32  17  22  1   
 33  18  23  1   
 34  18  34  1   
 35  18  35  1   
 36  19  24  1   
 37  19  36  1   
 38  19  37  1   
 39  20  22  2   
 40  20  38  1   
 41  21  39  1   
 42  21  40  1   
 43  21  41  1   
 44  22  42  1   
 45  23  24  1   
 46  23  43  1   
 47  23  44  1   
 48  24  45  1   
 49  24  46  1   
@<TRIPOS>SUBSTRUCTURE
  1 ****   2 GROUP 4 **** **** 0

# MOE 2024.06 (io_trps.svl 2023.06)
