@<TRIPOS>MOLECULE
NONAME
45 47 1 0 0 
SMALL
USER_CHARGES


@<TRIPOS>ATOM
  1 S       -0.0940     0.3030     0.2520 S.o2  1 <1>   1.3330 
  2 O       -0.5940     1.6560     0.1680 O.2   1 <1>  -0.6500 
  3 O       -0.2340    -0.4350     1.4870 O.2   1 <1>  -0.6500 
  4 N       -0.8080    -0.6110    -0.9870 N.am  1 <1>  -0.8490 
  5 C        1.6310     0.3350    -0.2350 C.3   1 <1>  -0.0550 
  6 C       -0.7350    -2.0580    -0.7600 C.3   1 <1>   0.1160 
  7 C       -2.1970    -0.2160    -1.2410 C.3   1 <1>   0.1160 
  8 C        2.5060     1.2080     0.6840 C.3   1 <1>  -0.0800 
  9 C        3.8990     1.3970     0.1060 C.3   1 <1>   0.2200 
 10 C        2.7860     0.5300     2.0350 C.3   1 <1>   0.1200 
 11 N        4.4520     2.6690     0.6160 N.am  1 <1>  -0.7300 
 12 C        4.6530     0.2290     0.7260 C.3   1 <1>   0.1200 
 13 O        4.1050     0.0690     1.9970 O.3   1 <1>  -0.5600 
 14 C        4.8980     3.7090    -0.1500 C.2   1 <1>   0.7160 
 15 O        4.9260     3.5530    -1.3600 O.2   1 <1>  -0.5700 
 16 C        5.3100     4.9260     0.4710 C.2   1 <1>  -0.0860 
 17 C        6.0370     5.9830    -0.0170 C.2   1 <1>  -0.0680 
 18 C        5.0340     5.3280     1.7880 C.2   1 <1>   0.1390 
 19 N        6.1470     6.8840     0.9710 N.pl3 1 <1>   0.6010 
 20 N        6.6910     6.4530    -1.1400 N.pl3 1 <1>  -0.5530 
 21 N        5.5260     6.4860     2.1080 N.2   1 <1>  -0.7070 
 22 C        6.8780     7.9540     0.4900 C.2   1 <1>  -0.1810 
 23 C        7.2060     7.6920    -0.7920 C.2   1 <1>  -0.0500 
 24 C        6.7630     5.7830    -2.4570 C.3   1 <1>   0.1290 
 25 H        2.0170    -0.6650    -0.2610 H     1 <1>   0.0800 
 26 H        1.6820     0.7320    -1.2310 H     1 <1>   0.0800 
 27 H       -1.1180    -2.5870    -1.6170 H     1 <1>   0.0800 
 28 H       -1.3130    -2.3330     0.1080 H     1 <1>   0.0800 
 29 H        0.2860    -2.3600    -0.6030 H     1 <1>   0.0800 
 30 H       -2.6130    -0.8040    -2.0410 H     1 <1>   0.0800 
 31 H       -2.2390     0.8210    -1.5300 H     1 <1>   0.0800 
 32 H       -2.7940    -0.3510    -0.3530 H     1 <1>   0.0800 
 33 H        2.0150     2.1570     0.8220 H     1 <1>   0.0800 
 34 H        3.9230     1.3700    -0.9710 H     1 <1>   0.0800 
 35 H        2.1400    -0.3070     2.2330 H     1 <1>   0.0800 
 36 H        2.7090     1.2350     2.8440 H     1 <1>   0.0800 
 37 H        4.6300     2.6730     1.6210 H     1 <1>   0.3700 
 38 H        5.7110     0.4120     0.8060 H     1 <1>   0.0800 
 39 H        4.4790    -0.6780     0.1750 H     1 <1>   0.0800 
 40 H        4.4600     4.7390     2.4840 H     1 <1>   0.1500 
 41 H        7.0840     8.7950     1.1210 H     1 <1>   0.1500 
 42 H        7.7670     8.2920    -1.4900 H     1 <1>   0.1500 
 43 H        7.3850     6.3510    -3.1260 H     1 <1>   0.0800 
 44 H        5.7740     5.7000    -2.8710 H     1 <1>   0.0800 
 45 H        7.1760     4.7970    -2.3360 H     1 <1>   0.0800 
@<TRIPOS>BOND
  1   1   2  2   
  2   1   3  2   
  3   1   4  am  
  4   1   5  1   
  5   4   6  1   
  6   4   7  1   
  7   5   8  1   
  8   5  25  1   
  9   5  26  1   
 10   6  27  1   
 11   6  28  1   
 12   6  29  1   
 13   7  30  1   
 14   7  31  1   
 15   7  32  1   
 16   8   9  1   
 17   8  10  1   
 18   8  33  1   
 19   9  11  1   
 20   9  12  1   
 21   9  34  1   
 22  10  13  1   
 23  10  35  1   
 24  10  36  1   
 25  11  14  am  
 26  11  37  1   
 27  12  13  1   
 28  12  38  1   
 29  12  39  1   
 30  14  15  2   
 31  14  16  1   
 32  16  17  2   
 33  16  18  1   
 34  17  19  1   
 35  17  20  1   
 36  18  21  2   
 37  18  40  1   
 38  19  21  1   
 39  19  22  1   
 40  20  23  1   
 41  20  24  1   
 42  22  23  2   
 43  22  41  1   
 44  23  42  1   
 45  24  43  1   
 46  24  44  1   
 47  24  45  1   
@<TRIPOS>SUBSTRUCTURE
  1 ****  11 GROUP 4 **** **** 0

# MOE 2024.06 (io_trps.svl 2023.06)
