@<TRIPOS>MOLECULE
NONAME
49 51 1 0 0 
SMALL
USER_CHARGES


@<TRIPOS>ATOM
  1 O        0.3950    -0.0690    -0.9730 O.2   1 <1>  -0.5700 
  2 C        1.3500    -0.5930    -0.4330 C.2   1 <1>   0.5440 
  3 N        2.3850     0.1710     0.0570 N.am  1 <1>  -0.4940 
  4 C        1.4200    -2.0360    -0.3190 C.ar  1 <1>   0.0860 
  5 C        2.5120     1.5790     0.1580 C.2   1 <1>  -0.0880 
  6 C        0.9840    -2.8570    -1.3580 C.ar  1 <1>  -0.1500 
  7 C        1.9200    -2.6630     0.8230 C.ar  1 <1>  -0.1500 
  8 N        3.6410     2.2520     0.5310 N.pl3 1 <1>   0.3140 
  9 C        1.5760     2.5280    -0.0800 C.2   1 <1>  -0.1500 
 10 C        1.0550    -4.2350    -1.2710 C.ar  1 <1>  -0.1500 
 11 C        1.9930    -4.0420     0.9170 C.ar  1 <1>  -0.1500 
 12 N        3.4350     3.5910     0.5380 N.2   1 <1>  -0.7070 
 13 C        4.9840     1.7100     0.8890 C.3   1 <1>   0.1760 
 14 C        2.2040     3.7400     0.1720 C.2   1 <1>   0.1080 
 15 C        1.5590    -4.8400    -0.1300 C.ar  1 <1>  -0.1430 
 16 C        5.6230     0.9940    -0.3210 C.3   1 <1>  -0.1600 
 17 C        4.9050     0.8270     2.1470 C.3   1 <1>  -0.2400 
 18 C        1.5560     5.0970     0.0420 C.3   1 <1>  -0.0590 
 19 C        1.6270    -6.3610    -0.0270 C.3   1 <1>   0.2390 
 20 C        7.0910     0.6070    -0.0910 C.3   1 <1>  -0.2400 
 21 N        0.3230    -6.9950    -0.3140 N.pl3 1 <1>   0.3140 
 22 N        0.1910    -7.9450    -1.2140 N.2   1 <1>  -0.4180 
 23 C       -0.8710    -6.7900     0.2250 C.2   1 <1>   0.0060 
 24 N       -1.0470    -8.2870    -1.2040 N.2   1 <1>   0.0000 
 25 N       -1.7240    -7.5760    -0.3100 N.2   1 <1>  -0.3380 
 26 C       -1.2040    -5.7820     1.3110 C.3   1 <1>  -0.0600 
 27 H        3.1960    -0.3640     0.3570 H     1 <1>   0.3700 
 28 H        0.5810    -2.3990    -2.2460 H     1 <1>   0.1500 
 29 H        2.2470    -2.0640     1.6560 H     1 <1>   0.1500 
 30 H        0.5580     2.3910    -0.3960 H     1 <1>   0.1500 
 31 H        0.7070    -4.8320    -2.1000 H     1 <1>   0.1500 
 32 H        2.3870    -4.4870     1.8160 H     1 <1>   0.1500 
 33 H        5.5960     2.5620     1.1260 H     1 <1>   0.0800 
 34 H        5.5810     1.6620    -1.1650 H     1 <1>   0.0800 
 35 H        5.0660     0.1110    -0.5720 H     1 <1>   0.0800 
 36 H        4.4080    -0.1020     1.9470 H     1 <1>   0.0800 
 37 H        4.3780     1.3520     2.9250 H     1 <1>   0.0800 
 38 H        5.8940     0.6120     2.5100 H     1 <1>   0.0800 
 39 H        0.5350     4.9970    -0.2770 H     1 <1>   0.0800 
 40 H        2.0960     5.6840    -0.6770 H     1 <1>   0.0800 
 41 H        1.5820     5.5980     0.9920 H     1 <1>   0.0800 
 42 H        1.9330    -6.6610     0.9570 H     1 <1>   0.0800 
 43 H        2.3470    -6.7330    -0.7330 H     1 <1>   0.0800 
 44 H        7.6700     1.4710     0.1850 H     1 <1>   0.0800 
 45 H        7.5060     0.1990    -0.9970 H     1 <1>   0.0800 
 46 H        7.1820    -0.1360     0.6820 H     1 <1>   0.0800 
 47 H       -0.5400    -5.8970     2.1480 H     1 <1>   0.0800 
 48 H       -2.2130    -5.9330     1.6510 H     1 <1>   0.0800 
 49 H       -1.1220    -4.7820     0.9250 H     1 <1>   0.0800 
@<TRIPOS>BOND
  1   1   2  2   
  2   2   3  am  
  3   2   4  1   
  4   3   5  1   
  5   3  27  1   
  6   4   6  ar  
  7   4   7  ar  
  8   5   8  1   
  9   5   9  2   
 10   6  10  ar  
 11   6  28  1   
 12   7  11  ar  
 13   7  29  1   
 14   8  12  1   
 15   8  13  1   
 16   9  14  1   
 17   9  30  1   
 18  10  15  ar  
 19  10  31  1   
 20  11  15  ar  
 21  11  32  1   
 22  12  14  2   
 23  13  16  1   
 24  13  17  1   
 25  13  33  1   
 26  14  18  1   
 27  15  19  1   
 28  16  20  1   
 29  16  34  1   
 30  16  35  1   
 31  17  36  1   
 32  17  37  1   
 33  17  38  1   
 34  18  39  1   
 35  18  40  1   
 36  18  41  1   
 37  19  21  1   
 38  19  42  1   
 39  19  43  1   
 40  20  44  1   
 41  20  45  1   
 42  20  46  1   
 43  21  22  1   
 44  21  23  1   
 45  22  24  2   
 46  23  25  2   
 47  23  26  1   
 48  24  25  1   
 49  26  47  1   
 50  26  48  1   
 51  26  49  1   
@<TRIPOS>SUBSTRUCTURE
  1 ****   4 GROUP 4 **** **** 0

# MOE 2024.06 (io_trps.svl 2023.06)
