@<TRIPOS>MOLECULE
NONAME
53 55 1 0 0 
SMALL
USER_CHARGES


@<TRIPOS>ATOM
  1 O       -0.8540    -0.8800     0.9780 O.3   1 <1>  -0.5600 
  2 C        0.3020    -1.2520     0.2920 C.3   1 <1>   0.1200 
  3 C       -1.9090    -1.7900     0.8530 C.3   1 <1>   0.1200 
  4 C        0.8370    -2.5950     0.8260 C.3   1 <1>   0.2090 
  5 C       -1.5060    -3.1650     1.4110 C.3   1 <1>   0.2090 
  6 N       -0.2260    -3.6610     0.7780 N.pl3 1 <1>  -0.8380 
  7 C       -0.1310    -4.9070     0.2370 C.ar  1 <1>   0.7710 
  8 N       -1.2180    -5.6600     0.1380 N.ar  1 <1>  -0.6200 
  9 N        1.0690    -5.3510    -0.1820 N.ar  1 <1>  -0.1790 
 10 C       -1.1000    -6.8560    -0.3870 C.ar  1 <1>   0.4100 
 11 C        1.2350    -6.5770    -0.7340 C.ar  1 <1>   0.2180 
 12 N       -2.2400    -7.5580    -0.4550 N.pl3 1 <1>  -0.8690 
 13 C        0.1320    -7.3550    -0.8460 C.ar  1 <1>  -0.1500 
 14 C        2.6240    -7.0070    -1.1880 C.3   1 <1>  -0.0170 
 15 C       -2.4790    -8.9420    -0.9100 C.3   1 <1>   0.2090 
 16 C        3.6110    -7.1050    -0.0170 C.3   1 <1>  -0.2400 
 17 C       -3.7500    -9.4610    -0.2410 C.3   1 <1>  -0.1600 
 18 C       -4.0540   -10.9050    -0.6570 C.3   1 <1>   0.0210 
 19 C       -5.3250   -11.3940     0.0150 C.2   1 <1>  -0.1810 
 20 C       -5.4770   -12.1080     1.1430 C.2   1 <1>  -0.0400 
 21 C       -6.6390   -11.1970    -0.4150 C.2   1 <1>   0.1080 
 22 O       -6.7560   -12.2960     1.3310 O.3   1 <1>  -0.0190 
 23 C       -4.4940   -12.6750     2.1460 C.3   1 <1>  -0.0600 
 24 N       -7.4710   -11.7480     0.3930 N.2   1 <1>  -0.4100 
 25 C       -7.0650   -10.4470    -1.6580 C.3   1 <1>  -0.0590 
 26 H        1.0310    -0.4750     0.4400 H     1 <1>   0.0800 
 27 H        0.0740    -1.3170    -0.7580 H     1 <1>   0.0800 
 28 H       -2.1840    -1.8650    -0.1850 H     1 <1>   0.0800 
 29 H       -2.7470    -1.3980     1.4030 H     1 <1>   0.0800 
 30 H        1.1520    -2.4540     1.8470 H     1 <1>   0.0800 
 31 H        1.6990    -2.8670     0.2460 H     1 <1>   0.0800 
 32 H       -2.3250    -3.8450     1.2570 H     1 <1>   0.0800 
 33 H       -1.3630    -3.0760     2.4740 H     1 <1>   0.0800 
 34 H        1.8500    -4.7270    -0.0320 H     1 <1>   0.4570 
 35 H       -3.0800    -7.0730    -0.1210 H     1 <1>   0.4000 
 36 H        0.1700    -8.3380    -1.2740 H     1 <1>   0.1500 
 37 H        2.9980    -6.3130    -1.9210 H     1 <1>   0.0800 
 38 H        2.5610    -7.9710    -1.6650 H     1 <1>   0.0800 
 39 H       -1.6450    -9.5680    -0.6420 H     1 <1>   0.0800 
 40 H       -2.5960    -8.9500    -1.9810 H     1 <1>   0.0800 
 41 H        3.7710    -6.1490     0.4490 H     1 <1>   0.0800 
 42 H        4.5620    -7.4650    -0.3720 H     1 <1>   0.0800 
 43 H        3.2490    -7.7980     0.7240 H     1 <1>   0.0800 
 44 H       -4.5800    -8.8340    -0.5140 H     1 <1>   0.0800 
 45 H       -3.6310    -9.4260     0.8280 H     1 <1>   0.0800 
 46 H       -3.2360   -11.5440    -0.3730 H     1 <1>   0.0800 
 47 H       -4.1670   -10.9720    -1.7250 H     1 <1>   0.0800 
 48 H       -3.4860   -12.4260     1.8730 H     1 <1>   0.0800 
 49 H       -4.5930   -13.7440     2.1840 H     1 <1>   0.0800 
 50 H       -4.7010   -12.2720     3.1210 H     1 <1>   0.0800 
 51 H       -6.7710    -9.4170    -1.5850 H     1 <1>   0.0800 
 52 H       -8.1340   -10.4940    -1.7640 H     1 <1>   0.0800 
 53 H       -6.6130   -10.8890    -2.5260 H     1 <1>   0.0800 
@<TRIPOS>BOND
  1   1   2  1   
  2   1   3  1   
  3   2   4  1   
  4   2  26  1   
  5   2  27  1   
  6   3   5  1   
  7   3  28  1   
  8   3  29  1   
  9   4   6  1   
 10   4  30  1   
 11   4  31  1   
 12   5   6  1   
 13   5  32  1   
 14   5  33  1   
 15   6   7  1   
 16   7   8  ar  
 17   7   9  ar  
 18   8  10  ar  
 19   9  11  ar  
 20   9  34  1   
 21  10  12  1   
 22  10  13  ar  
 23  11  13  ar  
 24  11  14  1   
 25  12  15  1   
 26  12  35  1   
 27  13  36  1   
 28  14  16  1   
 29  14  37  1   
 30  14  38  1   
 31  15  17  1   
 32  15  39  1   
 33  15  40  1   
 34  16  41  1   
 35  16  42  1   
 36  16  43  1   
 37  17  18  1   
 38  17  44  1   
 39  17  45  1   
 40  18  19  1   
 41  18  46  1   
 42  18  47  1   
 43  19  20  2   
 44  19  21  1   
 45  20  22  1   
 46  20  23  1   
 47  21  24  2   
 48  21  25  1   
 49  22  24  1   
 50  23  48  1   
 51  23  49  1   
 52  23  50  1   
 53  25  51  1   
 54  25  52  1   
 55  25  53  1   
@<TRIPOS>SUBSTRUCTURE
  1 ****  12 GROUP 4 **** **** 0

# MOE 2024.06 (io_trps.svl 2023.06)
