@<TRIPOS>MOLECULE
NONAME
46 48 1 0 0 
SMALL
USER_CHARGES


@<TRIPOS>ATOM
  1 S       -0.7750    -0.1000     1.3680 S.3   1 <1>  -0.0800 
  2 C       -0.6730    -1.6650     0.6040 C.2   1 <1>  -0.1400 
  3 C       -0.2740    -0.8340     2.8730 C.2   1 <1>   0.2280 
  4 C       -0.2750    -2.5650     1.5180 C.2   1 <1>   0.0460 
  5 C       -1.0110    -1.7630    -0.8660 C.3   1 <1>   0.5230 
  6 N       -0.0620    -2.0860     2.7970 N.2   1 <1>  -0.5650 
  7 C       -0.0280    -4.0470     1.3190 C.3   1 <1>  -0.0590 
  8 N       -2.4280    -2.1830    -1.0090 N.4   1 <1>  -0.9590 
  9 C       -2.7450    -2.7270    -2.3640 C.3   1 <1>   0.3430 
 10 C       -3.4270    -1.1930    -0.5180 C.3   1 <1>   0.3430 
 11 C       -4.0640    -3.5330    -2.3650 C.3   1 <1>   0.1400 
 12 C       -4.4370    -1.8800     0.4070 C.3   1 <1>  -0.1600 
 13 N       -4.5180    -3.9290    -0.9890 N.am  1 <1>  -0.6600 
 14 C       -5.3410    -2.9190    -0.2740 C.3   1 <1>   0.1400 
 15 C       -3.8750    -4.9260    -0.2930 C.2   1 <1>   0.5440 
 16 O       -2.6660    -4.9840    -0.4230 O.2   1 <1>  -0.5700 
 17 C       -4.5730    -5.8130     0.6160 C.ar  1 <1>   0.0860 
 18 C       -3.9180    -6.3550     1.7190 C.ar  1 <1>   0.1600 
 19 C       -5.9070    -6.1640     0.4410 C.ar  1 <1>  -0.1500 
 20 N       -4.4580    -7.1530     2.6250 N.ar  1 <1>  -0.6200 
 21 C       -6.4940    -7.0000     1.3670 C.ar  1 <1>  -0.1430 
 22 C       -5.7300    -7.4570     2.4300 C.ar  1 <1>   0.1600 
 23 C       -7.9490    -7.4130     1.2250 C.3   1 <1>  -0.0970 
 24 H       -0.1840    -0.1930     3.7340 H     1 <1>   0.1500 
 25 H       -0.3720    -2.5060    -1.3140 H     1 <1>   0.0800 
 26 H       -0.8380    -0.8190    -1.3540 H     1 <1>   0.0800 
 27 H       -0.1680    -4.3350     0.2950 H     1 <1>   0.0800 
 28 H       -0.7030    -4.6120     1.9360 H     1 <1>   0.0800 
 29 H        0.9790    -4.2860     1.6110 H     1 <1>   0.0800 
 30 H       -2.5280    -3.0220    -0.4020 H     1 <1>   0.4500 
 31 H       -1.9560    -3.3980    -2.6630 H     1 <1>   0.0800 
 32 H       -2.7970    -1.9350    -3.0920 H     1 <1>   0.0800 
 33 H       -3.9380    -0.7340    -1.3490 H     1 <1>   0.0800 
 34 H       -2.9330    -0.4130     0.0350 H     1 <1>   0.0800 
 35 H       -3.9230    -4.4220    -2.9570 H     1 <1>   0.0800 
 36 H       -4.8350    -2.9560    -2.8460 H     1 <1>   0.0800 
 37 H       -5.0720    -1.1210     0.8280 H     1 <1>   0.0800 
 38 H       -3.9170    -2.3350     1.2320 H     1 <1>   0.0800 
 39 H       -6.0080    -2.4360    -0.9690 H     1 <1>   0.0800 
 40 H       -5.9490    -3.4040     0.4730 H     1 <1>   0.0800 
 41 H       -2.8800    -6.1090     1.8620 H     1 <1>   0.1500 
 42 H       -6.4650    -5.7920    -0.4010 H     1 <1>   0.1500 
 43 H       -6.1860    -8.1080     3.1580 H     1 <1>   0.1500 
 44 H       -8.2560    -7.3790     0.1950 H     1 <1>   0.0800 
 45 H       -8.5760    -6.7510     1.7950 H     1 <1>   0.0800 
 46 H       -8.0910    -8.4170     1.5840 H     1 <1>   0.0800 
@<TRIPOS>BOND
  1   1   2  1   
  2   1   3  1   
  3   2   4  2   
  4   2   5  1   
  5   3   6  2   
  6   3  24  1   
  7   4   6  1   
  8   4   7  1   
  9   5   8  1   
 10   5  25  1   
 11   5  26  1   
 12   7  27  1   
 13   7  28  1   
 14   7  29  1   
 15   8   9  1   
 16   8  10  1   
 17   8  30  1   
 18   9  11  1   
 19   9  31  1   
 20   9  32  1   
 21  10  12  1   
 22  10  33  1   
 23  10  34  1   
 24  11  13  1   
 25  11  35  1   
 26  11  36  1   
 27  12  14  1   
 28  12  37  1   
 29  12  38  1   
 30  13  14  1   
 31  13  15  am  
 32  14  39  1   
 33  14  40  1   
 34  15  16  2   
 35  15  17  1   
 36  17  18  ar  
 37  17  19  ar  
 38  18  20  ar  
 39  18  41  1   
 40  19  21  ar  
 41  19  42  1   
 42  20  22  ar  
 43  21  22  ar  
 44  21  23  1   
 45  22  43  1   
 46  23  44  1   
 47  23  45  1   
 48  23  46  1   
@<TRIPOS>SUBSTRUCTURE
  1 ****  15 GROUP 4 **** **** 0

# MOE 2024.06 (io_trps.svl 2023.06)
