@<TRIPOS>MOLECULE
NONAME
46 49 1 0 0 
SMALL
USER_CHARGES


@<TRIPOS>ATOM
  1 O       -0.6440     0.1040     1.0880 O.2   1 <1>  -0.5700 
  2 C       -1.6170     0.7740     0.7880 C.2   1 <1>   0.7150 
  3 N       -2.7780     0.1200     0.4450 N.am  1 <1>  -0.6600 
  4 C       -1.5350     2.2120     0.7710 C.2   1 <1>  -0.2370 
  5 C       -3.8400     0.7110    -0.4110 C.3   1 <1>   0.1400 
  6 C       -2.8920    -1.3620     0.4470 C.3   1 <1>   0.1400 
  7 N       -0.4410     2.9090     0.3150 N.pl3 1 <1>   0.0480 
  8 C       -2.4600     3.1360     1.1900 C.2   1 <1>  -0.1500 
  9 C       -4.8460    -0.4210    -0.6130 C.3   1 <1>   0.2000 
 10 C       -3.9810    -1.6860    -0.5840 C.3   1 <1>  -0.0800 
 11 C       -0.7020     4.2330     0.4360 C.2   1 <1>  -0.3020 
 12 C        0.8170     2.3430    -0.2070 C.3   1 <1>   0.0160 
 13 C       -1.9380     4.4070     0.9720 C.2   1 <1>  -0.1500 
 14 O       -5.7130    -0.4210     0.4700 O.3   1 <1>  -0.6800 
 15 C       -4.7580    -2.9880    -0.2930 C.3   1 <1>  -0.0170 
 16 C       -3.9670    -4.3000    -0.3890 C.ar  1 <1>  -0.1440 
 17 C       -4.5570    -5.5070     0.0650 C.ar  1 <1>   0.0000 
 18 C       -2.7040    -4.3860    -0.9050 C.ar  1 <1>  -0.1500 
 19 C       -3.7910    -6.6960    -0.0230 C.ar  1 <1>   0.3100 
 20 C       -5.8650    -5.6070     0.5950 C.ar  1 <1>  -0.1500 
 21 C       -2.0370    -5.6160    -0.9510 C.ar  1 <1>   0.1600 
 22 N       -2.5350    -6.7330    -0.5310 N.ar  1 <1>  -0.6200 
 23 C       -4.3490    -7.9030     0.4300 C.ar  1 <1>  -0.1500 
 24 C       -6.3810    -6.7990     1.0260 C.ar  1 <1>  -0.1500 
 25 C       -5.6150    -7.9640     0.9450 C.ar  1 <1>  -0.1500 
 26 H       -4.3050     1.5660     0.0460 H     1 <1>   0.0800 
 27 H       -3.4100     0.9980    -1.3550 H     1 <1>   0.0800 
 28 H       -1.9530    -1.8230     0.1920 H     1 <1>   0.0800 
 29 H       -3.1850    -1.6870     1.4310 H     1 <1>   0.0800 
 30 H       -3.4240     2.9400     1.6250 H     1 <1>   0.1500 
 31 H       -5.4250    -0.3170    -1.5150 H     1 <1>   0.0800 
 32 H       -3.5160    -1.7660    -1.5500 H     1 <1>   0.0800 
 33 H        0.0020     4.9910     0.1420 H     1 <1>   0.1500 
 34 H        1.4270     3.1280    -0.6160 H     1 <1>   0.0800 
 35 H        0.5940     1.6240    -0.9730 H     1 <1>   0.0800 
 36 H        1.3440     1.8590     0.5950 H     1 <1>   0.0800 
 37 H       -2.4330     5.3360     1.1980 H     1 <1>   0.1500 
 38 H       -5.1870    -0.3370     1.2920 H     1 <1>   0.4000 
 39 H       -5.5870    -3.0490    -0.9760 H     1 <1>   0.0800 
 40 H       -5.1640    -2.9170     0.7000 H     1 <1>   0.0800 
 41 H       -2.1730    -3.5400    -1.2940 H     1 <1>   0.1500 
 42 H       -6.4800    -4.7290     0.6630 H     1 <1>   0.1500 
 43 H       -1.0410    -5.6320    -1.3620 H     1 <1>   0.1500 
 44 H       -3.7410    -8.7860     0.3550 H     1 <1>   0.1500 
 45 H       -7.3780    -6.8570     1.4290 H     1 <1>   0.1500 
 46 H       -6.0300    -8.8960     1.2880 H     1 <1>   0.1500 
@<TRIPOS>BOND
  1   1   2  2   
  2   2   3  am  
  3   2   4  1   
  4   3   5  1   
  5   3   6  1   
  6   4   7  1   
  7   4   8  2   
  8   5   9  1   
  9   5  26  1   
 10   5  27  1   
 11   6  10  1   
 12   6  28  1   
 13   6  29  1   
 14   7  11  1   
 15   7  12  1   
 16   8  13  1   
 17   8  30  1   
 18   9  10  1   
 19   9  14  1   
 20   9  31  1   
 21  10  15  1   
 22  10  32  1   
 23  11  13  2   
 24  11  33  1   
 25  12  34  1   
 26  12  35  1   
 27  12  36  1   
 28  13  37  1   
 29  14  38  1   
 30  15  16  1   
 31  15  39  1   
 32  15  40  1   
 33  16  17  ar  
 34  16  18  ar  
 35  17  19  ar  
 36  17  20  ar  
 37  18  21  ar  
 38  18  41  1   
 39  19  22  ar  
 40  19  23  ar  
 41  20  24  ar  
 42  20  42  1   
 43  21  22  ar  
 44  21  43  1   
 45  23  25  ar  
 46  23  44  1   
 47  24  25  ar  
 48  24  45  1   
 49  25  46  1   
@<TRIPOS>SUBSTRUCTURE
  1 ****   6 GROUP 4 **** **** 0

# MOE 2024.06 (io_trps.svl 2023.06)
