@<TRIPOS>MOLECULE
NONAME
50 52 1 0 0 
SMALL
USER_CHARGES


@<TRIPOS>ATOM
  1 F       -0.3070    -1.0270    -0.2200 F     1 <1>  -0.1900 
  2 C       -0.6770    -2.2790    -0.2030 C.ar  1 <1>   0.1900 
  3 C        0.2930    -3.2610    -0.1520 C.ar  1 <1>  -0.1500 
  4 C       -2.0260    -2.5760    -0.2360 C.ar  1 <1>  -0.1500 
  5 C       -0.1060    -4.5870    -0.1340 C.ar  1 <1>  -0.1500 
  6 C       -2.4130    -3.9050    -0.2170 C.ar  1 <1>  -0.1500 
  7 C       -1.4570    -4.9130    -0.1670 C.ar  1 <1>  -0.1440 
  8 C       -1.8800    -6.3730    -0.1420 C.3   1 <1>  -0.0160 
  9 C       -1.8870    -6.9000     1.2930 C.3   1 <1>   0.1400 
 10 N       -2.2970    -8.3210     1.3040 N.am  1 <1>  -0.7300 
 11 C       -1.4610    -9.3900     1.3450 C.2   1 <1>   0.5690 
 12 O       -0.2590    -9.2660     1.3740 O.2   1 <1>  -0.5700 
 13 C       -2.0770   -10.7930     1.3450 C.3   1 <1>   0.1710 
 14 N       -3.4040   -10.8840     0.6660 N.3   1 <1>  -0.8100 
 15 C       -3.3010   -10.6940    -0.7870 C.3   1 <1>   0.1100 
 16 C       -4.0130   -12.2130     0.8340 C.3   1 <1>   0.1100 
 17 C       -4.6060   -11.2660    -1.3240 C.3   1 <1>   0.2000 
 18 C       -4.8450   -12.4870    -0.4350 C.3   1 <1>  -0.0800 
 19 O       -5.6040   -10.3490    -1.0550 O.3   1 <1>  -0.6800 
 20 C       -4.4170   -13.7850    -1.1460 C.3   1 <1>  -0.0170 
 21 C       -4.6550   -15.0110    -0.2780 C.ar  1 <1>   0.1670 
 22 N       -3.6160   -15.4600     0.4100 N.ar  1 <1>  -0.6200 
 23 C       -5.9160   -15.5870    -0.2440 C.ar  1 <1>  -0.1500 
 24 C       -3.8430   -16.5250     1.1610 C.ar  1 <1>   0.1600 
 25 C       -6.1380   -16.6960     0.5440 C.ar  1 <1>  -0.1500 
 26 C       -5.0640   -17.1710     1.2640 C.ar  1 <1>  -0.1500 
 27 H        1.3340    -2.9910    -0.1280 H     1 <1>   0.1500 
 28 H       -2.7510    -1.7830    -0.2760 H     1 <1>   0.1500 
 29 H        0.6370    -5.3650    -0.0940 H     1 <1>   0.1500 
 30 H       -3.4610    -4.1510    -0.2430 H     1 <1>   0.1500 
 31 H       -1.1900    -6.9540    -0.7290 H     1 <1>   0.0800 
 32 H       -2.8600    -6.4770    -0.5710 H     1 <1>   0.0800 
 33 H       -2.5690    -6.3250     1.8960 H     1 <1>   0.0800 
 34 H       -0.9010    -6.8070     1.7160 H     1 <1>   0.0800 
 35 H       -3.2940    -8.5350     1.2060 H     1 <1>   0.3700 
 36 H       -2.1910   -11.0900     2.3720 H     1 <1>   0.0800 
 37 H       -1.3810   -11.4710     0.8830 H     1 <1>   0.0800 
 38 H       -3.1790    -9.6570    -1.0520 H     1 <1>   0.0800 
 39 H       -2.4730   -11.2620    -1.1780 H     1 <1>   0.0800 
 40 H       -3.2430   -12.9590     0.9470 H     1 <1>   0.0800 
 41 H       -4.6350   -12.2260     1.7130 H     1 <1>   0.0800 
 42 H       -4.5950   -11.4700    -2.3810 H     1 <1>   0.0800 
 43 H       -5.8880   -12.5720    -0.1810 H     1 <1>   0.0800 
 44 H       -5.4960   -10.0940    -0.1140 H     1 <1>   0.4000 
 45 H       -3.3750   -13.7370    -1.4110 H     1 <1>   0.0800 
 46 H       -4.9780   -13.8930    -2.0570 H     1 <1>   0.0800 
 47 H       -6.7180   -15.1730    -0.8270 H     1 <1>   0.1500 
 48 H       -3.0100   -16.9060     1.7270 H     1 <1>   0.1500 
 49 H       -7.1040   -17.1680     0.5940 H     1 <1>   0.1500 
 50 H       -5.1670   -18.0320     1.8980 H     1 <1>   0.1500 
@<TRIPOS>BOND
  1   1   2  1   
  2   2   3  ar  
  3   2   4  ar  
  4   3   5  ar  
  5   3  27  1   
  6   4   6  ar  
  7   4  28  1   
  8   5   7  ar  
  9   5  29  1   
 10   6   7  ar  
 11   6  30  1   
 12   7   8  1   
 13   8   9  1   
 14   8  31  1   
 15   8  32  1   
 16   9  10  1   
 17   9  33  1   
 18   9  34  1   
 19  10  11  am  
 20  10  35  1   
 21  11  12  2   
 22  11  13  1   
 23  13  14  1   
 24  13  36  1   
 25  13  37  1   
 26  14  15  1   
 27  14  16  1   
 28  15  17  1   
 29  15  38  1   
 30  15  39  1   
 31  16  18  1   
 32  16  40  1   
 33  16  41  1   
 34  17  18  1   
 35  17  19  1   
 36  17  42  1   
 37  18  20  1   
 38  18  43  1   
 39  19  44  1   
 40  20  21  1   
 41  20  45  1   
 42  20  46  1   
 43  21  22  ar  
 44  21  23  ar  
 45  22  24  ar  
 46  23  25  ar  
 47  23  47  1   
 48  24  26  ar  
 49  24  48  1   
 50  25  26  ar  
 51  25  49  1   
 52  26  50  1   
@<TRIPOS>SUBSTRUCTURE
  1 ****  14 GROUP 4 **** **** 0

# MOE 2024.06 (io_trps.svl 2023.06)
