@<TRIPOS>MOLECULE
NONAME
50 53 1 0 0 
SMALL
USER_CHARGES


@<TRIPOS>ATOM
  1 O       -1.4830     1.7150    -2.2600 O.2   1 <1>  -0.5700 
  2 C       -2.1730     1.7640    -1.2600 C.2   1 <1>   0.5440 
  3 N       -3.3440     1.0370    -1.2030 N.am  1 <1>  -0.6600 
  4 C       -1.7430     2.5820    -0.1490 C.ar  1 <1>   0.0860 
  5 C       -3.7080     0.0340    -2.2400 C.3   1 <1>   0.1400 
  6 C       -4.3240     1.1170    -0.0850 C.3   1 <1>   0.1400 
  7 C       -1.0790     2.0560     0.9660 C.ar  1 <1>   0.1660 
  8 C       -1.9980     3.9470    -0.1600 C.ar  1 <1>  -0.1500 
  9 C       -3.7850    -1.3490    -1.5900 C.3   1 <1>  -0.1600 
 10 C       -4.4160    -0.2460     0.6040 C.3   1 <1>  -0.1600 
 11 N       -0.7020     2.7650     2.0200 N.ar  1 <1>  -0.6200 
 12 C       -0.7220     0.5800     1.0620 C.3   1 <1>  -0.0970 
 13 C       -1.6010     4.6920     0.9260 C.ar  1 <1>  -0.1500 
 14 C       -4.7510    -1.3770    -0.3900 C.3   1 <1>   0.4240 
 15 C       -0.9670     4.0600     1.9790 C.ar  1 <1>   0.1600 
 16 O       -6.0010    -1.0520    -0.9610 O.3   1 <1>  -0.5600 
 17 C       -4.7730    -2.7760     0.2900 C.ar  1 <1>  -0.1430 
 18 C       -7.1490    -1.4230    -0.2720 C.3   1 <1>   0.1200 
 19 C       -3.6310    -3.3390     0.8800 C.ar  1 <1>   0.0830 
 20 C       -5.9580    -3.5100     0.3270 C.ar  1 <1>  -0.1430 
 21 C       -7.2290    -2.9420    -0.2710 C.3   1 <1>  -0.0170 
 22 O       -2.4670    -2.6360     0.8730 O.3   1 <1>  -0.3630 
 23 C       -3.6960    -4.6010     1.4680 C.ar  1 <1>  -0.1500 
 24 C       -6.0090    -4.7650     0.9100 C.ar  1 <1>  -0.1500 
 25 C       -1.2380    -3.1960     1.2820 C.3   1 <1>   0.0400 
 26 C       -4.8780    -5.3120     1.4800 C.ar  1 <1>  -0.1500 
 27 H       -2.9800     0.0200    -3.0330 H     1 <1>   0.0800 
 28 H       -4.6600     0.2980    -2.6680 H     1 <1>   0.0800 
 29 H       -5.2870     1.3890    -0.4850 H     1 <1>   0.0800 
 30 H       -4.0400     1.8670     0.6310 H     1 <1>   0.0800 
 31 H       -2.4930     4.3980    -1.0030 H     1 <1>   0.1500 
 32 H       -2.7930    -1.6200    -1.2910 H     1 <1>   0.0800 
 33 H       -4.1070    -2.0740    -2.3140 H     1 <1>   0.0800 
 34 H       -5.1490    -0.2150     1.3860 H     1 <1>   0.0800 
 35 H       -3.4750    -0.4350     1.0770 H     1 <1>   0.0800 
 36 H       -1.0130     0.0210     0.1940 H     1 <1>   0.0800 
 37 H       -1.2030     0.1520     1.9220 H     1 <1>   0.0800 
 38 H        0.3410     0.4830     1.1840 H     1 <1>   0.0800 
 39 H       -1.7790     5.7520     0.9600 H     1 <1>   0.1500 
 40 H       -0.6600     4.6460     2.8290 H     1 <1>   0.1500 
 41 H       -7.9940    -1.0000    -0.7850 H     1 <1>   0.0800 
 42 H       -7.1090    -1.0340     0.7300 H     1 <1>   0.0800 
 43 H       -7.3490    -3.2970    -1.2790 H     1 <1>   0.0800 
 44 H       -8.0840    -3.2500     0.3030 H     1 <1>   0.0800 
 45 H       -2.8380    -5.0520     1.9260 H     1 <1>   0.1500 
 46 H       -6.9290    -5.3220     0.9240 H     1 <1>   0.1500 
 47 H       -0.4630    -2.4740     1.0970 H     1 <1>   0.0800 
 48 H       -1.0510    -4.0860     0.7080 H     1 <1>   0.0800 
 49 H       -1.2870    -3.4160     2.3340 H     1 <1>   0.0800 
 50 H       -4.9210    -6.2870     1.9330 H     1 <1>   0.1500 
@<TRIPOS>BOND
  1   1   2  2   
  2   2   3  am  
  3   2   4  1   
  4   3   5  1   
  5   3   6  1   
  6   4   7  ar  
  7   4   8  ar  
  8   5   9  1   
  9   5  27  1   
 10   5  28  1   
 11   6  10  1   
 12   6  29  1   
 13   6  30  1   
 14   7  11  ar  
 15   7  12  1   
 16   8  13  ar  
 17   8  31  1   
 18   9  14  1   
 19   9  32  1   
 20   9  33  1   
 21  10  14  1   
 22  10  34  1   
 23  10  35  1   
 24  11  15  ar  
 25  12  36  1   
 26  12  37  1   
 27  12  38  1   
 28  13  15  ar  
 29  13  39  1   
 30  14  16  1   
 31  14  17  1   
 32  15  40  1   
 33  16  18  1   
 34  17  19  ar  
 35  17  20  ar  
 36  18  21  1   
 37  18  41  1   
 38  18  42  1   
 39  19  22  1   
 40  19  23  ar  
 41  20  21  1   
 42  20  24  ar  
 43  21  43  1   
 44  21  44  1   
 45  22  25  1   
 46  23  26  ar  
 47  23  45  1   
 48  24  26  ar  
 49  24  46  1   
 50  25  47  1   
 51  25  48  1   
 52  25  49  1   
 53  26  50  1   
@<TRIPOS>SUBSTRUCTURE
  1 ****  10 GROUP 4 **** **** 0

# MOE 2024.06 (io_trps.svl 2023.06)
