@<TRIPOS>MOLECULE
NONAME
57 60 1 0 0 
SMALL
USER_CHARGES


@<TRIPOS>ATOM
  1 O       -1.1730    -1.5800     1.5250 O.2   1 <1>  -0.5700 
  2 C       -1.7280    -0.7700     0.8430 C.2   1 <1>   0.4480 
  3 C       -2.3630    -1.1100    -0.5220 C.3   1 <1>   0.0610 
  4 C       -1.8280     0.6680     1.3200 C.3   1 <1>  -0.0990 
  5 C       -3.8040    -0.4600    -0.5960 C.3   1 <1>  -0.0800 
  6 C       -1.4300    -0.6460    -1.6710 C.3   1 <1>  -0.2400 
  7 C       -2.4250    -2.6540    -0.7010 C.3   1 <1>  -0.2400 
  8 C       -3.2420     1.2620     1.1750 C.3   1 <1>  -0.1600 
  9 C       -3.8900     1.0650    -0.2270 C.3   1 <1>   0.0000 
 10 C       -4.7830    -1.2610     0.3030 C.3   1 <1>  -0.1600 
 11 C       -5.3650     1.6230    -0.1690 C.3   1 <1>  -0.0800 
 12 C       -3.1170     1.9740    -1.2180 C.3   1 <1>  -0.2400 
 13 C       -6.2160    -0.7750     0.2030 C.3   1 <1>   0.2000 
 14 C       -6.4480     0.7070     0.7440 C.3   1 <1>   0.0610 
 15 C       -5.9740     2.2700    -1.6100 C.3   1 <1>  -0.1600 
 16 O       -6.9890    -1.7500     0.8190 O.3   1 <1>  -0.6800 
 17 C       -7.7920     0.5680     1.5530 C.2   1 <1>   0.4950 
 18 C       -7.4410     1.5580     0.1580 C.3   1 <1>   0.2000 
 19 C       -7.6370     2.5390    -1.6480 C.3   1 <1>  -0.1600 
 20 O       -7.7860     0.1430     2.6830 O.2   1 <1>  -0.5700 
 21 C       -9.0110     0.9990     0.7750 C.2   1 <1>  -0.1240 
 22 O       -7.2580     2.9100     0.8230 O.3   1 <1>  -0.4300 
 23 C       -8.6120     1.6610    -0.5990 C.3   1 <1>   0.0580 
 24 C      -10.2950     0.8840     1.1580 C.2   1 <1>  -0.3000 
 25 C       -8.0730     3.9010     1.1870 C.2   1 <1>   0.6590 
 26 O       -9.2450     3.9460     0.9320 O.2   1 <1>  -0.5700 
 27 C       -7.4090     5.0080     1.9620 C.3   1 <1>  -0.1790 
 28 H       -1.1100     1.2560     0.7820 H     1 <1>   0.0800 
 29 H       -1.5420     0.7020     2.3570 H     1 <1>   0.0800 
 30 H       -4.1530    -0.5690    -1.6090 H     1 <1>   0.0800 
 31 H       -0.9590     0.2910    -1.4690 H     1 <1>   0.0800 
 32 H       -1.9670    -0.5840    -2.6000 H     1 <1>   0.0800 
 33 H       -0.6160    -1.3360    -1.8080 H     1 <1>   0.0800 
 34 H       -2.8700    -3.1340     0.1520 H     1 <1>   0.0800 
 35 H       -1.4380    -3.0730    -0.7810 H     1 <1>   0.0800 
 36 H       -2.9780    -2.9170    -1.5850 H     1 <1>   0.0800 
 37 H       -3.1820     2.3110     1.4100 H     1 <1>   0.0800 
 38 H       -3.8660     0.8190     1.9310 H     1 <1>   0.0800 
 39 H       -4.4670    -1.2570     1.3310 H     1 <1>   0.0800 
 40 H       -4.8190    -2.2820    -0.0260 H     1 <1>   0.0800 
 41 H       -5.1520     2.5110     0.4020 H     1 <1>   0.0800 
 42 H       -2.0610     1.9580    -1.0750 H     1 <1>   0.0800 
 43 H       -3.3880     3.0050    -1.0770 H     1 <1>   0.0800 
 44 H       -3.3260     1.7010    -2.2370 H     1 <1>   0.0800 
 45 H       -6.4640    -0.8550    -0.8430 H     1 <1>   0.0800 
 46 H       -5.7510     1.5700    -2.3970 H     1 <1>   0.0800 
 47 H       -5.4800     3.1930    -1.8560 H     1 <1>   0.0800 
 48 H       -7.0730    -1.5620     1.7840 H     1 <1>   0.4000 
 49 H       -7.2450     0.8520    -0.6500 H     1 <1>   0.0800 
 50 H       -7.9820     2.3630    -2.6530 H     1 <1>   0.0800 
 51 H       -7.8110     3.5900    -1.4850 H     1 <1>   0.0800 
 52 H       -8.9390     0.8590    -1.2530 H     1 <1>   0.0800 
 53 H      -11.1320     1.2250     0.5750 H     1 <1>   0.1500 
 54 H      -10.5960     0.4460     2.0940 H     1 <1>   0.1500 
 55 H       -6.9910     4.6090     2.8660 H     1 <1>   0.0800 
 56 H       -8.1320     5.7630     2.2100 H     1 <1>   0.0800 
 57 H       -6.6300     5.4460     1.3680 H     1 <1>   0.0800 
@<TRIPOS>BOND
  1   1   2  2   
  2   2   3  1   
  3   2   4  1   
  4   3   5  1   
  5   3   6  1   
  6   3   7  1   
  7   4   8  1   
  8   4  28  1   
  9   4  29  1   
 10   5   9  1   
 11   5  10  1   
 12   5  30  1   
 13   6  31  1   
 14   6  32  1   
 15   6  33  1   
 16   7  34  1   
 17   7  35  1   
 18   7  36  1   
 19   8   9  1   
 20   8  37  1   
 21   8  38  1   
 22   9  11  1   
 23   9  12  1   
 24  10  13  1   
 25  10  39  1   
 26  10  40  1   
 27  11  14  1   
 28  11  15  1   
 29  11  41  1   
 30  12  42  1   
 31  12  43  1   
 32  12  44  1   
 33  13  14  1   
 34  13  16  1   
 35  13  45  1   
 36  14  17  1   
 37  14  18  1   
 38  15  19  1   
 39  15  46  1   
 40  15  47  1   
 41  16  48  1   
 42  17  20  2   
 43  17  21  1   
 44  18  22  1   
 45  18  23  1   
 46  18  49  1   
 47  19  23  1   
 48  19  50  1   
 49  19  51  1   
 50  21  23  1   
 51  21  24  2   
 52  22  25  1   
 53  23  52  1   
 54  24  53  1   
 55  24  54  1   
 56  25  26  2   
 57  25  27  1   
 58  27  55  1   
 59  27  56  1   
 60  27  57  1   
@<TRIPOS>SUBSTRUCTURE
  1 ****  14 GROUP 4 **** **** 0

# MOE 2024.06 (io_trps.svl 2023.06)
