@<TRIPOS>MOLECULE
NONAME
54 57 1 0 0 
SMALL
USER_CHARGES


@<TRIPOS>ATOM
  1 O        0.2990    -1.3360    -1.9370 O.2   1 <1>  -0.5700 
  2 C        0.9840    -2.0420    -1.2390 C.2   1 <1>   0.5690 
  3 N        0.4740    -2.9240    -0.3250 N.am  1 <1>  -0.6600 
  4 C        2.4910    -1.9580    -1.3650 C.3   1 <1>  -0.0990 
  5 C        1.3720    -3.7320     0.5330 C.3   1 <1>   0.1400 
  6 C       -0.9890    -3.0710    -0.0910 C.3   1 <1>   0.0600 
  7 C        3.1050    -3.3700    -1.3870 C.3   1 <1>  -0.0800 
  8 C        2.5340    -4.3120    -0.3000 C.3   1 <1>  -0.0800 
  9 C        4.6300    -3.3610    -1.2140 C.3   1 <1>  -0.1600 
 10 C        3.7330    -4.7430     0.5570 C.3   1 <1>  -0.1600 
 11 C        4.9280    -4.6010    -0.3810 C.3   1 <1>   0.4230 
 12 N        6.2710    -4.5930     0.2780 N.4   1 <1>  -0.9590 
 13 C        6.4690    -3.7490     1.5050 C.3   1 <1>   0.4860 
 14 C        6.7130    -5.9950     0.5420 C.3   1 <1>   0.2630 
 15 C        6.6860    -2.2970     1.1130 C.ar  1 <1>  -0.1440 
 16 C        7.8050    -1.9820     0.2930 C.ar  1 <1>   0.0000 
 17 C        5.8020    -1.3160     1.5100 C.ar  1 <1>  -0.1440 
 18 C        7.9110    -0.6730    -0.2270 C.ar  1 <1>   0.0000 
 19 C        8.8410    -2.8930    -0.0380 C.ar  1 <1>  -0.1500 
 20 C        5.9580    -0.0120     1.0240 C.ar  1 <1>  -0.1500 
 21 C        4.6200    -1.5300     2.4500 C.3   1 <1>  -0.0970 
 22 C        6.9730     0.2950     0.1680 C.ar  1 <1>  -0.1500 
 23 C        8.9560    -0.3590    -1.1180 C.ar  1 <1>  -0.1500 
 24 C        9.8530    -2.5600    -0.8940 C.ar  1 <1>  -0.1500 
 25 C        9.9050    -1.2810    -1.4530 C.ar  1 <1>  -0.1500 
 26 H        2.7430    -1.4300    -2.2670 H     1 <1>   0.0800 
 27 H        2.8570    -1.3900    -0.5300 H     1 <1>   0.0800 
 28 H        1.7470    -3.0910     1.3130 H     1 <1>   0.0800 
 29 H        0.8200    -4.5340     0.9940 H     1 <1>   0.0800 
 30 H       -1.2880    -4.0870    -0.2810 H     1 <1>   0.0800 
 31 H       -1.5440    -2.4220    -0.7470 H     1 <1>   0.0800 
 32 H       -1.2240    -2.8130     0.9260 H     1 <1>   0.0800 
 33 H        2.8690    -3.8060    -2.3450 H     1 <1>   0.0800 
 34 H        2.1540    -5.1860    -0.8040 H     1 <1>   0.0800 
 35 H        4.9190    -2.4640    -0.7080 H     1 <1>   0.0800 
 36 H        5.1240    -3.3990    -2.1680 H     1 <1>   0.0800 
 37 H        3.6140    -5.7540     0.9050 H     1 <1>   0.0800 
 38 H        3.8160    -4.0770     1.3920 H     1 <1>   0.0800 
 39 H        4.8920    -5.4350    -1.0650 H     1 <1>   0.0800 
 40 H        6.9070    -4.1700    -0.4170 H     1 <1>   0.4500 
 41 H        5.6340    -3.8550     2.1720 H     1 <1>   0.0800 
 42 H        7.3480    -4.0790     2.0350 H     1 <1>   0.0800 
 43 H        6.0670    -6.4610     1.2680 H     1 <1>   0.0800 
 44 H        7.7230    -6.0070     0.9210 H     1 <1>   0.0800 
 45 H        6.6830    -6.5740    -0.3670 H     1 <1>   0.0800 
 46 H        8.8640    -3.8710     0.4000 H     1 <1>   0.1500 
 47 H        5.2630     0.7550     1.3230 H     1 <1>   0.1500 
 48 H        4.4720    -0.6520     3.0560 H     1 <1>   0.0800 
 49 H        4.7750    -2.3500     3.1250 H     1 <1>   0.0800 
 50 H        3.7230    -1.6940     1.8820 H     1 <1>   0.0800 
 51 H        7.0760     1.2960    -0.2130 H     1 <1>   0.1500 
 52 H        9.0000     0.6340    -1.5300 H     1 <1>   0.1500 
 53 H       10.6300    -3.2620    -1.1450 H     1 <1>   0.1500 
 54 H       10.7030    -1.0340    -2.1330 H     1 <1>   0.1500 
@<TRIPOS>BOND
  1   1   2  2   
  2   2   3  am  
  3   2   4  1   
  4   3   5  1   
  5   3   6  1   
  6   4   7  1   
  7   4  26  1   
  8   4  27  1   
  9   5   8  1   
 10   5  28  1   
 11   5  29  1   
 12   6  30  1   
 13   6  31  1   
 14   6  32  1   
 15   7   8  1   
 16   7   9  1   
 17   7  33  1   
 18   8  10  1   
 19   8  34  1   
 20   9  11  1   
 21   9  35  1   
 22   9  36  1   
 23  10  11  1   
 24  10  37  1   
 25  10  38  1   
 26  11  12  1   
 27  11  39  1   
 28  12  13  1   
 29  12  14  1   
 30  12  40  1   
 31  13  15  1   
 32  13  41  1   
 33  13  42  1   
 34  14  43  1   
 35  14  44  1   
 36  14  45  1   
 37  15  16  ar  
 38  15  17  ar  
 39  16  18  ar  
 40  16  19  ar  
 41  17  20  ar  
 42  17  21  1   
 43  18  22  ar  
 44  18  23  ar  
 45  19  24  ar  
 46  19  46  1   
 47  20  22  ar  
 48  20  47  1   
 49  21  48  1   
 50  21  49  1   
 51  21  50  1   
 52  22  51  1   
 53  23  25  ar  
 54  23  52  1   
 55  24  25  ar  
 56  24  53  1   
 57  25  54  1   
@<TRIPOS>SUBSTRUCTURE
  1 ****   9 GROUP 4 **** **** 0

# MOE 2024.06 (io_trps.svl 2023.06)
