@<TRIPOS>MOLECULE
NONAME
49 52 1 0 0 
SMALL
USER_CHARGES


@<TRIPOS>ATOM
  1 O        1.4400     0.0330    -1.2760 O.3   1 <1>  -0.6800 
  2 C        1.7420     0.4500     0.0070 C.3   1 <1>   0.2800 
  3 C        3.2740     0.3370     0.2670 C.3   1 <1>  -0.0800 
  4 C        0.9740    -0.4820     0.9630 C.3   1 <1>  -0.1600 
  5 C        1.2170     1.8960     0.1470 C.3   1 <1>  -0.1600 
  6 C        3.7310    -0.9600     0.9540 C.3   1 <1>  -0.0800 
  7 C        4.1780     0.4330    -0.9650 C.3   1 <1>   0.2090 
  8 C        1.3930    -1.9640     0.8530 C.3   1 <1>  -0.1600 
  9 C        1.8490     2.9290    -0.8020 C.3   1 <1>  -0.2400 
 10 C        2.8790    -2.1560     0.4990 C.3   1 <1>  -0.1600 
 11 C        5.2090    -1.1080     0.5780 C.3   1 <1>   0.2090 
 12 N        5.4630    -0.1890    -0.5610 N.pl3 1 <1>  -0.8380 
 13 C        6.5450     0.6600    -0.4550 C.ar  1 <1>   0.4100 
 14 N        6.5370     1.5980     0.5020 N.ar  1 <1>  -0.3100 
 15 C        7.6010     0.5280    -1.3340 C.ar  1 <1>  -0.1500 
 16 N        7.5450     2.4260     0.6240 N.ar  1 <1>  -0.3100 
 17 C        8.6550     1.3960    -1.2040 C.ar  1 <1>  -0.1500 
 18 C        8.5970     2.3540    -0.2030 C.ar  1 <1>   0.3100 
 19 C        9.6800     3.2970    -0.0250 C.ar  1 <1>   0.0000 
 20 C       10.2440     3.9720    -1.1090 C.ar  1 <1>  -0.1500 
 21 C       10.2020     3.5640     1.2400 C.ar  1 <1>  -0.1500 
 22 C       11.2880     4.8630    -0.9390 C.ar  1 <1>  -0.1500 
 23 C       11.2450     4.4550     1.4170 C.ar  1 <1>  -0.1500 
 24 C       11.7920     5.1050     0.3260 C.ar  1 <1>  -0.1500 
 25 H        0.4750     0.0570    -1.4020 H     1 <1>   0.4000 
 26 H        3.5610     1.1390     0.9250 H     1 <1>   0.0800 
 27 H        1.1690    -0.1530     1.9690 H     1 <1>   0.0800 
 28 H       -0.0870    -0.3930     0.8080 H     1 <1>   0.0800 
 29 H        0.1520     1.8970    -0.0050 H     1 <1>   0.0800 
 30 H        1.3850     2.2250     1.1580 H     1 <1>   0.0800 
 31 H        3.6470    -0.8670     2.0230 H     1 <1>   0.0800 
 32 H        4.3160     1.4540    -1.2750 H     1 <1>   0.0800 
 33 H        3.7820    -0.1320    -1.7900 H     1 <1>   0.0800 
 34 H        1.1800    -2.4520     1.7890 H     1 <1>   0.0800 
 35 H        0.8000    -2.4480     0.0960 H     1 <1>   0.0800 
 36 H        1.7630     2.6120    -1.8260 H     1 <1>   0.0800 
 37 H        2.8880     3.0780    -0.5690 H     1 <1>   0.0800 
 38 H        1.3470     3.8750    -0.6970 H     1 <1>   0.0800 
 39 H        2.9710    -2.2560    -0.5700 H     1 <1>   0.0800 
 40 H        3.2420    -3.0660     0.9430 H     1 <1>   0.0800 
 41 H        5.4410    -2.1180     0.2900 H     1 <1>   0.0800 
 42 H        5.8300    -0.8350     1.4160 H     1 <1>   0.0800 
 43 H        7.5720    -0.2370    -2.0850 H     1 <1>   0.1500 
 44 H        9.5060     1.3340    -1.8560 H     1 <1>   0.1500 
 45 H        9.8560     3.8020    -2.0980 H     1 <1>   0.1500 
 46 H        9.7800     3.0650     2.0960 H     1 <1>   0.1500 
 47 H       11.7070     5.3710    -1.7890 H     1 <1>   0.1500 
 48 H       11.6300     4.6430     2.4050 H     1 <1>   0.1500 
 49 H       12.6040     5.7990     0.4620 H     1 <1>   0.1500 
@<TRIPOS>BOND
  1   1   2  1   
  2   1  25  1   
  3   2   3  1   
  4   2   4  1   
  5   2   5  1   
  6   3   6  1   
  7   3   7  1   
  8   3  26  1   
  9   4   8  1   
 10   4  27  1   
 11   4  28  1   
 12   5   9  1   
 13   5  29  1   
 14   5  30  1   
 15   6  10  1   
 16   6  11  1   
 17   6  31  1   
 18   7  12  1   
 19   7  32  1   
 20   7  33  1   
 21   8  10  1   
 22   8  34  1   
 23   8  35  1   
 24   9  36  1   
 25   9  37  1   
 26   9  38  1   
 27  10  39  1   
 28  10  40  1   
 29  11  12  1   
 30  11  41  1   
 31  11  42  1   
 32  12  13  1   
 33  13  14  ar  
 34  13  15  ar  
 35  14  16  ar  
 36  15  17  ar  
 37  15  43  1   
 38  16  18  ar  
 39  17  18  ar  
 40  17  44  1   
 41  18  19  1   
 42  19  20  ar  
 43  19  21  ar  
 44  20  22  ar  
 45  20  45  1   
 46  21  23  ar  
 47  21  46  1   
 48  22  24  ar  
 49  22  47  1   
 50  23  24  ar  
 51  23  48  1   
 52  24  49  1   
@<TRIPOS>SUBSTRUCTURE
  1 ****  14 GROUP 4 **** **** 0

# MOE 2024.06 (io_trps.svl 2023.06)
