@<TRIPOS>MOLECULE
NONAME
50 52 1 0 0 
SMALL
USER_CHARGES


@<TRIPOS>ATOM
  1 O       -0.8080     0.2350    -0.9400 O.2   1 <1>  -0.5700 
  2 C       -1.7080     1.0560    -0.9540 C.2   1 <1>   0.5440 
  3 N       -2.9660     0.6340    -1.3360 N.am  1 <1>  -0.6600 
  4 C       -1.4580     2.4180    -0.5460 C.ar  1 <1>   0.0860 
  5 C       -3.1820    -0.7800    -1.7300 C.3   1 <1>   0.1400 
  6 C       -4.1980     1.3010    -0.8330 C.3   1 <1>   0.1400 
  7 C       -1.3730     2.7630     0.8050 C.ar  1 <1>   0.0830 
  8 C       -1.3090     3.4350    -1.4880 C.ar  1 <1>  -0.1500 
  9 C       -3.5940    -1.5640    -0.4660 C.3   1 <1>   0.4230 
 10 C       -4.6650     0.5470     0.4200 C.3   1 <1>  -0.1600 
 11 O       -1.5210     1.8180     1.7540 O.3   1 <1>  -0.3630 
 12 C       -1.1600     4.0760     1.1960 C.ar  1 <1>  -0.1500 
 13 C       -1.0900     4.7450    -1.1010 C.ar  1 <1>  -0.1500 
 14 N       -3.6200    -3.0750    -0.6560 N.4   1 <1>  -0.9590 
 15 C       -4.8830    -0.9800     0.1920 C.3   1 <1>   0.0000 
 16 C       -0.3320     1.3040     2.3090 C.3   1 <1>   0.0400 
 17 C       -1.0170     5.0680     0.2440 C.ar  1 <1>  -0.1500 
 18 C       -4.3920    -3.8090     0.3980 C.3   1 <1>   0.3430 
 19 C       -4.0290    -3.5470    -2.0190 C.3   1 <1>   0.2630 
 20 C       -5.1060    -1.6650     1.5730 C.3   1 <1>  -0.1600 
 21 C       -6.1100    -1.2140    -0.7350 C.3   1 <1>   0.1200 
 22 C       -4.4050    -3.0300     1.7120 C.3   1 <1>  -0.1600 
 23 O       -7.2350    -0.5480    -0.2800 O.3   1 <1>  -0.6800 
 24 H       -3.9400    -0.8160    -2.4910 H     1 <1>   0.0800 
 25 H       -2.2740    -1.1870    -2.1390 H     1 <1>   0.0800 
 26 H       -4.0060     2.3320    -0.5880 H     1 <1>   0.0800 
 27 H       -4.9600     1.2830    -1.5950 H     1 <1>   0.0800 
 28 H       -1.3650     3.1890    -2.5340 H     1 <1>   0.1500 
 29 H       -2.8060    -1.3670     0.2420 H     1 <1>   0.0800 
 30 H       -3.9150     0.6990     1.1770 H     1 <1>   0.0800 
 31 H       -5.5630     1.0120     0.7890 H     1 <1>   0.0800 
 32 H       -1.1110     4.3170     2.2420 H     1 <1>   0.1500 
 33 H       -0.9770     5.5160    -1.8450 H     1 <1>   0.1500 
 34 H       -2.6340    -3.3520    -0.5310 H     1 <1>   0.4500 
 35 H       -0.5920     0.5630     3.0420 H     1 <1>   0.0800 
 36 H        0.2150     2.1060     2.7730 H     1 <1>   0.0800 
 37 H        0.2540     0.8580     1.5240 H     1 <1>   0.0800 
 38 H       -0.8480     6.0880     0.5450 H     1 <1>   0.1500 
 39 H       -5.4110    -3.9470     0.0740 H     1 <1>   0.0800 
 40 H       -3.9600    -4.7850     0.5550 H     1 <1>   0.0800 
 41 H       -5.0400    -3.2440    -2.2370 H     1 <1>   0.0800 
 42 H       -3.9740    -4.6220    -2.0740 H     1 <1>   0.0800 
 43 H       -3.3750    -3.1380    -2.7730 H     1 <1>   0.0800 
 44 H       -4.7420    -1.0370     2.3700 H     1 <1>   0.0800 
 45 H       -6.1580    -1.7930     1.7570 H     1 <1>   0.0800 
 46 H       -6.3610    -2.2570    -0.7990 H     1 <1>   0.0800 
 47 H       -5.9270    -0.8480    -1.7290 H     1 <1>   0.0800 
 48 H       -4.9110    -3.6110     2.4640 H     1 <1>   0.0800 
 49 H       -3.3910    -2.8930     2.0500 H     1 <1>   0.0800 
 50 H       -7.4880    -0.8220     0.6240 H     1 <1>   0.4000 
@<TRIPOS>BOND
  1   1   2  2   
  2   2   3  am  
  3   2   4  1   
  4   3   5  1   
  5   3   6  1   
  6   4   7  ar  
  7   4   8  ar  
  8   5   9  1   
  9   5  24  1   
 10   5  25  1   
 11   6  10  1   
 12   6  26  1   
 13   6  27  1   
 14   7  11  1   
 15   7  12  ar  
 16   8  13  ar  
 17   8  28  1   
 18   9  14  1   
 19   9  15  1   
 20   9  29  1   
 21  10  15  1   
 22  10  30  1   
 23  10  31  1   
 24  11  16  1   
 25  12  17  ar  
 26  12  32  1   
 27  13  17  ar  
 28  13  33  1   
 29  14  18  1   
 30  14  19  1   
 31  14  34  1   
 32  15  20  1   
 33  15  21  1   
 34  16  35  1   
 35  16  36  1   
 36  16  37  1   
 37  17  38  1   
 38  18  22  1   
 39  18  39  1   
 40  18  40  1   
 41  19  41  1   
 42  19  42  1   
 43  19  43  1   
 44  20  22  1   
 45  20  44  1   
 46  20  45  1   
 47  21  23  1   
 48  21  46  1   
 49  21  47  1   
 50  22  48  1   
 51  22  49  1   
 52  23  50  1   
@<TRIPOS>SUBSTRUCTURE
  1 ****   3 GROUP 4 **** **** 0

# MOE 2024.06 (io_trps.svl 2023.06)
