@<TRIPOS>MOLECULE
NONAME
50 51 1 0 0 
SMALL
USER_CHARGES


@<TRIPOS>ATOM
  1 S       -0.2710    -1.2620    -0.5540 S.o2  1 <1>   1.0900 
  2 O        0.1670    -2.2480     0.4050 O.2   1 <1>  -0.6500 
  3 O       -0.3110    -1.5890    -1.9600 O.2   1 <1>  -0.6500 
  4 C       -1.8910    -0.6950    -0.0720 C.3   1 <1>  -0.0550 
  5 C        0.7480     0.1870    -0.3570 C.3   1 <1>  -0.1350 
  6 C       -2.8920    -1.8440    -0.1080 C.3   1 <1>   0.1100 
  7 N       -4.2170    -1.3560     0.3060 N.3   1 <1>  -0.8100 
  8 C       -4.9740    -2.4600     0.9380 C.3   1 <1>   0.1100 
  9 C       -4.9430    -0.7720    -0.8370 C.3   1 <1>   0.1100 
 10 C       -6.3260    -2.0310     1.5330 C.3   1 <1>   0.1400 
 11 C       -6.0400     0.1720    -0.3410 C.3   1 <1>  -0.1600 
 12 N       -7.3590    -1.8480     0.4680 N.am  1 <1>  -0.6600 
 13 C       -7.4100    -0.4980    -0.1710 C.3   1 <1>   0.1400 
 14 C       -8.2280    -2.8450     0.0570 C.2   1 <1>   0.5690 
 15 O       -9.0170    -2.6210    -0.8370 O.2   1 <1>  -0.5700 
 16 C       -8.2740    -4.2380     0.7520 C.3   1 <1>   0.4040 
 17 O       -6.9990    -4.8560     0.7760 O.3   1 <1>  -0.5600 
 18 C       -9.2880    -5.2180     0.1430 C.ar  1 <1>  -0.1440 
 19 C       -6.8970    -5.9970     1.5740 C.3   1 <1>   0.0400 
 20 C      -10.4370    -5.5680     0.8420 C.ar  1 <1>  -0.1500 
 21 C       -9.0650    -5.7770    -1.1070 C.ar  1 <1>  -0.1500 
 22 C      -11.3420    -6.4640     0.3000 C.ar  1 <1>  -0.1500 
 23 C       -9.9690    -6.6730    -1.6500 C.ar  1 <1>  -0.1500 
 24 C      -11.1080    -7.0180    -0.9460 C.ar  1 <1>  -0.1500 
 25 H       -1.8590    -0.3070     0.9270 H     1 <1>   0.0800 
 26 H       -2.2120     0.0830    -0.7350 H     1 <1>   0.0800 
 27 H        0.7360     0.5210     0.6620 H     1 <1>   0.0800 
 28 H        0.4030     0.9810    -0.9900 H     1 <1>   0.0800 
 29 H        1.7620    -0.0420    -0.6250 H     1 <1>   0.0800 
 30 H       -2.5460    -2.6040     0.5740 H     1 <1>   0.0800 
 31 H       -2.9400    -2.2810    -1.0930 H     1 <1>   0.0800 
 32 H       -5.1270    -3.2550     0.2280 H     1 <1>   0.0800 
 33 H       -4.3830    -2.8540     1.7460 H     1 <1>   0.0800 
 34 H       -4.2610    -0.1940    -1.4360 H     1 <1>   0.0800 
 35 H       -5.3540    -1.5470    -1.4650 H     1 <1>   0.0800 
 36 H       -6.2030    -1.1230     2.0960 H     1 <1>   0.0800 
 37 H       -6.6500    -2.7870     2.2240 H     1 <1>   0.0800 
 38 H       -6.1620     0.9560    -1.0650 H     1 <1>   0.0800 
 39 H       -5.7340     0.6420     0.5760 H     1 <1>   0.0800 
 40 H       -7.8530    -0.5870    -1.1490 H     1 <1>   0.0800 
 41 H       -8.0500     0.1390     0.4140 H     1 <1>   0.0800 
 42 H       -8.5510    -4.0540     1.7730 H     1 <1>   0.0800 
 43 H       -5.8680    -6.3100     1.5770 H     1 <1>   0.0800 
 44 H       -7.5050    -6.7830     1.1600 H     1 <1>   0.0800 
 45 H       -7.2090    -5.7660     2.5770 H     1 <1>   0.0800 
 46 H      -10.6360    -5.1440     1.8100 H     1 <1>   0.1500 
 47 H       -8.1810    -5.5070    -1.6600 H     1 <1>   0.1500 
 48 H      -12.2300    -6.7300     0.8470 H     1 <1>   0.1500 
 49 H       -9.7850    -7.0960    -2.6220 H     1 <1>   0.1500 
 50 H      -11.8120    -7.7140    -1.3680 H     1 <1>   0.1500 
@<TRIPOS>BOND
  1   1   2  2   
  2   1   3  2   
  3   1   4  1   
  4   1   5  1   
  5   4   6  1   
  6   4  25  1   
  7   4  26  1   
  8   5  27  1   
  9   5  28  1   
 10   5  29  1   
 11   6   7  1   
 12   6  30  1   
 13   6  31  1   
 14   7   8  1   
 15   7   9  1   
 16   8  10  1   
 17   8  32  1   
 18   8  33  1   
 19   9  11  1   
 20   9  34  1   
 21   9  35  1   
 22  10  12  1   
 23  10  36  1   
 24  10  37  1   
 25  11  13  1   
 26  11  38  1   
 27  11  39  1   
 28  12  13  1   
 29  12  14  am  
 30  13  40  1   
 31  13  41  1   
 32  14  15  2   
 33  14  16  1   
 34  16  17  1   
 35  16  18  1   
 36  16  42  1   
 37  17  19  1   
 38  18  20  ar  
 39  18  21  ar  
 40  19  43  1   
 41  19  44  1   
 42  19  45  1   
 43  20  22  ar  
 44  20  46  1   
 45  21  23  ar  
 46  21  47  1   
 47  22  24  ar  
 48  22  48  1   
 49  23  24  ar  
 50  23  49  1   
 51  24  50  1   
@<TRIPOS>SUBSTRUCTURE
  1 ****   8 GROUP 4 **** **** 0

# MOE 2024.06 (io_trps.svl 2023.06)
