@<TRIPOS>MOLECULE
NONAME
57 60 1 0 0 
SMALL
USER_CHARGES


@<TRIPOS>ATOM
  1 O        0.6930     1.6570     2.2760 O.2   1 <1>  -0.5700 
  2 C        0.5660     2.7460     1.7790 C.2   1 <1>   0.5690 
  3 N       -0.5920     3.4300     1.8980 N.am  1 <1>  -0.7300 
  4 C        1.7150     3.3560     0.9710 C.3   1 <1>   0.1810 
  5 C       -0.8080     4.7850     1.3410 C.3   1 <1>   0.3640 
  6 O        1.5870     4.7520     0.7770 O.3   1 <1>  -0.5600 
  7 C       -2.1760     4.8360     0.6670 C.ar  1 <1>  -0.1440 
  8 C        0.3050     5.1690     0.3310 C.3   1 <1>   0.2610 
  9 C       -3.0020     5.9320     0.8740 C.ar  1 <1>  -0.1500 
 10 C       -2.6120     3.8110    -0.1640 C.ar  1 <1>  -0.1500 
 11 C        0.3230     6.6810     0.0550 C.2   1 <1>   0.5690 
 12 C       -4.2410     6.0040     0.2610 C.ar  1 <1>  -0.1500 
 13 C       -3.8510     3.8830    -0.7770 C.ar  1 <1>  -0.1500 
 14 O       -0.0990     7.4460     0.8940 O.2   1 <1>  -0.5700 
 15 N        0.8920     7.1950    -1.0890 N.am  1 <1>  -0.6600 
 16 C       -4.6660     4.9790    -0.5660 C.ar  1 <1>  -0.1500 
 17 C        0.7810     8.6620    -1.3790 C.3   1 <1>   0.1400 
 18 C        1.8740     6.4700    -1.9400 C.3   1 <1>   0.1400 
 19 C        1.7170     9.4840    -0.4690 C.3   1 <1>   0.3430 
 20 C        3.3030     6.6760    -1.4110 C.3   1 <1>  -0.1600 
 21 N        2.8990     8.6820    -0.0080 N.4   1 <1>  -0.9590 
 22 C        3.7070     8.1310    -1.1370 C.3   1 <1>   0.3430 
 23 C        3.6530     9.3860     1.0650 C.3   1 <1>   0.4230 
 24 C        4.4710    10.5700     0.5270 C.3   1 <1>  -0.1600 
 25 C        4.6510     8.4460     1.7460 C.3   1 <1>  -0.1600 
 26 C        5.9090    10.3700     1.0140 C.3   1 <1>  -0.1600 
 27 C        6.0450     8.8760     1.2900 C.3   1 <1>  -0.1600 
 28 H       -1.3610     3.0150     2.4290 H     1 <1>   0.3700 
 29 H        1.7610     2.8810     0.0090 H     1 <1>   0.0800 
 30 H        2.6410     3.1790     1.4880 H     1 <1>   0.0800 
 31 H       -0.7950     5.4770     2.1650 H     1 <1>   0.0800 
 32 H        0.1020     4.6640    -0.5950 H     1 <1>   0.0800 
 33 H       -2.6880     6.7400     1.5120 H     1 <1>   0.1500 
 34 H       -1.9950     2.9460    -0.3390 H     1 <1>   0.1500 
 35 H       -4.8750     6.8570     0.4270 H     1 <1>   0.1500 
 36 H       -4.1830     3.0840    -1.4180 H     1 <1>   0.1500 
 37 H       -5.6300     5.0350    -1.0410 H     1 <1>   0.1500 
 38 H        1.0190     8.8530    -2.4110 H     1 <1>   0.0800 
 39 H       -0.2350     8.9850    -1.2220 H     1 <1>   0.0800 
 40 H        1.6500     5.4180    -1.9630 H     1 <1>   0.0800 
 41 H        1.8020     6.8310    -2.9530 H     1 <1>   0.0800 
 42 H        1.1470     9.7890     0.3930 H     1 <1>   0.0800 
 43 H        2.0370    10.3740    -0.9840 H     1 <1>   0.0800 
 44 H        3.9820     6.2770    -2.1440 H     1 <1>   0.0800 
 45 H        3.4470     6.0940    -0.5190 H     1 <1>   0.0800 
 46 H        2.4620     7.8590     0.4370 H     1 <1>   0.4500 
 47 H        3.5710     8.7300    -2.0220 H     1 <1>   0.0800 
 48 H        4.7520     8.1540    -0.8800 H     1 <1>   0.0800 
 49 H        2.9580     9.7400     1.8110 H     1 <1>   0.0800 
 50 H        4.4630    10.6140    -0.5470 H     1 <1>   0.0800 
 51 H        4.0840    11.4980     0.9090 H     1 <1>   0.0800 
 52 H        4.5830     8.6100     2.8080 H     1 <1>   0.0800 
 53 H        4.4610     7.4040     1.5580 H     1 <1>   0.0800 
 54 H        6.6360    10.7150     0.2970 H     1 <1>   0.0800 
 55 H        6.0540    10.9110     1.9350 H     1 <1>   0.0800 
 56 H        6.7920     8.6770     2.0400 H     1 <1>   0.0800 
 57 H        6.3230     8.3610     0.3870 H     1 <1>   0.0800 
@<TRIPOS>BOND
  1   1   2  2   
  2   2   3  am  
  3   2   4  1   
  4   3   5  1   
  5   3  28  1   
  6   4   6  1   
  7   4  29  1   
  8   4  30  1   
  9   5   7  1   
 10   5   8  1   
 11   5  31  1   
 12   6   8  1   
 13   7   9  ar  
 14   7  10  ar  
 15   8  11  1   
 16   8  32  1   
 17   9  12  ar  
 18   9  33  1   
 19  10  13  ar  
 20  10  34  1   
 21  11  14  2   
 22  11  15  am  
 23  12  16  ar  
 24  12  35  1   
 25  13  16  ar  
 26  13  36  1   
 27  15  17  1   
 28  15  18  1   
 29  16  37  1   
 30  17  19  1   
 31  17  38  1   
 32  17  39  1   
 33  18  20  1   
 34  18  40  1   
 35  18  41  1   
 36  19  21  1   
 37  19  42  1   
 38  19  43  1   
 39  20  22  1   
 40  20  44  1   
 41  20  45  1   
 42  21  22  1   
 43  21  23  1   
 44  21  46  1   
 45  22  47  1   
 46  22  48  1   
 47  23  24  1   
 48  23  25  1   
 49  23  49  1   
 50  24  26  1   
 51  24  50  1   
 52  24  51  1   
 53  25  27  1   
 54  25  52  1   
 55  25  53  1   
 56  26  27  1   
 57  26  54  1   
 58  26  55  1   
 59  27  56  1   
 60  27  57  1   
@<TRIPOS>SUBSTRUCTURE
  1 ****  11 GROUP 4 **** **** 0

# MOE 2024.06 (io_trps.svl 2023.06)
