@<TRIPOS>MOLECULE
NONAME
59 62 1 0 0 
SMALL
USER_CHARGES


@<TRIPOS>ATOM
  1 O        0.9900    -1.3840     1.1160 O.2   1 <1>  -0.5700 
  2 C        0.2250    -0.4520     1.0840 C.2   1 <1>   0.5690 
  3 N       -1.1120    -0.4950     0.8000 N.am  1 <1>  -0.4770 
  4 C        0.6790     0.9530     1.3760 C.3   1 <1>  -0.0990 
  5 C       -1.8800    -1.6060     0.4140 C.ar  1 <1>   0.1170 
  6 C       -1.7070     0.8550     0.8850 C.3   1 <1>   0.1400 
  7 C       -0.5130     1.8140     0.9440 C.3   1 <1>  -0.1600 
  8 C       -3.2030    -1.7450     0.8240 C.ar  1 <1>  -0.1500 
  9 C       -1.3500    -2.6010    -0.4020 C.ar  1 <1>  -0.1500 
 10 C       -3.9600    -2.8340     0.4360 C.ar  1 <1>  -0.1500 
 11 C       -2.1090    -3.6880    -0.7890 C.ar  1 <1>  -0.1500 
 12 C       -3.4330    -3.8400    -0.3760 C.ar  1 <1>   0.0860 
 13 C       -4.2180    -4.9940    -0.7790 C.2   1 <1>   0.5440 
 14 O       -4.0830    -5.4450    -1.9020 O.2   1 <1>  -0.5700 
 15 N       -5.1050    -5.6100     0.0880 N.am  1 <1>  -0.6600 
 16 C       -6.1480    -6.5440    -0.4440 C.3   1 <1>   0.2200 
 17 C       -4.7080    -5.7910     1.5180 C.3   1 <1>   0.0600 
 18 C       -7.0130    -5.8890    -1.5200 C.3   1 <1>  -0.1600 
 19 C       -7.1880    -6.9640     0.5970 C.3   1 <1>  -0.1600 
 20 C       -8.2940    -6.7300    -1.5790 C.3   1 <1>  -0.0800 
 21 C       -8.4140    -7.4140    -0.2100 C.3   1 <1>  -0.0800 
 22 C       -9.5650    -5.8950    -1.7690 C.3   1 <1>  -0.1600 
 23 C       -9.7500    -6.9560     0.3900 C.3   1 <1>  -0.1600 
 24 C      -10.0730    -5.6600    -0.3480 C.3   1 <1>   0.4230 
 25 N      -11.5150    -5.2740    -0.2550 N.4   1 <1>  -0.9590 
 26 C      -12.4780    -6.2330    -0.8900 C.3   1 <1>   0.2630 
 27 C      -11.7240    -3.8990    -0.8060 C.3   1 <1>   0.2630 
 28 H        0.8660     1.0450     2.4310 H     1 <1>   0.0800 
 29 H        1.5700     1.1890     0.8230 H     1 <1>   0.0800 
 30 H       -2.3280     1.0510     0.0270 H     1 <1>   0.0800 
 31 H       -2.2920     0.9270     1.7860 H     1 <1>   0.0800 
 32 H       -0.3350     2.2080    -0.0420 H     1 <1>   0.0800 
 33 H       -0.6910     2.6330     1.6180 H     1 <1>   0.0800 
 34 H       -3.6430    -0.9990     1.4590 H     1 <1>   0.1500 
 35 H       -0.3310    -2.5220    -0.7370 H     1 <1>   0.1500 
 36 H       -4.9810    -2.9150     0.7630 H     1 <1>   0.1500 
 37 H       -1.6760    -4.4420    -1.4250 H     1 <1>   0.1500 
 38 H       -5.6680    -7.4180    -0.8530 H     1 <1>   0.0800 
 39 H       -5.4240    -5.3140     2.1630 H     1 <1>   0.0800 
 40 H       -3.7380    -5.3640     1.7070 H     1 <1>   0.0800 
 41 H       -4.6550    -6.8400     1.7550 H     1 <1>   0.0800 
 42 H       -7.2290    -4.8770    -1.2260 H     1 <1>   0.0800 
 43 H       -6.5180    -5.8840    -2.4750 H     1 <1>   0.0800 
 44 H       -6.8230    -7.7620     1.2190 H     1 <1>   0.0800 
 45 H       -7.4410    -6.1140     1.2060 H     1 <1>   0.0800 
 46 H       -8.1980    -7.4700    -2.3580 H     1 <1>   0.0800 
 47 H       -8.3930    -8.4860    -0.3280 H     1 <1>   0.0800 
 48 H      -10.2600    -6.4800    -2.3410 H     1 <1>   0.0800 
 49 H       -9.3610    -4.9740    -2.2880 H     1 <1>   0.0800 
 50 H       -9.6850    -6.8090     1.4540 H     1 <1>   0.0800 
 51 H      -10.4820    -7.7140     0.1810 H     1 <1>   0.0800 
 52 H       -9.4670    -4.8820     0.0900 H     1 <1>   0.0800 
 53 H      -11.7330    -5.2410     0.7520 H     1 <1>   0.4500 
 54 H      -12.3090    -6.2900    -1.9530 H     1 <1>   0.0800 
 55 H      -13.4920    -5.9080    -0.7230 H     1 <1>   0.0800 
 56 H      -12.3660    -7.2190    -0.4690 H     1 <1>   0.0800 
 57 H      -11.5090    -3.8820    -1.8620 H     1 <1>   0.0800 
 58 H      -11.0750    -3.1940    -0.3110 H     1 <1>   0.0800 
 59 H      -12.7460    -3.5870    -0.6580 H     1 <1>   0.0800 
@<TRIPOS>BOND
  1   1   2  2   
  2   2   3  am  
  3   2   4  1   
  4   3   5  1   
  5   3   6  1   
  6   4   7  1   
  7   4  28  1   
  8   4  29  1   
  9   5   8  ar  
 10   5   9  ar  
 11   6   7  1   
 12   6  30  1   
 13   6  31  1   
 14   7  32  1   
 15   7  33  1   
 16   8  10  ar  
 17   8  34  1   
 18   9  11  ar  
 19   9  35  1   
 20  10  12  ar  
 21  10  36  1   
 22  11  12  ar  
 23  11  37  1   
 24  12  13  1   
 25  13  14  2   
 26  13  15  am  
 27  15  16  1   
 28  15  17  1   
 29  16  18  1   
 30  16  19  1   
 31  16  38  1   
 32  17  39  1   
 33  17  40  1   
 34  17  41  1   
 35  18  20  1   
 36  18  42  1   
 37  18  43  1   
 38  19  21  1   
 39  19  44  1   
 40  19  45  1   
 41  20  21  1   
 42  20  22  1   
 43  20  46  1   
 44  21  23  1   
 45  21  47  1   
 46  22  24  1   
 47  22  48  1   
 48  22  49  1   
 49  23  24  1   
 50  23  50  1   
 51  23  51  1   
 52  24  25  1   
 53  24  52  1   
 54  25  26  1   
 55  25  27  1   
 56  25  53  1   
 57  26  54  1   
 58  26  55  1   
 59  26  56  1   
 60  27  57  1   
 61  27  58  1   
 62  27  59  1   
@<TRIPOS>SUBSTRUCTURE
  1 ****  13 GROUP 4 **** **** 0

# MOE 2024.06 (io_trps.svl 2023.06)
