@<TRIPOS>MOLECULE
NONAME
50 52 1 0 0 
SMALL
USER_CHARGES


@<TRIPOS>ATOM
  1 O       -1.2010     1.0550    -0.0450 O.2   1 <1>  -0.5700 
  2 C       -0.6650     2.1250    -0.1720 C.2   1 <1>   0.5690 
  3 N       -1.0750     3.1940     0.5520 N.am  1 <1>  -0.7300 
  4 C        0.4810     2.2970    -1.1830 C.3   1 <1>   0.1810 
  5 C       -0.3940     4.5000     0.4900 C.3   1 <1>   0.3640 
  6 O        1.1880     3.5210    -1.0410 O.3   1 <1>  -0.5600 
  7 C       -1.3930     5.6140     0.7860 C.ar  1 <1>  -0.1440 
  8 C        0.3440     4.6440    -0.8590 C.3   1 <1>   0.2610 
  9 C       -1.3340     6.2780     2.0040 C.ar  1 <1>  -0.1500 
 10 C       -2.3720     5.9740    -0.1310 C.ar  1 <1>  -0.1500 
 11 C        1.1410     5.9460    -0.8870 C.2   1 <1>   0.5690 
 12 C       -2.2340     7.2860     2.3000 C.ar  1 <1>  -0.1500 
 13 C       -3.2690     6.9850     0.1630 C.ar  1 <1>  -0.1500 
 14 O        0.6920     6.9030    -1.4730 O.2   1 <1>  -0.5700 
 15 N        2.3340     6.0260    -0.2330 N.am  1 <1>  -0.7300 
 16 C       -3.2020     7.6420     1.3790 C.ar  1 <1>  -0.1500 
 17 C        3.2860     7.1800    -0.2420 C.3   1 <1>   0.1400 
 18 C        2.7980     8.3690     0.6160 C.3   1 <1>   0.3430 
 19 N        1.5890     9.0180     0.0290 N.4   1 <1>  -0.9590 
 20 C        1.9220    10.0770    -0.9640 C.3   1 <1>   0.3430 
 21 C        0.6140     9.4750     1.0540 C.3   1 <1>   0.3430 
 22 C        0.6470    10.5210    -1.6830 C.3   1 <1>  -0.1600 
 23 C       -0.6800     9.9070     0.3630 C.3   1 <1>  -0.1600 
 24 C       -0.4300    10.9870    -0.6960 C.3   1 <1>  -0.1600 
 25 H       -1.8510     3.0860     1.2090 H     1 <1>   0.3700 
 26 H        0.0810     2.2540    -2.1800 H     1 <1>   0.0800 
 27 H        1.1860     1.4950    -1.0620 H     1 <1>   0.0800 
 28 H        0.3530     4.5110     1.2660 H     1 <1>   0.0800 
 29 H       -0.3620     4.6660    -1.6700 H     1 <1>   0.0800 
 30 H       -0.5970     6.0060     2.7410 H     1 <1>   0.1500 
 31 H       -2.4550     5.4670    -1.0770 H     1 <1>   0.1500 
 32 H       -2.1930     7.7880     3.2520 H     1 <1>   0.1500 
 33 H       -4.0270     7.2570    -0.5530 H     1 <1>   0.1500 
 34 H        2.7450     5.1240     0.0440 H     1 <1>   0.3700 
 35 H       -3.9090     8.4210     1.6080 H     1 <1>   0.1500 
 36 H        4.2310     6.8410     0.1460 H     1 <1>   0.0800 
 37 H        3.4490     7.5020    -1.2570 H     1 <1>   0.0800 
 38 H        3.5870     9.0960     0.7080 H     1 <1>   0.0800 
 39 H        2.5730     7.9990     1.6020 H     1 <1>   0.0800 
 40 H        1.0980     8.2780    -0.5160 H     1 <1>   0.4500 
 41 H        2.3680    10.9210    -0.4640 H     1 <1>   0.0800 
 42 H        2.6230     9.6970    -1.6900 H     1 <1>   0.0800 
 43 H        0.3950     8.6710     1.7390 H     1 <1>   0.0800 
 44 H        1.0240    10.3020     1.6100 H     1 <1>   0.0800 
 45 H        0.8840    11.3220    -2.3610 H     1 <1>   0.0800 
 46 H        0.2720     9.7010    -2.2730 H     1 <1>   0.0800 
 47 H       -1.1340     9.0470    -0.0970 H     1 <1>   0.0800 
 48 H       -1.3690    10.2790     1.1010 H     1 <1>   0.0800 
 49 H       -1.3450    11.1970    -1.2260 H     1 <1>   0.0800 
 50 H       -0.1110    11.8980    -0.2160 H     1 <1>   0.0800 
@<TRIPOS>BOND
  1   1   2  2   
  2   2   3  am  
  3   2   4  1   
  4   3   5  1   
  5   3  25  1   
  6   4   6  1   
  7   4  26  1   
  8   4  27  1   
  9   5   7  1   
 10   5   8  1   
 11   5  28  1   
 12   6   8  1   
 13   7   9  ar  
 14   7  10  ar  
 15   8  11  1   
 16   8  29  1   
 17   9  12  ar  
 18   9  30  1   
 19  10  13  ar  
 20  10  31  1   
 21  11  14  2   
 22  11  15  am  
 23  12  16  ar  
 24  12  32  1   
 25  13  16  ar  
 26  13  33  1   
 27  15  17  1   
 28  15  34  1   
 29  16  35  1   
 30  17  18  1   
 31  17  36  1   
 32  17  37  1   
 33  18  19  1   
 34  18  38  1   
 35  18  39  1   
 36  19  20  1   
 37  19  21  1   
 38  19  40  1   
 39  20  22  1   
 40  20  41  1   
 41  20  42  1   
 42  21  23  1   
 43  21  43  1   
 44  21  44  1   
 45  22  24  1   
 46  22  45  1   
 47  22  46  1   
 48  23  24  1   
 49  23  47  1   
 50  23  48  1   
 51  24  49  1   
 52  24  50  1   
@<TRIPOS>SUBSTRUCTURE
  1 ****  11 GROUP 4 **** **** 0

# MOE 2024.06 (io_trps.svl 2023.06)
