@<TRIPOS>MOLECULE
NONAME
53 56 1 0 0 
SMALL
USER_CHARGES


@<TRIPOS>ATOM
  1 O       -0.0330    -0.0350     1.1730 O.3   1 <1>  -0.2800 
  2 C        0.9690    -0.6720     0.5940 C.2   1 <1>   0.4250 
  3 C       -0.8010    -0.9410     1.7010 C.2   1 <1>  -0.0400 
  4 N        0.8950    -1.9620     0.7440 N.2   1 <1>  -0.5650 
  5 C        2.0010     0.0610    -0.0970 C.ar  1 <1>   0.0530 
  6 C       -0.2450    -2.1330     1.4440 C.2   1 <1>   0.0460 
  7 C       -2.0590    -0.4970     2.4200 C.3   1 <1>  -0.0600 
  8 C        1.7060     1.0020    -1.0920 C.ar  1 <1>   0.0820 
  9 C        3.3410    -0.1670     0.2170 C.ar  1 <1>  -0.1500 
 10 C       -0.7300    -3.5320     1.7790 C.3   1 <1>   0.5240 
 11 O        0.4010     1.1900    -1.4180 O.3   1 <1>  -0.3630 
 12 C        2.7350     1.6970    -1.7240 C.ar  1 <1>  -0.1500 
 13 C        4.3580     0.5220    -0.4150 C.ar  1 <1>  -0.1500 
 14 N       -0.6100    -4.3560     0.5450 N.4   1 <1>  -0.9590 
 15 C       -0.0170     2.2030    -2.3050 C.3   1 <1>   0.0400 
 16 C        4.0540     1.4590    -1.3860 C.ar  1 <1>  -0.1500 
 17 C       -1.6130    -3.9230    -0.4730 C.3   1 <1>   0.3430 
 18 C       -0.8350    -5.8070     0.8120 C.3   1 <1>   0.3430 
 19 C       -2.7380    -4.9570    -0.3890 C.3   1 <1>   0.2000 
 20 C       -1.9910    -6.2570    -0.0980 C.3   1 <1>  -0.0800 
 21 O       -3.5310    -4.6560     0.7160 O.3   1 <1>  -0.6800 
 22 C       -1.4910    -6.9240    -1.3990 C.3   1 <1>  -0.0170 
 23 C       -0.8350    -8.2730    -1.1400 C.ar  1 <1>   0.1670 
 24 N        0.3710    -8.2440    -0.5950 N.ar  1 <1>  -0.6200 
 25 C       -1.4990    -9.4530    -1.4760 C.ar  1 <1>   0.1600 
 26 C        0.8680    -9.4600    -0.4220 C.ar  1 <1>   0.1600 
 27 N       -1.0090   -10.6650    -1.2910 N.ar  1 <1>  -0.6200 
 28 C        0.2000   -10.6310    -0.7570 C.ar  1 <1>   0.1600 
 29 H       -2.6090    -1.3410     2.7940 H     1 <1>   0.0800 
 30 H       -2.6870     0.0560     1.7440 H     1 <1>   0.0800 
 31 H       -1.7980     0.1430     3.2440 H     1 <1>   0.0800 
 32 H        3.5830    -0.8950     0.9710 H     1 <1>   0.1500 
 33 H       -1.7510    -3.5070     2.1230 H     1 <1>   0.0800 
 34 H       -0.1050    -3.9390     2.5550 H     1 <1>   0.0800 
 35 H        2.5310     2.4250    -2.4860 H     1 <1>   0.1500 
 36 H        5.3850     0.3320    -0.1540 H     1 <1>   0.1500 
 37 H        0.3400    -4.1540     0.1910 H     1 <1>   0.4500 
 38 H       -1.0910     2.1880    -2.3480 H     1 <1>   0.0800 
 39 H        0.3900     2.0040    -3.2810 H     1 <1>   0.0800 
 40 H        0.3200     3.1540    -1.9330 H     1 <1>   0.0800 
 41 H        4.8450     1.9980    -1.8790 H     1 <1>   0.1500 
 42 H       -1.9790    -2.9250    -0.2950 H     1 <1>   0.0800 
 43 H       -1.1660    -3.9620    -1.4520 H     1 <1>   0.0800 
 44 H        0.0650    -6.3700     0.6320 H     1 <1>   0.0800 
 45 H       -1.1250    -5.9480     1.8400 H     1 <1>   0.0800 
 46 H       -3.3570    -4.9760    -1.2710 H     1 <1>   0.0800 
 47 H       -2.6220    -6.9600     0.4180 H     1 <1>   0.0800 
 48 H       -4.3620    -5.1770     0.7080 H     1 <1>   0.4000 
 49 H       -0.7780    -6.2930    -1.9020 H     1 <1>   0.0800 
 50 H       -2.3210    -7.0650    -2.0690 H     1 <1>   0.0800 
 51 H       -2.4780    -9.3970    -1.9180 H     1 <1>   0.1500 
 52 H        1.8520    -9.5370     0.0060 H     1 <1>   0.1500 
 53 H        0.6840   -11.5750    -0.5770 H     1 <1>   0.1500 
@<TRIPOS>BOND
  1   1   2  1   
  2   1   3  1   
  3   2   4  2   
  4   2   5  1   
  5   3   6  2   
  6   3   7  1   
  7   4   6  1   
  8   5   8  ar  
  9   5   9  ar  
 10   6  10  1   
 11   7  29  1   
 12   7  30  1   
 13   7  31  1   
 14   8  11  1   
 15   8  12  ar  
 16   9  13  ar  
 17   9  32  1   
 18  10  14  1   
 19  10  33  1   
 20  10  34  1   
 21  11  15  1   
 22  12  16  ar  
 23  12  35  1   
 24  13  16  ar  
 25  13  36  1   
 26  14  17  1   
 27  14  18  1   
 28  14  37  1   
 29  15  38  1   
 30  15  39  1   
 31  15  40  1   
 32  16  41  1   
 33  17  19  1   
 34  17  42  1   
 35  17  43  1   
 36  18  20  1   
 37  18  44  1   
 38  18  45  1   
 39  19  20  1   
 40  19  21  1   
 41  19  46  1   
 42  20  22  1   
 43  20  47  1   
 44  21  48  1   
 45  22  23  1   
 46  22  49  1   
 47  22  50  1   
 48  23  24  ar  
 49  23  25  ar  
 50  24  26  ar  
 51  25  27  ar  
 52  25  51  1   
 53  26  28  ar  
 54  26  52  1   
 55  27  28  ar  
 56  28  53  1   
@<TRIPOS>SUBSTRUCTURE
  1 ****  14 GROUP 4 **** **** 0

# MOE 2024.06 (io_trps.svl 2023.06)
