@<TRIPOS>MOLECULE
NONAME
55 58 1 0 0 
SMALL
USER_CHARGES


@<TRIPOS>ATOM
  1 O       -2.9960     2.5870    -2.0470 O.2   1 <1>  -0.5700 
  2 C       -2.8770     2.8550    -0.8650 C.2   1 <1>   0.5440 
  3 N       -3.6970     2.2200     0.0500 N.am  1 <1>  -0.6600 
  4 C       -1.8760     3.8230    -0.4520 C.ar  1 <1>   0.0860 
  5 C       -4.9470     1.5490    -0.4260 C.3   1 <1>   0.2200 
  6 C       -3.1520     1.8160     1.3820 C.3   1 <1>   0.0600 
  7 C       -2.1340     4.7700     0.5400 C.ar  1 <1>  -0.1500 
  8 C       -0.6110     3.8460    -1.0380 C.ar  1 <1>  -0.1500 
  9 C       -5.8920     2.5470    -1.0990 C.3   1 <1>  -0.1600 
 10 C       -5.8200     0.9470     0.6810 C.3   1 <1>  -0.1600 
 11 C       -1.1760     5.6840     0.9360 C.ar  1 <1>  -0.1500 
 12 C        0.3510     4.7570    -0.6460 C.ar  1 <1>  -0.1500 
 13 C       -7.2690     1.8750    -1.0630 C.3   1 <1>  -0.0800 
 14 C       -7.2150     0.8300     0.0530 C.3   1 <1>  -0.0800 
 15 C        0.0870     5.6950     0.3480 C.ar  1 <1>  -0.0230 
 16 C       -8.4420     2.8000    -0.7150 C.3   1 <1>  -0.1600 
 17 C       -8.3900     1.1530     0.9900 C.3   1 <1>  -0.1600 
 18 N        1.0810     6.6340     0.7450 N.pl3 1 <1>   0.5930 
 19 C       -9.3870     1.9450     0.1360 C.3   1 <1>   0.4230 
 20 N        2.4120     6.3580     0.7550 N.2   1 <1>  -0.7070 
 21 C        0.8820     7.9110     1.1610 C.2   1 <1>  -0.3020 
 22 N      -10.1920     1.0230    -0.7300 N.4   1 <1>  -0.9590 
 23 C        2.9940     7.4370     1.1720 C.2   1 <1>   0.1390 
 24 C        2.0850     8.4520     1.4440 C.2   1 <1>  -0.1500 
 25 C      -11.0750     1.7570    -1.6940 C.3   1 <1>   0.2630 
 26 C      -11.0400     0.0770     0.0650 C.3   1 <1>   0.2630 
 27 H       -4.6850     0.7780    -1.1320 H     1 <1>   0.0800 
 28 H       -3.7120     2.2920     2.1680 H     1 <1>   0.0800 
 29 H       -2.1180     2.1000     1.4770 H     1 <1>   0.0800 
 30 H       -3.2100     0.7480     1.4960 H     1 <1>   0.0800 
 31 H       -3.1060     4.7830     1.0010 H     1 <1>   0.1500 
 32 H       -0.3890     3.1330    -1.8140 H     1 <1>   0.1500 
 33 H       -5.8920     3.4620    -0.5340 H     1 <1>   0.0800 
 34 H       -5.5880     2.7540    -2.1100 H     1 <1>   0.0800 
 35 H       -5.4520    -0.0120     0.9980 H     1 <1>   0.0800 
 36 H       -5.8500     1.6230     1.5160 H     1 <1>   0.0800 
 37 H       -1.4140     6.3920     1.7120 H     1 <1>   0.1500 
 38 H        1.3220     4.7430    -1.1150 H     1 <1>   0.1500 
 39 H       -7.4480     1.3770    -2.0020 H     1 <1>   0.0800 
 40 H       -7.3330    -0.1500    -0.3800 H     1 <1>   0.0800 
 41 H       -8.8860     3.2460    -1.5840 H     1 <1>   0.0800 
 42 H       -8.0900     3.6030    -0.0900 H     1 <1>   0.0800 
 43 H       -8.0540     1.8090     1.7740 H     1 <1>   0.0800 
 44 H       -8.7900     0.2760     1.4600 H     1 <1>   0.0800 
 45 H      -10.0340     2.5560     0.7450 H     1 <1>   0.0800 
 46 H       -0.0950     8.3510     1.2240 H     1 <1>   0.1500 
 47 H       -9.5070     0.4750    -1.2700 H     1 <1>   0.4500 
 48 H        4.0610     7.5300     1.2900 H     1 <1>   0.1500 
 49 H        2.3240     9.4390     1.7990 H     1 <1>   0.1500 
 50 H      -11.7400     2.4190    -1.1640 H     1 <1>   0.0800 
 51 H      -11.6660     1.0580    -2.2630 H     1 <1>   0.0800 
 52 H      -10.4870     2.3370    -2.3860 H     1 <1>   0.0800 
 53 H      -11.7060     0.6240     0.7130 H     1 <1>   0.0800 
 54 H      -10.4280    -0.5730     0.6670 H     1 <1>   0.0800 
 55 H      -11.6310    -0.5380    -0.5950 H     1 <1>   0.0800 
@<TRIPOS>BOND
  1   1   2  2   
  2   2   3  am  
  3   2   4  1   
  4   3   5  1   
  5   3   6  1   
  6   4   7  ar  
  7   4   8  ar  
  8   5   9  1   
  9   5  10  1   
 10   5  27  1   
 11   6  28  1   
 12   6  29  1   
 13   6  30  1   
 14   7  11  ar  
 15   7  31  1   
 16   8  12  ar  
 17   8  32  1   
 18   9  13  1   
 19   9  33  1   
 20   9  34  1   
 21  10  14  1   
 22  10  35  1   
 23  10  36  1   
 24  11  15  ar  
 25  11  37  1   
 26  12  15  ar  
 27  12  38  1   
 28  13  14  1   
 29  13  16  1   
 30  13  39  1   
 31  14  17  1   
 32  14  40  1   
 33  15  18  1   
 34  16  19  1   
 35  16  41  1   
 36  16  42  1   
 37  17  19  1   
 38  17  43  1   
 39  17  44  1   
 40  18  20  1   
 41  18  21  1   
 42  19  22  1   
 43  19  45  1   
 44  20  23  2   
 45  21  24  2   
 46  21  46  1   
 47  22  25  1   
 48  22  26  1   
 49  22  47  1   
 50  23  24  1   
 51  23  48  1   
 52  24  49  1   
 53  25  50  1   
 54  25  51  1   
 55  25  52  1   
 56  26  53  1   
 57  26  54  1   
 58  26  55  1   
@<TRIPOS>SUBSTRUCTURE
  1 ****   3 GROUP 4 **** **** 0

# MOE 2024.06 (io_trps.svl 2023.06)
