@<TRIPOS>MOLECULE
NONAME
54 56 1 0 0 
SMALL
USER_CHARGES


@<TRIPOS>ATOM
  1 F       -1.7030     1.9690     2.5850 F     1 <1>  -0.1900 
  2 C       -2.4290     2.3810     1.5820 C.ar  1 <1>   0.1900 
  3 C       -3.3890     1.5360     1.0650 C.ar  1 <1>  -0.1500 
  4 C       -2.2070     3.6490     1.0800 C.ar  1 <1>  -0.1500 
  5 C       -4.1810     1.9600     0.0000 C.ar  1 <1>   0.0860 
  6 C       -2.9800     4.0770     0.0150 C.ar  1 <1>  -0.1500 
  7 C       -5.2050     1.0900    -0.5480 C.2   1 <1>   0.5440 
  8 C       -3.9480     3.2390    -0.5160 C.ar  1 <1>  -0.1500 
  9 O       -4.8990    -0.0310    -0.9070 O.2   1 <1>  -0.5700 
 10 N       -6.5200     1.4950    -0.6630 N.am  1 <1>  -0.6600 
 11 C       -7.0500     2.7050     0.0340 C.3   1 <1>   0.1400 
 12 C       -7.5180     0.6200    -1.3480 C.3   1 <1>   0.1400 
 13 C       -8.5140     2.5010     0.4260 C.3   1 <1>  -0.1600 
 14 C       -8.6490     1.4800    -1.9060 C.3   1 <1>  -0.1600 
 15 C       -9.4290     2.2070    -0.7900 C.3   1 <1>   0.2800 
 16 O      -10.3790     1.2670    -0.3590 O.3   1 <1>  -0.5600 
 17 C      -10.0620     3.4900    -1.4000 C.3   1 <1>   0.1400 
 18 C      -11.7030     1.6310    -0.1090 C.3   1 <1>   0.1200 
 19 N      -10.7310     4.4350    -0.4440 N.am  1 <1>  -0.6600 
 20 C      -11.7910     2.6450     1.0260 C.3   1 <1>  -0.0990 
 21 C      -11.4980     4.0810     0.6420 C.2   1 <1>   0.5690 
 22 C      -10.4860     5.8760    -0.7390 C.3   1 <1>   0.1400 
 23 O      -11.9800     4.9200     1.3650 O.2   1 <1>  -0.5700 
 24 C       -9.1180     6.2890    -0.1910 C.3   1 <1>  -0.1600 
 25 C       -8.8780     7.7820    -0.3920 C.3   1 <1>   0.1200 
 26 O       -7.5660     8.0490    -0.0230 O.3   1 <1>  -0.5600 
 27 C       -7.2280     9.3960    -0.0800 C.3   1 <1>   0.0400 
 28 H       -3.5270     0.5540     1.4790 H     1 <1>   0.1500 
 29 H       -1.4490     4.2770     1.5120 H     1 <1>   0.1500 
 30 H       -2.8260     5.0590    -0.4020 H     1 <1>   0.1500 
 31 H       -4.5370     3.5750    -1.3510 H     1 <1>   0.1500 
 32 H       -6.9630     3.5570    -0.6180 H     1 <1>   0.0800 
 33 H       -6.4730     2.8980     0.9230 H     1 <1>   0.0800 
 34 H       -7.9070    -0.0980    -0.6450 H     1 <1>   0.0800 
 35 H       -7.0410     0.0820    -2.1510 H     1 <1>   0.0800 
 36 H       -8.8430     3.3710     0.9610 H     1 <1>   0.0800 
 37 H       -8.5520     1.6750     1.1140 H     1 <1>   0.0800 
 38 H       -9.3220     0.8690    -2.4810 H     1 <1>   0.0800 
 39 H       -8.2040     2.1860    -2.5840 H     1 <1>   0.0800 
 40 H      -10.7580     3.2150    -2.1730 H     1 <1>   0.0800 
 41 H       -9.2690     4.0270    -1.8880 H     1 <1>   0.0800 
 42 H      -12.2140     0.7310     0.1840 H     1 <1>   0.0800 
 43 H      -12.1640     1.9920    -1.0120 H     1 <1>   0.0800 
 44 H      -11.1460     2.3500     1.8320 H     1 <1>   0.0800 
 45 H      -12.7970     2.6230     1.4020 H     1 <1>   0.0800 
 46 H      -11.2530     6.4820    -0.2860 H     1 <1>   0.0800 
 47 H      -10.5290     6.0390    -1.8020 H     1 <1>   0.0800 
 48 H       -8.3420     5.7450    -0.6960 H     1 <1>   0.0800 
 49 H       -9.0790     6.0750     0.8620 H     1 <1>   0.0800 
 50 H       -9.5430     8.3600     0.2280 H     1 <1>   0.0800 
 51 H       -9.0020     8.0570    -1.4260 H     1 <1>   0.0800 
 52 H       -6.1990     9.4960     0.2170 H     1 <1>   0.0800 
 53 H       -7.8540     9.9490     0.5990 H     1 <1>   0.0800 
 54 H       -7.3510     9.7520    -1.0880 H     1 <1>   0.0800 
@<TRIPOS>BOND
  1   1   2  1   
  2   2   3  ar  
  3   2   4  ar  
  4   3   5  ar  
  5   3  28  1   
  6   4   6  ar  
  7   4  29  1   
  8   5   7  1   
  9   5   8  ar  
 10   6   8  ar  
 11   6  30  1   
 12   7   9  2   
 13   7  10  am  
 14   8  31  1   
 15  10  11  1   
 16  10  12  1   
 17  11  13  1   
 18  11  32  1   
 19  11  33  1   
 20  12  14  1   
 21  12  34  1   
 22  12  35  1   
 23  13  15  1   
 24  13  36  1   
 25  13  37  1   
 26  14  15  1   
 27  14  38  1   
 28  14  39  1   
 29  15  16  1   
 30  15  17  1   
 31  16  18  1   
 32  17  19  1   
 33  17  40  1   
 34  17  41  1   
 35  18  20  1   
 36  18  42  1   
 37  18  43  1   
 38  19  21  am  
 39  19  22  1   
 40  20  21  1   
 41  20  44  1   
 42  20  45  1   
 43  21  23  2   
 44  22  24  1   
 45  22  46  1   
 46  22  47  1   
 47  24  25  1   
 48  24  48  1   
 49  24  49  1   
 50  25  26  1   
 51  25  50  1   
 52  25  51  1   
 53  26  27  1   
 54  27  52  1   
 55  27  53  1   
 56  27  54  1   
@<TRIPOS>SUBSTRUCTURE
  1 ****  11 GROUP 4 **** **** 0

# MOE 2024.06 (io_trps.svl 2023.06)
