@<TRIPOS>MOLECULE
NONAME
40 42 1 0 0 
SMALL
USER_CHARGES


@<TRIPOS>ATOM
  1 CL       1.8480    -2.1730     3.9070 Cl    1 <1>  -0.1770 
  2 C        2.0880    -2.1790     2.1790 C.ar  1 <1>   0.1770 
  3 C        1.8700    -3.3460     1.4750 C.ar  1 <1>  -0.1500 
  4 C        2.4890    -1.0160     1.5500 C.ar  1 <1>  -0.1500 
  5 C        2.0540    -3.3940     0.0890 C.ar  1 <1>   0.0860 
  6 C        2.6680    -1.0310     0.1800 C.ar  1 <1>  -0.1500 
  7 C        2.4480    -2.1980    -0.5360 C.ar  1 <1>   0.0830 
  8 C        1.8500    -4.6250    -0.6590 C.2   1 <1>   0.5440 
  9 O        2.6220    -2.1450    -1.8650 O.3   1 <1>  -0.5320 
 10 O        1.7010    -4.6140    -1.8680 O.2   1 <1>  -0.5700 
 11 N        1.8260    -5.8380    -0.0320 N.am  1 <1>  -0.7300 
 12 C        1.6900    -7.1560    -0.6970 C.3   1 <1>   0.2200 
 13 C        0.3340    -7.7850    -0.4040 C.3   1 <1>  -0.0800 
 14 C        2.6100    -8.1460     0.0040 C.3   1 <1>   0.1200 
 15 C        0.5530    -8.4660     0.9530 C.3   1 <1>   0.1200 
 16 C       -0.8750    -6.8320    -0.4480 C.3   1 <1>  -0.0170 
 17 O        1.9340    -8.4870     1.1750 O.3   1 <1>  -0.5600 
 18 C       -2.1730    -7.5950    -0.2330 C.ar  1 <1>  -0.1430 
 19 C       -2.8060    -7.6380     0.9930 C.ar  1 <1>  -0.1500 
 20 C       -2.7840    -8.2900    -1.2570 C.ar  1 <1>  -0.1500 
 21 C       -3.9820    -8.3560     1.1320 C.ar  1 <1>   0.1600 
 22 C       -3.9610    -8.9770    -1.0130 C.ar  1 <1>   0.1600 
 23 N       -4.5740    -9.0300     0.1590 N.ar  1 <1>  -0.6200 
 24 H        1.5530    -4.2150     2.0200 H     1 <1>   0.1500 
 25 H        2.6540    -0.1210     2.1230 H     1 <1>   0.1500 
 26 H        2.9750    -0.1420    -0.3430 H     1 <1>   0.1500 
 27 H        2.3590    -2.9980    -2.2960 H     1 <1>   0.4500 
 28 H        2.0110    -5.9170     0.9700 H     1 <1>   0.3700 
 29 H        1.8980    -7.0820    -1.7520 H     1 <1>   0.0800 
 30 H        0.1720    -8.5630    -1.1290 H     1 <1>   0.0800 
 31 H        3.5710    -7.7280     0.2440 H     1 <1>   0.0800 
 32 H        2.7320    -9.0400    -0.5820 H     1 <1>   0.0800 
 33 H        0.1830    -9.4770     0.9540 H     1 <1>   0.0800 
 34 H        0.1020    -7.9130     1.7580 H     1 <1>   0.0800 
 35 H       -0.9050    -6.3390    -1.4050 H     1 <1>   0.0800 
 36 H       -0.7820    -6.0690     0.3040 H     1 <1>   0.0800 
 37 H       -2.4000    -7.1190     1.8420 H     1 <1>   0.1500 
 38 H       -2.3570    -8.3020    -2.2430 H     1 <1>   0.1500 
 39 H       -4.4620    -8.3780     2.0960 H     1 <1>   0.1500 
 40 H       -4.4230    -9.5130    -1.8240 H     1 <1>   0.1500 
@<TRIPOS>BOND
  1   1   2  1   
  2   2   3  ar  
  3   2   4  ar  
  4   3   5  ar  
  5   3  24  1   
  6   4   6  ar  
  7   4  25  1   
  8   5   7  ar  
  9   5   8  1   
 10   6   7  ar  
 11   6  26  1   
 12   7   9  1   
 13   8  10  2   
 14   8  11  am  
 15   9  27  1   
 16  11  12  1   
 17  11  28  1   
 18  12  13  1   
 19  12  14  1   
 20  12  29  1   
 21  13  15  1   
 22  13  16  1   
 23  13  30  1   
 24  14  17  1   
 25  14  31  1   
 26  14  32  1   
 27  15  17  1   
 28  15  33  1   
 29  15  34  1   
 30  16  18  1   
 31  16  35  1   
 32  16  36  1   
 33  18  19  ar  
 34  18  20  ar  
 35  19  21  ar  
 36  19  37  1   
 37  20  22  ar  
 38  20  38  1   
 39  21  23  ar  
 40  21  39  1   
 41  22  23  ar  
 42  22  40  1   
@<TRIPOS>SUBSTRUCTURE
  1 ****  11 GROUP 4 **** **** 0

# MOE 2024.06 (io_trps.svl 2023.06)
