@<TRIPOS>MOLECULE
NONAME
48 49 1 0 0 
SMALL
USER_CHARGES


@<TRIPOS>ATOM
  1 O       -0.2850     1.6770    -1.4000 O.2   1 <1>  -0.5700 
  2 C       -1.1720     1.8570    -0.6000 C.2   1 <1>   0.5690 
  3 N       -2.0370     0.8630    -0.2670 N.am  1 <1>  -0.7300 
  4 C       -1.2890     3.2450     0.0640 C.3   1 <1>   0.4040 
  5 C       -2.0410    -0.4760    -0.8800 C.3   1 <1>   0.2780 
  6 N        0.0060     3.8380     0.5860 N.4   1 <1>  -0.9590 
  7 C       -3.4880    -0.9030    -0.9760 C.2   1 <1>  -0.2880 
  8 C        0.9360     4.1580    -0.5420 C.3   1 <1>   0.4380 
  9 C        0.6760     2.9410     1.5770 C.3   1 <1>   0.2630 
 10 C       -4.0490    -1.8960    -0.2780 C.2   1 <1>  -0.3000 
 11 C        1.9540     5.2160    -0.0940 C.3   1 <1>  -0.0630 
 12 C        1.2440     6.4000     0.5560 C.ar  1 <1>  -0.0320 
 13 C        3.2010     5.4590    -0.8930 C.3   1 <1>  -0.1900 
 14 C        3.3020     4.7790     0.4340 C.3   1 <1>  -0.2000 
 15 C        1.2550     6.5720     1.9330 C.ar  1 <1>  -0.1500 
 16 C        0.5450     7.2980    -0.2350 C.ar  1 <1>  -0.1500 
 17 C        3.7880     6.8740    -1.0090 C.3   1 <1>  -0.1450 
 18 C        3.5080     4.6320    -2.1510 C.3   1 <1>  -0.1450 
 19 C        0.5640     7.6220     2.5120 C.ar  1 <1>  -0.1500 
 20 C       -0.1480     8.3480     0.3420 C.ar  1 <1>  -0.1500 
 21 C       -0.1410     8.5080     1.7160 C.ar  1 <1>  -0.1500 
 22 H       -2.8130     0.9880     0.3880 H     1 <1>   0.3700 
 23 H       -1.9890     3.1630     0.8780 H     1 <1>   0.0800 
 24 H       -1.7160     3.9170    -0.6610 H     1 <1>   0.0800 
 25 H       -1.4890    -1.1590    -0.2560 H     1 <1>   0.0800 
 26 H       -1.5890    -0.4540    -1.8580 H     1 <1>   0.0800 
 27 H       -0.1890     4.7500     1.0330 H     1 <1>   0.4500 
 28 H       -4.0420    -0.3130    -1.6870 H     1 <1>   0.1500 
 29 H        0.3760     4.5590    -1.3710 H     1 <1>   0.0800 
 30 H        1.4400     3.2670    -0.8790 H     1 <1>   0.0800 
 31 H        0.9470     2.0070     1.1110 H     1 <1>   0.0800 
 32 H        0.0180     2.7390     2.4070 H     1 <1>   0.0800 
 33 H        1.5710     3.4080     1.9560 H     1 <1>   0.0800 
 34 H       -5.0840    -2.1820    -0.3700 H     1 <1>   0.1500 
 35 H       -3.5310    -2.5110     0.4380 H     1 <1>   0.1500 
 36 H        3.5700     3.7370     0.4450 H     1 <1>   0.1000 
 37 H        3.7730     5.3240     1.2350 H     1 <1>   0.1000 
 38 H        1.8060     5.8980     2.5640 H     1 <1>   0.1500 
 39 H        0.5410     7.1880    -1.3050 H     1 <1>   0.1500 
 40 H        3.6510     7.4330    -0.0990 H     1 <1>   0.0800 
 41 H        3.3110     7.4110    -1.8100 H     1 <1>   0.0800 
 42 H        4.8430     6.8250    -1.2100 H     1 <1>   0.0800 
 43 H        3.2130     3.6040    -2.0420 H     1 <1>   0.0800 
 44 H        4.5660     4.6470    -2.3500 H     1 <1>   0.0800 
 45 H        2.9990     5.0480    -3.0030 H     1 <1>   0.0800 
 46 H        0.5770     7.7570     3.5800 H     1 <1>   0.1500 
 47 H       -0.6870     9.0450    -0.2760 H     1 <1>   0.1500 
 48 H       -0.6760     9.3280     2.1660 H     1 <1>   0.1500 
@<TRIPOS>BOND
  1   1   2  2   
  2   2   3  am  
  3   2   4  1   
  4   3   5  1   
  5   3  22  1   
  6   4   6  1   
  7   4  23  1   
  8   4  24  1   
  9   5   7  1   
 10   5  25  1   
 11   5  26  1   
 12   6   8  1   
 13   6   9  1   
 14   6  27  1   
 15   7  10  2   
 16   7  28  1   
 17   8  11  1   
 18   8  29  1   
 19   8  30  1   
 20   9  31  1   
 21   9  32  1   
 22   9  33  1   
 23  10  34  1   
 24  10  35  1   
 25  11  12  1   
 26  11  13  1   
 27  11  14  1   
 28  12  15  ar  
 29  12  16  ar  
 30  13  14  1   
 31  13  17  1   
 32  13  18  1   
 33  14  36  1   
 34  14  37  1   
 35  15  19  ar  
 36  15  38  1   
 37  16  20  ar  
 38  16  39  1   
 39  17  40  1   
 40  17  41  1   
 41  17  42  1   
 42  18  43  1   
 43  18  44  1   
 44  18  45  1   
 45  19  21  ar  
 46  19  46  1   
 47  20  21  ar  
 48  20  47  1   
 49  21  48  1   
@<TRIPOS>SUBSTRUCTURE
  1 ****   6 GROUP 4 **** **** 0

# MOE 2024.06 (io_trps.svl 2023.06)
