@<TRIPOS>MOLECULE
NONAME
42 44 1 0 0 
SMALL
USER_CHARGES


@<TRIPOS>ATOM
  1 CL      -2.7220    -0.6770    -2.2380 Cl    1 <1>  -0.1770 
  2 C       -2.1560     0.4230    -1.0040 C.ar  1 <1>   0.1770 
  3 C       -2.2250     0.0760     0.3360 C.ar  1 <1>   0.0860 
  4 C       -1.6450     1.6490    -1.3880 C.ar  1 <1>   0.1600 
  5 C       -2.7540    -1.1830     0.8040 C.2   1 <1>   0.5440 
  6 C       -1.7330     1.0340     1.2120 C.ar  1 <1>  -0.1500 
  7 N       -1.1940     2.5690    -0.5480 N.ar  1 <1>  -0.6200 
  8 O       -1.9720    -1.9980     1.2530 O.2   1 <1>  -0.5700 
  9 N       -4.1050    -1.4770     0.7920 N.am  1 <1>  -0.6600 
 10 C       -1.2410     2.2340     0.7330 C.ar  1 <1>   0.1600 
 11 C       -5.1380    -0.4940     0.3400 C.3   1 <1>   0.2200 
 12 C       -4.5680    -2.8320     1.2320 C.3   1 <1>   0.0600 
 13 C       -6.1270    -1.0510    -0.6810 C.3   1 <1>  -0.1600 
 14 C       -6.0100     0.0140     1.4820 C.3   1 <1>  -0.1600 
 15 C       -7.3200    -0.0890    -0.6140 C.3   1 <1>  -0.0800 
 16 C       -7.2700     0.5550     0.7920 C.3   1 <1>  -0.0800 
 17 C       -8.6550    -0.7680    -0.9780 C.3   1 <1>   0.1400 
 18 C       -8.5510     0.3360     1.6160 C.3   1 <1>  -0.0990 
 19 N       -9.7950     0.0500    -0.4950 N.am  1 <1>  -0.6600 
 20 C       -9.7760     0.5900     0.7620 C.2   1 <1>   0.5690 
 21 C      -10.9550     0.1970    -1.4140 C.3   1 <1>   0.0600 
 22 O      -10.6810     1.2480     1.2170 O.2   1 <1>  -0.5700 
 23 H       -1.6100     1.8820    -2.4390 H     1 <1>   0.1500 
 24 H       -1.7340     0.8320     2.2680 H     1 <1>   0.1500 
 25 H       -0.8660     2.9590     1.4370 H     1 <1>   0.1500 
 26 H       -4.6700     0.3640    -0.1090 H     1 <1>   0.0800 
 27 H       -5.5660    -2.7940     1.6260 H     1 <1>   0.0800 
 28 H       -3.9200    -3.2180     2.0010 H     1 <1>   0.0800 
 29 H       -4.5430    -3.5060     0.3950 H     1 <1>   0.0800 
 30 H       -5.6970    -1.0830    -1.6670 H     1 <1>   0.0800 
 31 H       -6.4480    -2.0370    -0.4000 H     1 <1>   0.0800 
 32 H       -6.2690    -0.7930     2.1430 H     1 <1>   0.0800 
 33 H       -5.5090     0.7820     2.0430 H     1 <1>   0.0800 
 34 H       -7.1520     0.6950    -1.3340 H     1 <1>   0.0800 
 35 H       -7.1510     1.6170     0.6520 H     1 <1>   0.0800 
 36 H       -8.7190    -1.7370    -0.5130 H     1 <1>   0.0800 
 37 H       -8.7150    -0.9000    -2.0440 H     1 <1>   0.0800 
 38 H       -8.5620     0.9940     2.4650 H     1 <1>   0.0800 
 39 H       -8.6060    -0.6760     1.9710 H     1 <1>   0.0800 
 40 H      -10.6440     0.6940    -2.3160 H     1 <1>   0.0800 
 41 H      -11.7330     0.7800    -0.9510 H     1 <1>   0.0800 
 42 H      -11.3510    -0.7730    -1.6580 H     1 <1>   0.0800 
@<TRIPOS>BOND
  1   1   2  1   
  2   2   3  ar  
  3   2   4  ar  
  4   3   5  1   
  5   3   6  ar  
  6   4   7  ar  
  7   4  23  1   
  8   5   8  2   
  9   5   9  am  
 10   6  10  ar  
 11   6  24  1   
 12   7  10  ar  
 13   9  11  1   
 14   9  12  1   
 15  10  25  1   
 16  11  13  1   
 17  11  14  1   
 18  11  26  1   
 19  12  27  1   
 20  12  28  1   
 21  12  29  1   
 22  13  15  1   
 23  13  30  1   
 24  13  31  1   
 25  14  16  1   
 26  14  32  1   
 27  14  33  1   
 28  15  16  1   
 29  15  17  1   
 30  15  34  1   
 31  16  18  1   
 32  16  35  1   
 33  17  19  1   
 34  17  36  1   
 35  17  37  1   
 36  18  20  1   
 37  18  38  1   
 38  18  39  1   
 39  19  20  am  
 40  19  21  1   
 41  20  22  2   
 42  21  40  1   
 43  21  41  1   
 44  21  42  1   
@<TRIPOS>SUBSTRUCTURE
  1 ****  11 GROUP 4 **** **** 0

# MOE 2024.06 (io_trps.svl 2023.06)
