@<TRIPOS>MOLECULE
NONAME
49 51 1 0 0 
SMALL
USER_CHARGES


@<TRIPOS>ATOM
  1 O       -0.7830    -1.6650     1.2720 O.2   1 <1>  -0.5700 
  2 C        0.1380    -2.3110     0.8360 C.2   1 <1>   0.5690 
  3 N        0.1450    -2.8630    -0.4170 N.am  1 <1>  -0.6600 
  4 C        1.3560    -2.5360     1.7070 C.3   1 <1>  -0.0990 
  5 C        1.3080    -3.6620    -0.8780 C.3   1 <1>   0.1400 
  6 C       -1.0080    -2.7520    -1.3490 C.3   1 <1>   0.0600 
  7 C        2.6440    -2.3000     0.8980 C.3   1 <1>  -0.0800 
  8 C        2.6240    -2.9510    -0.5050 C.3   1 <1>  -0.0800 
  9 C        3.9040    -2.8150     1.6060 C.3   1 <1>  -0.1600 
 10 C        3.8400    -3.8860    -0.5520 C.3   1 <1>  -0.1600 
 11 C        4.8050    -3.2950     0.4750 C.3   1 <1>   0.2200 
 12 N        5.8690    -4.2310     0.9530 N.am  1 <1>  -0.6600 
 13 C        7.1860    -3.8620     1.1190 C.2   1 <1>   0.5690 
 14 C        5.4640    -5.6360     1.2730 C.3   1 <1>   0.0600 
 15 O        8.0390    -4.6650     1.4140 O.2   1 <1>  -0.5700 
 16 C        7.6460    -2.4270     0.9370 C.3   1 <1>  -0.0990 
 17 C        8.0250    -2.1450    -0.5210 C.3   1 <1>  -0.0170 
 18 C        8.3080    -0.6650    -0.7140 C.ar  1 <1>  -0.1440 
 19 C        9.5620    -0.1520    -0.4210 C.ar  1 <1>  -0.1500 
 20 C        7.3160     0.1860    -1.1760 C.ar  1 <1>  -0.1500 
 21 C        9.8220     1.1970    -0.5880 C.ar  1 <1>  -0.1500 
 22 C        7.5750     1.5360    -1.3430 C.ar  1 <1>  -0.1500 
 23 C        8.8280     2.0420    -1.0480 C.ar  1 <1>  -0.1500 
 24 H        1.3220    -1.8710     2.5510 H     1 <1>   0.0800 
 25 H        1.3160    -3.5460     2.0710 H     1 <1>   0.0800 
 26 H        1.2580    -4.6280    -0.4050 H     1 <1>   0.0800 
 27 H        1.2620    -3.8050    -1.9440 H     1 <1>   0.0800 
 28 H       -0.6990    -2.2610    -2.2540 H     1 <1>   0.0800 
 29 H       -1.8020    -2.1780    -0.9010 H     1 <1>   0.0800 
 30 H       -1.3830    -3.7320    -1.5830 H     1 <1>   0.0800 
 31 H        2.7460    -1.2360     0.7540 H     1 <1>   0.0800 
 32 H        2.7810    -2.1670    -1.2270 H     1 <1>   0.0800 
 33 H        3.6560    -3.6380     2.2510 H     1 <1>   0.0800 
 34 H        4.3760    -2.0410     2.1840 H     1 <1>   0.0800 
 35 H        4.2810    -3.9160    -1.5330 H     1 <1>   0.0800 
 36 H        3.5330    -4.8740    -0.2650 H     1 <1>   0.0800 
 37 H        5.2480    -2.4290     0.0170 H     1 <1>   0.0800 
 38 H        4.5030    -5.6550     1.7530 H     1 <1>   0.0800 
 39 H        6.1760    -6.0950     1.9380 H     1 <1>   0.0800 
 40 H        5.4230    -6.2150     0.3680 H     1 <1>   0.0800 
 41 H        6.8890    -1.7450     1.2740 H     1 <1>   0.0800 
 42 H        8.5080    -2.2660     1.5570 H     1 <1>   0.0800 
 43 H        7.2300    -2.4490    -1.1790 H     1 <1>   0.0800 
 44 H        8.8960    -2.7220    -0.7830 H     1 <1>   0.0800 
 45 H       10.3410    -0.8020    -0.0610 H     1 <1>   0.1500 
 46 H        6.3380    -0.1950    -1.4080 H     1 <1>   0.1500 
 47 H       10.7980     1.5890    -0.3580 H     1 <1>   0.1500 
 48 H        6.8020     2.1920    -1.7020 H     1 <1>   0.1500 
 49 H        9.0300     3.0910    -1.1780 H     1 <1>   0.1500 
@<TRIPOS>BOND
  1   1   2  2   
  2   2   3  am  
  3   2   4  1   
  4   3   5  1   
  5   3   6  1   
  6   4   7  1   
  7   4  24  1   
  8   4  25  1   
  9   5   8  1   
 10   5  26  1   
 11   5  27  1   
 12   6  28  1   
 13   6  29  1   
 14   6  30  1   
 15   7   8  1   
 16   7   9  1   
 17   7  31  1   
 18   8  10  1   
 19   8  32  1   
 20   9  11  1   
 21   9  33  1   
 22   9  34  1   
 23  10  11  1   
 24  10  35  1   
 25  10  36  1   
 26  11  12  1   
 27  11  37  1   
 28  12  13  am  
 29  12  14  1   
 30  13  15  2   
 31  13  16  1   
 32  14  38  1   
 33  14  39  1   
 34  14  40  1   
 35  16  17  1   
 36  16  41  1   
 37  16  42  1   
 38  17  18  1   
 39  17  43  1   
 40  17  44  1   
 41  18  19  ar  
 42  18  20  ar  
 43  19  21  ar  
 44  19  45  1   
 45  20  22  ar  
 46  20  46  1   
 47  21  23  ar  
 48  21  47  1   
 49  22  23  ar  
 50  22  48  1   
 51  23  49  1   
@<TRIPOS>SUBSTRUCTURE
  1 ****  11 GROUP 4 **** **** 0

# MOE 2024.06 (io_trps.svl 2023.06)
