@<TRIPOS>MOLECULE
NONAME
54 58 1 0 0 
SMALL
USER_CHARGES


@<TRIPOS>ATOM
  1 O        0.9410    -0.4770     0.1010 O.2   1 <1>  -0.5700 
  2 C       -0.0880     0.1500     0.2130 C.2   1 <1>   0.5690 
  3 N       -1.2550    -0.2760    -0.3800 N.am  1 <1>  -0.6600 
  4 C       -0.0330     1.4180     1.0590 C.3   1 <1>   0.0440 
  5 C       -2.5670     0.4250    -0.3030 C.3   1 <1>   0.1400 
  6 C       -1.2830    -1.4780    -1.2600 C.3   1 <1>   0.1400 
  7 C       -0.3470     2.7080     0.2920 C.ar  1 <1>  -0.1440 
  8 C       -3.6170    -0.5410     0.2470 C.3   1 <1>  -0.1600 
  9 C       -2.3200    -2.4680    -0.7280 C.3   1 <1>  -0.1600 
 10 C       -1.0930     3.7460     0.8500 C.ar  1 <1>  -0.1440 
 11 C        0.1360     2.8440    -1.0030 C.ar  1 <1>  -0.1500 
 12 C       -3.7020    -1.8210    -0.5950 C.3   1 <1>   0.4600 
 13 C       -1.3550     4.8810     0.0970 C.ar  1 <1>  -0.1500 
 14 C       -1.6330     3.6870     2.2730 C.3   1 <1>  -0.0960 
 15 C       -0.1280     3.9800    -1.7450 C.ar  1 <1>  -0.1500 
 16 O       -4.1110    -1.4880    -1.9040 O.3   1 <1>  -0.5600 
 17 C       -4.6940    -2.8100     0.0050 C.2   1 <1>  -0.3320 
 18 C       -0.8780     5.0000    -1.1950 C.ar  1 <1>  -0.1500 
 19 C       -5.4850    -1.2910    -2.1420 C.3   1 <1>   0.1200 
 20 N       -4.5610    -3.4760     1.1920 N.pl3 1 <1>   0.0330 
 21 C       -5.8580    -3.1630    -0.5750 C.2   1 <1>  -0.1810 
 22 C       -6.2820    -2.5840    -1.9010 C.3   1 <1>   0.0210 
 23 C       -5.6690    -4.2710     1.3590 C.ar  1 <1>  -0.1520 
 24 C       -6.5060    -4.0990     0.2590 C.ar  1 <1>   0.0000 
 25 C       -6.0170    -5.1440     2.3930 C.ar  1 <1>  -0.1500 
 26 C       -7.7090    -4.8070     0.1870 C.ar  1 <1>  -0.1500 
 27 C       -7.2050    -5.8340     2.3090 C.ar  1 <1>  -0.1500 
 28 C       -8.0510    -5.6660     1.2060 C.ar  1 <1>  -0.1500 
 29 H        0.9560     1.5080     1.4710 H     1 <1>   0.0800 
 30 H       -0.7050     1.2740     1.8800 H     1 <1>   0.0800 
 31 H       -2.8470     0.7520    -1.2910 H     1 <1>   0.0800 
 32 H       -2.5170     1.2920     0.3290 H     1 <1>   0.0800 
 33 H       -0.3180    -1.9520    -1.2970 H     1 <1>   0.0800 
 34 H       -1.5430    -1.1760    -2.2600 H     1 <1>   0.0800 
 35 H       -4.5760    -0.0610     0.2880 H     1 <1>   0.0800 
 36 H       -3.3480    -0.7970     1.2540 H     1 <1>   0.0800 
 37 H       -1.9880    -2.8250     0.2290 H     1 <1>   0.0800 
 38 H       -2.3900    -3.3150    -1.3860 H     1 <1>   0.0800 
 39 H        0.7270     2.0610    -1.4500 H     1 <1>   0.1500 
 40 H       -1.9330     5.6880     0.5130 H     1 <1>   0.1500 
 41 H       -0.8390     3.4590     2.9610 H     1 <1>   0.0800 
 42 H       -2.3970     2.9350     2.3480 H     1 <1>   0.0800 
 43 H       -2.0600     4.6310     2.5620 H     1 <1>   0.0800 
 44 H        0.2500     4.0670    -2.7490 H     1 <1>   0.1500 
 45 H       -1.0870     5.8860    -1.7690 H     1 <1>   0.1500 
 46 H       -5.5980    -0.9710    -3.1630 H     1 <1>   0.0800 
 47 H       -5.8370    -0.5090    -1.4940 H     1 <1>   0.0800 
 48 H       -3.7730    -3.4190     1.8440 H     1 <1>   0.2700 
 49 H       -6.0830    -3.2910    -2.6860 H     1 <1>   0.0800 
 50 H       -7.3340    -2.3650    -1.8910 H     1 <1>   0.0800 
 51 H       -5.3620    -5.2690     3.2360 H     1 <1>   0.1500 
 52 H       -8.3470    -4.6680    -0.6660 H     1 <1>   0.1500 
 53 H       -7.4960    -6.5120     3.0920 H     1 <1>   0.1500 
 54 H       -8.9730    -6.2170     1.1640 H     1 <1>   0.1500 
@<TRIPOS>BOND
  1   1   2  2   
  2   2   3  am  
  3   2   4  1   
  4   3   5  1   
  5   3   6  1   
  6   4   7  1   
  7   4  29  1   
  8   4  30  1   
  9   5   8  1   
 10   5  31  1   
 11   5  32  1   
 12   6   9  1   
 13   6  33  1   
 14   6  34  1   
 15   7  10  ar  
 16   7  11  ar  
 17   8  12  1   
 18   8  35  1   
 19   8  36  1   
 20   9  12  1   
 21   9  37  1   
 22   9  38  1   
 23  10  13  ar  
 24  10  14  1   
 25  11  15  ar  
 26  11  39  1   
 27  12  16  1   
 28  12  17  1   
 29  13  18  ar  
 30  13  40  1   
 31  14  41  1   
 32  14  42  1   
 33  14  43  1   
 34  15  18  ar  
 35  15  44  1   
 36  16  19  1   
 37  17  20  1   
 38  17  21  2   
 39  18  45  1   
 40  19  22  1   
 41  19  46  1   
 42  19  47  1   
 43  20  23  1   
 44  20  48  1   
 45  21  22  1   
 46  21  24  1   
 47  22  49  1   
 48  22  50  1   
 49  23  24  ar  
 50  23  25  ar  
 51  24  26  ar  
 52  25  27  ar  
 53  25  51  1   
 54  26  28  ar  
 55  26  52  1   
 56  27  28  ar  
 57  27  53  1   
 58  28  54  1   
@<TRIPOS>SUBSTRUCTURE
  1 ****   8 GROUP 4 **** **** 0

# MOE 2024.06 (io_trps.svl 2023.06)
