@<TRIPOS>MOLECULE
NONAME
49 51 1 0 0 
SMALL
USER_CHARGES


@<TRIPOS>ATOM
  1 O       -0.1920     1.4430     1.4590 O.2   1 <1>  -0.5700 
  2 C       -0.0710     2.4810     0.8500 C.2   1 <1>   0.5690 
  3 N       -1.1480     3.2830     0.5660 N.am  1 <1>  -0.6600 
  4 C        1.3210     2.8860     0.3850 C.3   1 <1>  -0.0990 
  5 C       -2.5320     2.8980     0.9860 C.3   1 <1>   0.1400 
  6 C       -1.1110     4.5460    -0.2210 C.3   1 <1>   0.1400 
  7 C        2.4280     1.8990     0.7830 C.3   1 <1>  -0.0160 
  8 C       -3.4450     2.6960    -0.2500 C.3   1 <1>   0.0000 
  9 C       -1.9770     4.3910    -1.4760 C.3   1 <1>  -0.1600 
 10 C        3.7740     2.3890     0.2740 C.ar  1 <1>  -0.1440 
 11 C       -4.8810     2.3350     0.1700 C.3   1 <1>   0.2000 
 12 C       -3.4150     3.9680    -1.1270 C.3   1 <1>  -0.1600 
 13 C       -3.0240     1.4370    -1.0270 C.3   1 <1>  -0.1600 
 14 C        4.2300     2.0070    -0.9780 C.ar  1 <1>  -0.1500 
 15 C        4.5540     3.2270     1.0550 C.ar  1 <1>  -0.1500 
 16 O       -5.2950     3.0850     1.2730 O.3   1 <1>  -0.5600 
 17 C       -4.8560     0.8360     0.4870 C.3   1 <1>  -0.1600 
 18 C       -3.6540     0.2610    -0.2750 C.3   1 <1>  -0.1600 
 19 C        5.4520     2.4590    -1.4460 C.ar  1 <1>  -0.1500 
 20 C        5.7760     3.6800     0.5890 C.ar  1 <1>  -0.1500 
 21 C       -6.6630     3.0410     1.5340 C.3   1 <1>   0.0400 
 22 C        6.2260     3.2960    -0.6620 C.ar  1 <1>  -0.1500 
 23 H        1.3080     2.9740    -0.6850 H     1 <1>   0.0800 
 24 H        1.5520     3.8480     0.8040 H     1 <1>   0.0800 
 25 H       -2.5140     2.0040     1.5840 H     1 <1>   0.0800 
 26 H       -2.9270     3.6860     1.6040 H     1 <1>   0.0800 
 27 H       -1.4990     5.3440     0.3900 H     1 <1>   0.0800 
 28 H       -0.1090     4.8060    -0.5060 H     1 <1>   0.0800 
 29 H        2.2130     0.9280     0.3720 H     1 <1>   0.0800 
 30 H        2.4570     1.7990     1.8540 H     1 <1>   0.0800 
 31 H       -2.0000     5.3260    -2.0070 H     1 <1>   0.0800 
 32 H       -1.5260     3.6600    -2.1230 H     1 <1>   0.0800 
 33 H       -5.5480     2.5240    -0.6550 H     1 <1>   0.0800 
 34 H       -3.9760     3.8110    -2.0310 H     1 <1>   0.0800 
 35 H       -3.8900     4.7680    -0.5850 H     1 <1>   0.0800 
 36 H       -3.4340     1.4710    -2.0220 H     1 <1>   0.0800 
 37 H       -1.9560     1.3290    -1.1020 H     1 <1>   0.0800 
 38 H        3.6350     1.3560    -1.5940 H     1 <1>   0.1500 
 39 H        4.2120     3.5300     2.0290 H     1 <1>   0.1500 
 40 H       -4.7160     0.6810     1.5440 H     1 <1>   0.0800 
 41 H       -5.7700     0.3680     0.1700 H     1 <1>   0.0800 
 42 H       -2.9410    -0.1410     0.4260 H     1 <1>   0.0800 
 43 H       -3.9490    -0.5200    -0.9550 H     1 <1>   0.0800 
 44 H        5.8000     2.1580    -2.4180 H     1 <1>   0.1500 
 45 H        6.3770     4.3300     1.2010 H     1 <1>   0.1500 
 46 H       -6.8600     3.6690     2.3840 H     1 <1>   0.0800 
 47 H       -6.9540     2.0290     1.7570 H     1 <1>   0.0800 
 48 H       -7.2000     3.4110     0.6780 H     1 <1>   0.0800 
 49 H        7.1760     3.6480    -1.0240 H     1 <1>   0.1500 
@<TRIPOS>BOND
  1   1   2  2   
  2   2   3  am  
  3   2   4  1   
  4   3   5  1   
  5   3   6  1   
  6   4   7  1   
  7   4  23  1   
  8   4  24  1   
  9   5   8  1   
 10   5  25  1   
 11   5  26  1   
 12   6   9  1   
 13   6  27  1   
 14   6  28  1   
 15   7  10  1   
 16   7  29  1   
 17   7  30  1   
 18   8  11  1   
 19   8  12  1   
 20   8  13  1   
 21   9  12  1   
 22   9  31  1   
 23   9  32  1   
 24  10  14  ar  
 25  10  15  ar  
 26  11  16  1   
 27  11  17  1   
 28  11  33  1   
 29  12  34  1   
 30  12  35  1   
 31  13  18  1   
 32  13  36  1   
 33  13  37  1   
 34  14  19  ar  
 35  14  38  1   
 36  15  20  ar  
 37  15  39  1   
 38  16  21  1   
 39  17  18  1   
 40  17  40  1   
 41  17  41  1   
 42  18  42  1   
 43  18  43  1   
 44  19  22  ar  
 45  19  44  1   
 46  20  22  ar  
 47  20  45  1   
 48  21  46  1   
 49  21  47  1   
 50  21  48  1   
 51  22  49  1   
@<TRIPOS>SUBSTRUCTURE
  1 ****   2 GROUP 4 **** **** 0

# MOE 2024.06 (io_trps.svl 2023.06)
