@<TRIPOS>MOLECULE
NONAME
54 56 1 0 0 
SMALL
USER_CHARGES


@<TRIPOS>ATOM
  1 S        1.2510     0.5480    -1.8020 S.o2  1 <1>   1.4470 
  2 O        1.8190     1.8430    -1.5220 O.2   1 <1>  -0.6500 
  3 O        1.2790    -0.0440    -3.1160 O.2   1 <1>  -0.6500 
  4 N       -0.3640     0.6850    -1.4180 N.am  1 <1>  -0.9780 
  5 C        1.8300    -0.6550    -0.5730 C.ar  1 <1>  -0.0090 
  6 C        1.9020    -2.0090    -0.8700 C.ar  1 <1>  -0.1500 
  7 C        2.1880    -0.2550     0.7070 C.ar  1 <1>  -0.1500 
  8 C        2.3100    -2.9630     0.0610 C.ar  1 <1>   0.0860 
  9 C        2.5990    -1.1770     1.6530 C.ar  1 <1>  -0.1500 
 10 C        2.6610    -2.5230     1.3410 C.ar  1 <1>  -0.1430 
 11 C        2.3410    -4.3630    -0.3180 C.2   1 <1>   0.5440 
 12 C        3.1220    -3.5170     2.4000 C.3   1 <1>  -0.0960 
 13 O        3.4090    -4.9220    -0.4700 O.2   1 <1>  -0.5700 
 14 N        1.1760    -5.0730    -0.5100 N.am  1 <1>  -0.6600 
 15 C       -0.1810    -4.5790    -0.1270 C.3   1 <1>   0.1400 
 16 C        1.1690    -6.4940    -0.9830 C.3   1 <1>   0.1400 
 17 C       -0.8900    -5.5860     0.7970 C.3   1 <1>   0.2950 
 18 C        0.3630    -7.3980    -0.0230 C.3   1 <1>   0.2000 
 19 O       -0.9050    -6.8510     0.2060 O.3   1 <1>  -0.5600 
 20 C       -2.3410    -5.1750     1.0590 C.3   1 <1>  -0.1950 
 21 C        0.1410    -8.8130    -0.5730 C.3   1 <1>  -0.1600 
 22 C       -2.6870    -4.2030     2.1440 C.3   1 <1>  -0.2000 
 23 C       -3.0730    -5.6500     2.2740 C.3   1 <1>  -0.2000 
 24 C        1.4470    -9.6060    -0.7400 C.3   1 <1>  -0.1600 
 25 C        1.1630   -11.0410    -1.1990 C.3   1 <1>  -0.1600 
 26 C        2.4620   -11.8330    -1.3680 C.3   1 <1>  -0.2400 
 27 H       -0.4260     1.0180    -0.4630 H     1 <1>   0.4200 
 28 H       -0.7830    -0.2330    -1.5120 H     1 <1>   0.4200 
 29 H        1.6410    -2.3470    -1.8600 H     1 <1>   0.1500 
 30 H        2.1550     0.7900     0.9680 H     1 <1>   0.1500 
 31 H        2.8770    -0.8340     2.6360 H     1 <1>   0.1500 
 32 H        3.3020    -3.0290     3.3410 H     1 <1>   0.0800 
 33 H        4.0360    -3.9890     2.0830 H     1 <1>   0.0800 
 34 H        2.3770    -4.2780     2.5480 H     1 <1>   0.0800 
 35 H       -0.1190    -3.6350     0.3810 H     1 <1>   0.0800 
 36 H       -0.7700    -4.4440    -1.0170 H     1 <1>   0.0800 
 37 H        0.7280    -6.5340    -1.9630 H     1 <1>   0.0800 
 38 H        2.1750    -6.8660    -1.0610 H     1 <1>   0.0800 
 39 H       -0.3610    -5.6580     1.7320 H     1 <1>   0.0800 
 40 H        0.8740    -7.4640     0.9230 H     1 <1>   0.0800 
 41 H       -2.9100    -5.1130     0.1460 H     1 <1>   0.1000 
 42 H       -0.4990    -9.3400     0.1130 H     1 <1>   0.0800 
 43 H       -0.3650    -8.7480    -1.5210 H     1 <1>   0.0800 
 44 H       -1.9160    -3.8280     2.7950 H     1 <1>   0.1000 
 45 H       -3.4670    -3.4820     1.9700 H     1 <1>   0.1000 
 46 H       -4.1070    -5.9280     2.1700 H     1 <1>   0.1000 
 47 H       -2.5500    -6.2730     2.9790 H     1 <1>   0.1000 
 48 H        2.0800    -9.1270    -1.4660 H     1 <1>   0.0800 
 49 H        1.9740    -9.6320     0.1990 H     1 <1>   0.0800 
 50 H        0.5380   -11.5370    -0.4750 H     1 <1>   0.0800 
 51 H        0.6350   -11.0230    -2.1380 H     1 <1>   0.0800 
 52 H        2.9970   -11.8820    -0.4360 H     1 <1>   0.0800 
 53 H        3.0930   -11.3680    -2.1060 H     1 <1>   0.0800 
 54 H        2.2430   -12.8360    -1.6890 H     1 <1>   0.0800 
@<TRIPOS>BOND
  1   1   2  2   
  2   1   3  2   
  3   1   4  am  
  4   1   5  1   
  5   4  27  1   
  6   4  28  1   
  7   5   6  ar  
  8   5   7  ar  
  9   6   8  ar  
 10   6  29  1   
 11   7   9  ar  
 12   7  30  1   
 13   8  10  ar  
 14   8  11  1   
 15   9  10  ar  
 16   9  31  1   
 17  10  12  1   
 18  11  13  2   
 19  11  14  am  
 20  12  32  1   
 21  12  33  1   
 22  12  34  1   
 23  14  15  1   
 24  14  16  1   
 25  15  17  1   
 26  15  35  1   
 27  15  36  1   
 28  16  18  1   
 29  16  37  1   
 30  16  38  1   
 31  17  19  1   
 32  17  20  1   
 33  17  39  1   
 34  18  19  1   
 35  18  21  1   
 36  18  40  1   
 37  20  22  1   
 38  20  23  1   
 39  20  41  1   
 40  21  24  1   
 41  21  42  1   
 42  21  43  1   
 43  22  23  1   
 44  22  44  1   
 45  22  45  1   
 46  23  46  1   
 47  23  47  1   
 48  24  25  1   
 49  24  48  1   
 50  24  49  1   
 51  25  26  1   
 52  25  50  1   
 53  25  51  1   
 54  26  52  1   
 55  26  53  1   
 56  26  54  1   
@<TRIPOS>SUBSTRUCTURE
  1 ****  14 GROUP 4 **** **** 0

# MOE 2024.06 (io_trps.svl 2023.06)
