@<TRIPOS>MOLECULE
NONAME
47 50 1 0 0 
SMALL
USER_CHARGES


@<TRIPOS>ATOM
  1 S        1.8540    -0.5240    -1.7090 S.3   1 <1>  -0.0800 
  2 C        1.5840     1.0030    -0.9300 C.2   1 <1>  -0.1400 
  3 C        0.8410    -1.2710    -0.4890 C.2   1 <1>   0.1980 
  4 C        0.7840     0.8260     0.1260 C.2   1 <1>   0.0460 
  5 C        2.1980     2.2910    -1.4320 C.3   1 <1>   0.0200 
  6 N        0.3630    -0.4690     0.3820 N.2   1 <1>  -0.5650 
  7 C        0.6310    -2.7740    -0.5800 C.3   1 <1>   0.5230 
  8 C        0.3530     1.9790     1.0130 C.3   1 <1>   0.0210 
  9 C        2.0390     3.3710    -0.3430 C.3   1 <1>  -0.1600 
 10 N       -0.4640    -3.1780     0.3590 N.4   1 <1>  -0.9590 
 11 C        0.6470     3.3320     0.3290 C.3   1 <1>  -0.1600 
 12 C       -1.8220    -2.7700    -0.1080 C.3   1 <1>   0.3430 
 13 C       -0.5110    -4.6280     0.7040 C.3   1 <1>   0.3430 
 14 C       -2.7820    -3.7500     0.5690 C.3   1 <1>   0.2000 
 15 C       -1.9890    -5.0540     0.6550 C.3   1 <1>  -0.0800 
 16 O       -3.0730    -3.3140     1.8560 O.3   1 <1>  -0.6800 
 17 C       -2.2760    -5.9610    -0.5570 C.3   1 <1>  -0.0170 
 18 C       -1.3050    -7.1300    -0.6120 C.ar  1 <1>  -0.1430 
 19 C       -0.4040    -7.2840    -1.6480 C.ar  1 <1>  -0.1500 
 20 C       -1.2700    -8.0950     0.3750 C.ar  1 <1>  -0.1500 
 21 C        0.4790    -8.3510    -1.6340 C.ar  1 <1>   0.1600 
 22 C       -0.3450    -9.1230     0.2950 C.ar  1 <1>   0.1600 
 23 N        0.5370    -9.2630    -0.6790 N.ar  1 <1>  -0.6200 
 24 H        3.2400     2.1470    -1.6560 H     1 <1>   0.0800 
 25 H        1.6910     2.5940    -2.3310 H     1 <1>   0.0800 
 26 H        1.5510    -3.2630    -0.3080 H     1 <1>   0.0800 
 27 H        0.3790    -3.0470    -1.5910 H     1 <1>   0.0800 
 28 H       -0.6990     1.9020     1.2230 H     1 <1>   0.0800 
 29 H        0.8880     1.9130     1.9440 H     1 <1>   0.0800 
 30 H        2.7890     3.2140     0.4130 H     1 <1>   0.0800 
 31 H        2.2100     4.3410    -0.7760 H     1 <1>   0.0800 
 32 H       -0.2840    -2.6090     1.2050 H     1 <1>   0.4500 
 33 H       -0.1020     3.5090    -0.4240 H     1 <1>   0.0800 
 34 H        0.5720     4.1220     1.0560 H     1 <1>   0.0800 
 35 H       -2.0510    -1.7480     0.1510 H     1 <1>   0.0800 
 36 H       -1.8930    -2.8910    -1.1760 H     1 <1>   0.0800 
 37 H        0.0710    -5.2080     0.0060 H     1 <1>   0.0800 
 38 H       -0.1130    -4.7860     1.6940 H     1 <1>   0.0800 
 39 H       -3.7150    -3.8430     0.0370 H     1 <1>   0.0800 
 40 H       -2.2450    -5.6010     1.5470 H     1 <1>   0.0800 
 41 H       -2.2990    -3.3130     2.4500 H     1 <1>   0.4000 
 42 H       -2.2090    -5.4000    -1.4730 H     1 <1>   0.0800 
 43 H       -3.2810    -6.3460    -0.4900 H     1 <1>   0.0800 
 44 H       -0.3770    -6.5970    -2.4740 H     1 <1>   0.1500 
 45 H       -1.9520    -8.0690     1.2060 H     1 <1>   0.1500 
 46 H        1.1740    -8.4630    -2.4490 H     1 <1>   0.1500 
 47 H       -0.3300    -9.8700     1.0720 H     1 <1>   0.1500 
@<TRIPOS>BOND
  1   1   2  1   
  2   1   3  1   
  3   2   4  2   
  4   2   5  1   
  5   3   6  2   
  6   3   7  1   
  7   4   6  1   
  8   4   8  1   
  9   5   9  1   
 10   5  24  1   
 11   5  25  1   
 12   7  10  1   
 13   7  26  1   
 14   7  27  1   
 15   8  11  1   
 16   8  28  1   
 17   8  29  1   
 18   9  11  1   
 19   9  30  1   
 20   9  31  1   
 21  10  12  1   
 22  10  13  1   
 23  10  32  1   
 24  11  33  1   
 25  11  34  1   
 26  12  14  1   
 27  12  35  1   
 28  12  36  1   
 29  13  15  1   
 30  13  37  1   
 31  13  38  1   
 32  14  15  1   
 33  14  16  1   
 34  14  39  1   
 35  15  17  1   
 36  15  40  1   
 37  16  41  1   
 38  17  18  1   
 39  17  42  1   
 40  17  43  1   
 41  18  19  ar  
 42  18  20  ar  
 43  19  21  ar  
 44  19  44  1   
 45  20  22  ar  
 46  20  45  1   
 47  21  23  ar  
 48  21  46  1   
 49  22  23  ar  
 50  22  47  1   
@<TRIPOS>SUBSTRUCTURE
  1 ****  10 GROUP 4 **** **** 0

# MOE 2024.06 (io_trps.svl 2023.06)
