@<TRIPOS>MOLECULE
NONAME
50 51 1 0 0 
SMALL
USER_CHARGES


@<TRIPOS>ATOM
  1 O       -1.2040    -0.0860    -1.9460 O.3   1 <1>  -0.3630 
  2 C       -2.0530    -0.7240    -1.1050 C.ar  1 <1>   0.0830 
  3 C        0.0450     0.3980    -1.5090 C.3   1 <1>   0.1200 
  4 C       -1.7600    -1.0170     0.2230 C.ar  1 <1>  -0.1500 
  5 C       -3.2810    -1.0950    -1.6270 C.ar  1 <1>  -0.1500 
  6 C        0.7230     1.0860    -2.6910 C.3   1 <1>  -0.2400 
  7 C       -2.6880    -1.6780     1.0080 C.ar  1 <1>  -0.1500 
  8 C       -4.2090    -1.7540    -0.8440 C.ar  1 <1>  -0.1500 
  9 C       -3.9140    -2.0580     0.4790 C.ar  1 <1>  -0.1430 
 10 C       -4.9210    -2.8060     1.3290 C.3   1 <1>   0.4860 
 11 N       -4.9350    -4.2250     0.8890 N.4   1 <1>  -0.9590 
 12 C       -6.1530    -4.9490     1.3550 C.3   1 <1>   0.4810 
 13 C       -3.6700    -4.9350     1.2150 C.3   1 <1>   0.3430 
 14 C       -6.2480    -6.2910     0.6340 C.2   1 <1>  -0.0380 
 15 C       -3.0060    -5.3510    -0.0900 C.3   1 <1>  -0.2400 
 16 N       -5.8370    -7.4110     1.3320 N.pl3 1 <1>  -0.6000 
 17 C       -6.6980    -6.4180    -0.6520 C.2   1 <1>  -0.1240 
 18 C       -5.8530    -8.6580     0.7550 C.2   1 <1>  -0.0500 
 19 C       -6.7160    -7.7040    -1.2810 C.2   1 <1>   0.5410 
 20 C       -7.1950    -5.2440    -1.5020 C.3   1 <1>  -0.1020 
 21 C       -6.2770    -8.8290    -0.5230 C.2   1 <1>  -0.1240 
 22 O       -7.0860    -7.8290    -2.4470 O.2   1 <1>  -0.5700 
 23 C       -6.2980   -10.2090    -1.1700 C.3   1 <1>  -0.1020 
 24 H        0.6340    -0.4350    -1.1670 H     1 <1>   0.0800 
 25 H       -0.1200     1.0970    -0.7070 H     1 <1>   0.0800 
 26 H       -0.8190    -0.7350     0.6560 H     1 <1>   0.1500 
 27 H       -3.4980    -0.8560    -2.6540 H     1 <1>   0.1500 
 28 H        0.8680     0.3840    -3.4930 H     1 <1>   0.0800 
 29 H        1.6820     1.4670    -2.3900 H     1 <1>   0.0800 
 30 H        0.1200     1.9060    -3.0360 H     1 <1>   0.0800 
 31 H       -2.4380    -1.8890     2.0340 H     1 <1>   0.1500 
 32 H       -5.1560    -2.0190    -1.2820 H     1 <1>   0.1500 
 33 H       -5.8930    -2.3610     1.1900 H     1 <1>   0.0800 
 34 H       -4.6560    -2.7350     2.3710 H     1 <1>   0.0800 
 35 H       -4.9720    -4.2110    -0.1380 H     1 <1>   0.4500 
 36 H       -7.0340    -4.3700     1.1300 H     1 <1>   0.0800 
 37 H       -6.1170    -5.1050     2.4200 H     1 <1>   0.0800 
 38 H       -3.8690    -5.8110     1.8110 H     1 <1>   0.0800 
 39 H       -3.0050    -4.2900     1.7660 H     1 <1>   0.0800 
 40 H       -3.6340    -6.0230    -0.6470 H     1 <1>   0.0800 
 41 H       -2.0870    -5.8660     0.1290 H     1 <1>   0.0800 
 42 H       -2.7650    -4.4920    -0.6920 H     1 <1>   0.0800 
 43 H       -5.5630    -7.3650     2.3240 H     1 <1>   0.4000 
 44 H       -5.5220    -9.4910     1.3570 H     1 <1>   0.1500 
 45 H       -8.1930    -5.4520    -1.8470 H     1 <1>   0.0800 
 46 H       -6.5670    -5.1350    -2.3710 H     1 <1>   0.0800 
 47 H       -7.2180    -4.3090    -0.9780 H     1 <1>   0.0800 
 48 H       -5.6710   -10.2130    -2.0440 H     1 <1>   0.0800 
 49 H       -7.3010   -10.4570    -1.4700 H     1 <1>   0.0800 
 50 H       -5.9460   -10.9650    -0.4910 H     1 <1>   0.0800 
@<TRIPOS>BOND
  1   1   2  1   
  2   1   3  1   
  3   2   4  ar  
  4   2   5  ar  
  5   3   6  1   
  6   3  24  1   
  7   3  25  1   
  8   4   7  ar  
  9   4  26  1   
 10   5   8  ar  
 11   5  27  1   
 12   6  28  1   
 13   6  29  1   
 14   6  30  1   
 15   7   9  ar  
 16   7  31  1   
 17   8   9  ar  
 18   8  32  1   
 19   9  10  1   
 20  10  11  1   
 21  10  33  1   
 22  10  34  1   
 23  11  12  1   
 24  11  13  1   
 25  11  35  1   
 26  12  14  1   
 27  12  36  1   
 28  12  37  1   
 29  13  15  1   
 30  13  38  1   
 31  13  39  1   
 32  14  16  1   
 33  14  17  2   
 34  15  40  1   
 35  15  41  1   
 36  15  42  1   
 37  16  18  1   
 38  16  43  1   
 39  17  19  1   
 40  17  20  1   
 41  18  21  2   
 42  18  44  1   
 43  19  21  1   
 44  19  22  2   
 45  20  45  1   
 46  20  46  1   
 47  20  47  1   
 48  21  23  1   
 49  23  48  1   
 50  23  49  1   
 51  23  50  1   
@<TRIPOS>SUBSTRUCTURE
  1 ****  11 GROUP 4 **** **** 0

# MOE 2024.06 (io_trps.svl 2023.06)
