@<TRIPOS>MOLECULE
NONAME
61 63 1 0 0 
SMALL
USER_CHARGES


@<TRIPOS>ATOM
  1 O       -3.7060     2.7090    -0.3820 O.2   1 <1>  -0.5700 
  2 C       -3.1390     1.7730     0.1340 C.2   1 <1>   0.5690 
  3 N       -3.0090     0.5860    -0.5420 N.am  1 <1>  -0.6600 
  4 C       -2.6410     1.9790     1.5520 C.3   1 <1>   0.1570 
  5 C       -2.2800    -0.6170    -0.0140 C.3   1 <1>   0.3640 
  6 C       -3.6830     0.3980    -1.8650 C.3   1 <1>   0.1400 
  7 N       -1.1740     1.9580     1.6140 N.pl3 1 <1>   0.3140 
  8 C       -0.8360    -0.7040    -0.5390 C.ar  1 <1>  -0.1440 
  9 C       -3.0950    -1.9130    -0.3080 C.3   1 <1>   0.2000 
 10 C       -3.3630    -0.9630    -2.5090 C.3   1 <1>   0.1200 
 11 N       -0.5420     0.9790     2.2850 N.2   1 <1>  -0.7070 
 12 C       -0.2930     2.8380     1.0810 C.2   1 <1>  -0.3320 
 13 C        0.0120    -1.6450     0.0270 C.ar  1 <1>  -0.1500 
 14 C       -0.3180     0.1290    -1.5220 C.ar  1 <1>  -0.1500 
 15 O       -3.6040    -2.0200    -1.6230 O.3   1 <1>  -0.5600 
 16 C       -4.3080    -2.0380     0.6270 C.3   1 <1>   0.1200 
 17 C        0.7180     1.2320     2.1380 C.2   1 <1>   0.1080 
 18 C        0.9420     2.3970     1.4080 C.2   1 <1>  -0.1810 
 19 C       -0.6950     4.0630     0.2710 C.3   1 <1>  -0.0600 
 20 C        1.3310    -1.7880    -0.3720 C.ar  1 <1>   0.0830 
 21 C        0.9910    -0.0030    -1.9480 C.ar  1 <1>  -0.1500 
 22 O       -3.9110    -2.1030     1.9610 O.3   1 <1>  -0.6800 
 23 C        1.7840     0.3250     2.7090 C.3   1 <1>  -0.0590 
 24 C        2.2930     3.0070     1.0770 C.3   1 <1>   0.0210 
 25 O        2.0180    -2.7550     0.3040 O.3   1 <1>  -0.3630 
 26 C        1.8340    -0.9630    -1.3930 C.ar  1 <1>   0.0830 
 27 C        2.8380     2.4420    -0.2340 C.3   1 <1>  -0.2400 
 28 C        3.4250    -2.7850     0.3650 C.3   1 <1>   0.0400 
 29 O        3.1200    -1.1060    -1.8290 O.3   1 <1>  -0.3630 
 30 C        3.6210    -0.3990    -2.9420 C.3   1 <1>   0.0400 
 31 H       -3.0300     1.2090     2.1880 H     1 <1>   0.0800 
 32 H       -2.9800     2.9280     1.9170 H     1 <1>   0.0800 
 33 H       -2.1990    -0.5400     1.0530 H     1 <1>   0.0800 
 34 H       -4.7470     0.4790    -1.7290 H     1 <1>   0.0800 
 35 H       -3.3790     1.1870    -2.5310 H     1 <1>   0.0800 
 36 H       -2.4660    -2.7720    -0.1570 H     1 <1>   0.0800 
 37 H       -2.3360    -1.0120    -2.8230 H     1 <1>   0.0800 
 38 H       -3.9830    -1.1160    -3.3740 H     1 <1>   0.0800 
 39 H       -0.3420    -2.2830     0.8150 H     1 <1>   0.1500 
 40 H       -0.9210     0.9000    -1.9640 H     1 <1>   0.1500 
 41 H       -4.8660    -2.9300     0.4010 H     1 <1>   0.0800 
 42 H       -4.9460    -1.1790     0.5180 H     1 <1>   0.0800 
 43 H        0.1670     4.6480     0.0100 H     1 <1>   0.0800 
 44 H       -1.3670     4.6820     0.8390 H     1 <1>   0.0800 
 45 H       -1.1830     3.7620    -0.6380 H     1 <1>   0.0800 
 46 H        1.3320     0.6650    -2.7130 H     1 <1>   0.1500 
 47 H       -3.4900    -2.9630     2.1620 H     1 <1>   0.4000 
 48 H        2.2480     0.7970     3.5540 H     1 <1>   0.0800 
 49 H        2.5230     0.1140     1.9600 H     1 <1>   0.0800 
 50 H        1.3410    -0.6030     3.0220 H     1 <1>   0.0800 
 51 H        2.1950     4.0740     0.9960 H     1 <1>   0.0800 
 52 H        2.9840     2.8060     1.8760 H     1 <1>   0.0800 
 53 H        2.1440     2.6390    -1.0310 H     1 <1>   0.0800 
 54 H        2.9720     1.3790    -0.1490 H     1 <1>   0.0800 
 55 H        3.7830     2.8950    -0.4710 H     1 <1>   0.0800 
 56 H        3.7130    -3.4690     1.1420 H     1 <1>   0.0800 
 57 H        3.7870    -1.7970     0.5900 H     1 <1>   0.0800 
 58 H        3.8050    -3.1270    -0.5810 H     1 <1>   0.0800 
 59 H        4.6270    -0.7310    -3.1240 H     1 <1>   0.0800 
 60 H        3.6190     0.6530    -2.7180 H     1 <1>   0.0800 
 61 H        3.0060    -0.6140    -3.7980 H     1 <1>   0.0800 
@<TRIPOS>BOND
  1   1   2  2   
  2   2   3  am  
  3   2   4  1   
  4   3   5  1   
  5   3   6  1   
  6   4   7  1   
  7   4  31  1   
  8   4  32  1   
  9   5   8  1   
 10   5   9  1   
 11   5  33  1   
 12   6  10  1   
 13   6  34  1   
 14   6  35  1   
 15   7  11  1   
 16   7  12  1   
 17   8  13  ar  
 18   8  14  ar  
 19   9  15  1   
 20   9  16  1   
 21   9  36  1   
 22  10  15  1   
 23  10  37  1   
 24  10  38  1   
 25  11  17  2   
 26  12  18  2   
 27  12  19  1   
 28  13  20  ar  
 29  13  39  1   
 30  14  21  ar  
 31  14  40  1   
 32  16  22  1   
 33  16  41  1   
 34  16  42  1   
 35  17  18  1   
 36  17  23  1   
 37  18  24  1   
 38  19  43  1   
 39  19  44  1   
 40  19  45  1   
 41  20  25  1   
 42  20  26  ar  
 43  21  26  ar  
 44  21  46  1   
 45  22  47  1   
 46  23  48  1   
 47  23  49  1   
 48  23  50  1   
 49  24  27  1   
 50  24  51  1   
 51  24  52  1   
 52  25  28  1   
 53  26  29  1   
 54  27  53  1   
 55  27  54  1   
 56  27  55  1   
 57  28  56  1   
 58  28  57  1   
 59  28  58  1   
 60  29  30  1   
 61  30  59  1   
 62  30  60  1   
 63  30  61  1   
@<TRIPOS>SUBSTRUCTURE
  1 ****   8 GROUP 4 **** **** 0

# MOE 2024.06 (io_trps.svl 2023.06)
