@<TRIPOS>MOLECULE
NONAME
53 55 1 0 0 
SMALL
USER_CHARGES


@<TRIPOS>ATOM
  1 CL       0.8550     0.1140     2.9850 Cl    1 <1>  -0.1770 
  2 C        1.9270     0.6450     1.7090 C.ar  1 <1>   0.1770 
  3 C        2.5200    -0.2720     0.8530 C.ar  1 <1>  -0.1440 
  4 C        2.1540     2.0050     1.5890 C.ar  1 <1>  -0.1500 
  5 C        3.3600     0.2400    -0.1260 C.ar  1 <1>   0.1900 
  6 C        2.2780    -1.7710     0.9740 C.3   1 <1>   0.2540 
  7 C        2.9930     2.4830     0.5960 C.ar  1 <1>  -0.1500 
  8 F        3.9550    -0.5900    -0.9450 F     1 <1>  -0.1900 
  9 C        3.6090     1.5990    -0.2770 C.ar  1 <1>  -0.1440 
 10 N        1.3170    -2.2400    -0.0470 N.3   1 <1>  -0.8100 
 11 C        4.5350     2.1140    -1.3700 C.3   1 <1>  -0.0970 
 12 C        1.2100    -3.7230    -0.0680 C.3   1 <1>   0.3330 
 13 C       -0.0210    -1.6420     0.1450 C.3   1 <1>   0.1100 
 14 C        2.5700    -4.3550    -0.3730 C.ar  1 <1>  -0.1430 
 15 C        0.1420    -4.1920    -1.0960 C.3   1 <1>   0.2000 
 16 C       -1.0320    -2.1810    -0.8800 C.3   1 <1>   0.1200 
 17 C        3.0570    -5.3760     0.4320 C.ar  1 <1>  -0.1500 
 18 C        3.3240    -3.9310    -1.4580 C.ar  1 <1>  -0.1500 
 19 O       -1.0890    -3.5760    -0.8190 O.3   1 <1>  -0.5600 
 20 C       -0.1000    -5.7110    -1.0840 C.3   1 <1>   0.1200 
 21 C        4.2730    -5.9760     0.1540 C.ar  1 <1>   0.0830 
 22 C        4.5500    -4.5110    -1.7320 C.ar  1 <1>  -0.1500 
 23 O        0.9400    -6.3980    -1.7060 O.3   1 <1>  -0.6800 
 24 O        4.6580    -6.9980     0.9550 O.3   1 <1>  -0.3630 
 25 C        5.0400    -5.5220    -0.9250 C.ar  1 <1>   0.0830 
 26 C        4.7390    -8.2700     0.3480 C.3   1 <1>   0.0400 
 27 O        6.2620    -6.0270    -1.2230 O.3   1 <1>  -0.3630 
 28 C        7.2840    -5.7780    -0.2830 C.3   1 <1>   0.0400 
 29 H        1.6750     2.6850     2.2710 H     1 <1>   0.1500 
 30 H        1.9220    -2.0280     1.9560 H     1 <1>   0.0800 
 31 H        3.2250    -2.2640     0.8420 H     1 <1>   0.0800 
 32 H        3.1630     3.5430     0.5090 H     1 <1>   0.1500 
 33 H        4.5950     3.1870    -1.3550 H     1 <1>   0.0800 
 34 H        4.1700     1.8060    -2.3340 H     1 <1>   0.0800 
 35 H        5.5230     1.7130    -1.2310 H     1 <1>   0.0800 
 36 H        0.8890    -4.0550     0.9040 H     1 <1>   0.0800 
 37 H       -0.3840    -1.8520     1.1370 H     1 <1>   0.0800 
 38 H        0.0390    -0.5740     0.0280 H     1 <1>   0.0800 
 39 H        0.4340    -3.8990    -2.0900 H     1 <1>   0.0800 
 40 H       -0.7530    -1.8860    -1.8770 H     1 <1>   0.0800 
 41 H       -2.0160    -1.8010    -0.6680 H     1 <1>   0.0800 
 42 H        2.4950    -5.7270     1.2790 H     1 <1>   0.1500 
 43 H        2.9580    -3.1340    -2.0860 H     1 <1>   0.1500 
 44 H       -1.0010    -5.9420    -1.6250 H     1 <1>   0.0800 
 45 H       -0.1880    -6.0740    -0.0750 H     1 <1>   0.0800 
 46 H        5.1350    -4.1740    -2.5690 H     1 <1>   0.1500 
 47 H        1.8110    -6.0900    -1.3720 H     1 <1>   0.4000 
 48 H        4.9390    -8.9960     1.1140 H     1 <1>   0.0800 
 49 H        5.5350    -8.2710    -0.3740 H     1 <1>   0.0800 
 50 H        3.8000    -8.4870    -0.1310 H     1 <1>   0.0800 
 51 H        8.2100    -6.1390    -0.6900 H     1 <1>   0.0800 
 52 H        7.0590    -6.2930     0.6330 H     1 <1>   0.0800 
 53 H        7.3440    -4.7180    -0.1100 H     1 <1>   0.0800 
@<TRIPOS>BOND
  1   1   2  1   
  2   2   3  ar  
  3   2   4  ar  
  4   3   5  ar  
  5   3   6  1   
  6   4   7  ar  
  7   4  29  1   
  8   5   8  1   
  9   5   9  ar  
 10   6  10  1   
 11   6  30  1   
 12   6  31  1   
 13   7   9  ar  
 14   7  32  1   
 15   9  11  1   
 16  10  12  1   
 17  10  13  1   
 18  11  33  1   
 19  11  34  1   
 20  11  35  1   
 21  12  14  1   
 22  12  15  1   
 23  12  36  1   
 24  13  16  1   
 25  13  37  1   
 26  13  38  1   
 27  14  17  ar  
 28  14  18  ar  
 29  15  19  1   
 30  15  20  1   
 31  15  39  1   
 32  16  19  1   
 33  16  40  1   
 34  16  41  1   
 35  17  21  ar  
 36  17  42  1   
 37  18  22  ar  
 38  18  43  1   
 39  20  23  1   
 40  20  44  1   
 41  20  45  1   
 42  21  24  1   
 43  21  25  ar  
 44  22  25  ar  
 45  22  46  1   
 46  23  47  1   
 47  24  26  1   
 48  25  27  1   
 49  26  48  1   
 50  26  49  1   
 51  26  50  1   
 52  27  28  1   
 53  28  51  1   
 54  28  52  1   
 55  28  53  1   
@<TRIPOS>SUBSTRUCTURE
  1 ****  10 GROUP 4 **** **** 0

# MOE 2024.06 (io_trps.svl 2023.06)
