@<TRIPOS>MOLECULE
NONAME
50 53 1 0 0 
SMALL
USER_CHARGES


@<TRIPOS>ATOM
  1 O       -0.2350     1.1980     2.2150 O.2   1 <1>  -0.5700 
  2 C        0.2830     0.1680     1.8560 C.2   1 <1>   0.5690 
  3 N        1.6230     0.0730     1.6840 N.am  1 <1>  -0.7300 
  4 C       -0.5990    -1.0430     1.5760 C.3   1 <1>   0.1810 
  5 C        2.5910     1.1670     1.8090 C.3   1 <1>   0.4000 
  6 O        0.0650    -1.9670     0.7240 O.3   1 <1>  -0.3630 
  7 C        3.1240     1.4860     0.4160 C.2   1 <1>   0.0060 
  8 C        3.6850     0.7170     2.7740 C.3   1 <1>  -0.2400 
  9 C       -0.5450    -3.0970     0.2950 C.ar  1 <1>   0.0830 
 10 N        4.1500     0.9200    -0.1320 N.2   1 <1>  -0.3380 
 11 N        2.5650     2.3870    -0.4060 N.pl3 1 <1>   0.0480 
 12 C        0.1800    -3.8990    -0.5700 C.ar  1 <1>  -0.1500 
 13 C       -1.8300    -3.4760     0.6730 C.ar  1 <1>  -0.1500 
 14 N        4.2950     1.4520    -1.3430 N.2   1 <1>  -0.3380 
 15 C        3.3530     2.3170    -1.4830 C.2   1 <1>   0.0370 
 16 C        1.3700     3.2460    -0.1630 C.3   1 <1>   0.1760 
 17 C       -0.3550    -5.0800    -1.0750 C.ar  1 <1>  -0.0230 
 18 C       -2.3710    -4.6500     0.1820 C.ar  1 <1>  -0.1500 
 19 C        0.6400     3.6140    -1.4600 C.3   1 <1>  -0.1600 
 20 C        1.7970     4.5980     0.4060 C.3   1 <1>  -0.1600 
 21 N        0.3920    -5.8990    -1.9730 N.pl3 1 <1>   0.5930 
 22 C       -1.6410    -5.4450    -0.6830 C.ar  1 <1>  -0.1500 
 23 C        1.2380     4.9430    -1.9450 C.3   1 <1>  -0.1600 
 24 C        2.1330     5.4580    -0.8120 C.3   1 <1>  -0.1600 
 25 N        0.2800    -7.2160    -2.0730 N.2   1 <1>  -0.4180 
 26 C        1.3020    -5.5420    -2.8690 C.2   1 <1>   0.0360 
 27 N        1.0970    -7.5970    -2.9870 N.2   1 <1>   0.0000 
 28 N        1.7470    -6.5600    -3.4980 N.2   1 <1>  -0.3380 
 29 H        2.0060    -0.7710     1.2520 H     1 <1>   0.3700 
 30 H       -1.5010    -0.7190     1.0910 H     1 <1>   0.0800 
 31 H       -0.8320    -1.5360     2.5010 H     1 <1>   0.0800 
 32 H        2.1100     2.0370     2.2220 H     1 <1>   0.0800 
 33 H        4.1690    -0.1730     2.4120 H     1 <1>   0.0800 
 34 H        3.2670     0.5290     3.7460 H     1 <1>   0.0800 
 35 H        4.4250     1.4910     2.8620 H     1 <1>   0.0800 
 36 H        1.1730    -3.5840    -0.8370 H     1 <1>   0.1500 
 37 H       -2.4210    -2.8800     1.3430 H     1 <1>   0.1500 
 38 H        3.2070     2.9180    -2.3610 H     1 <1>   0.1500 
 39 H        0.7030     2.7370     0.5060 H     1 <1>   0.0800 
 40 H       -3.3640    -4.9480     0.4740 H     1 <1>   0.1500 
 41 H       -0.3990     3.7760    -1.2260 H     1 <1>   0.0800 
 42 H        0.6960     2.8360    -2.2020 H     1 <1>   0.0800 
 43 H        2.6200     4.5190     1.0950 H     1 <1>   0.0800 
 44 H        0.9580     5.0360     0.9200 H     1 <1>   0.0800 
 45 H       -2.0780    -6.3580    -1.0550 H     1 <1>   0.1500 
 46 H        0.4500     5.6470    -2.1510 H     1 <1>   0.0800 
 47 H        1.8150     4.8040    -2.8430 H     1 <1>   0.0800 
 48 H        3.1680     5.3140    -1.0770 H     1 <1>   0.0800 
 49 H        1.9700     6.5040    -0.6160 H     1 <1>   0.0800 
 50 H        1.6050    -4.5260    -3.0280 H     1 <1>   0.1500 
@<TRIPOS>BOND
  1   1   2  2   
  2   2   3  am  
  3   2   4  1   
  4   3   5  1   
  5   3  29  1   
  6   4   6  1   
  7   4  30  1   
  8   4  31  1   
  9   5   7  1   
 10   5   8  1   
 11   5  32  1   
 12   6   9  1   
 13   7  10  2   
 14   7  11  1   
 15   8  33  1   
 16   8  34  1   
 17   8  35  1   
 18   9  12  ar  
 19   9  13  ar  
 20  10  14  1   
 21  11  15  1   
 22  11  16  1   
 23  12  17  ar  
 24  12  36  1   
 25  13  18  ar  
 26  13  37  1   
 27  14  15  2   
 28  15  38  1   
 29  16  19  1   
 30  16  20  1   
 31  16  39  1   
 32  17  21  1   
 33  17  22  ar  
 34  18  22  ar  
 35  18  40  1   
 36  19  23  1   
 37  19  41  1   
 38  19  42  1   
 39  20  24  1   
 40  20  43  1   
 41  20  44  1   
 42  21  25  1   
 43  21  26  1   
 44  22  45  1   
 45  23  24  1   
 46  23  46  1   
 47  23  47  1   
 48  24  48  1   
 49  24  49  1   
 50  25  27  2   
 51  26  28  2   
 52  26  50  1   
 53  27  28  1   
@<TRIPOS>SUBSTRUCTURE
  1 ****   6 GROUP 4 **** **** 0

# MOE 2024.06 (io_trps.svl 2023.06)
