@<TRIPOS>MOLECULE
NONAME
51 53 1 0 0 
SMALL
USER_CHARGES


@<TRIPOS>ATOM
  1 F       -0.0580    -0.5940     0.5440 F     1 <1>  -0.1900 
  2 C       -0.2380    -1.8870     0.4860 C.ar  1 <1>   0.1900 
  3 C        0.7680    -2.7210     0.9360 C.ar  1 <1>  -0.1500 
  4 C       -1.4270    -2.3720    -0.0240 C.ar  1 <1>  -0.1500 
  5 C        0.5700    -4.0890     0.8710 C.ar  1 <1>  -0.1500 
  6 C       -1.6180    -3.7430    -0.0850 C.ar  1 <1>  -0.1500 
  7 C       -0.6160    -4.6060     0.3640 C.ar  1 <1>   0.0820 
  8 O       -0.7210    -5.9590     0.3390 O.3   1 <1>  -0.3630 
  9 C       -1.8780    -6.5980    -0.1450 C.3   1 <1>   0.1200 
 10 C       -1.6470    -8.1090    -0.0300 C.3   1 <1>   0.3430 
 11 N       -2.7590    -8.9180    -0.6250 N.4   1 <1>  -0.9590 
 12 C       -2.3400   -10.3850    -0.6990 C.3   1 <1>   0.3430 
 13 C       -4.0480    -8.7320     0.1400 C.3   1 <1>   0.3430 
 14 C       -3.2370   -11.2950     0.2080 C.3   1 <1>  -0.1060 
 15 C       -5.1190    -9.6640    -0.4160 C.3   1 <1>  -0.1600 
 16 C       -4.1260   -12.1150     1.1360 C.2   1 <1>   0.9060 
 17 C       -4.4660   -10.9930    -0.7880 C.3   1 <1>   0.2000 
 18 C       -1.9770   -11.6230     1.1400 C.3   1 <1>  -0.0170 
 19 O       -4.3550   -13.3090     0.9070 O.co2 1 <1>  -0.9000 
 20 O       -4.6130   -11.5060     2.0940 O.co2 1 <1>  -0.9000 
 21 O       -5.4690   -11.9360    -0.9720 O.3   1 <1>  -0.6800 
 22 C       -0.8670   -12.3930     0.4170 C.ar  1 <1>  -0.1430 
 23 C        0.4480   -11.9540     0.4660 C.ar  1 <1>  -0.1500 
 24 C       -1.1730   -13.5390    -0.3010 C.ar  1 <1>  -0.1500 
 25 C        1.4400   -12.6380    -0.2150 C.ar  1 <1>  -0.1500 
 26 C       -0.1830   -14.2240    -0.9820 C.ar  1 <1>  -0.1500 
 27 C        1.1240   -13.7720    -0.9430 C.ar  1 <1>  -0.1500 
 28 H        1.6800    -2.3040     1.3250 H     1 <1>   0.1500 
 29 H       -2.1820    -1.6850    -0.3620 H     1 <1>   0.1500 
 30 H        1.3370    -4.7600     1.2140 H     1 <1>   0.1500 
 31 H       -2.5450    -4.1080    -0.4830 H     1 <1>   0.1500 
 32 H       -2.7090    -6.2840     0.4620 H     1 <1>   0.0800 
 33 H       -2.0130    -6.3080    -1.1710 H     1 <1>   0.0800 
 34 H       -1.5340    -8.3670     1.0100 H     1 <1>   0.0800 
 35 H       -0.7270    -8.3460    -0.5390 H     1 <1>   0.0800 
 36 H       -2.9210    -8.6070    -1.5920 H     1 <1>   0.4500 
 37 H       -2.3750   -10.7330    -1.7190 H     1 <1>   0.0800 
 38 H       -1.2940   -10.4200    -0.4560 H     1 <1>   0.0800 
 39 H       -3.8870    -8.9920     1.1760 H     1 <1>   0.0800 
 40 H       -4.3880    -7.7110     0.0950 H     1 <1>   0.0800 
 41 H       -5.5940    -9.2300    -1.2770 H     1 <1>   0.0800 
 42 H       -5.8630    -9.8200     0.3470 H     1 <1>   0.0800 
 43 H       -4.1450   -10.8830    -1.8130 H     1 <1>   0.0800 
 44 H       -1.5850   -10.7090     1.5540 H     1 <1>   0.0800 
 45 H       -2.1510   -12.2170     2.0310 H     1 <1>   0.0800 
 46 H       -5.3330   -12.6750    -0.3030 H     1 <1>   0.4000 
 47 H        0.7140   -11.0830     1.0390 H     1 <1>   0.1500 
 48 H       -2.1870   -13.9100    -0.3260 H     1 <1>   0.1500 
 49 H        2.4590   -12.2950    -0.1750 H     1 <1>   0.1500 
 50 H       -0.4330   -15.1120    -1.5360 H     1 <1>   0.1500 
 51 H        1.8940   -14.3070    -1.4720 H     1 <1>   0.1500 
@<TRIPOS>BOND
  1   1   2  1   
  2   2   3  ar  
  3   2   4  ar  
  4   3   5  ar  
  5   3  28  1   
  6   4   6  ar  
  7   4  29  1   
  8   5   7  ar  
  9   5  30  1   
 10   6   7  ar  
 11   6  31  1   
 12   7   8  1   
 13   8   9  1   
 14   9  10  1   
 15   9  32  1   
 16   9  33  1   
 17  10  11  1   
 18  10  34  1   
 19  10  35  1   
 20  11  12  1   
 21  11  13  1   
 22  11  36  1   
 23  12  14  1   
 24  12  37  1   
 25  12  38  1   
 26  13  15  1   
 27  13  39  1   
 28  13  40  1   
 29  14  16  1   
 30  14  17  1   
 31  14  18  1   
 32  15  17  1   
 33  15  41  1   
 34  15  42  1   
 35  16  19  ar  
 36  16  20  ar  
 37  17  21  1   
 38  17  43  1   
 39  18  22  1   
 40  18  44  1   
 41  18  45  1   
 42  21  46  1   
 43  22  23  ar  
 44  22  24  ar  
 45  23  25  ar  
 46  23  47  1   
 47  24  26  ar  
 48  24  48  1   
 49  25  27  ar  
 50  25  49  1   
 51  26  27  ar  
 52  26  50  1   
 53  27  51  1   
@<TRIPOS>SUBSTRUCTURE
  1 ****  10 GROUP 4 **** **** 0

# MOE 2024.06 (io_trps.svl 2023.06)
