@<TRIPOS>MOLECULE
NONAME
52 54 1 0 0 
SMALL
USER_CHARGES


@<TRIPOS>ATOM
  1 O       -2.6680     2.8810    -2.1980 O.2   1 <1>  -0.5700 
  2 C       -2.4450     2.8410    -1.0020 C.2   1 <1>   0.5440 
  3 N       -3.2880     2.1060    -0.1890 N.am  1 <1>  -0.6600 
  4 C       -1.2970     3.5540    -0.4700 C.ar  1 <1>   0.0860 
  5 C       -4.6520     1.7400    -0.6830 C.3   1 <1>   0.2200 
  6 C       -2.7230     1.3120     0.9450 C.3   1 <1>   0.0600 
  7 C       -0.0950     3.6100    -1.1730 C.ar  1 <1>  -0.1500 
  8 C       -1.3430     4.2190     0.7550 C.ar  1 <1>  -0.1500 
  9 C       -5.4740     2.9850    -1.0240 C.3   1 <1>  -0.1600 
 10 C       -5.5360     1.0180     0.3390 C.3   1 <1>  -0.1600 
 11 C        1.0060     4.2810    -0.6750 C.ar  1 <1>  -0.1500 
 12 C       -0.2430     4.8910     1.2530 C.ar  1 <1>  -0.1500 
 13 C       -6.9330     2.5140    -1.0070 C.3   1 <1>  -0.0800 
 14 C       -6.9690     1.2400    -0.1610 C.3   1 <1>  -0.0800 
 15 C        0.9620     4.9440     0.5530 C.ar  1 <1>   0.0860 
 16 C       -7.9270     3.4810    -0.3500 C.3   1 <1>  -0.1600 
 17 C       -8.0190     1.4900     0.9320 C.3   1 <1>  -0.1600 
 18 C        2.1060     5.6590     1.0920 C.2   1 <1>   0.5440 
 19 C       -8.9350     2.5860     0.3760 C.3   1 <1>   0.4230 
 20 O        2.2190     5.8770     2.2780 O.2   1 <1>  -0.5700 
 21 N        3.0980     6.1340     0.3040 N.am  1 <1>  -0.8000 
 22 N       -9.9250     2.0090    -0.5900 N.4   1 <1>  -0.9590 
 23 C      -10.7440     3.0590    -1.2780 C.3   1 <1>   0.2630 
 24 C      -10.8560     1.0260     0.0520 C.3   1 <1>   0.2630 
 25 H       -4.5540     1.1280    -1.5660 H     1 <1>   0.0800 
 26 H       -3.1550     1.6400     1.8740 H     1 <1>   0.0800 
 27 H       -1.6550     1.4300     1.0020 H     1 <1>   0.0800 
 28 H       -2.9310     0.2670     0.8020 H     1 <1>   0.0800 
 29 H       -0.0350     3.1120    -2.1270 H     1 <1>   0.1500 
 30 H       -2.2600     4.2100     1.3190 H     1 <1>   0.1500 
 31 H       -5.3000     3.7340    -0.2730 H     1 <1>   0.0800 
 32 H       -5.2070     3.3800    -1.9880 H     1 <1>   0.0800 
 33 H       -5.3000    -0.0290     0.3980 H     1 <1>   0.0800 
 34 H       -5.4100     1.4770     1.3030 H     1 <1>   0.0800 
 35 H        1.9160     4.2850    -1.2480 H     1 <1>   0.1500 
 36 H       -0.3100     5.3900     2.2060 H     1 <1>   0.1500 
 37 H       -7.2440     2.2780    -2.0120 H     1 <1>   0.0800 
 38 H       -7.2630     0.4130    -0.7880 H     1 <1>   0.0800 
 39 H       -8.3510     4.1730    -1.0520 H     1 <1>   0.0800 
 40 H       -7.4170     4.0620     0.4000 H     1 <1>   0.0800 
 41 H       -7.5390     1.8930     1.8070 H     1 <1>   0.0800 
 42 H       -8.5190     0.5890     1.2330 H     1 <1>   0.0800 
 43 H       -9.4420     3.1190     1.1650 H     1 <1>   0.0800 
 44 H        3.8550     6.6590     0.7440 H     1 <1>   0.3700 
 45 H        3.0620     6.1500    -0.7130 H     1 <1>   0.3700 
 46 H       -9.3680     1.5150    -1.3020 H     1 <1>   0.4500 
 47 H      -11.2650     3.6630    -0.5530 H     1 <1>   0.0800 
 48 H      -11.4700     2.5990    -1.9280 H     1 <1>   0.0800 
 49 H      -10.1190     3.7000    -1.8770 H     1 <1>   0.0800 
 50 H      -11.3880     1.4910     0.8660 H     1 <1>   0.0800 
 51 H      -10.3140     0.1770     0.4330 H     1 <1>   0.0800 
 52 H      -11.5740     0.6680    -0.6680 H     1 <1>   0.0800 
@<TRIPOS>BOND
  1   1   2  2   
  2   2   3  am  
  3   2   4  1   
  4   3   5  1   
  5   3   6  1   
  6   4   7  ar  
  7   4   8  ar  
  8   5   9  1   
  9   5  10  1   
 10   5  25  1   
 11   6  26  1   
 12   6  27  1   
 13   6  28  1   
 14   7  11  ar  
 15   7  29  1   
 16   8  12  ar  
 17   8  30  1   
 18   9  13  1   
 19   9  31  1   
 20   9  32  1   
 21  10  14  1   
 22  10  33  1   
 23  10  34  1   
 24  11  15  ar  
 25  11  35  1   
 26  12  15  ar  
 27  12  36  1   
 28  13  14  1   
 29  13  16  1   
 30  13  37  1   
 31  14  17  1   
 32  14  38  1   
 33  15  18  1   
 34  16  19  1   
 35  16  39  1   
 36  16  40  1   
 37  17  19  1   
 38  17  41  1   
 39  17  42  1   
 40  18  20  2   
 41  18  21  am  
 42  19  22  1   
 43  19  43  1   
 44  21  44  1   
 45  21  45  1   
 46  22  23  1   
 47  22  24  1   
 48  22  46  1   
 49  23  47  1   
 50  23  48  1   
 51  23  49  1   
 52  24  50  1   
 53  24  51  1   
 54  24  52  1   
@<TRIPOS>SUBSTRUCTURE
  1 ****   3 GROUP 4 **** **** 0

# MOE 2024.06 (io_trps.svl 2023.06)
