@<TRIPOS>MOLECULE
NONAME
45 47 1 0 0 
SMALL
USER_CHARGES


@<TRIPOS>ATOM
  1 O        2.4170    -1.2430    -2.1330 O.2   1 <1>  -0.5700 
  2 C        1.8580    -1.6190    -1.1150 C.2   1 <1>   0.5440 
  3 N        1.8740    -0.7540    -0.0340 N.am  1 <1>  -0.6600 
  4 C        1.2470    -2.9520    -1.1000 C.ar  1 <1>   0.3960 
  5 C        2.5890     0.5420    -0.0570 C.3   1 <1>   0.1400 
  6 C        1.3620    -1.0460     1.3250 C.3   1 <1>   0.1400 
  7 N        0.1660    -3.2210    -0.3450 N.ar  1 <1>  -0.6200 
  8 C        1.8280    -3.9360    -1.9090 C.ar  1 <1>   0.1600 
  9 C        2.8360     0.8720     1.4090 C.3   1 <1>  -0.1600 
 10 C        1.6900     0.1940     2.1520 C.3   1 <1>  -0.1600 
 11 C       -0.2590    -4.4610    -0.4510 C.ar  1 <1>   0.4100 
 12 N        1.4200    -5.1940    -2.0160 N.ar  1 <1>  -0.6200 
 13 N       -1.3660    -4.7170     0.3140 N.pl3 1 <1>  -0.8690 
 14 C        0.3660    -5.4220    -1.2610 C.ar  1 <1>   0.1600 
 15 C       -2.5460    -5.4420    -0.2390 C.3   1 <1>   0.2090 
 16 C       -2.8900    -6.6790     0.6050 C.3   1 <1>   0.2000 
 17 O       -3.9520    -7.3440    -0.0490 O.3   1 <1>  -0.3630 
 18 C       -3.3440    -6.3160     2.0270 C.3   1 <1>  -0.2400 
 19 C       -4.2300    -8.6640     0.1310 C.ar  1 <1>   0.0830 
 20 C       -5.3190    -9.1870    -0.5570 C.ar  1 <1>   0.1600 
 21 C       -3.4970    -9.5120     0.9480 C.ar  1 <1>  -0.1500 
 22 N       -5.7280   -10.4470    -0.5030 N.ar  1 <1>  -0.6200 
 23 C       -3.9110   -10.8260     1.0160 C.ar  1 <1>  -0.1500 
 24 C       -5.0130   -11.2350     0.2840 C.ar  1 <1>   0.1600 
 25 H        1.9520     1.2810    -0.5120 H     1 <1>   0.0800 
 26 H        3.5110     0.4700    -0.6090 H     1 <1>   0.0800 
 27 H        1.8680    -1.9110     1.7190 H     1 <1>   0.0800 
 28 H        0.3000    -1.2210     1.3060 H     1 <1>   0.0800 
 29 H        2.6850    -3.6600    -2.4990 H     1 <1>   0.1500 
 30 H        2.8670     1.9340     1.5790 H     1 <1>   0.0800 
 31 H        3.7750     0.4400     1.7090 H     1 <1>   0.0800 
 32 H        1.9490    -0.0590     3.1650 H     1 <1>   0.0800 
 33 H        0.8300     0.8410     2.1630 H     1 <1>   0.0800 
 34 H       -1.6310    -3.8810     0.8430 H     1 <1>   0.4000 
 35 H       -0.0420    -6.4150    -1.2660 H     1 <1>   0.1500 
 36 H       -2.3450    -5.7500    -1.2500 H     1 <1>   0.0800 
 37 H       -3.3900    -4.7740    -0.2530 H     1 <1>   0.0800 
 38 H       -2.0330    -7.3280     0.6160 H     1 <1>   0.0800 
 39 H       -4.1900    -5.6540     1.9910 H     1 <1>   0.0800 
 40 H       -2.5450    -5.8220     2.5500 H     1 <1>   0.0800 
 41 H       -3.6100    -7.1970     2.5800 H     1 <1>   0.0800 
 42 H       -5.8790    -8.5200    -1.1870 H     1 <1>   0.1500 
 43 H       -2.6450    -9.1880     1.5150 H     1 <1>   0.1500 
 44 H       -3.3860   -11.5320     1.6330 H     1 <1>   0.1500 
 45 H       -5.3230   -12.2650     0.3480 H     1 <1>   0.1500 
@<TRIPOS>BOND
  1   1   2  2   
  2   2   3  am  
  3   2   4  1   
  4   3   5  1   
  5   3   6  1   
  6   4   7  ar  
  7   4   8  ar  
  8   5   9  1   
  9   5  25  1   
 10   5  26  1   
 11   6  10  1   
 12   6  27  1   
 13   6  28  1   
 14   7  11  ar  
 15   8  12  ar  
 16   8  29  1   
 17   9  10  1   
 18   9  30  1   
 19   9  31  1   
 20  10  32  1   
 21  10  33  1   
 22  11  13  1   
 23  11  14  ar  
 24  12  14  ar  
 25  13  15  1   
 26  13  34  1   
 27  14  35  1   
 28  15  16  1   
 29  15  36  1   
 30  15  37  1   
 31  16  17  1   
 32  16  18  1   
 33  16  38  1   
 34  17  19  1   
 35  18  39  1   
 36  18  40  1   
 37  18  41  1   
 38  19  20  ar  
 39  19  21  ar  
 40  20  22  ar  
 41  20  42  1   
 42  21  23  ar  
 43  21  43  1   
 44  22  24  ar  
 45  23  24  ar  
 46  23  44  1   
 47  24  45  1   
@<TRIPOS>SUBSTRUCTURE
  1 ****  13 GROUP 4 **** **** 0

# MOE 2024.06 (io_trps.svl 2023.06)
