@<TRIPOS>MOLECULE
NONAME
39 41 1 0 0 
SMALL
USER_CHARGES


@<TRIPOS>ATOM
  1 F       -0.7800    -1.0130     0.8250 F     1 <1>  -0.1900 
  2 C       -1.9260    -1.3830     0.2990 C.ar  1 <1>   0.1900 
  3 C       -3.0520    -0.5680     0.2650 C.ar  1 <1>   0.3920 
  4 C       -2.0190    -2.6430    -0.2280 C.ar  1 <1>   0.1600 
  5 O       -3.1360     0.6890     0.7560 O.3   1 <1>  -0.3630 
  6 N       -4.1700    -1.0030    -0.2740 N.ar  1 <1>  -0.6200 
  7 N       -3.1390    -3.0870    -0.7630 N.ar  1 <1>  -0.6200 
  8 C       -2.0290     1.4560     1.1780 C.3   1 <1>   0.0400 
  9 C       -4.1550    -2.2240    -0.7930 C.ar  1 <1>   0.7200 
 10 N       -5.3230    -2.6690    -1.3810 N.pl3 1 <1>  -0.8380 
 11 C       -5.5000    -4.1000    -1.7740 C.3   1 <1>   0.2090 
 12 C       -6.5640    -1.8520    -1.4120 C.3   1 <1>   0.2090 
 13 C       -5.6990    -4.9690    -0.5130 C.3   1 <1>   0.4230 
 14 C       -7.3940    -2.1160    -0.1520 C.3   1 <1>  -0.1600 
 15 N       -6.5020    -4.3300     0.5770 N.4   1 <1>  -0.9590 
 16 C       -6.3900    -6.3080    -0.7440 C.3   1 <1>  -0.1600 
 17 C       -7.7140    -3.5910     0.1120 C.3   1 <1>   0.3430 
 18 C       -6.8450    -5.4360     1.5020 C.3   1 <1>   0.3430 
 19 C       -7.0130    -6.6670     0.6100 C.3   1 <1>  -0.1600 
 20 H       -1.1620    -3.2940    -0.2060 H     1 <1>   0.1500 
 21 H       -2.3780     2.4480     1.4040 H     1 <1>   0.0800 
 22 H       -1.3050     1.4980     0.3840 H     1 <1>   0.0800 
 23 H       -1.6090     1.0110     2.0630 H     1 <1>   0.0800 
 24 H       -6.3470    -4.1970    -2.4300 H     1 <1>   0.0800 
 25 H       -4.6380    -4.4470    -2.3190 H     1 <1>   0.0800 
 26 H       -6.3230    -0.8030    -1.4780 H     1 <1>   0.0800 
 27 H       -7.1330    -2.0970    -2.2920 H     1 <1>   0.0800 
 28 H       -4.7170    -5.1740    -0.1170 H     1 <1>   0.0800 
 29 H       -8.3240    -1.5890    -0.2670 H     1 <1>   0.0800 
 30 H       -6.8990    -1.6850     0.7000 H     1 <1>   0.0800 
 31 H       -5.8830    -3.6330     1.0180 H     1 <1>   0.4500 
 32 H       -7.1600    -6.2090    -1.4900 H     1 <1>   0.0800 
 33 H       -5.6840    -7.0510    -1.0740 H     1 <1>   0.0800 
 34 H       -8.1210    -4.0530    -0.7730 H     1 <1>   0.0800 
 35 H       -8.4670    -3.6330     0.8830 H     1 <1>   0.0800 
 36 H       -6.0260    -5.6010     2.1850 H     1 <1>   0.0800 
 37 H       -7.7380    -5.2250     2.0670 H     1 <1>   0.0800 
 38 H       -6.5170    -7.5110     1.0590 H     1 <1>   0.0800 
 39 H       -8.0560    -6.9080     0.4990 H     1 <1>   0.0800 
@<TRIPOS>BOND
  1   1   2  1   
  2   2   3  ar  
  3   2   4  ar  
  4   3   5  1   
  5   3   6  ar  
  6   4   7  ar  
  7   4  20  1   
  8   5   8  1   
  9   6   9  ar  
 10   7   9  ar  
 11   8  21  1   
 12   8  22  1   
 13   8  23  1   
 14   9  10  1   
 15  10  11  1   
 16  10  12  1   
 17  11  13  1   
 18  11  24  1   
 19  11  25  1   
 20  12  14  1   
 21  12  26  1   
 22  12  27  1   
 23  13  15  1   
 24  13  16  1   
 25  13  28  1   
 26  14  17  1   
 27  14  29  1   
 28  14  30  1   
 29  15  17  1   
 30  15  18  1   
 31  15  31  1   
 32  16  19  1   
 33  16  32  1   
 34  16  33  1   
 35  17  34  1   
 36  17  35  1   
 37  18  19  1   
 38  18  36  1   
 39  18  37  1   
 40  19  38  1   
 41  19  39  1   
@<TRIPOS>SUBSTRUCTURE
  1 ****   9 GROUP 4 **** **** 0

# MOE 2024.06 (io_trps.svl 2023.06)
