@<TRIPOS>MOLECULE
NONAME
33 34 1 0 0 
SMALL
USER_CHARGES


@<TRIPOS>ATOM
  1 O       -0.3390     0.1750    -0.6530 O.3   1 <1>  -0.6800 
  2 C       -1.5450    -0.2260    -0.1360 C.3   1 <1>   0.4240 
  3 C       -1.4830    -1.7450     0.0730 C.ar  1 <1>  -0.1440 
  4 C       -1.7160     0.5000     1.1940 C.3   1 <1>  -0.2400 
  5 C       -2.5950     0.2350    -1.1470 C.3   1 <1>  -0.2400 
  6 C       -2.5570    -2.5780    -0.2150 C.ar  1 <1>   0.1600 
  7 C       -0.3390    -2.3370     0.5850 C.ar  1 <1>  -0.1500 
  8 N       -2.5780    -3.8910    -0.0620 N.ar  1 <1>  -0.6200 
  9 C       -0.3470    -3.7010     0.7540 C.ar  1 <1>  -0.1500 
 10 C       -1.4710    -4.4490     0.4150 C.ar  1 <1>   0.4100 
 11 N       -1.4670    -5.8270     0.5830 N.pl3 1 <1>  -0.8380 
 12 C       -2.7050    -6.6240     0.4000 C.3   1 <1>   0.2090 
 13 C       -0.2820    -6.6340     0.2100 C.3   1 <1>   0.2090 
 14 C       -2.2260    -8.0620     0.2720 C.3   1 <1>  -0.1600 
 15 C       -0.8400    -7.9370    -0.3510 C.3   1 <1>  -0.1600 
 16 H       -0.1130    -0.4210    -1.3900 H     1 <1>   0.4000 
 17 H       -0.9240     0.2320     1.8690 H     1 <1>   0.0800 
 18 H       -2.6510     0.2220     1.6430 H     1 <1>   0.0800 
 19 H       -1.7070     1.5650     1.0450 H     1 <1>   0.0800 
 20 H       -2.4930    -0.3050    -2.0710 H     1 <1>   0.0800 
 21 H       -2.4860     1.2880    -1.3400 H     1 <1>   0.0800 
 22 H       -3.5840     0.0740    -0.7600 H     1 <1>   0.0800 
 23 H       -3.4670    -2.1530    -0.5960 H     1 <1>   0.1500 
 24 H        0.5260    -1.7520     0.8490 H     1 <1>   0.1500 
 25 H        0.5100    -4.2000     1.1590 H     1 <1>   0.1500 
 26 H       -3.2030    -6.3200    -0.5060 H     1 <1>   0.0800 
 27 H       -3.3680    -6.4920     1.2380 H     1 <1>   0.0800 
 28 H        0.2990    -6.8270     1.0950 H     1 <1>   0.0800 
 29 H        0.3230    -6.1240    -0.5200 H     1 <1>   0.0800 
 30 H       -2.8960    -8.6550    -0.3250 H     1 <1>   0.0800 
 31 H       -2.1510    -8.4920     1.2550 H     1 <1>   0.0800 
 32 H       -0.2070    -8.7760    -0.1210 H     1 <1>   0.0800 
 33 H       -0.9280    -7.8440    -1.4190 H     1 <1>   0.0800 
@<TRIPOS>BOND
  1   1   2  1   
  2   1  16  1   
  3   2   3  1   
  4   2   4  1   
  5   2   5  1   
  6   3   6  ar  
  7   3   7  ar  
  8   4  17  1   
  9   4  18  1   
 10   4  19  1   
 11   5  20  1   
 12   5  21  1   
 13   5  22  1   
 14   6   8  ar  
 15   6  23  1   
 16   7   9  ar  
 17   7  24  1   
 18   8  10  ar  
 19   9  10  ar  
 20   9  25  1   
 21  10  11  1   
 22  11  12  1   
 23  11  13  1   
 24  12  14  1   
 25  12  26  1   
 26  12  27  1   
 27  13  15  1   
 28  13  28  1   
 29  13  29  1   
 30  14  15  1   
 31  14  30  1   
 32  14  31  1   
 33  15  32  1   
 34  15  33  1   
@<TRIPOS>SUBSTRUCTURE
  1 ****  10 GROUP 4 **** **** 0

# MOE 2024.06 (io_trps.svl 2023.06)
