@<TRIPOS>MOLECULE
NONAME
52 55 1 0 0 
SMALL
USER_CHARGES


@<TRIPOS>ATOM
  1 O       -1.4950     1.1120    -2.1610 O.2   1 <1>  -0.5700 
  2 C       -1.8730     1.1120    -1.0030 C.2   1 <1>   0.7160 
  3 N       -2.5030    -0.0110    -0.5210 N.am  1 <1>  -0.6600 
  4 C       -1.6270     2.2440    -0.1710 C.2   1 <1>  -0.0860 
  5 C       -2.8100    -1.1940    -1.3500 C.3   1 <1>   0.1400 
  6 C       -3.0760    -0.1390     0.8340 C.3   1 <1>   0.1400 
  7 C       -2.6040     3.1100     0.3340 C.2   1 <1>   0.3720 
  8 C       -0.4610     2.7430     0.3210 C.2   1 <1>   0.0870 
  9 C       -3.7670    -2.0320    -0.5030 C.3   1 <1>  -0.0800 
 10 C       -3.4690    -1.6070     0.9400 C.3   1 <1>  -0.1600 
 11 N       -2.0680     4.0190     1.0700 N.2   1 <1>  -0.4100 
 12 N       -3.9820     3.0080     0.0730 N.pl3 1 <1>  -0.8210 
 13 O       -0.7830     3.7850     1.0460 O.3   1 <1>  -0.0190 
 14 C        0.9240     2.3480     0.2000 C.ar  1 <1>   0.0530 
 15 C       -3.6040    -3.5340    -0.7630 C.3   1 <1>   0.1200 
 16 C       -4.3540     3.0290    -1.3680 C.3   1 <1>   0.2090 
 17 C       -4.9150     3.8940     0.8270 C.3   1 <1>   0.2090 
 18 C        1.9490     3.2230     0.5680 C.ar  1 <1>  -0.1500 
 19 C        1.3090     1.0910    -0.2760 C.ar  1 <1>  -0.1500 
 20 O       -4.4860    -4.2330     0.0400 O.3   1 <1>  -0.6800 
 21 C       -5.6840     3.7660    -1.4440 C.3   1 <1>  -0.1600 
 22 C       -5.6740     4.6830    -0.2310 C.3   1 <1>  -0.1600 
 23 C        3.2800     2.8670     0.4670 C.ar  1 <1>  -0.1500 
 24 C        2.6390     0.7280    -0.3820 C.ar  1 <1>  -0.1500 
 25 C        3.6400     1.6180    -0.0090 C.ar  1 <1>   0.0830 
 26 O        4.9630     1.3440    -0.0800 O.3   1 <1>  -0.3620 
 27 C        5.4370     0.1140    -0.5810 C.3   1 <1>   0.0400 
 28 H       -1.8950    -1.7260    -1.5460 H     1 <1>   0.0800 
 29 H       -3.2610    -0.9010    -2.2840 H     1 <1>   0.0800 
 30 H       -3.9500     0.4870     0.9110 H     1 <1>   0.0800 
 31 H       -2.3620     0.1400     1.5900 H     1 <1>   0.0800 
 32 H       -4.7710    -1.7400    -0.7620 H     1 <1>   0.0800 
 33 H       -4.3160    -1.7410     1.5890 H     1 <1>   0.0800 
 34 H       -2.6320    -2.1600     1.3300 H     1 <1>   0.0800 
 35 H       -2.6050    -3.8640    -0.5360 H     1 <1>   0.0800 
 36 H       -3.8320    -3.7710    -1.7890 H     1 <1>   0.0800 
 37 H       -4.4450     2.0270    -1.7520 H     1 <1>   0.0800 
 38 H       -3.6040     3.5600    -1.9310 H     1 <1>   0.0800 
 39 H       -4.4130     4.5540     1.5120 H     1 <1>   0.0800 
 40 H       -5.5980     3.2740     1.3830 H     1 <1>   0.0800 
 41 H        1.7020     4.2020     0.9390 H     1 <1>   0.1500 
 42 H        0.5650     0.3770    -0.5700 H     1 <1>   0.1500 
 43 H       -4.3270    -4.0300     0.9810 H     1 <1>   0.4000 
 44 H       -6.4840     3.0520    -1.3600 H     1 <1>   0.0800 
 45 H       -5.7870     4.3060    -2.3680 H     1 <1>   0.0800 
 46 H       -5.1240     5.5810    -0.4520 H     1 <1>   0.0800 
 47 H       -6.6630     4.9460     0.0980 H     1 <1>   0.0800 
 48 H        4.0520     3.5570     0.7560 H     1 <1>   0.1500 
 49 H        2.8780    -0.2490    -0.7570 H     1 <1>   0.1500 
 50 H        6.5110     0.1330    -0.5520 H     1 <1>   0.0800 
 51 H        5.1000    -0.0020    -1.5960 H     1 <1>   0.0800 
 52 H        5.0680    -0.6810     0.0410 H     1 <1>   0.0800 
@<TRIPOS>BOND
  1   1   2  2   
  2   2   3  am  
  3   2   4  1   
  4   3   5  1   
  5   3   6  1   
  6   4   7  1   
  7   4   8  2   
  8   5   9  1   
  9   5  28  1   
 10   5  29  1   
 11   6  10  1   
 12   6  30  1   
 13   6  31  1   
 14   7  11  2   
 15   7  12  1   
 16   8  13  1   
 17   8  14  1   
 18   9  10  1   
 19   9  15  1   
 20   9  32  1   
 21  10  33  1   
 22  10  34  1   
 23  11  13  1   
 24  12  16  1   
 25  12  17  1   
 26  14  18  ar  
 27  14  19  ar  
 28  15  20  1   
 29  15  35  1   
 30  15  36  1   
 31  16  21  1   
 32  16  37  1   
 33  16  38  1   
 34  17  22  1   
 35  17  39  1   
 36  17  40  1   
 37  18  23  ar  
 38  18  41  1   
 39  19  24  ar  
 40  19  42  1   
 41  20  43  1   
 42  21  22  1   
 43  21  44  1   
 44  21  45  1   
 45  22  46  1   
 46  22  47  1   
 47  23  25  ar  
 48  23  48  1   
 49  24  25  ar  
 50  24  49  1   
 51  25  26  1   
 52  26  27  1   
 53  27  50  1   
 54  27  51  1   
 55  27  52  1   
@<TRIPOS>SUBSTRUCTURE
  1 ****   4 GROUP 4 **** **** 0

# MOE 2024.06 (io_trps.svl 2023.06)
