@<TRIPOS>MOLECULE
NONAME
47 49 1 0 0 
SMALL
USER_CHARGES


@<TRIPOS>ATOM
  1 CL      -0.0910     0.5660     1.9580 Cl    1 <1>  -0.1770 
  2 C        0.4570     2.1840     1.6120 C.ar  1 <1>   0.1770 
  3 C        0.4070     2.6750     0.3190 C.ar  1 <1>   0.1600 
  4 C        0.9400     2.9750     2.6270 C.ar  1 <1>  -0.1500 
  5 N        0.8030     3.8900    -0.0330 N.ar  1 <1>  -0.6200 
  6 C        1.3510     4.2430     2.2700 C.ar  1 <1>  -0.1500 
  7 C        1.2730     4.6880     0.9450 C.ar  1 <1>   0.3960 
  8 C        1.7190     6.0480     0.6190 C.2   1 <1>   0.5440 
  9 O        2.5480     6.6280     1.3040 O.2   1 <1>  -0.5700 
 10 N        1.2910     6.7330    -0.4990 N.am  1 <1>  -0.6600 
 11 C        1.8380     6.3780    -1.8460 C.3   1 <1>   0.1400 
 12 C        0.6820     8.0870    -0.3900 C.3   1 <1>   0.1400 
 13 C        3.3160     6.8070    -1.9870 C.3   1 <1>   0.3430 
 14 C        1.7350     9.2010    -0.2530 C.3   1 <1>  -0.1600 
 15 N        3.6720     7.8980    -1.0220 N.4   1 <1>  -0.9590 
 16 C        2.8930     9.1420    -1.2520 C.3   1 <1>   0.3430 
 17 C        5.1450     8.1180    -0.9380 C.3   1 <1>   0.3430 
 18 C        5.5480     8.7070     0.4170 C.3   1 <1>   0.0200 
 19 C        7.0420     8.9670     0.4250 C.2   1 <1>   0.0060 
 20 N        7.7560     8.9680    -0.6540 N.2   1 <1>  -0.5650 
 21 N        7.7550     9.2210     1.5510 N.pl3 1 <1>   0.0480 
 22 C        9.0000     9.2350    -0.2180 C.2   1 <1>   0.0770 
 23 C        9.0170     9.3910     1.1220 C.2   1 <1>  -0.3020 
 24 C        7.2960     9.2990     2.9510 C.3   1 <1>   0.0160 
 25 H        0.0230     2.0300    -0.4530 H     1 <1>   0.1500 
 26 H        0.9900     2.6140     3.6390 H     1 <1>   0.1500 
 27 H        1.7380     4.9060     3.0240 H     1 <1>   0.1500 
 28 H        1.2510     6.8580    -2.6100 H     1 <1>   0.0800 
 29 H        1.7600     5.3170    -2.0090 H     1 <1>   0.0800 
 30 H        0.0330     8.1090     0.4710 H     1 <1>   0.0800 
 31 H        0.0680     8.2670    -1.2570 H     1 <1>   0.0800 
 32 H        3.5140     7.1150    -3.0000 H     1 <1>   0.0800 
 33 H        3.9310     5.9460    -1.7820 H     1 <1>   0.0800 
 34 H        2.1270     9.1980     0.7480 H     1 <1>   0.0800 
 35 H        1.2320    10.1440    -0.3770 H     1 <1>   0.0800 
 36 H        3.3410     7.5320    -0.1020 H     1 <1>   0.4500 
 37 H        3.5260    10.0020    -1.1040 H     1 <1>   0.0800 
 38 H        2.5190     9.1710    -2.2630 H     1 <1>   0.0800 
 39 H        5.4690     8.7780    -1.7270 H     1 <1>   0.0800 
 40 H        5.6660     7.1830    -1.0600 H     1 <1>   0.0800 
 41 H        5.3010     8.0100     1.1970 H     1 <1>   0.0800 
 42 H        5.0400     9.6370     0.5910 H     1 <1>   0.0800 
 43 H        9.8330     9.3030    -0.9000 H     1 <1>   0.1500 
 44 H        9.8440     9.6090     1.7740 H     1 <1>   0.1500 
 45 H        6.4490     9.9570     3.0150 H     1 <1>   0.0800 
 46 H        8.0890     9.6810     3.5680 H     1 <1>   0.0800 
 47 H        7.0220     8.3170     3.2910 H     1 <1>   0.0800 
@<TRIPOS>BOND
  1   1   2  1   
  2   2   3  ar  
  3   2   4  ar  
  4   3   5  ar  
  5   3  25  1   
  6   4   6  ar  
  7   4  26  1   
  8   5   7  ar  
  9   6   7  ar  
 10   6  27  1   
 11   7   8  1   
 12   8   9  2   
 13   8  10  am  
 14  10  11  1   
 15  10  12  1   
 16  11  13  1   
 17  11  28  1   
 18  11  29  1   
 19  12  14  1   
 20  12  30  1   
 21  12  31  1   
 22  13  15  1   
 23  13  32  1   
 24  13  33  1   
 25  14  16  1   
 26  14  34  1   
 27  14  35  1   
 28  15  16  1   
 29  15  17  1   
 30  15  36  1   
 31  16  37  1   
 32  16  38  1   
 33  17  18  1   
 34  17  39  1   
 35  17  40  1   
 36  18  19  1   
 37  18  41  1   
 38  18  42  1   
 39  19  20  2   
 40  19  21  1   
 41  20  22  1   
 42  21  23  1   
 43  21  24  1   
 44  22  23  2   
 45  22  43  1   
 46  23  44  1   
 47  24  45  1   
 48  24  46  1   
 49  24  47  1   
@<TRIPOS>SUBSTRUCTURE
  1 ****   9 GROUP 4 **** **** 0

# MOE 2024.06 (io_trps.svl 2023.06)
