@<TRIPOS>MOLECULE
NONAME
46 48 1 0 0 
SMALL
USER_CHARGES


@<TRIPOS>ATOM
  1 F       -1.8020    -0.0350    -2.0230 F     1 <1>  -0.1900 
  2 C       -2.4140     0.6300    -1.0810 C.ar  1 <1>   0.1900 
  3 C       -3.6710     0.2210    -0.6880 C.ar  1 <1>  -0.1500 
  4 C       -1.7780     1.7190    -0.5180 C.ar  1 <1>  -0.1500 
  5 C       -4.3420     0.9250     0.3080 C.ar  1 <1>   0.0860 
  6 C       -2.4260     2.4230     0.4830 C.ar  1 <1>  -0.1440 
  7 C       -5.6720     0.5240     0.7250 C.2   1 <1>   0.5440 
  8 C       -3.6920     2.0200     0.8850 C.ar  1 <1>  -0.1500 
  9 C       -1.7530     3.6200     1.1310 C.3   1 <1>  -0.0960 
 10 O       -5.8450    -0.6110     1.1250 O.2   1 <1>  -0.5700 
 11 N       -6.7420     1.3950     0.6670 N.am  1 <1>  -0.6600 
 12 C       -8.0980     0.9960     1.1490 C.3   1 <1>   0.1400 
 13 C       -6.6830     2.6990    -0.0600 C.3   1 <1>   0.1400 
 14 C       -9.1070     0.8420    -0.0240 C.3   1 <1>   0.0000 
 15 C       -8.0560     3.1070    -0.6180 C.3   1 <1>  -0.1600 
 16 C      -10.5350     0.9080     0.5650 C.3   1 <1>   0.2000 
 17 C       -8.8130     1.8810    -1.1480 C.3   1 <1>  -0.1600 
 18 C       -9.0470    -0.5930    -0.5740 C.3   1 <1>  -0.1600 
 19 O      -11.4770     1.0810    -0.4560 O.3   1 <1>  -0.5600 
 20 C      -10.7600    -0.4770     1.1830 C.3   1 <1>  -0.1600 
 21 C       -9.9050    -1.4530     0.3630 C.3   1 <1>  -0.1600 
 22 C      -12.6820     1.6570    -0.0600 C.3   1 <1>   0.0400 
 23 H       -4.1310    -0.6360    -1.1450 H     1 <1>   0.1500 
 24 H       -0.7980     2.0000    -0.8590 H     1 <1>   0.1500 
 25 H       -4.1990     2.5570     1.6670 H     1 <1>   0.1500 
 26 H       -2.1490     3.7910     2.1170 H     1 <1>   0.0800 
 27 H       -1.9160     4.4990     0.5340 H     1 <1>   0.0800 
 28 H       -0.6950     3.4510     1.2180 H     1 <1>   0.0800 
 29 H       -8.0430     0.0850     1.7190 H     1 <1>   0.0800 
 30 H       -8.4410     1.7640     1.8200 H     1 <1>   0.0800 
 31 H       -6.3200     3.4650     0.6030 H     1 <1>   0.0800 
 32 H       -5.9950     2.6090    -0.8830 H     1 <1>   0.0800 
 33 H       -8.6340     3.5870     0.1510 H     1 <1>   0.0800 
 34 H       -7.9160     3.8210    -1.4100 H     1 <1>   0.0800 
 35 H      -10.6370     1.7090     1.2780 H     1 <1>   0.0800 
 36 H       -8.1940     1.4170    -1.8970 H     1 <1>   0.0800 
 37 H       -9.7130     2.1960    -1.6440 H     1 <1>   0.0800 
 38 H       -9.4900    -0.6150    -1.5550 H     1 <1>   0.0800 
 39 H       -8.0370    -0.9590    -0.6440 H     1 <1>   0.0800 
 40 H      -10.4060    -0.4710     2.1980 H     1 <1>   0.0800 
 41 H      -11.7960    -0.7610     1.1840 H     1 <1>   0.0800 
 42 H       -9.2780    -2.0380     1.0150 H     1 <1>   0.0800 
 43 H      -10.5270    -2.1170    -0.2120 H     1 <1>   0.0800 
 44 H      -13.3260     1.7050    -0.9200 H     1 <1>   0.0800 
 45 H      -12.4940     2.6500     0.3080 H     1 <1>   0.0800 
 46 H      -13.1390     1.0500     0.7010 H     1 <1>   0.0800 
@<TRIPOS>BOND
  1   1   2  1   
  2   2   3  ar  
  3   2   4  ar  
  4   3   5  ar  
  5   3  23  1   
  6   4   6  ar  
  7   4  24  1   
  8   5   7  1   
  9   5   8  ar  
 10   6   8  ar  
 11   6   9  1   
 12   7  10  2   
 13   7  11  am  
 14   8  25  1   
 15   9  26  1   
 16   9  27  1   
 17   9  28  1   
 18  11  12  1   
 19  11  13  1   
 20  12  14  1   
 21  12  29  1   
 22  12  30  1   
 23  13  15  1   
 24  13  31  1   
 25  13  32  1   
 26  14  16  1   
 27  14  17  1   
 28  14  18  1   
 29  15  17  1   
 30  15  33  1   
 31  15  34  1   
 32  16  19  1   
 33  16  20  1   
 34  16  35  1   
 35  17  36  1   
 36  17  37  1   
 37  18  21  1   
 38  18  38  1   
 39  18  39  1   
 40  19  22  1   
 41  20  21  1   
 42  20  40  1   
 43  20  41  1   
 44  21  42  1   
 45  21  43  1   
 46  22  44  1   
 47  22  45  1   
 48  22  46  1   
@<TRIPOS>SUBSTRUCTURE
  1 ****  11 GROUP 4 **** **** 0

# MOE 2024.06 (io_trps.svl 2023.06)
