@<TRIPOS>MOLECULE
NONAME
44 45 1 0 0 
SMALL
USER_CHARGES


@<TRIPOS>ATOM
  1 O       -0.4330     1.5570     1.7880 O.2   1 <1>  -0.5700 
  2 C       -0.9700     1.5110     0.7090 C.2   1 <1>   0.5690 
  3 N       -1.5430     0.3860     0.2210 N.am  1 <1>  -0.7300 
  4 C       -0.9860     2.7610    -0.1390 C.3   1 <1>  -0.0990 
  5 C       -1.6020    -0.9090     0.9180 C.3   1 <1>   0.2200 
  6 C        0.3290     2.9140    -0.9180 C.3   1 <1>  -0.0990 
  7 C       -0.9560    -1.9700     0.0360 C.3   1 <1>  -0.1600 
  8 C       -3.0560    -1.3570     0.9980 C.3   1 <1>  -0.1600 
  9 C        0.3700     4.2350    -1.6500 C.2   1 <1>   0.5690 
 10 C       -2.0280    -2.3780    -0.9810 C.3   1 <1>  -0.1600 
 11 C       -3.3760    -1.9860    -0.3630 C.3   1 <1>  -0.1600 
 12 O       -0.1470     4.3160    -2.7360 O.2   1 <1>  -0.5700 
 13 N        0.9760     5.2840    -1.0490 N.am  1 <1>  -0.7300 
 14 C        1.2360     6.5860    -1.6860 C.3   1 <1>   0.4000 
 15 C        2.2420     7.3590    -0.8370 C.2   1 <1>   0.0060 
 16 C       -0.0710     7.3590    -1.8750 C.3   1 <1>  -0.2400 
 17 N        3.4160     7.6800    -1.2640 N.2   1 <1>  -0.3380 
 18 N        2.0520     7.7820     0.4230 N.pl3 1 <1>   0.0480 
 19 N        4.0320     8.3340    -0.2810 N.2   1 <1>  -0.3380 
 20 C        3.2080     8.3840     0.7050 C.2   1 <1>   0.0360 
 21 C        0.8940     7.6550     1.3320 C.3   1 <1>   0.0160 
 22 H       -1.9790     0.3830    -0.7000 H     1 <1>   0.3700 
 23 H       -1.1230     3.6060     0.5110 H     1 <1>   0.0800 
 24 H       -1.8150     2.7310    -0.8220 H     1 <1>   0.0800 
 25 H       -1.1380    -0.8430     1.8890 H     1 <1>   0.0800 
 26 H        0.4230     2.1170    -1.6330 H     1 <1>   0.0800 
 27 H        1.1630     2.8520    -0.2420 H     1 <1>   0.0800 
 28 H       -0.7170    -2.8200     0.6510 H     1 <1>   0.0800 
 29 H       -0.0510    -1.6190    -0.4270 H     1 <1>   0.0800 
 30 H       -3.7180    -0.5470     1.2510 H     1 <1>   0.0800 
 31 H       -3.1350    -2.1130     1.7590 H     1 <1>   0.0800 
 32 H       -1.9800    -3.4350    -1.1850 H     1 <1>   0.0800 
 33 H       -1.8810    -1.8420    -1.9030 H     1 <1>   0.0800 
 34 H       -3.8690    -1.2660    -0.9940 H     1 <1>   0.0800 
 35 H       -4.0190    -2.8420    -0.2470 H     1 <1>   0.0800 
 36 H        1.5670     5.1080    -0.2360 H     1 <1>   0.3700 
 37 H        1.6760     6.4120    -2.6550 H     1 <1>   0.0800 
 38 H       -0.6240     7.4310    -0.9590 H     1 <1>   0.0800 
 39 H       -0.6810     6.8710    -2.6130 H     1 <1>   0.0800 
 40 H        0.1480     8.3500    -2.2310 H     1 <1>   0.0800 
 41 H        3.4160     8.8530     1.6500 H     1 <1>   0.1500 
 42 H        0.4140     6.7050     1.1850 H     1 <1>   0.0800 
 43 H        0.1960     8.4460     1.1290 H     1 <1>   0.0800 
 44 H        1.2270     7.7260     2.3510 H     1 <1>   0.0800 
@<TRIPOS>BOND
  1   1   2  2   
  2   2   3  am  
  3   2   4  1   
  4   3   5  1   
  5   3  22  1   
  6   4   6  1   
  7   4  23  1   
  8   4  24  1   
  9   5   7  1   
 10   5   8  1   
 11   5  25  1   
 12   6   9  1   
 13   6  26  1   
 14   6  27  1   
 15   7  10  1   
 16   7  28  1   
 17   7  29  1   
 18   8  11  1   
 19   8  30  1   
 20   8  31  1   
 21   9  12  2   
 22   9  13  am  
 23  10  11  1   
 24  10  32  1   
 25  10  33  1   
 26  11  34  1   
 27  11  35  1   
 28  13  14  1   
 29  13  36  1   
 30  14  15  1   
 31  14  16  1   
 32  14  37  1   
 33  15  17  2   
 34  15  18  1   
 35  16  38  1   
 36  16  39  1   
 37  16  40  1   
 38  17  19  1   
 39  18  20  1   
 40  18  21  1   
 41  19  20  2   
 42  20  41  1   
 43  21  42  1   
 44  21  43  1   
 45  21  44  1   
@<TRIPOS>SUBSTRUCTURE
  1 ****   6 GROUP 4 **** **** 0

# MOE 2024.06 (io_trps.svl 2023.06)
