@<TRIPOS>MOLECULE
NONAME
42 45 1 0 0 
SMALL
USER_CHARGES


@<TRIPOS>ATOM
  1 O        0.6330    -0.1780     1.4290 O.2   1 <1>  -0.5700 
  2 C        1.3380    -0.7760     0.6390 C.2   1 <1>   0.5440 
  3 N        2.1500    -0.0790    -0.2250 N.am  1 <1>  -0.4940 
  4 C        1.3230    -2.2240     0.5930 C.ar  1 <1>   0.0860 
  5 C        2.3090     1.3200    -0.3630 C.2   1 <1>  -0.0880 
  6 C        0.1370    -2.9260     0.8350 C.ar  1 <1>  -0.1500 
  7 C        2.4840    -2.9650     0.3060 C.ar  1 <1>  -0.1500 
  8 N        3.5060     1.9690    -0.3700 N.pl3 1 <1>   0.3140 
  9 C        1.3580     2.2710    -0.5250 C.2   1 <1>  -0.1810 
 10 C        0.1430    -4.3020     0.7640 C.ar  1 <1>   0.0830 
 11 C        2.4730    -4.3510     0.2390 C.ar  1 <1>  -0.1500 
 12 N        3.3400     3.3030    -0.5560 N.2   1 <1>  -0.7070 
 13 C        4.8440     1.3460    -0.1590 C.3   1 <1>   0.1760 
 14 C        2.0570     3.4670    -0.6370 C.2   1 <1>   0.1390 
 15 C       -0.1510     2.1190    -0.5800 C.3   1 <1>  -0.0590 
 16 O       -0.8770    -5.1460     0.9520 O.3   1 <1>  -0.3620 
 17 C        1.2780    -4.9980     0.4720 C.ar  1 <1>   0.0830 
 18 C        5.6680     2.0170     0.9400 C.3   1 <1>  -0.1600 
 19 C        5.7430     1.4260    -1.3940 C.3   1 <1>  -0.1600 
 20 C       -0.3570    -6.4630     0.7740 C.3   1 <1>   0.4000 
 21 O        1.0260    -6.3070     0.4620 O.3   1 <1>  -0.3620 
 22 C        7.1080     1.5930     0.6480 C.3   1 <1>  -0.1600 
 23 C        7.1790     1.3350    -0.8630 C.3   1 <1>  -0.1600 
 24 H        2.6420    -0.6480    -0.9120 H     1 <1>   0.3700 
 25 H       -0.7710    -2.4000     1.0730 H     1 <1>   0.1500 
 26 H        3.4150    -2.4520     0.1430 H     1 <1>   0.1500 
 27 H        3.3600    -4.9190     0.0190 H     1 <1>   0.1500 
 28 H        4.7110     0.3140     0.1070 H     1 <1>   0.0800 
 29 H        1.5940     4.4290    -0.7770 H     1 <1>   0.1500 
 30 H       -0.4160     1.1080    -0.8290 H     1 <1>   0.0800 
 31 H       -0.5660     2.7780    -1.3210 H     1 <1>   0.0800 
 32 H       -0.5710     2.3560     0.3810 H     1 <1>   0.0800 
 33 H        5.3490     1.7150     1.9220 H     1 <1>   0.0800 
 34 H        5.5940     3.0880     0.8510 H     1 <1>   0.0800 
 35 H        5.6090     2.3820    -1.8730 H     1 <1>   0.0800 
 36 H        5.5260     0.6410    -2.0960 H     1 <1>   0.0800 
 37 H       -0.8610    -6.9430    -0.0460 H     1 <1>   0.0800 
 38 H       -0.4610    -7.0190     1.6890 H     1 <1>   0.0800 
 39 H        7.3320     0.6830     1.1780 H     1 <1>   0.0800 
 40 H        7.8070     2.3530     0.9540 H     1 <1>   0.0800 
 41 H        7.8000     2.0700    -1.3470 H     1 <1>   0.0800 
 42 H        7.5920     0.3580    -1.0510 H     1 <1>   0.0800 
@<TRIPOS>BOND
  1   1   2  2   
  2   2   3  am  
  3   2   4  1   
  4   3   5  1   
  5   3  24  1   
  6   4   6  ar  
  7   4   7  ar  
  8   5   8  1   
  9   5   9  2   
 10   6  10  ar  
 11   6  25  1   
 12   7  11  ar  
 13   7  26  1   
 14   8  12  1   
 15   8  13  1   
 16   9  14  1   
 17   9  15  1   
 18  10  16  1   
 19  10  17  ar  
 20  11  17  ar  
 21  11  27  1   
 22  12  14  2   
 23  13  18  1   
 24  13  19  1   
 25  13  28  1   
 26  14  29  1   
 27  15  30  1   
 28  15  31  1   
 29  15  32  1   
 30  16  20  1   
 31  17  21  1   
 32  18  22  1   
 33  18  33  1   
 34  18  34  1   
 35  19  23  1   
 36  19  35  1   
 37  19  36  1   
 38  20  21  1   
 39  20  37  1   
 40  20  38  1   
 41  22  23  1   
 42  22  39  1   
 43  22  40  1   
 44  23  41  1   
 45  23  42  1   
@<TRIPOS>SUBSTRUCTURE
  1 ****   3 GROUP 4 **** **** 0

# MOE 2024.06 (io_trps.svl 2023.06)
