@<TRIPOS>MOLECULE
NONAME
39 41 1 0 0 
SMALL
USER_CHARGES


@<TRIPOS>ATOM
  1 S       -0.2260    -0.3010     0.9030 S.3   1 <1>  -0.0800 
  2 C        0.8750    -0.1660    -0.4590 C.2   1 <1>   0.1980 
  3 C       -1.1320     1.0450     0.2780 C.2   1 <1>  -0.1100 
  4 N        0.5910     0.7890    -1.2590 N.2   1 <1>  -0.5650 
  5 C        2.0490    -1.1450    -0.5360 C.3   1 <1>   0.4000 
  6 C       -0.5460     1.4680    -0.8520 C.2   1 <1>   0.0770 
  7 N        1.7140    -2.5380    -0.1220 N.am  1 <1>  -0.6600 
  8 C        3.1890    -0.7260     0.4000 C.3   1 <1>  -0.1600 
  9 C        1.0650    -3.4040    -0.9710 C.2   1 <1>   0.5440 
 10 C        2.5450    -2.9600     1.0240 C.3   1 <1>   0.1400 
 11 C        3.7450    -2.0240     0.9810 C.3   1 <1>  -0.1600 
 12 O        0.7190    -2.9940    -2.0620 O.2   1 <1>  -0.5700 
 13 C        0.8470    -4.7980    -0.6380 C.ar  1 <1>   0.0860 
 14 C        0.2280    -5.2330     0.5440 C.ar  1 <1>   0.0830 
 15 C        1.2860    -5.7810    -1.5270 C.ar  1 <1>  -0.1500 
 16 O       -0.2580    -4.3540     1.4460 O.3   1 <1>  -0.3620 
 17 C        0.1310    -6.5850     0.8410 C.ar  1 <1>  -0.1500 
 18 C        1.1650    -7.1280    -1.2430 C.ar  1 <1>  -0.1500 
 19 C       -1.6100    -3.9100     1.3520 C.3   1 <1>   0.9600 
 20 C        0.5930    -7.5330    -0.0510 C.ar  1 <1>  -0.1500 
 21 F       -1.7590    -3.2770     0.1920 F     1 <1>  -0.3400 
 22 F       -1.7420    -2.9550     2.2700 F     1 <1>  -0.3400 
 23 C       -2.7340    -4.9720     1.5520 C.3   1 <1>   0.6000 
 24 F       -2.5470    -5.7020     2.6550 F     1 <1>  -0.3400 
 25 F       -2.7910    -5.8690     0.5660 F     1 <1>  -0.3400 
 26 H       -2.0000     1.3680     0.8200 H     1 <1>   0.1500 
 27 H        2.4120    -1.1660    -1.5490 H     1 <1>   0.0800 
 28 H       -0.8840     2.2860    -1.4650 H     1 <1>   0.1500 
 29 H        2.7960    -0.1160     1.1950 H     1 <1>   0.0800 
 30 H        3.9350    -0.1600    -0.1270 H     1 <1>   0.0800 
 31 H        2.8490    -3.9900     0.9440 H     1 <1>   0.0800 
 32 H        1.9860    -2.8150     1.9340 H     1 <1>   0.0800 
 33 H        4.1800    -1.8860     1.9550 H     1 <1>   0.0800 
 34 H        4.4870    -2.4360     0.3190 H     1 <1>   0.0800 
 35 H        1.7340    -5.4710    -2.4560 H     1 <1>   0.1500 
 36 H       -0.3120    -6.9020     1.7700 H     1 <1>   0.1500 
 37 H        1.5160    -7.8620    -1.9480 H     1 <1>   0.1500 
 38 H        0.5050    -8.5820     0.1780 H     1 <1>   0.1500 
 39 H       -3.7000    -4.5120     1.6240 H     1 <1>   0.0800 
@<TRIPOS>BOND
  1   1   2  1   
  2   1   3  1   
  3   2   4  2   
  4   2   5  1   
  5   3   6  2   
  6   3  26  1   
  7   4   6  1   
  8   5   7  1   
  9   5   8  1   
 10   5  27  1   
 11   6  28  1   
 12   7   9  am  
 13   7  10  1   
 14   8  11  1   
 15   8  29  1   
 16   8  30  1   
 17   9  12  2   
 18   9  13  1   
 19  10  11  1   
 20  10  31  1   
 21  10  32  1   
 22  11  33  1   
 23  11  34  1   
 24  13  14  ar  
 25  13  15  ar  
 26  14  16  1   
 27  14  17  ar  
 28  15  18  ar  
 29  15  35  1   
 30  16  19  1   
 31  17  20  ar  
 32  17  36  1   
 33  18  20  ar  
 34  18  37  1   
 35  19  21  1   
 36  19  22  1   
 37  19  23  1   
 38  20  38  1   
 39  23  24  1   
 40  23  25  1   
 41  23  39  1   
@<TRIPOS>SUBSTRUCTURE
  1 ****   9 GROUP 4 **** **** 0

# MOE 2024.06 (io_trps.svl 2023.06)
