@<TRIPOS>MOLECULE
NONAME
48 50 1 0 0 
SMALL
USER_CHARGES


@<TRIPOS>ATOM
  1 CL       0.0370     0.5420     0.0800 Cl    1 <1>  -0.1770 
  2 C        1.4190    -0.5190     0.1040 C.ar  1 <1>   0.1770 
  3 C        1.2460    -1.8600     0.3040 C.ar  1 <1>  -0.1500 
  4 C        2.6830     0.0300    -0.0750 C.ar  1 <1>  -0.1500 
  5 C        2.3370    -2.7530     0.2990 C.ar  1 <1>   0.0000 
  6 C        3.7880    -0.7830    -0.0070 C.ar  1 <1>  -0.1440 
  7 C        3.6250    -2.1660     0.2280 C.ar  1 <1>   0.3610 
  8 C        2.2240    -4.1860     0.4080 C.ar  1 <1>   0.1000 
  9 C        5.1680    -0.1480    -0.1780 C.3   1 <1>  -0.0960 
 10 N        4.7280    -2.9590     0.4480 N.ar  1 <1>  -0.1790 
 11 N        1.0820    -4.9010     0.1780 N.pl3 1 <1>  -0.8380 
 12 C        3.4010    -4.8760     0.7230 C.ar  1 <1>  -0.1500 
 13 C        4.6250    -4.2660     0.7310 C.ar  1 <1>   0.2110 
 14 C       -0.1380    -4.4520    -0.5690 C.3   1 <1>   0.2090 
 15 C        0.9530    -6.3750     0.4120 C.3   1 <1>   0.2090 
 16 C       -0.7940    -5.7280    -1.0870 C.3   1 <1>   0.2000 
 17 C       -0.4490    -6.7780    -0.0450 C.3   1 <1>  -0.0800 
 18 O       -2.1690    -5.6070    -1.2080 O.3   1 <1>  -0.6800 
 19 C       -0.5460    -8.2150    -0.5920 C.3   1 <1>  -0.0550 
 20 S       -0.0250    -9.4500     0.5960 S.o2  1 <1>   1.3330 
 21 O        1.4070    -9.3350     0.7700 O.2   1 <1>  -0.6500 
 22 O       -0.8920    -9.3360     1.7460 O.2   1 <1>  -0.6500 
 23 N       -0.3510   -10.9150    -0.1950 N.am  1 <1>  -0.8490 
 24 C       -0.6720   -11.9950     0.7430 C.3   1 <1>   0.1160 
 25 C        0.7190   -11.3420    -1.1030 C.3   1 <1>   0.1160 
 26 H        0.2510    -2.2080     0.4850 H     1 <1>   0.1500 
 27 H        2.7550     1.0910    -0.2490 H     1 <1>   0.1500 
 28 H        5.0770     0.8980    -0.4190 H     1 <1>   0.0800 
 29 H        5.7090    -0.6160    -0.9820 H     1 <1>   0.0800 
 30 H        5.7380    -0.2190     0.7320 H     1 <1>   0.0800 
 31 H        5.6400    -2.4990     0.4270 H     1 <1>   0.4570 
 32 H        3.3700    -5.9270     0.9430 H     1 <1>   0.1500 
 33 H        5.5180    -4.8280     0.9540 H     1 <1>   0.1500 
 34 H       -0.8130    -3.9680     0.1140 H     1 <1>   0.0800 
 35 H        0.1220    -3.7970    -1.3820 H     1 <1>   0.0800 
 36 H        1.6910    -6.8900    -0.1810 H     1 <1>   0.0800 
 37 H        1.1010    -6.6120     1.4530 H     1 <1>   0.0800 
 38 H       -0.3880    -5.9780    -2.0530 H     1 <1>   0.0800 
 39 H       -1.1030    -6.6750     0.8050 H     1 <1>   0.0800 
 40 H       -2.5860    -5.4510    -0.3370 H     1 <1>   0.4000 
 41 H        0.0530    -8.3010    -1.4770 H     1 <1>   0.0800 
 42 H       -1.5650    -8.4070    -0.8690 H     1 <1>   0.0800 
 43 H       -0.8940   -12.9020     0.2070 H     1 <1>   0.0800 
 44 H       -1.5380   -11.7310     1.3280 H     1 <1>   0.0800 
 45 H        0.1550   -12.1700     1.4110 H     1 <1>   0.0800 
 46 H        0.4170   -12.2260    -1.6390 H     1 <1>   0.0800 
 47 H        1.6190   -11.5580    -0.5500 H     1 <1>   0.0800 
 48 H        0.9310   -10.5670    -1.8190 H     1 <1>   0.0800 
@<TRIPOS>BOND
  1   1   2  1   
  2   2   3  ar  
  3   2   4  ar  
  4   3   5  ar  
  5   3  26  1   
  6   4   6  ar  
  7   4  27  1   
  8   5   7  ar  
  9   5   8  ar  
 10   6   7  ar  
 11   6   9  1   
 12   7  10  ar  
 13   8  11  1   
 14   8  12  ar  
 15   9  28  1   
 16   9  29  1   
 17   9  30  1   
 18  10  13  ar  
 19  10  31  1   
 20  11  14  1   
 21  11  15  1   
 22  12  13  ar  
 23  12  32  1   
 24  13  33  1   
 25  14  16  1   
 26  14  34  1   
 27  14  35  1   
 28  15  17  1   
 29  15  36  1   
 30  15  37  1   
 31  16  17  1   
 32  16  18  1   
 33  16  38  1   
 34  17  19  1   
 35  17  39  1   
 36  18  40  1   
 37  19  20  1   
 38  19  41  1   
 39  19  42  1   
 40  20  21  2   
 41  20  22  2   
 42  20  23  am  
 43  23  24  1   
 44  23  25  1   
 45  24  43  1   
 46  24  44  1   
 47  24  45  1   
 48  25  46  1   
 49  25  47  1   
 50  25  48  1   
@<TRIPOS>SUBSTRUCTURE
  1 ****  11 GROUP 4 **** **** 0

# MOE 2024.06 (io_trps.svl 2023.06)
