@<TRIPOS>MOLECULE
NONAME
32 33 1 0 0 
SMALL
USER_CHARGES


@<TRIPOS>ATOM
  1 O       -1.2170    -0.3210     0.1540 O.2   1 <1>  -0.5700 
  2 C       -1.8920     0.6230     0.5360 C.2   1 <1>   0.7150 
  3 N       -3.0790     0.3350     1.1810 N.am  1 <1>  -0.6600 
  4 C       -1.4240     1.9610     0.2610 C.2   1 <1>   0.0550 
  5 C       -3.3530    -1.0530     1.6540 C.3   1 <1>   0.3200 
  6 C       -4.2980     1.2030     1.1190 C.3   1 <1>   0.1400 
  7 O       -1.9370     3.0280     0.8310 O.3   1 <1>  -0.0190 
  8 C       -0.4370     2.4120    -0.5460 C.2   1 <1>  -0.1500 
  9 C       -4.0140    -1.8530     0.5450 C.2   1 <1>   0.0060 
 10 C       -4.7910     1.3620    -0.3250 C.3   1 <1>   0.1200 
 11 N       -1.3710     4.1320     0.4520 N.2   1 <1>  -0.4100 
 12 C       -0.4560     3.7880    -0.3820 C.2   1 <1>   0.1080 
 13 N       -5.2560    -2.2230     0.5300 N.2   1 <1>  -0.5650 
 14 N       -3.3240    -2.2270    -0.5520 N.pl3 1 <1>   0.0330 
 15 O       -6.0790     1.8730    -0.3140 O.3   1 <1>  -0.6800 
 16 C        0.4590     4.7740    -1.0730 C.3   1 <1>  -0.0590 
 17 C       -5.3780    -2.8810    -0.6400 C.2   1 <1>   0.0770 
 18 C       -4.2080    -2.8910    -1.3160 C.2   1 <1>  -0.3020 
 19 H       -4.0010    -1.0260     2.5130 H     1 <1>   0.0800 
 20 H       -2.4370    -1.5340     1.9510 H     1 <1>   0.0800 
 21 H       -4.0920     2.1680     1.5450 H     1 <1>   0.0800 
 22 H       -5.0820     0.7500     1.7010 H     1 <1>   0.0800 
 23 H        0.2220     1.8430    -1.1750 H     1 <1>   0.1500 
 24 H       -4.8180     0.4150    -0.8360 H     1 <1>   0.0800 
 25 H       -4.1660     2.0530    -0.8650 H     1 <1>   0.0800 
 26 H       -2.3370    -2.0000    -0.7380 H     1 <1>   0.2700 
 27 H       -6.7140     1.1810    -0.0370 H     1 <1>   0.4000 
 28 H        1.1470     4.2610    -1.7200 H     1 <1>   0.0800 
 29 H        1.0150     5.3260    -0.3370 H     1 <1>   0.0800 
 30 H       -0.1250     5.4620    -1.6560 H     1 <1>   0.0800 
 31 H       -6.3160    -3.3190    -0.9390 H     1 <1>   0.1500 
 32 H       -3.9640    -3.3210    -2.2700 H     1 <1>   0.1500 
@<TRIPOS>BOND
  1   1   2  2   
  2   2   3  am  
  3   2   4  1   
  4   3   5  1   
  5   3   6  1   
  6   4   7  1   
  7   4   8  2   
  8   5   9  1   
  9   5  19  1   
 10   5  20  1   
 11   6  10  1   
 12   6  21  1   
 13   6  22  1   
 14   7  11  1   
 15   8  12  1   
 16   8  23  1   
 17   9  13  2   
 18   9  14  1   
 19  10  15  1   
 20  10  24  1   
 21  10  25  1   
 22  11  12  2   
 23  12  16  1   
 24  13  17  1   
 25  14  18  1   
 26  14  26  1   
 27  15  27  1   
 28  16  28  1   
 29  16  29  1   
 30  16  30  1   
 31  17  18  2   
 32  17  31  1   
 33  18  32  1   
@<TRIPOS>SUBSTRUCTURE
  1 ****   2 GROUP 4 **** **** 0

# MOE 2024.06 (io_trps.svl 2023.06)
