@<TRIPOS>MOLECULE
NONAME
53 57 1 0 0 
SMALL
USER_CHARGES


@<TRIPOS>ATOM
  1 S        0.0880     0.3810    -0.0140 S.3   1 <1>  -0.0800 
  2 C       -0.8780    -0.0780     1.3690 C.2   1 <1>   0.2280 
  3 C       -0.5810    -0.9670    -0.8880 C.2   1 <1>  -0.1100 
  4 N       -1.6140    -1.1000     1.1780 N.2   1 <1>  -0.5650 
  5 C       -1.4490    -1.6130    -0.0920 C.2   1 <1>   0.0460 
  6 C       -2.2520    -2.8610    -0.4440 C.3   1 <1>   0.0210 
  7 C       -3.8360    -2.7760    -0.2480 C.3   1 <1>   0.0610 
  8 C       -3.7920    -3.8890     0.8260 C.2   1 <1>   0.5690 
  9 C       -3.9270    -1.5610    -1.2530 C.3   1 <1>   0.4230 
 10 C       -5.4300    -2.7800    -0.1220 C.3   1 <1>  -0.1600 
 11 O       -3.7730    -3.5830     1.9930 O.2   1 <1>  -0.5700 
 12 N       -3.8430    -5.1960     0.4410 N.am  1 <1>  -0.7300 
 13 N       -5.1010    -1.7860    -2.1010 N.4   1 <1>  -0.9060 
 14 C       -4.3220    -0.2440    -0.5540 C.3   1 <1>  -0.1600 
 15 C       -6.0630    -1.7520    -1.0390 C.3   1 <1>   0.4230 
 16 C       -4.3530    -6.2560     1.3310 C.3   1 <1>   0.2840 
 17 C       -5.8410    -0.3630    -0.4580 C.3   1 <1>  -0.1600 
 18 C       -5.8450    -6.3300     1.0650 C.ar  1 <1>  -0.1430 
 19 C       -6.3540    -7.1750     0.0890 C.ar  1 <1>  -0.1500 
 20 C       -6.7060    -5.5100     1.7790 C.ar  1 <1>  -0.1500 
 21 C       -7.7110    -7.1910    -0.1910 C.ar  1 <1>  -0.1430 
 22 C       -8.0610    -5.5200     1.5060 C.ar  1 <1>  -0.1500 
 23 C       -8.5640    -6.3510     0.5210 C.ar  1 <1>   0.0830 
 24 C       -8.2600    -8.1210    -1.2620 C.3   1 <1>  -0.0170 
 25 O       -9.8950    -6.3050     0.2750 O.3   1 <1>  -0.3620 
 26 C       -9.6550    -7.6690    -1.7010 C.3   1 <1>  -0.1600 
 27 C      -10.5040    -7.3400    -0.4700 C.3   1 <1>   0.1200 
 28 H       -0.7830     0.5220     2.2580 H     1 <1>   0.1500 
 29 H       -0.2370    -1.1240    -1.8940 H     1 <1>   0.1500 
 30 H       -2.0410    -3.1180    -1.4690 H     1 <1>   0.0800 
 31 H       -1.7390    -3.6390     0.1050 H     1 <1>   0.0800 
 32 H       -3.0510    -1.4160    -1.8650 H     1 <1>   0.0800 
 33 H       -5.7720    -2.5750     0.8830 H     1 <1>   0.0800 
 34 H       -5.8490    -3.7330    -0.4040 H     1 <1>   0.0800 
 35 H       -3.8940    -5.4510    -0.5430 H     1 <1>   0.3700 
 36 H       -5.2530    -1.0120    -2.7560 H     1 <1>   0.4500 
 37 H       -5.0920    -2.6890    -2.5840 H     1 <1>   0.4500 
 38 H       -3.8810    -0.1560     0.4230 H     1 <1>   0.0800 
 39 H       -4.0290     0.6060    -1.1450 H     1 <1>   0.0800 
 40 H       -7.0810    -1.9660    -1.3320 H     1 <1>   0.0800 
 41 H       -3.8730    -7.1930     1.1050 H     1 <1>   0.0800 
 42 H       -4.1630    -6.0120     2.3630 H     1 <1>   0.0800 
 43 H       -6.3370     0.3850    -1.0520 H     1 <1>   0.0800 
 44 H       -6.1920    -0.2930     0.5580 H     1 <1>   0.0800 
 45 H       -5.6920    -7.8230    -0.4590 H     1 <1>   0.1500 
 46 H       -6.3200    -4.8580     2.5460 H     1 <1>   0.1500 
 47 H       -8.7360    -4.8870     2.0540 H     1 <1>   0.1500 
 48 H       -7.6020    -8.1450    -2.1120 H     1 <1>   0.0800 
 49 H       -8.3190    -9.1140    -0.8520 H     1 <1>   0.0800 
 50 H      -10.1270    -8.4460    -2.2750 H     1 <1>   0.0800 
 51 H       -9.5830    -6.7910    -2.3190 H     1 <1>   0.0800 
 52 H      -10.5960    -8.1980     0.1740 H     1 <1>   0.0800 
 53 H      -11.4850    -7.0050    -0.7570 H     1 <1>   0.0800 
@<TRIPOS>BOND
  1   1   2  1   
  2   1   3  1   
  3   2   4  2   
  4   2  28  1   
  5   3   5  2   
  6   3  29  1   
  7   4   5  1   
  8   5   6  1   
  9   6   7  1   
 10   6  30  1   
 11   6  31  1   
 12   7   8  1   
 13   7   9  1   
 14   7  10  1   
 15   8  11  2   
 16   8  12  am  
 17   9  13  1   
 18   9  14  1   
 19   9  32  1   
 20  10  15  1   
 21  10  33  1   
 22  10  34  1   
 23  12  16  1   
 24  12  35  1   
 25  13  15  1   
 26  13  36  1   
 27  13  37  1   
 28  14  17  1   
 29  14  38  1   
 30  14  39  1   
 31  15  17  1   
 32  15  40  1   
 33  16  18  1   
 34  16  41  1   
 35  16  42  1   
 36  17  43  1   
 37  17  44  1   
 38  18  19  ar  
 39  18  20  ar  
 40  19  21  ar  
 41  19  45  1   
 42  20  22  ar  
 43  20  46  1   
 44  21  23  ar  
 45  21  24  1   
 46  22  23  ar  
 47  22  47  1   
 48  23  25  1   
 49  24  26  1   
 50  24  48  1   
 51  24  49  1   
 52  25  27  1   
 53  26  27  1   
 54  26  50  1   
 55  26  51  1   
 56  27  52  1   
 57  27  53  1   
@<TRIPOS>SUBSTRUCTURE
  1 ****  10 GROUP 4 **** **** 0

# MOE 2024.06 (io_trps.svl 2023.06)
