@<TRIPOS>MOLECULE
NONAME
52 55 1 0 0 
SMALL
USER_CHARGES


@<TRIPOS>ATOM
  1 S        0.3180    -0.1090     2.5900 S.3   1 <1>  -0.0800 
  2 C        1.0520     0.0120     1.0140 C.2   1 <1>   0.1980 
  3 C       -0.0400    -1.7760     2.2620 C.2   1 <1>  -0.1100 
  4 N        1.0080    -1.0630     0.3340 N.2   1 <1>  -0.5650 
  5 C        1.6810     1.3410     0.6130 C.3   1 <1>   0.5230 
  6 C        0.3890    -2.1210     1.0260 C.2   1 <1>   0.1410 
  7 N        2.2320     1.2340    -0.7810 N.4   1 <1>  -0.9590 
  8 C        0.2750    -3.4460     0.4170 C.2   1 <1>   0.7160 
  9 C        3.3690     2.1660    -1.0340 C.3   1 <1>   0.2630 
 10 C        1.1550     1.3630    -1.8110 C.3   1 <1>   0.2630 
 11 O        1.0660    -3.8000    -0.4390 O.2   1 <1>  -0.5700 
 12 N       -0.7200    -4.3280     0.7820 N.am  1 <1>  -0.6600 
 13 C       -0.6010    -5.7970     0.5040 C.3   1 <1>   0.1400 
 14 C       -2.1340    -3.9010     1.0200 C.3   1 <1>   0.1400 
 15 C       -1.6190    -6.2520    -0.5580 C.3   1 <1>   0.3430 
 16 C       -3.0710    -4.4640    -0.0690 C.3   1 <1>   0.2950 
 17 O       -2.9110    -5.8460    -0.1850 O.3   1 <1>  -0.5600 
 18 C       -1.5840    -7.7690    -0.7160 C.ar  1 <1>  -0.1430 
 19 C       -4.5410    -4.1990     0.2680 C.3   1 <1>  -0.1950 
 20 C       -2.3710    -8.5990     0.0720 C.ar  1 <1>  -0.1500 
 21 C       -0.7370    -8.3400    -1.6560 C.ar  1 <1>  -0.1500 
 22 C       -5.5880    -4.1920    -0.8010 C.3   1 <1>  -0.2000 
 23 C       -5.2060    -2.9120    -0.1130 C.3   1 <1>  -0.2000 
 24 C       -2.3120    -9.9740    -0.0770 C.ar  1 <1>  -0.1500 
 25 C       -0.6770    -9.7150    -1.8060 C.ar  1 <1>  -0.1500 
 26 C       -1.4640   -10.5330    -1.0160 C.ar  1 <1>  -0.1500 
 27 H       -0.5300    -2.3480     3.0310 H     1 <1>   0.1500 
 28 H        2.4770     1.5590     1.3050 H     1 <1>   0.0800 
 29 H        0.9490     2.1290     0.6700 H     1 <1>   0.0800 
 30 H        2.5640     0.2510    -0.8380 H     1 <1>   0.4500 
 31 H        3.0400     3.1900    -0.9630 H     1 <1>   0.0800 
 32 H        3.7720     2.0020    -2.0200 H     1 <1>   0.0800 
 33 H        4.1560     2.0030    -0.3140 H     1 <1>   0.0800 
 34 H        0.7150     2.3470    -1.7780 H     1 <1>   0.0800 
 35 H        0.3830     0.6300    -1.6350 H     1 <1>   0.0800 
 36 H        1.5590     1.1970    -2.7960 H     1 <1>   0.0800 
 37 H        0.3910    -6.0440     0.1690 H     1 <1>   0.0800 
 38 H       -0.7800    -6.3450     1.4130 H     1 <1>   0.0800 
 39 H       -2.4550    -4.2600     1.9820 H     1 <1>   0.0800 
 40 H       -2.2150    -2.8290     1.0180 H     1 <1>   0.0800 
 41 H       -1.3860    -5.7920    -1.5030 H     1 <1>   0.0800 
 42 H       -2.8360    -4.0190    -1.0210 H     1 <1>   0.0800 
 43 H       -4.8200    -4.6320     1.2130 H     1 <1>   0.1000 
 44 H       -3.0380    -8.1740     0.8020 H     1 <1>   0.1500 
 45 H       -0.1180    -7.7170    -2.2780 H     1 <1>   0.1500 
 46 H       -5.2850    -4.3540    -1.8210 H     1 <1>   0.1000 
 47 H       -6.5420    -4.6400    -0.5820 H     1 <1>   0.1000 
 48 H       -5.9120    -2.4680     0.5680 H     1 <1>   0.1000 
 49 H       -4.6680    -2.1750    -0.6850 H     1 <1>   0.1000 
 50 H       -2.9280   -10.6070     0.5370 H     1 <1>   0.1500 
 51 H       -0.0180   -10.1480    -2.5380 H     1 <1>   0.1500 
 52 H       -1.4190   -11.6020    -1.1320 H     1 <1>   0.1500 
@<TRIPOS>BOND
  1   1   2  1   
  2   1   3  1   
  3   2   4  2   
  4   2   5  1   
  5   3   6  2   
  6   3  27  1   
  7   4   6  1   
  8   5   7  1   
  9   5  28  1   
 10   5  29  1   
 11   6   8  1   
 12   7   9  1   
 13   7  10  1   
 14   7  30  1   
 15   8  11  2   
 16   8  12  am  
 17   9  31  1   
 18   9  32  1   
 19   9  33  1   
 20  10  34  1   
 21  10  35  1   
 22  10  36  1   
 23  12  13  1   
 24  12  14  1   
 25  13  15  1   
 26  13  37  1   
 27  13  38  1   
 28  14  16  1   
 29  14  39  1   
 30  14  40  1   
 31  15  17  1   
 32  15  18  1   
 33  15  41  1   
 34  16  17  1   
 35  16  19  1   
 36  16  42  1   
 37  18  20  ar  
 38  18  21  ar  
 39  19  22  1   
 40  19  23  1   
 41  19  43  1   
 42  20  24  ar  
 43  20  44  1   
 44  21  25  ar  
 45  21  45  1   
 46  22  23  1   
 47  22  46  1   
 48  22  47  1   
 49  23  48  1   
 50  23  49  1   
 51  24  26  ar  
 52  24  50  1   
 53  25  26  ar  
 54  25  51  1   
 55  26  52  1   
@<TRIPOS>SUBSTRUCTURE
  1 ****  12 GROUP 4 **** **** 0

# MOE 2024.06 (io_trps.svl 2023.06)
