@<TRIPOS>MOLECULE
NONAME
43 44 1 0 0 
SMALL
USER_CHARGES


@<TRIPOS>ATOM
  1 S        0.1610     0.7500    -1.0120 S.o2  1 <1>   1.3330 
  2 O       -0.1150     1.4400    -2.2510 O.2   1 <1>  -0.6500 
  3 O        0.3250    -0.6850    -1.0320 O.2   1 <1>  -0.6500 
  4 N        1.5910     1.3990    -0.3710 N.am  1 <1>  -0.8490 
  5 C       -1.1520     1.1440     0.1600 C.3   1 <1>  -0.0550 
  6 C        2.6200     1.5360    -1.4080 C.3   1 <1>   0.1160 
  7 C        2.1350     0.6230     0.7500 C.3   1 <1>   0.1160 
  8 C       -1.4520     2.6200     0.5270 C.3   1 <1>  -0.0800 
  9 C       -1.5430     3.5850    -0.6630 C.3   1 <1>   0.2000 
 10 C       -0.4120     3.2490     1.4650 C.3   1 <1>   0.1400 
 11 O       -2.4790     4.5530    -0.3370 O.3   1 <1>  -0.6800 
 12 C       -0.1750     4.2650    -0.7330 C.3   1 <1>   0.1400 
 13 N        0.3170     4.2650     0.6690 N.am  1 <1>  -0.6600 
 14 C        1.5520     4.7330     1.0580 C.2   1 <1>   0.7160 
 15 O        2.0070     4.3570     2.1220 O.2   1 <1>  -0.5700 
 16 C        2.3100     5.6380     0.2320 C.2   1 <1>  -0.0860 
 17 C        1.9930     6.8070    -0.3660 C.2   1 <1>  -0.0400 
 18 C        3.6390     5.5020    -0.1400 C.2   1 <1>   0.1080 
 19 O        2.9910     7.2950    -1.0630 O.3   1 <1>  -0.0190 
 20 C        0.7110     7.6150    -0.3170 C.3   1 <1>  -0.0600 
 21 N        3.9970     6.4680    -0.8980 N.2   1 <1>  -0.4100 
 22 C        4.5820     4.3970     0.2880 C.3   1 <1>  -0.0590 
 23 H       -2.0580     0.7370    -0.2470 H     1 <1>   0.0800 
 24 H       -0.9680     0.6060     1.0690 H     1 <1>   0.0800 
 25 H        3.5330     1.9180    -0.9880 H     1 <1>   0.0800 
 26 H        2.2880     2.2190    -2.1710 H     1 <1>   0.0800 
 27 H        2.8190     0.5800    -1.8650 H     1 <1>   0.0800 
 28 H        2.9820     1.1360     1.1750 H     1 <1>   0.0800 
 29 H        2.4460    -0.3540     0.4190 H     1 <1>   0.0800 
 30 H        1.3940     0.5060     1.5200 H     1 <1>   0.0800 
 31 H       -2.3970     2.6020     1.0430 H     1 <1>   0.0800 
 32 H       -1.8450     3.1270    -1.5900 H     1 <1>   0.0800 
 33 H        0.2710     2.5160     1.8570 H     1 <1>   0.0800 
 34 H       -0.8990     3.7400     2.2890 H     1 <1>   0.0800 
 35 H       -2.1570     5.0600     0.4340 H     1 <1>   0.4000 
 36 H       -0.2580     5.2550    -1.1410 H     1 <1>   0.0800 
 37 H        0.5010     3.6960    -1.3450 H     1 <1>   0.0800 
 38 H       -0.0030     7.1590     0.3440 H     1 <1>   0.0800 
 39 H        0.2860     7.6880    -1.3020 H     1 <1>   0.0800 
 40 H        0.9240     8.6060     0.0410 H     1 <1>   0.0800 
 41 H        4.0370     3.5150     0.5650 H     1 <1>   0.0800 
 42 H        5.1540     4.7280     1.1350 H     1 <1>   0.0800 
 43 H        5.2540     4.1580    -0.5150 H     1 <1>   0.0800 
@<TRIPOS>BOND
  1   1   2  2   
  2   1   3  2   
  3   1   4  am  
  4   1   5  1   
  5   4   6  1   
  6   4   7  1   
  7   5   8  1   
  8   5  23  1   
  9   5  24  1   
 10   6  25  1   
 11   6  26  1   
 12   6  27  1   
 13   7  28  1   
 14   7  29  1   
 15   7  30  1   
 16   8   9  1   
 17   8  10  1   
 18   8  31  1   
 19   9  11  1   
 20   9  12  1   
 21   9  32  1   
 22  10  13  1   
 23  10  33  1   
 24  10  34  1   
 25  11  35  1   
 26  12  13  1   
 27  12  36  1   
 28  12  37  1   
 29  13  14  am  
 30  14  15  2   
 31  14  16  1   
 32  16  17  2   
 33  16  18  1   
 34  17  19  1   
 35  17  20  1   
 36  18  21  2   
 37  18  22  1   
 38  19  21  1   
 39  20  38  1   
 40  20  39  1   
 41  20  40  1   
 42  22  41  1   
 43  22  42  1   
 44  22  43  1   
@<TRIPOS>SUBSTRUCTURE
  1 ****  13 GROUP 4 **** **** 0

# MOE 2024.06 (io_trps.svl 2023.06)
