@<TRIPOS>MOLECULE
NONAME
52 55 1 0 0 
SMALL
USER_CHARGES


@<TRIPOS>ATOM
  1 O       -0.4430     0.7730     0.1640 O.2   1 <1>  -0.5700 
  2 C       -1.4730     1.2000    -0.3010 C.2   1 <1>   0.5690 
  3 N       -2.5500     0.3820    -0.4940 N.am  1 <1>  -0.6600 
  4 C       -1.5760     2.6760    -0.6640 C.3   1 <1>  -0.0990 
  5 C       -3.9270     0.7830    -0.8780 C.3   1 <1>   0.1400 
  6 C       -2.5220    -1.0590    -0.1340 C.3   1 <1>   0.1400 
  7 C       -0.2330     3.4300    -0.6240 C.3   1 <1>  -0.1600 
  8 C       -4.8140    -0.2710    -0.2200 C.3   1 <1>   0.2000 
  9 C       -3.9680    -1.5470    -0.2920 C.3   1 <1>  -0.0800 
 10 C       -0.3930     4.9080    -1.0090 C.3   1 <1>   0.0200 
 11 O       -4.9940     0.0940     1.1060 O.3   1 <1>  -0.6800 
 12 C       -4.3630    -2.6570     0.6990 C.3   1 <1>  -0.0170 
 13 C        0.9250     5.6530    -0.9250 C.2   1 <1>   0.2980 
 14 C       -3.5260    -3.9070     0.4780 C.ar  1 <1>  -0.1440 
 15 O        1.8720     5.3610    -1.7790 O.3   1 <1>  -0.0190 
 16 N        1.2070     6.5620    -0.0870 N.2   1 <1>  -0.5650 
 17 C       -2.3950    -4.1740     1.2230 C.ar  1 <1>  -0.1500 
 18 C       -3.8550    -4.8400    -0.4850 C.ar  1 <1>  -0.1500 
 19 N        2.8440     6.1530    -1.4550 N.2   1 <1>  -0.4100 
 20 C        2.4570     6.8620    -0.4540 C.2   1 <1>   0.4620 
 21 C       -1.6660    -5.3260     0.9730 C.ar  1 <1>   0.1600 
 22 C       -3.0580    -5.9610    -0.6530 C.ar  1 <1>   0.1600 
 23 C        3.2480     7.8730     0.2200 C.ar  1 <1>   0.0540 
 24 N       -1.9710    -6.2250     0.0520 N.ar  1 <1>  -0.6200 
 25 C        4.5460     8.1840    -0.1630 C.ar  1 <1>  -0.1500 
 26 C        2.7740     8.6100     1.2980 C.ar  1 <1>  -0.1500 
 27 C        5.2640     9.1560     0.5080 C.ar  1 <1>   0.1600 
 28 C        3.5720     9.5630     1.9030 C.ar  1 <1>   0.1600 
 29 N        4.8080     9.8540     1.5340 N.ar  1 <1>  -0.6200 
 30 H       -1.9880     2.7500    -1.6540 H     1 <1>   0.0800 
 31 H       -2.2600     3.1390     0.0240 H     1 <1>   0.0800 
 32 H       -4.1780     1.7740    -0.5430 H     1 <1>   0.0800 
 33 H       -4.0220     0.7260    -1.9490 H     1 <1>   0.0800 
 34 H       -1.8510    -1.5990    -0.7800 H     1 <1>   0.0800 
 35 H       -2.1880    -1.1580     0.8850 H     1 <1>   0.0800 
 36 H        0.1800     3.3680     0.3700 H     1 <1>   0.0800 
 37 H        0.4620     2.9550    -1.2960 H     1 <1>   0.0800 
 38 H       -5.7810    -0.3670    -0.6850 H     1 <1>   0.0800 
 39 H       -4.0620    -1.9410    -1.2890 H     1 <1>   0.0800 
 40 H       -1.0960     5.3800    -0.3460 H     1 <1>   0.0800 
 41 H       -0.7710     4.9900    -2.0120 H     1 <1>   0.0800 
 42 H       -4.1180     0.2880     1.4970 H     1 <1>   0.4000 
 43 H       -5.4040    -2.8980     0.5700 H     1 <1>   0.0800 
 44 H       -4.2380    -2.3190     1.7130 H     1 <1>   0.0800 
 45 H       -2.0710    -3.5000     1.9950 H     1 <1>   0.1500 
 46 H       -4.7220    -4.7080    -1.1050 H     1 <1>   0.1500 
 47 H       -0.7860    -5.5160     1.5630 H     1 <1>   0.1500 
 48 H       -3.3310    -6.6780    -1.4090 H     1 <1>   0.1500 
 49 H        4.9990     7.6660    -0.9880 H     1 <1>   0.1500 
 50 H        1.7790     8.4400     1.6680 H     1 <1>   0.1500 
 51 H        6.2680     9.3720     0.1840 H     1 <1>   0.1500 
 52 H        3.1730    10.1160     2.7370 H     1 <1>   0.1500 
@<TRIPOS>BOND
  1   1   2  2   
  2   2   3  am  
  3   2   4  1   
  4   3   5  1   
  5   3   6  1   
  6   4   7  1   
  7   4  30  1   
  8   4  31  1   
  9   5   8  1   
 10   5  32  1   
 11   5  33  1   
 12   6   9  1   
 13   6  34  1   
 14   6  35  1   
 15   7  10  1   
 16   7  36  1   
 17   7  37  1   
 18   8   9  1   
 19   8  11  1   
 20   8  38  1   
 21   9  12  1   
 22   9  39  1   
 23  10  13  1   
 24  10  40  1   
 25  10  41  1   
 26  11  42  1   
 27  12  14  1   
 28  12  43  1   
 29  12  44  1   
 30  13  15  1   
 31  13  16  2   
 32  14  17  ar  
 33  14  18  ar  
 34  15  19  1   
 35  16  20  1   
 36  17  21  ar  
 37  17  45  1   
 38  18  22  ar  
 39  18  46  1   
 40  19  20  2   
 41  20  23  1   
 42  21  24  ar  
 43  21  47  1   
 44  22  24  ar  
 45  22  48  1   
 46  23  25  ar  
 47  23  26  ar  
 48  25  27  ar  
 49  25  49  1   
 50  26  28  ar  
 51  26  50  1   
 52  27  29  ar  
 53  27  51  1   
 54  28  29  ar  
 55  28  52  1   
@<TRIPOS>SUBSTRUCTURE
  1 ****   4 GROUP 4 **** **** 0

# MOE 2024.06 (io_trps.svl 2023.06)
