@<TRIPOS>MOLECULE
NONAME
52 55 1 0 0 
SMALL
USER_CHARGES


@<TRIPOS>ATOM
  1 S       -2.4200     1.5940     1.5940 S.o2  1 <1>   1.3330 
  2 O       -1.0580     1.1570     1.7500 O.2   1 <1>  -0.6500 
  3 O       -3.2980     1.7460     2.7280 O.2   1 <1>  -0.6500 
  4 N       -3.1160     0.4560     0.5890 N.am  1 <1>  -0.9140 
  5 C       -2.4690     3.0760     0.6100 C.3   1 <1>  -0.1350 
  6 C       -3.4650    -0.7670     1.3400 C.3   1 <1>   0.2570 
  7 C       -3.9850    -1.9050     0.4500 C.2   1 <1>   0.5690 
  8 O       -3.1660    -2.7080     0.0670 O.2   1 <1>  -0.5700 
  9 N       -5.3120    -2.0010     0.0930 N.am  1 <1>  -0.6600 
 10 C       -6.3650    -0.9850     0.4200 C.3   1 <1>   0.1400 
 11 C       -5.8130    -3.1410    -0.7270 C.3   1 <1>   0.1400 
 12 C       -7.0190    -0.4250    -0.8590 C.3   1 <1>   0.1430 
 13 C       -6.4440    -2.6180    -2.0230 C.3   1 <1>  -0.1600 
 14 C       -8.1180     0.5390    -0.4510 C.ar  1 <1>   0.1670 
 15 C       -7.5440    -1.5810    -1.7370 C.3   1 <1>  -0.1600 
 16 C       -6.0430     0.4990    -1.6340 C.3   1 <1>  -0.1600 
 17 N       -9.2930     0.2010     0.0230 N.ar  1 <1>  -0.6200 
 18 C       -7.7350     1.8330    -0.6230 C.ar  1 <1>  -0.1430 
 19 C       -6.3310     1.9360    -1.1660 C.3   1 <1>  -0.0170 
 20 C      -10.1200     1.2140     0.3200 C.ar  1 <1>   0.6200 
 21 C       -8.6320     2.8140    -0.2890 C.ar  1 <1>   0.1600 
 22 N       -9.8220     2.5140     0.1790 N.ar  1 <1>  -0.6200 
 23 C      -11.4420     0.8750     0.8340 C.ar  1 <1>   0.0000 
 24 C      -11.6860    -0.3290     1.5020 C.ar  1 <1>  -0.1500 
 25 C      -12.5310     1.7390     0.6820 C.ar  1 <1>  -0.1500 
 26 C      -12.9390    -0.6520     1.9900 C.ar  1 <1>  -0.1500 
 27 C      -13.7870     1.4230     1.1670 C.ar  1 <1>  -0.1500 
 28 C      -13.9950     0.2240     1.8230 C.ar  1 <1>  -0.1500 
 29 H       -2.3530     0.1630    -0.0240 H     1 <1>   0.4200 
 30 H       -2.0270     3.8880     1.1530 H     1 <1>   0.0800 
 31 H       -3.4830     3.3310     0.3760 H     1 <1>   0.0800 
 32 H       -1.9240     2.9360    -0.3020 H     1 <1>   0.0800 
 33 H       -4.1980    -0.5430     2.0940 H     1 <1>   0.0800 
 34 H       -2.5880    -1.1290     1.8500 H     1 <1>   0.0800 
 35 H       -5.9610    -0.1680     0.9890 H     1 <1>   0.0800 
 36 H       -7.1230    -1.4570     1.0220 H     1 <1>   0.0800 
 37 H       -6.5470    -3.6840    -0.1570 H     1 <1>   0.0800 
 38 H       -5.0130    -3.8220    -0.9670 H     1 <1>   0.0800 
 39 H       -6.8630    -3.4440    -2.5680 H     1 <1>   0.0800 
 40 H       -5.6720    -2.1840    -2.6340 H     1 <1>   0.0800 
 41 H       -7.9420    -1.1960    -2.6590 H     1 <1>   0.0800 
 42 H       -8.3520    -2.0710    -1.2200 H     1 <1>   0.0800 
 43 H       -6.2600     0.4430    -2.6860 H     1 <1>   0.0800 
 44 H       -5.0120     0.2290    -1.4900 H     1 <1>   0.0800 
 45 H       -6.2640     2.6390    -1.9780 H     1 <1>   0.0800 
 46 H       -5.6580     2.2180    -0.3750 H     1 <1>   0.0800 
 47 H       -8.3750     3.8520    -0.4060 H     1 <1>   0.1500 
 48 H      -10.8790    -1.0260     1.6440 H     1 <1>   0.1500 
 49 H      -12.3920     2.6770     0.1730 H     1 <1>   0.1500 
 50 H      -13.0930    -1.5880     2.4990 H     1 <1>   0.1500 
 51 H      -14.6040     2.1110     1.0340 H     1 <1>   0.1500 
 52 H      -14.9710    -0.0240     2.2020 H     1 <1>   0.1500 
@<TRIPOS>BOND
  1   1   2  2   
  2   1   3  2   
  3   1   4  am  
  4   1   5  1   
  5   4   6  1   
  6   4  29  1   
  7   5  30  1   
  8   5  31  1   
  9   5  32  1   
 10   6   7  1   
 11   6  33  1   
 12   6  34  1   
 13   7   8  2   
 14   7   9  am  
 15   9  10  1   
 16   9  11  1   
 17  10  12  1   
 18  10  35  1   
 19  10  36  1   
 20  11  13  1   
 21  11  37  1   
 22  11  38  1   
 23  12  14  1   
 24  12  15  1   
 25  12  16  1   
 26  13  15  1   
 27  13  39  1   
 28  13  40  1   
 29  14  17  ar  
 30  14  18  ar  
 31  15  41  1   
 32  15  42  1   
 33  16  19  1   
 34  16  43  1   
 35  16  44  1   
 36  17  20  ar  
 37  18  19  1   
 38  18  21  ar  
 39  19  45  1   
 40  19  46  1   
 41  20  22  ar  
 42  20  23  1   
 43  21  22  ar  
 44  21  47  1   
 45  23  24  ar  
 46  23  25  ar  
 47  24  26  ar  
 48  24  48  1   
 49  25  27  ar  
 50  25  49  1   
 51  26  28  ar  
 52  26  50  1   
 53  27  28  ar  
 54  27  51  1   
 55  28  52  1   
@<TRIPOS>SUBSTRUCTURE
  1 ****  14 GROUP 4 **** **** 0

# MOE 2024.06 (io_trps.svl 2023.06)
