@<TRIPOS>MOLECULE
NONAME
22 23 1 0 0 
SMALL
USER_CHARGES


@<TRIPOS>ATOM
  1 O       -1.0560    -0.5320     1.5080 O.co2 1 <1>  -0.9000 
  2 C       -0.8840    -1.0930     0.4170 C.2   1 <1>   0.9060 
  3 O        0.2380    -1.1660    -0.0980 O.co2 1 <1>  -0.9000 
  4 C       -2.0530    -1.7420    -0.3570 C.3   1 <1>  -0.1060 
  5 C       -1.8060    -3.3260    -0.0250 C.3   1 <1>   0.1200 
  6 C       -3.2200    -2.2480     0.0510 C.3   1 <1>  -0.1600 
  7 C       -3.2590    -0.6140    -0.4040 C.3   1 <1>  -0.1600 
  8 O       -3.1160    -3.9130     0.5070 O.3   1 <1>  -0.5600 
  9 C       -4.2500    -2.9530     0.4870 C.3   1 <1>   0.2800 
 10 C       -4.6390    -1.3680     0.2050 C.3   1 <1>  -0.1600 
 11 C       -5.3130    -3.7560    -0.2970 C.3   1 <1>  -0.2400 
 12 H       -1.0460    -3.4710     0.7270 H     1 <1>   0.0800 
 13 H       -1.5200    -3.8670    -0.9120 H     1 <1>   0.0800 
 14 H       -3.4470    -2.5870    -1.0560 H     1 <1>   0.0800 
 15 H       -2.9320    -2.0170     1.1790 H     1 <1>   0.0800 
 16 H       -3.4160    -0.2800    -1.4190 H     1 <1>   0.0800 
 17 H       -3.0220     0.2600     0.1860 H     1 <1>   0.0800 
 18 H       -5.4590    -1.2600    -0.4870 H     1 <1>   0.0800 
 19 H       -4.9490    -0.9000     1.1290 H     1 <1>   0.0800 
 20 H       -5.2100    -4.8060    -0.0900 H     1 <1>   0.0800 
 21 H       -5.2580    -3.6030    -1.3590 H     1 <1>   0.0800 
 22 H       -6.2920    -3.4580     0.0300 H     1 <1>   0.0800 
@<TRIPOS>BOND
  1   1   2  ar  
  2   2   3  ar  
  3   2   4  1   
  4   4   5  1   
  5   4   6  1   
  6   4   7  1   
  7   5   8  1   
  8   5  12  1   
  9   5  13  1   
 10   6   9  1   
 11   6  14  1   
 12   6  15  1   
 13   7  10  1   
 14   7  16  1   
 15   7  17  1   
 16   8   9  1   
 17   9  10  1   
 18   9  11  1   
 19  10  18  1   
 20  10  19  1   
 21  11  20  1   
 22  11  21  1   
 23  11  22  1   
@<TRIPOS>SUBSTRUCTURE
  1 ****   6 GROUP 4 **** **** 0

# MOE 2024.06 (io_trps.svl 2023.06)
