@<TRIPOS>MOLECULE
NONAME
62 64 1 0 0 
SMALL
USER_CHARGES


@<TRIPOS>ATOM
  1 O       -1.0630     1.5050     0.0290 O.3   1 <1>  -0.3630 
  2 C       -0.3750     2.6120     0.4340 C.ar  1 <1>   0.0830 
  3 C       -0.4210     0.2460     0.0190 C.3   1 <1>   0.1200 
  4 C        0.9200     2.9200    -0.0100 C.ar  1 <1>   0.0830 
  5 C       -1.0310     3.4680     1.3140 C.ar  1 <1>  -0.1440 
  6 C       -1.4940    -0.8310     0.1780 C.3   1 <1>  -0.1600 
  7 O        1.5240     2.1030    -0.9190 O.3   1 <1>  -0.3620 
  8 C        1.5440     4.0670     0.4730 C.ar  1 <1>  -0.1500 
  9 C       -0.3930     4.6080     1.7780 C.ar  1 <1>  -0.1500 
 10 C       -2.4450     3.1600     1.7710 C.3   1 <1>   0.4860 
 11 C       -0.8740    -2.2320     0.2230 C.3   1 <1>  -0.1600 
 12 C        2.8060     2.3790    -1.4440 C.3   1 <1>   0.0400 
 13 C        0.8910     4.9020     1.3610 C.ar  1 <1>  -0.1500 
 14 N       -3.3140     3.0590     0.5760 N.4   1 <1>  -0.9590 
 15 C       -1.9570    -3.3040     0.3730 C.3   1 <1>  -0.2400 
 16 C       -4.6340     2.4370     0.8900 C.3   1 <1>   0.3430 
 17 C       -3.4450     4.3470    -0.1550 C.3   1 <1>   0.3430 
 18 C       -5.4410     2.1580    -0.3960 C.3   1 <1>   0.0000 
 19 C       -4.2110     4.1200    -1.4600 C.3   1 <1>  -0.1600 
 20 C       -6.8120     1.5750    -0.0190 C.3   1 <1>   0.2000 
 21 C       -5.5770     3.4570    -1.2180 C.3   1 <1>  -0.1600 
 22 C       -4.8020     1.0140    -1.2020 C.3   1 <1>  -0.1600 
 23 O       -7.2620     2.1480     1.1710 O.3   1 <1>  -0.5600 
 24 C       -6.6060     0.0630     0.1440 C.3   1 <1>  -0.1600 
 25 C       -5.2510    -0.2670    -0.4960 C.3   1 <1>  -0.1600 
 26 C       -8.6220     1.9690     1.4270 C.3   1 <1>   0.0400 
 27 H        0.0920     0.1300    -0.9200 H     1 <1>   0.0800 
 28 H        0.2860     0.2100     0.8300 H     1 <1>   0.0800 
 29 H       -2.0390    -0.6570     1.0890 H     1 <1>   0.0800 
 30 H       -2.1700    -0.7760    -0.6560 H     1 <1>   0.0800 
 31 H        2.5390     4.3350     0.1690 H     1 <1>   0.1500 
 32 H       -0.8810     5.2760     2.4680 H     1 <1>   0.1500 
 33 H       -2.8060     3.9300     2.4320 H     1 <1>   0.0800 
 34 H       -2.4410     2.2210     2.3000 H     1 <1>   0.0800 
 35 H       -0.3200    -2.4140    -0.6830 H     1 <1>   0.0800 
 36 H       -0.1890    -2.3020     1.0520 H     1 <1>   0.0800 
 37 H        3.0530     1.6030    -2.1460 H     1 <1>   0.0800 
 38 H        3.5210     2.3840    -0.6400 H     1 <1>   0.0800 
 39 H        2.7820     3.3300    -1.9460 H     1 <1>   0.0800 
 40 H        1.3880     5.7860     1.7270 H     1 <1>   0.1500 
 41 H       -2.7950     2.4120    -0.0430 H     1 <1>   0.4500 
 42 H       -2.6410    -3.2700    -0.4570 H     1 <1>   0.0800 
 43 H       -2.5090    -3.1600     1.2860 H     1 <1>   0.0800 
 44 H       -1.5050    -4.2810     0.4010 H     1 <1>   0.0800 
 45 H       -4.4930     1.5120     1.4230 H     1 <1>   0.0800 
 46 H       -5.2020     3.1010     1.5200 H     1 <1>   0.0800 
 47 H       -3.9760     5.0590     0.4560 H     1 <1>   0.0800 
 48 H       -2.4680     4.7480    -0.3770 H     1 <1>   0.0800 
 49 H       -4.3580     5.0690    -1.9460 H     1 <1>   0.0800 
 50 H       -3.6150     3.5140    -2.1200 H     1 <1>   0.0800 
 51 H       -7.5230     1.7720    -0.8060 H     1 <1>   0.0800 
 52 H       -6.0550     3.2550    -2.1610 H     1 <1>   0.0800 
 53 H       -6.2080     4.1450    -0.6790 H     1 <1>   0.0800 
 54 H       -5.2040     1.0090    -2.2020 H     1 <1>   0.0800 
 55 H       -3.7310     1.0780    -1.2720 H     1 <1>   0.0800 
 56 H       -6.6010    -0.2210     1.1830 H     1 <1>   0.0800 
 57 H       -7.3940    -0.4660    -0.3630 H     1 <1>   0.0800 
 58 H       -4.5470    -0.5320     0.2740 H     1 <1>   0.0800 
 59 H       -5.3280    -1.0890    -1.1880 H     1 <1>   0.0800 
 60 H       -8.8550     2.4500     2.3610 H     1 <1>   0.0800 
 61 H       -8.8420     0.9180     1.5000 H     1 <1>   0.0800 
 62 H       -9.1970     2.4210     0.6370 H     1 <1>   0.0800 
@<TRIPOS>BOND
  1   1   2  1   
  2   1   3  1   
  3   2   4  ar  
  4   2   5  ar  
  5   3   6  1   
  6   3  27  1   
  7   3  28  1   
  8   4   7  1   
  9   4   8  ar  
 10   5   9  ar  
 11   5  10  1   
 12   6  11  1   
 13   6  29  1   
 14   6  30  1   
 15   7  12  1   
 16   8  13  ar  
 17   8  31  1   
 18   9  13  ar  
 19   9  32  1   
 20  10  14  1   
 21  10  33  1   
 22  10  34  1   
 23  11  15  1   
 24  11  35  1   
 25  11  36  1   
 26  12  37  1   
 27  12  38  1   
 28  12  39  1   
 29  13  40  1   
 30  14  16  1   
 31  14  17  1   
 32  14  41  1   
 33  15  42  1   
 34  15  43  1   
 35  15  44  1   
 36  16  18  1   
 37  16  45  1   
 38  16  46  1   
 39  17  19  1   
 40  17  47  1   
 41  17  48  1   
 42  18  20  1   
 43  18  21  1   
 44  18  22  1   
 45  19  21  1   
 46  19  49  1   
 47  19  50  1   
 48  20  23  1   
 49  20  24  1   
 50  20  51  1   
 51  21  52  1   
 52  21  53  1   
 53  22  25  1   
 54  22  54  1   
 55  22  55  1   
 56  23  26  1   
 57  24  25  1   
 58  24  56  1   
 59  24  57  1   
 60  25  58  1   
 61  25  59  1   
 62  26  60  1   
 63  26  61  1   
 64  26  62  1   
@<TRIPOS>SUBSTRUCTURE
  1 ****  14 GROUP 4 **** **** 0

# MOE 2024.06 (io_trps.svl 2023.06)
