@<TRIPOS>MOLECULE
NONAME
49 52 1 0 0 
SMALL
USER_CHARGES


@<TRIPOS>ATOM
  1 O        0.4030    -0.1000    -0.9240 O.3   1 <1>  -0.5600 
  2 C        1.6550    -0.7410    -0.8820 C.3   1 <1>   0.2000 
  3 C        0.4360     1.2640    -1.2240 C.3   1 <1>   0.1200 
  4 C        2.6170    -0.0370     0.1160 C.3   1 <1>   0.5660 
  5 C        1.4400    -2.2070    -0.4720 C.3   1 <1>   0.1200 
  6 C        1.2430     2.0160    -0.1520 C.3   1 <1>   0.3430 
  7 N        2.6280     1.4560    -0.0080 N.4   1 <1>  -0.9590 
  8 C        4.0490    -0.5240    -0.0580 C.ar  1 <1>  -0.1440 
  9 O        1.1660    -2.2900     0.8910 O.3   1 <1>  -0.6800 
 10 C        3.3680     2.0760     1.1230 C.3   1 <1>   0.4870 
 11 C        4.7420    -0.3470    -1.2510 C.ar  1 <1>  -0.1500 
 12 C        4.6820    -1.1520     1.0050 C.ar  1 <1>  -0.1500 
 13 C        3.5850     3.5430     0.8040 C.ar  1 <1>  -0.1440 
 14 C        6.0510    -0.7790    -1.3690 C.ar  1 <1>  -0.1500 
 15 C        5.9910    -1.5830     0.8850 C.ar  1 <1>  -0.1500 
 16 C        4.6270     3.9700    -0.0310 C.ar  1 <1>  -0.1440 
 17 C        2.7070     4.4710     1.3610 C.ar  1 <1>  -0.1500 
 18 C        6.6760    -1.3940    -0.3010 C.ar  1 <1>  -0.1500 
 19 C        4.7710     5.3230    -0.3240 C.ar  1 <1>  -0.1500 
 20 C        5.6390     3.0060    -0.6390 C.3   1 <1>  -0.0970 
 21 C        2.8770     5.8030     1.0500 C.ar  1 <1>   0.0820 
 22 C        3.8790     6.2180     0.2280 C.ar  1 <1>   0.0820 
 23 O        2.1500     6.8470     1.4580 O.3   1 <1>  -0.3620 
 24 O        3.8320     7.5450     0.0790 O.3   1 <1>  -0.3620 
 25 C        2.7410     8.0080     0.8740 C.3   1 <1>   0.4000 
 26 H        2.0600    -0.7170    -1.8780 H     1 <1>   0.0800 
 27 H        0.8600     1.3990    -2.2040 H     1 <1>   0.0800 
 28 H       -0.5800     1.6190    -1.2370 H     1 <1>   0.0800 
 29 H        2.2860    -0.2960     1.1080 H     1 <1>   0.0800 
 30 H        2.3260    -2.7890    -0.6660 H     1 <1>   0.0800 
 31 H        0.6140    -2.6280    -1.0210 H     1 <1>   0.0800 
 32 H        0.7160     1.9370     0.7840 H     1 <1>   0.0800 
 33 H        1.2950     3.0610    -0.4150 H     1 <1>   0.0800 
 34 H        3.1630     1.6870    -0.8490 H     1 <1>   0.4500 
 35 H        0.7980    -3.1710     1.1150 H     1 <1>   0.4000 
 36 H        2.8080     1.9750     2.0380 H     1 <1>   0.0800 
 37 H        4.3240     1.5950     1.2580 H     1 <1>   0.0800 
 38 H        4.2820     0.1220    -2.1050 H     1 <1>   0.1500 
 39 H        4.1650    -1.3190     1.9370 H     1 <1>   0.1500 
 40 H        6.5880    -0.6430    -2.2940 H     1 <1>   0.1500 
 41 H        6.4800    -2.0710     1.7130 H     1 <1>   0.1500 
 42 H        1.9060     4.1930     2.0230 H     1 <1>   0.1500 
 43 H        7.6950    -1.7320    -0.3930 H     1 <1>   0.1500 
 44 H        5.5550     5.6910    -0.9630 H     1 <1>   0.1500 
 45 H        6.5310     3.5340    -0.9270 H     1 <1>   0.0800 
 46 H        5.2330     2.5420    -1.5190 H     1 <1>   0.0800 
 47 H        5.9340     2.2460     0.0630 H     1 <1>   0.0800 
 48 H        2.0220     8.5060     0.2470 H     1 <1>   0.0800 
 49 H        3.1090     8.6560     1.6490 H     1 <1>   0.0800 
@<TRIPOS>BOND
  1   1   2  1   
  2   1   3  1   
  3   2   4  1   
  4   2   5  1   
  5   2  26  1   
  6   3   6  1   
  7   3  27  1   
  8   3  28  1   
  9   4   7  1   
 10   4   8  1   
 11   4  29  1   
 12   5   9  1   
 13   5  30  1   
 14   5  31  1   
 15   6   7  1   
 16   6  32  1   
 17   6  33  1   
 18   7  10  1   
 19   7  34  1   
 20   8  11  ar  
 21   8  12  ar  
 22   9  35  1   
 23  10  13  1   
 24  10  36  1   
 25  10  37  1   
 26  11  14  ar  
 27  11  38  1   
 28  12  15  ar  
 29  12  39  1   
 30  13  16  ar  
 31  13  17  ar  
 32  14  18  ar  
 33  14  40  1   
 34  15  18  ar  
 35  15  41  1   
 36  16  19  ar  
 37  16  20  1   
 38  17  21  ar  
 39  17  42  1   
 40  18  43  1   
 41  19  22  ar  
 42  19  44  1   
 43  20  45  1   
 44  20  46  1   
 45  20  47  1   
 46  21  22  ar  
 47  21  23  1   
 48  22  24  1   
 49  23  25  1   
 50  24  25  1   
 51  25  48  1   
 52  25  49  1   
@<TRIPOS>SUBSTRUCTURE
  1 ****   7 GROUP 4 **** **** 0

# MOE 2024.06 (io_trps.svl 2023.06)
