@<TRIPOS>MOLECULE
NONAME
44 46 1 0 0 
SMALL
USER_CHARGES


@<TRIPOS>ATOM
  1 O       -0.1650    -0.6580     0.9250 O.3   1 <1>  -0.5600 
  2 C       -0.2240    -1.7040    -0.0170 C.3   1 <1>   0.2800 
  3 C       -0.9610     0.4600     0.6700 C.3   1 <1>   0.1200 
  4 C       -1.6400    -1.8340    -0.6890 C.3   1 <1>   0.2000 
  5 C        0.9210    -1.4550    -1.0180 C.3   1 <1>  -0.1600 
  6 C        0.1290    -2.9760     0.7710 C.3   1 <1>  -0.1600 
  7 C       -2.4480     0.0910     0.7840 C.3   1 <1>  -0.1600 
  8 O       -1.6770    -1.1460    -1.9140 O.3   1 <1>  -0.6800 
  9 C       -2.7750    -1.3130     0.2380 C.3   1 <1>   0.2800 
 10 C        2.2650    -1.3360    -0.3070 C.3   1 <1>   0.3430 
 11 C        1.4710    -2.8320     1.4770 C.3   1 <1>   0.3430 
 12 O       -2.8790    -2.1710     1.3140 O.3   1 <1>  -0.6800 
 13 C       -4.1610    -1.3480    -0.4200 C.3   1 <1>  -0.2400 
 14 N        2.5460    -2.5740     0.4780 N.4   1 <1>  -0.9590 
 15 C        3.8730    -2.5080     1.1400 C.3   1 <1>   0.5240 
 16 C        4.9440    -2.5680     0.0750 C.2   1 <1>  -0.1810 
 17 C        5.5200    -3.6620    -0.4720 C.2   1 <1>  -0.0100 
 18 C        5.5560    -1.4700    -0.5520 C.2   1 <1>  -0.1500 
 19 O        6.4100    -3.3140    -1.3760 O.3   1 <1>  -0.2800 
 20 C        6.4380    -1.9990    -1.4270 C.2   1 <1>  -0.0100 
 21 H       -0.7090     1.2220     1.3860 H     1 <1>   0.0800 
 22 H       -0.7330     0.8260    -0.3170 H     1 <1>   0.0800 
 23 H       -1.8290    -2.8660    -0.9290 H     1 <1>   0.0800 
 24 H        0.9580    -2.2460    -1.7440 H     1 <1>   0.0800 
 25 H        0.7450    -0.5410    -1.5570 H     1 <1>   0.0800 
 26 H       -0.6190    -3.1660     1.5170 H     1 <1>   0.0800 
 27 H        0.1480    -3.8290     0.1170 H     1 <1>   0.0800 
 28 H       -2.9880     0.8310     0.2220 H     1 <1>   0.0800 
 29 H       -2.7640     0.1870     1.8070 H     1 <1>   0.0800 
 30 H       -2.5460    -1.2730    -2.3450 H     1 <1>   0.4000 
 31 H        2.2350    -0.4840     0.3550 H     1 <1>   0.0800 
 32 H        3.0390    -1.1740    -1.0390 H     1 <1>   0.0800 
 33 H        1.6830    -3.7330     2.0310 H     1 <1>   0.0800 
 34 H        1.4110    -2.0090     2.1730 H     1 <1>   0.0800 
 35 H       -3.5850    -1.8600     1.9120 H     1 <1>   0.4000 
 36 H       -4.2030    -0.6710    -1.2540 H     1 <1>   0.0800 
 37 H       -4.9200    -1.0490     0.2810 H     1 <1>   0.0800 
 38 H       -4.3820    -2.3390    -0.7760 H     1 <1>   0.0800 
 39 H        2.5830    -3.3570    -0.1860 H     1 <1>   0.4500 
 40 H        3.9660    -1.6010     1.7150 H     1 <1>   0.0800 
 41 H        3.9920    -3.3490     1.8030 H     1 <1>   0.0800 
 42 H        5.3680    -4.7130    -0.2890 H     1 <1>   0.1500 
 43 H        5.3630    -0.4280    -0.3640 H     1 <1>   0.1500 
 44 H        7.1200    -1.5220    -2.1120 H     1 <1>   0.1500 
@<TRIPOS>BOND
  1   1   2  1   
  2   1   3  1   
  3   2   4  1   
  4   2   5  1   
  5   2   6  1   
  6   3   7  1   
  7   3  21  1   
  8   3  22  1   
  9   4   8  1   
 10   4   9  1   
 11   4  23  1   
 12   5  10  1   
 13   5  24  1   
 14   5  25  1   
 15   6  11  1   
 16   6  26  1   
 17   6  27  1   
 18   7   9  1   
 19   7  28  1   
 20   7  29  1   
 21   8  30  1   
 22   9  12  1   
 23   9  13  1   
 24  10  14  1   
 25  10  31  1   
 26  10  32  1   
 27  11  14  1   
 28  11  33  1   
 29  11  34  1   
 30  12  35  1   
 31  13  36  1   
 32  13  37  1   
 33  13  38  1   
 34  14  15  1   
 35  14  39  1   
 36  15  16  1   
 37  15  40  1   
 38  15  41  1   
 39  16  17  2   
 40  16  18  1   
 41  17  19  1   
 42  17  42  1   
 43  18  20  2   
 44  18  43  1   
 45  19  20  1   
 46  20  44  1   
@<TRIPOS>SUBSTRUCTURE
  1 ****   5 GROUP 4 **** **** 0

# MOE 2024.06 (io_trps.svl 2023.06)
