@<TRIPOS>MOLECULE
NONAME
43 44 1 0 0 
SMALL
USER_CHARGES


@<TRIPOS>ATOM
  1 CL       2.3890    -1.0460     2.0630 Cl    1 <1>  -0.1770 
  2 C        1.8320    -1.6240     0.4990 C.ar  1 <1>   0.1770 
  3 C        0.9970    -2.7670     0.4580 C.ar  1 <1>   0.4100 
  4 C        2.1830    -1.0070    -0.6640 C.ar  1 <1>   0.2170 
  5 N        0.5290    -3.2290    -0.6840 N.ar  1 <1>  -0.6200 
  6 N        0.6360    -3.4430     1.5730 N.pl3 1 <1>  -0.8690 
  7 N        1.6870    -1.5410    -1.8150 N.ar  1 <1>  -0.1790 
  8 C        3.0780     0.2220    -0.7770 C.3   1 <1>  -0.0970 
  9 C        0.8780    -2.6180    -1.7940 C.ar  1 <1>   0.7710 
 10 C       -0.0190    -4.7820     1.5870 C.3   1 <1>   0.2890 
 11 N        0.3780    -3.1190    -2.9150 N.pl3 1 <1>  -0.9000 
 12 C       -1.5320    -4.6330     1.7170 C.3   1 <1>  -0.0800 
 13 C        0.3610    -5.6320     2.8050 C.3   1 <1>   0.1200 
 14 C       -1.8970    -5.7950     2.6310 C.3   1 <1>   0.1200 
 15 C       -2.3390    -4.5410     0.4020 C.3   1 <1>  -0.0550 
 16 O       -0.8210    -5.8780     3.5050 O.3   1 <1>  -0.5600 
 17 S       -2.0140    -5.7680    -0.8780 S.o2  1 <1>   1.3330 
 18 O       -1.2970    -6.8850    -0.3060 O.2   1 <1>  -0.6500 
 19 O       -1.4860    -5.1140    -2.0600 O.2   1 <1>  -0.6500 
 20 N       -3.5780    -6.3060    -1.2590 N.am  1 <1>  -0.8490 
 21 C       -3.5940    -7.6840    -1.7620 C.3   1 <1>   0.1160 
 22 C       -4.2990    -5.4280    -2.1860 C.3   1 <1>   0.1160 
 23 H        0.8720    -3.0810     2.5050 H     1 <1>   0.4000 
 24 H        1.8980    -1.1500    -2.7280 H     1 <1>   0.4570 
 25 H        3.4120     0.5570     0.1890 H     1 <1>   0.0800 
 26 H        2.5440     1.0340    -1.2390 H     1 <1>   0.0800 
 27 H        3.9500    -0.0020    -1.3660 H     1 <1>   0.0800 
 28 H        0.2670    -5.3320     0.7090 H     1 <1>   0.0800 
 29 H        0.5120    -2.8410    -3.8870 H     1 <1>   0.4000 
 30 H       -0.2550    -3.9370    -2.8070 H     1 <1>   0.4000 
 31 H       -1.7380    -3.7430     2.2850 H     1 <1>   0.0800 
 32 H        1.0540    -5.1360     3.4610 H     1 <1>   0.0800 
 33 H        0.7600    -6.5810     2.4910 H     1 <1>   0.0800 
 34 H       -1.9730    -6.7300     2.1030 H     1 <1>   0.0800 
 35 H       -2.7960    -5.6150     3.1960 H     1 <1>   0.0800 
 36 H       -2.1670    -3.5710    -0.0210 H     1 <1>   0.0800 
 37 H       -3.3800    -4.5830     0.6590 H     1 <1>   0.0800 
 38 H       -4.6030    -7.9930    -1.9730 H     1 <1>   0.0800 
 39 H       -3.1880    -8.3530    -1.0210 H     1 <1>   0.0800 
 40 H       -3.0030    -7.7620    -2.6590 H     1 <1>   0.0800 
 41 H       -5.3140    -5.7680    -2.3040 H     1 <1>   0.0800 
 42 H       -3.8190    -5.4220    -3.1510 H     1 <1>   0.0800 
 43 H       -4.3220    -4.4210    -1.8040 H     1 <1>   0.0800 
@<TRIPOS>BOND
  1   1   2  1   
  2   2   3  ar  
  3   2   4  ar  
  4   3   5  ar  
  5   3   6  1   
  6   4   7  ar  
  7   4   8  1   
  8   5   9  ar  
  9   6  10  1   
 10   6  23  1   
 11   7   9  ar  
 12   7  24  1   
 13   8  25  1   
 14   8  26  1   
 15   8  27  1   
 16   9  11  1   
 17  10  12  1   
 18  10  13  1   
 19  10  28  1   
 20  11  29  1   
 21  11  30  1   
 22  12  14  1   
 23  12  15  1   
 24  12  31  1   
 25  13  16  1   
 26  13  32  1   
 27  13  33  1   
 28  14  16  1   
 29  14  34  1   
 30  14  35  1   
 31  15  17  1   
 32  15  36  1   
 33  15  37  1   
 34  17  18  2   
 35  17  19  2   
 36  17  20  am  
 37  20  21  1   
 38  20  22  1   
 39  21  38  1   
 40  21  39  1   
 41  21  40  1   
 42  22  41  1   
 43  22  42  1   
 44  22  43  1   
@<TRIPOS>SUBSTRUCTURE
  1 ****   5 GROUP 4 **** **** 0

# MOE 2024.06 (io_trps.svl 2023.06)
