@<TRIPOS>MOLECULE
NONAME
46 48 1 0 0 
SMALL
USER_CHARGES


@<TRIPOS>ATOM
  1 O        1.5810    -0.4440    -1.9820 O.3   1 <1>  -0.0190 
  2 N        1.9020     0.7890    -1.7220 N.2   1 <1>  -0.4100 
  3 C        1.8330    -1.2350    -0.9730 C.2   1 <1>  -0.0400 
  4 C        2.3720     0.7950    -0.5220 C.2   1 <1>   0.1080 
  5 C        2.3530    -0.4910     0.0140 C.2   1 <1>  -0.1500 
  6 C        1.5350    -2.7220    -1.0770 C.3   1 <1>   0.2900 
  7 C        2.8770     2.0300     0.2160 C.3   1 <1>   0.1010 
  8 N        0.2070    -3.0850    -0.5210 N.3   1 <1>  -0.8100 
  9 C        1.7450     3.0530     0.4150 C.3   1 <1>  -0.1600 
 10 C        4.0640     2.6700    -0.5240 C.3   1 <1>  -0.1600 
 11 C       -0.0860    -4.5440    -0.6360 C.3   1 <1>   0.3330 
 12 C       -0.8560    -2.2950    -1.1840 C.3   1 <1>   0.0300 
 13 C        2.2420     4.3140     1.1360 C.3   1 <1>  -0.1600 
 14 C        4.5660     3.9310     0.1960 C.3   1 <1>  -0.1600 
 15 C       -1.4300    -4.9210     0.0090 C.ar  1 <1>   0.1670 
 16 C        1.0090    -5.3910     0.0240 C.3   1 <1>  -0.2400 
 17 C        3.4300     4.9430     0.3940 C.3   1 <1>  -0.1600 
 18 N       -2.2220    -5.7530    -0.6410 N.ar  1 <1>  -0.6200 
 19 C       -1.7910    -4.4090     1.2370 C.ar  1 <1>  -0.1500 
 20 C       -3.3630    -6.0470    -0.0370 C.ar  1 <1>   0.4700 
 21 C       -3.0020    -4.7890     1.7620 C.ar  1 <1>   0.1600 
 22 N       -3.8070    -5.6150     1.1320 N.ar  1 <1>  -0.6200 
 23 H        2.6810    -0.7860     0.9930 H     1 <1>   0.1500 
 24 H        2.3040    -3.2270    -0.5230 H     1 <1>   0.0800 
 25 H        1.6040    -3.0280    -2.1070 H     1 <1>   0.0800 
 26 H        3.2190     1.7190     1.1880 H     1 <1>   0.0800 
 27 H        0.9490     2.6010     0.9820 H     1 <1>   0.0800 
 28 H        1.3460     3.3280    -0.5470 H     1 <1>   0.0800 
 29 H        3.7570     2.9310    -1.5230 H     1 <1>   0.0800 
 30 H        4.8640     1.9560    -0.6040 H     1 <1>   0.0800 
 31 H       -0.1390    -4.8050    -1.6800 H     1 <1>   0.0800 
 32 H       -0.7200    -1.2440    -0.9920 H     1 <1>   0.0800 
 33 H       -1.8290    -2.5580    -0.8080 H     1 <1>   0.0800 
 34 H       -0.8420    -2.4590    -2.2480 H     1 <1>   0.0800 
 35 H        2.5420     4.0600     2.1380 H     1 <1>   0.0800 
 36 H        1.4400     5.0290     1.2030 H     1 <1>   0.0800 
 37 H        5.3540     4.3840    -0.3800 H     1 <1>   0.0800 
 38 H        4.9720     3.6580     1.1540 H     1 <1>   0.0800 
 39 H        1.1980    -5.0440     1.0240 H     1 <1>   0.0800 
 40 H        1.9160    -5.3770    -0.5500 H     1 <1>   0.0800 
 41 H        0.6830    -6.4150     0.0770 H     1 <1>   0.0800 
 42 H        3.7940     5.7910     0.9490 H     1 <1>   0.0800 
 43 H        3.0990     5.2980    -0.5680 H     1 <1>   0.0800 
 44 H       -1.1440    -3.7310     1.7600 H     1 <1>   0.1500 
 45 H       -4.0130    -6.7260    -0.5650 H     1 <1>   0.1500 
 46 H       -3.3170    -4.4070     2.7180 H     1 <1>   0.1500 
@<TRIPOS>BOND
  1   1   2  1   
  2   1   3  1   
  3   2   4  2   
  4   3   5  2   
  5   3   6  1   
  6   4   5  1   
  7   4   7  1   
  8   5  23  1   
  9   6   8  1   
 10   6  24  1   
 11   6  25  1   
 12   7   9  1   
 13   7  10  1   
 14   7  26  1   
 15   8  11  1   
 16   8  12  1   
 17   9  13  1   
 18   9  27  1   
 19   9  28  1   
 20  10  14  1   
 21  10  29  1   
 22  10  30  1   
 23  11  15  1   
 24  11  16  1   
 25  11  31  1   
 26  12  32  1   
 27  12  33  1   
 28  12  34  1   
 29  13  17  1   
 30  13  35  1   
 31  13  36  1   
 32  14  17  1   
 33  14  37  1   
 34  14  38  1   
 35  15  18  ar  
 36  15  19  ar  
 37  16  39  1   
 38  16  40  1   
 39  16  41  1   
 40  17  42  1   
 41  17  43  1   
 42  18  20  ar  
 43  19  21  ar  
 44  19  44  1   
 45  20  22  ar  
 46  20  45  1   
 47  21  22  ar  
 48  21  46  1   
@<TRIPOS>SUBSTRUCTURE
  1 ****   3 GROUP 4 **** **** 0

# MOE 2024.06 (io_trps.svl 2023.06)
