@<TRIPOS>MOLECULE
NONAME
37 38 1 0 0 
SMALL
USER_CHARGES


@<TRIPOS>ATOM
  1 O       -1.1690     0.9850    -1.7500 O.2   1 <1>  -0.5700 
  2 C       -1.6310     1.1550    -0.6510 C.2   1 <1>   0.6590 
  3 O       -1.1040     2.0040     0.2200 O.3   1 <1>  -0.4300 
  4 C       -2.8700     0.3940    -0.1790 C.3   1 <1>  -0.0190 
  5 C        0.0400     2.7620    -0.0970 C.3   1 <1>   0.1200 
  6 C       -2.5880    -1.1210    -0.0970 C.3   1 <1>  -0.1600 
  7 C       -4.0780     0.6730    -1.0970 C.3   1 <1>  -0.1600 
  8 C        0.3820     3.6290     1.1110 C.3   1 <1>  -0.2400 
  9 C       -3.8360    -1.9230     0.3070 C.3   1 <1>  -0.1600 
 10 C       -5.3170    -0.1360    -0.6810 C.3   1 <1>  -0.1600 
 11 C       -5.0110    -1.6370    -0.6410 C.3   1 <1>   0.4230 
 12 N       -6.2270    -2.3470    -0.1970 N.4   1 <1>  -0.7990 
 13 C       -6.1810    -3.8020    -0.3960 C.3   1 <1>   0.2960 
 14 C       -7.2340    -4.6160     0.2740 C.3   1 <1>  -0.2000 
 15 C       -5.8160    -4.6680     0.7620 C.3   1 <1>  -0.2000 
 16 H       -3.1070     0.7480     0.8090 H     1 <1>   0.0800 
 17 H       -0.1800     3.3690    -0.9590 H     1 <1>   0.0800 
 18 H        0.8450     2.0850    -0.3280 H     1 <1>   0.0800 
 19 H       -1.8000    -1.2970     0.6170 H     1 <1>   0.0800 
 20 H       -2.2340    -1.4660    -1.0550 H     1 <1>   0.0800 
 21 H       -3.8140     0.4300    -2.1130 H     1 <1>   0.0800 
 22 H       -4.3080     1.7260    -1.0690 H     1 <1>   0.0800 
 23 H       -0.4340     4.2920     1.3350 H     1 <1>   0.0800 
 24 H        1.2540     4.2200     0.8970 H     1 <1>   0.0800 
 25 H        0.5900     3.0100     1.9650 H     1 <1>   0.0800 
 26 H       -4.1030    -1.6620     1.3160 H     1 <1>   0.0800 
 27 H       -3.5810    -2.9680     0.2790 H     1 <1>   0.0800 
 28 H       -6.1030     0.0600    -1.3900 H     1 <1>   0.0800 
 29 H       -5.6370     0.2030     0.2900 H     1 <1>   0.0800 
 30 H       -4.7450    -1.9600    -1.6360 H     1 <1>   0.0800 
 31 H       -7.0300    -1.9760    -0.7160 H     1 <1>   0.4500 
 32 H       -6.3940    -2.1500     0.7940 H     1 <1>   0.4500 
 33 H       -5.8700    -4.1000    -1.3880 H     1 <1>   0.1000 
 34 H       -7.6180    -5.4900    -0.2250 H     1 <1>   0.1000 
 35 H       -7.9710    -4.1480     0.9030 H     1 <1>   0.1000 
 36 H       -5.5900    -4.2320     1.7200 H     1 <1>   0.1000 
 37 H       -5.2610    -5.5730     0.5840 H     1 <1>   0.1000 
@<TRIPOS>BOND
  1   1   2  2   
  2   2   3  1   
  3   2   4  1   
  4   3   5  1   
  5   4   6  1   
  6   4   7  1   
  7   4  16  1   
  8   5   8  1   
  9   5  17  1   
 10   5  18  1   
 11   6   9  1   
 12   6  19  1   
 13   6  20  1   
 14   7  10  1   
 15   7  21  1   
 16   7  22  1   
 17   8  23  1   
 18   8  24  1   
 19   8  25  1   
 20   9  11  1   
 21   9  26  1   
 22   9  27  1   
 23  10  11  1   
 24  10  28  1   
 25  10  29  1   
 26  11  12  1   
 27  11  30  1   
 28  12  13  1   
 29  12  31  1   
 30  12  32  1   
 31  13  14  1   
 32  13  15  1   
 33  13  33  1   
 34  14  15  1   
 35  14  34  1   
 36  14  35  1   
 37  15  36  1   
 38  15  37  1   
@<TRIPOS>SUBSTRUCTURE
  1 ****   6 GROUP 4 **** **** 0

# MOE 2024.06 (io_trps.svl 2023.06)
