@<TRIPOS>MOLECULE
NONAME
45 48 1 0 0 
SMALL
USER_CHARGES


@<TRIPOS>ATOM
  1 O       -0.1040    -0.6850     0.0880 O.2   1 <1>  -0.5700 
  2 C        0.3570    -1.7990    -0.0610 C.2   1 <1>   0.5440 
  3 N        1.6940    -2.1170    -0.0900 N.am  1 <1>  -0.6600 
  4 C       -0.4350    -2.9850    -0.2220 C.ar  1 <1>   0.0860 
  5 C        2.9210    -1.2540    -0.0010 C.3   1 <1>   0.3000 
  6 C        1.8440    -3.6030    -0.2220 C.3   1 <1>   0.2840 
  7 C        0.4060    -4.0730    -0.3270 C.ar  1 <1>  -0.1440 
  8 C       -1.8100    -3.1710    -0.2860 C.ar  1 <1>  -0.1500 
  9 C        3.6940    -1.4200    -1.3350 C.3   1 <1>  -0.1600 
 10 C        2.5810     0.2490     0.0900 C.3   1 <1>  -0.1600 
 11 C        3.6990    -1.6580     1.2840 C.3   1 <1>  -0.0990 
 12 C       -0.0880    -5.3530    -0.4950 C.ar  1 <1>  -0.1500 
 13 C       -2.3190    -4.4480    -0.4550 C.ar  1 <1>  -0.1500 
 14 C        4.7080    -0.2980    -1.6160 C.3   1 <1>   0.1200 
 15 C        3.8290     1.1510     0.0000 C.3   1 <1>   0.1200 
 16 C        4.8700    -2.5860     1.0600 C.2   1 <1>   0.5690 
 17 C       -1.4620    -5.5350    -0.5600 C.ar  1 <1>  -0.1500 
 18 O        4.9430     0.4290    -0.4500 O.3   1 <1>  -0.5600 
 19 O        4.7080    -3.7790     1.1610 O.2   1 <1>  -0.5700 
 20 N        6.0630    -2.0240     0.7420 N.am  1 <1>  -0.5790 
 21 C        7.3200    -2.7380     0.4900 C.3   1 <1>   0.0490 
 22 C        8.5950    -2.0630     0.8670 C.3   1 <1>  -0.2000 
 23 C        8.2210    -2.2130    -0.5770 C.3   1 <1>  -0.2000 
 24 H        2.3050    -4.0240     0.6540 H     1 <1>   0.0800 
 25 H        2.4000    -3.8630    -1.1050 H     1 <1>   0.0800 
 26 H       -2.4600    -2.3170    -0.2020 H     1 <1>   0.1500 
 27 H        2.9870    -1.4050    -2.1460 H     1 <1>   0.0800 
 28 H        4.1930    -2.3690    -1.3930 H     1 <1>   0.0800 
 29 H        2.0510     0.4660     1.0000 H     1 <1>   0.0800 
 30 H        1.9380     0.5170    -0.7290 H     1 <1>   0.0800 
 31 H        3.0270    -2.1070     1.9930 H     1 <1>   0.0800 
 32 H        4.0940    -0.7900     1.7760 H     1 <1>   0.0800 
 33 H        0.5780    -6.1950    -0.5740 H     1 <1>   0.1500 
 34 H       -3.3840    -4.5990    -0.5050 H     1 <1>   0.1500 
 35 H        4.3380     0.3790    -2.3680 H     1 <1>   0.0800 
 36 H        5.6450    -0.7080    -1.9500 H     1 <1>   0.0800 
 37 H        4.0760     1.5460     0.9700 H     1 <1>   0.0800 
 38 H        3.6590     1.9750    -0.6720 H     1 <1>   0.0800 
 39 H       -1.8650    -6.5250    -0.6900 H     1 <1>   0.1500 
 40 H        6.0710    -1.0180     0.5250 H     1 <1>   0.3700 
 41 H        7.2400    -3.8050     0.6290 H     1 <1>   0.1000 
 42 H        9.4030    -2.6620     1.2480 H     1 <1>   0.1000 
 43 H        8.5500    -1.0890     1.3220 H     1 <1>   0.1000 
 44 H        7.9290    -1.3360    -1.1280 H     1 <1>   0.1000 
 45 H        8.7780    -2.9130    -1.1750 H     1 <1>   0.1000 
@<TRIPOS>BOND
  1   1   2  2   
  2   2   3  am  
  3   2   4  1   
  4   3   5  1   
  5   3   6  1   
  6   4   7  ar  
  7   4   8  ar  
  8   5   9  1   
  9   5  10  1   
 10   5  11  1   
 11   6   7  1   
 12   6  24  1   
 13   6  25  1   
 14   7  12  ar  
 15   8  13  ar  
 16   8  26  1   
 17   9  14  1   
 18   9  27  1   
 19   9  28  1   
 20  10  15  1   
 21  10  29  1   
 22  10  30  1   
 23  11  16  1   
 24  11  31  1   
 25  11  32  1   
 26  12  17  ar  
 27  12  33  1   
 28  13  17  ar  
 29  13  34  1   
 30  14  18  1   
 31  14  35  1   
 32  14  36  1   
 33  15  18  1   
 34  15  37  1   
 35  15  38  1   
 36  16  19  2   
 37  16  20  am  
 38  17  39  1   
 39  20  21  1   
 40  20  40  1   
 41  21  22  1   
 42  21  23  1   
 43  21  41  1   
 44  22  23  1   
 45  22  42  1   
 46  22  43  1   
 47  23  44  1   
 48  23  45  1   
@<TRIPOS>SUBSTRUCTURE
  1 ****   5 GROUP 4 **** **** 0

# MOE 2024.06 (io_trps.svl 2023.06)
