@<TRIPOS>MOLECULE
NONAME
51 54 1 0 0 
SMALL
USER_CHARGES


@<TRIPOS>ATOM
  1 O       -1.2130    -1.4840     0.0530 O.2   1 <1>  -0.5700 
  2 C       -2.2140    -1.9320     0.5460 C.2   1 <1>   0.5690 
  3 N       -2.6450    -1.6710     1.7870 N.am  1 <1>  -0.7300 
  4 C       -3.1550    -2.8730    -0.1510 C.3   1 <1>  -0.0990 
  5 C       -3.8730    -2.3940     2.1440 C.3   1 <1>   0.1400 
  6 C       -4.3910    -2.8800     0.7760 C.3   1 <1>  -0.0190 
  7 C       -5.1080    -4.2270     0.8160 C.2   1 <1>   0.5690 
  8 O       -4.8530    -4.9790     1.7280 O.2   1 <1>  -0.5700 
  9 N       -6.0150    -4.5770    -0.1530 N.am  1 <1>  -0.6600 
 10 C       -6.6640    -5.9280    -0.1400 C.3   1 <1>   0.1400 
 11 C       -6.4670    -3.7060    -1.2770 C.3   1 <1>   0.1400 
 12 C       -8.1070    -5.8860     0.3890 C.3   1 <1>   0.1400 
 13 C       -7.6540    -2.8200    -0.8710 C.3   1 <1>  -0.1600 
 14 N       -8.9540    -4.8770    -0.3310 N.am  1 <1>  -0.6600 
 15 C       -8.6710    -3.4730     0.0720 C.3   1 <1>   0.1400 
 16 C       -9.9590    -5.1540    -1.2290 C.2   1 <1>   0.5690 
 17 O      -10.5780    -4.2650    -1.7660 O.2   1 <1>  -0.5700 
 18 C      -10.3170    -6.5730    -1.6390 C.3   1 <1>   0.1570 
 19 N      -10.9140    -7.3360    -0.5240 N.pl3 1 <1>   0.0480 
 20 C      -10.5060    -8.5740    -0.0760 C.ar  1 <1>  -0.1520 
 21 C      -11.9110    -6.9020     0.3060 C.2   1 <1>  -0.3020 
 22 C      -11.2520    -8.8980     1.0530 C.ar  1 <1>   0.0000 
 23 C       -9.5320    -9.4580    -0.5560 C.ar  1 <1>  -0.1500 
 24 C      -12.1400    -7.8240     1.2700 C.2   1 <1>  -0.1500 
 25 C      -11.0210   -10.1030     1.7220 C.ar  1 <1>  -0.1500 
 26 C       -9.3140   -10.6420     0.1100 C.ar  1 <1>  -0.1500 
 27 C      -10.0580   -10.9640     1.2510 C.ar  1 <1>  -0.1500 
 28 H       -2.0910    -1.1310     2.4550 H     1 <1>   0.3700 
 29 H       -2.6970    -3.8440    -0.1980 H     1 <1>   0.0800 
 30 H       -3.3850    -2.5220    -1.1390 H     1 <1>   0.0800 
 31 H       -4.5820    -1.7430     2.6280 H     1 <1>   0.0800 
 32 H       -3.6180    -3.2110     2.7990 H     1 <1>   0.0800 
 33 H       -5.0760    -2.1280     0.4350 H     1 <1>   0.0800 
 34 H       -6.0950    -6.6040     0.4750 H     1 <1>   0.0800 
 35 H       -6.6620    -6.3360    -1.1350 H     1 <1>   0.0800 
 36 H       -6.7710    -4.3310    -2.1000 H     1 <1>   0.0800 
 37 H       -5.6560    -3.0950    -1.6320 H     1 <1>   0.0800 
 38 H       -8.0850    -5.6480     1.4380 H     1 <1>   0.0800 
 39 H       -8.5250    -6.8690     0.3080 H     1 <1>   0.0800 
 40 H       -8.1680    -2.5140    -1.7650 H     1 <1>   0.0800 
 41 H       -7.2900    -1.9230    -0.4070 H     1 <1>   0.0800 
 42 H       -9.5840    -2.9010     0.0700 H     1 <1>   0.0800 
 43 H       -8.2870    -3.4610     1.0780 H     1 <1>   0.0800 
 44 H       -9.4340    -7.0700    -1.9870 H     1 <1>   0.0800 
 45 H      -11.0280    -6.5390    -2.4420 H     1 <1>   0.0800 
 46 H      -12.3980    -5.9530     0.1610 H     1 <1>   0.1500 
 47 H       -8.9630    -9.2190    -1.4350 H     1 <1>   0.1500 
 48 H      -12.8550    -7.7850     2.0720 H     1 <1>   0.1500 
 49 H      -11.6020   -10.3370     2.5950 H     1 <1>   0.1500 
 50 H       -8.5700   -11.3350    -0.2410 H     1 <1>   0.1500 
 51 H       -9.8680   -11.8950     1.7550 H     1 <1>   0.1500 
@<TRIPOS>BOND
  1   1   2  2   
  2   2   3  am  
  3   2   4  1   
  4   3   5  1   
  5   3  28  1   
  6   4   6  1   
  7   4  29  1   
  8   4  30  1   
  9   5   6  1   
 10   5  31  1   
 11   5  32  1   
 12   6   7  1   
 13   6  33  1   
 14   7   8  2   
 15   7   9  am  
 16   9  10  1   
 17   9  11  1   
 18  10  12  1   
 19  10  34  1   
 20  10  35  1   
 21  11  13  1   
 22  11  36  1   
 23  11  37  1   
 24  12  14  1   
 25  12  38  1   
 26  12  39  1   
 27  13  15  1   
 28  13  40  1   
 29  13  41  1   
 30  14  15  1   
 31  14  16  am  
 32  15  42  1   
 33  15  43  1   
 34  16  17  2   
 35  16  18  1   
 36  18  19  1   
 37  18  44  1   
 38  18  45  1   
 39  19  20  1   
 40  19  21  1   
 41  20  22  ar  
 42  20  23  ar  
 43  21  24  2   
 44  21  46  1   
 45  22  24  1   
 46  22  25  ar  
 47  23  26  ar  
 48  23  47  1   
 49  24  48  1   
 50  25  27  ar  
 51  25  49  1   
 52  26  27  ar  
 53  26  50  1   
 54  27  51  1   
@<TRIPOS>SUBSTRUCTURE
  1 ****  12 GROUP 4 **** **** 0

# MOE 2024.06 (io_trps.svl 2023.06)
