@<TRIPOS>MOLECULE
NONAME
51 54 1 0 0 
SMALL
USER_CHARGES


@<TRIPOS>ATOM
  1 O        0.6110     0.2450     0.1680 O.3   1 <1>  -0.5600 
  2 C        0.4690    -1.1460     0.0890 C.3   1 <1>   0.1200 
  3 C        1.6960     0.7280    -0.5570 C.3   1 <1>   0.1200 
  4 C        1.7280    -1.8760     0.6210 C.3   1 <1>   0.2850 
  5 C        2.9960     0.1220     0.0020 C.3   1 <1>   0.1900 
  6 N        2.9560    -1.3630    -0.0540 N.3   1 <1>  -0.8100 
  7 C        1.6340    -3.4090     0.4470 C.3   1 <1>  -0.1950 
  8 C        4.2060     0.6640    -0.7850 C.3   1 <1>   0.3430 
  9 C        4.2090    -1.9450     0.4780 C.3   1 <1>   0.1100 
 10 C        1.4200    -4.0510    -0.8900 C.3   1 <1>  -0.2000 
 11 C        0.3610    -4.1560     0.1670 C.3   1 <1>  -0.2000 
 12 N        5.5080     0.0710    -0.3050 N.4   1 <1>  -0.9590 
 13 C        5.4420    -1.4290    -0.2920 C.3   1 <1>   0.3430 
 14 C        6.6640     0.5740    -1.0890 C.3   1 <1>   0.5240 
 15 C        6.7190     2.0710    -0.9040 C.2   1 <1>  -0.1810 
 16 C        6.4010     3.0110    -1.8750 C.2   1 <1>   0.1390 
 17 C        7.0490     2.7990     0.1870 C.2   1 <1>  -0.3020 
 18 N        6.4990     4.2200    -1.4260 N.2   1 <1>  -0.7070 
 19 N        6.9160     4.1010    -0.1480 N.pl3 1 <1>   0.3140 
 20 C        7.1810     5.2740     0.7390 C.3   1 <1>   0.1760 
 21 C        5.8950     6.0790     0.9720 C.3   1 <1>  -0.2400 
 22 C        8.2810     6.1650     0.1450 C.3   1 <1>  -0.2400 
 23 H       -0.3880    -1.4150     0.6790 H     1 <1>   0.0800 
 24 H        0.2780    -1.4110    -0.9360 H     1 <1>   0.0800 
 25 H        1.5590     0.4730    -1.5940 H     1 <1>   0.0800 
 26 H        1.7000     1.7990    -0.4560 H     1 <1>   0.0800 
 27 H        1.7860    -1.6660     1.6760 H     1 <1>   0.0800 
 28 H        3.0850     0.4420     1.0260 H     1 <1>   0.0800 
 29 H        2.2840    -3.9120     1.1410 H     1 <1>   0.1000 
 30 H        4.2340     1.7380    -0.6860 H     1 <1>   0.0800 
 31 H        4.0630     0.4310    -1.8270 H     1 <1>   0.0800 
 32 H        4.3060    -1.7190     1.5260 H     1 <1>   0.0800 
 33 H        4.1870    -3.0160     0.3700 H     1 <1>   0.0800 
 34 H        1.2380    -3.4270    -1.7480 H     1 <1>   0.1000 
 35 H        1.9890    -4.9300    -1.1400 H     1 <1>   0.1000 
 36 H        0.2100    -5.1100     0.6420 H     1 <1>   0.1000 
 37 H       -0.5710    -3.6490    -0.0130 H     1 <1>   0.1000 
 38 H        5.6460     0.4030     0.6560 H     1 <1>   0.4500 
 39 H        5.3810    -1.7980    -1.3020 H     1 <1>   0.0800 
 40 H        6.3330    -1.8340     0.1580 H     1 <1>   0.0800 
 41 H        7.5800     0.1340    -0.7290 H     1 <1>   0.0800 
 42 H        6.5480     0.3310    -2.1330 H     1 <1>   0.0800 
 43 H        6.1000     2.7940    -2.8870 H     1 <1>   0.1500 
 44 H        7.3680     2.4900     1.1670 H     1 <1>   0.1500 
 45 H        7.5240     4.8960     1.6850 H     1 <1>   0.0800 
 46 H        5.5280     6.4750     0.0410 H     1 <1>   0.0800 
 47 H        6.0870     6.8990     1.6390 H     1 <1>   0.0800 
 48 H        5.1370     5.4540     1.4100 H     1 <1>   0.0800 
 49 H        7.9660     6.5710    -0.8010 H     1 <1>   0.0800 
 50 H        9.1820     5.5970    -0.0010 H     1 <1>   0.0800 
 51 H        8.4980     6.9810     0.8110 H     1 <1>   0.0800 
@<TRIPOS>BOND
  1   1   2  1   
  2   1   3  1   
  3   2   4  1   
  4   2  23  1   
  5   2  24  1   
  6   3   5  1   
  7   3  25  1   
  8   3  26  1   
  9   4   6  1   
 10   4   7  1   
 11   4  27  1   
 12   5   6  1   
 13   5   8  1   
 14   5  28  1   
 15   6   9  1   
 16   7  10  1   
 17   7  11  1   
 18   7  29  1   
 19   8  12  1   
 20   8  30  1   
 21   8  31  1   
 22   9  13  1   
 23   9  32  1   
 24   9  33  1   
 25  10  11  1   
 26  10  34  1   
 27  10  35  1   
 28  11  36  1   
 29  11  37  1   
 30  12  13  1   
 31  12  14  1   
 32  12  38  1   
 33  13  39  1   
 34  13  40  1   
 35  14  15  1   
 36  14  41  1   
 37  14  42  1   
 38  15  16  1   
 39  15  17  2   
 40  16  18  2   
 41  16  43  1   
 42  17  19  1   
 43  17  44  1   
 44  18  19  1   
 45  19  20  1   
 46  20  21  1   
 47  20  22  1   
 48  20  45  1   
 49  21  46  1   
 50  21  47  1   
 51  21  48  1   
 52  22  49  1   
 53  22  50  1   
 54  22  51  1   
@<TRIPOS>SUBSTRUCTURE
  1 ****   8 GROUP 4 **** **** 0

# MOE 2024.06 (io_trps.svl 2023.06)
