@<TRIPOS>MOLECULE
NONAME
47 48 1 0 0 
SMALL
USER_CHARGES


@<TRIPOS>ATOM
  1 O       -0.3090     0.7320    -0.6120 O.2   1 <1>  -0.5700 
  2 C       -0.2870     1.9360    -0.6290 C.2   1 <1>   0.5690 
  3 N       -1.0160     2.6500     0.2560 N.am  1 <1>  -0.7300 
  4 C        0.5470     2.6760    -1.6760 C.3   1 <1>   0.1810 
  5 C       -1.0710     4.1330     0.2730 C.3   1 <1>   0.3640 
  6 O        0.8360     4.0010    -1.2930 O.3   1 <1>  -0.5600 
  7 C       -2.5300     4.5780     0.2860 C.ar  1 <1>  -0.1440 
  8 C       -0.2990     4.7680    -0.9130 C.3   1 <1>   0.2610 
  9 C       -2.9150     5.6380     1.0960 C.ar  1 <1>  -0.1500 
 10 C       -3.4890     3.9520    -0.5020 C.ar  1 <1>  -0.1500 
 11 C        0.0710     6.2170    -0.5610 C.2   1 <1>   0.5690 
 12 C       -4.2320     6.0610     1.1230 C.ar  1 <1>  -0.1500 
 13 C       -4.8070     4.3740    -0.4740 C.ar  1 <1>  -0.1500 
 14 O       -0.6000     7.0820    -1.0770 O.2   1 <1>  -0.5700 
 15 N        1.0890     6.5500     0.3130 N.am  1 <1>  -0.6600 
 16 C       -5.1800     5.4280     0.3400 C.ar  1 <1>  -0.1500 
 17 C        1.3500     7.9870     0.6430 C.3   1 <1>   0.1400 
 18 C        2.0150     5.5800     0.9690 C.3   1 <1>   0.1400 
 19 C        1.9780     8.7250    -0.5420 C.3   1 <1>   0.1200 
 20 C        3.3630     5.5520     0.2440 C.3   1 <1>  -0.1600 
 21 O        2.4710     9.9470    -0.0890 O.3   1 <1>  -0.5600 
 22 C        4.2770     4.4630     0.8150 C.3   1 <1>  -0.2400 
 23 C        3.0070    10.7400    -1.0980 C.3   1 <1>   0.0400 
 24 H       -1.6140     2.1530     0.9180 H     1 <1>   0.3700 
 25 H        0.0170     2.6990    -2.6110 H     1 <1>   0.0800 
 26 H        1.4810     2.1640    -1.8170 H     1 <1>   0.0800 
 27 H       -0.6160     4.4590     1.1910 H     1 <1>   0.0800 
 28 H       -0.9520     4.8030    -1.7670 H     1 <1>   0.0800 
 29 H       -2.1920     6.1510     1.7080 H     1 <1>   0.1500 
 30 H       -3.2200     3.1310    -1.1440 H     1 <1>   0.1500 
 31 H       -4.5200     6.8850     1.7520 H     1 <1>   0.1500 
 32 H       -5.5430     3.8820    -1.0860 H     1 <1>   0.1500 
 33 H       -6.2040     5.7570     0.3610 H     1 <1>   0.1500 
 34 H        0.4210     8.4670     0.9000 H     1 <1>   0.0800 
 35 H        2.0130     8.0530     1.4880 H     1 <1>   0.0800 
 36 H        2.1600     5.8630     1.9980 H     1 <1>   0.0800 
 37 H        1.5940     4.5920     0.9670 H     1 <1>   0.0800 
 38 H        1.2360     8.9070    -1.3010 H     1 <1>   0.0800 
 39 H        2.7960     8.1600    -0.9510 H     1 <1>   0.0800 
 40 H        3.1990     5.3570    -0.8020 H     1 <1>   0.0800 
 41 H        3.8500     6.5050     0.3460 H     1 <1>   0.0800 
 42 H        3.8240     3.4940     0.7010 H     1 <1>   0.0800 
 43 H        4.4670     4.6380     1.8600 H     1 <1>   0.0800 
 44 H        5.2170     4.4630     0.2920 H     1 <1>   0.0800 
 45 H        3.3630    11.6530    -0.6530 H     1 <1>   0.0800 
 46 H        2.2400    10.9640    -1.8190 H     1 <1>   0.0800 
 47 H        3.8260    10.2200    -1.5630 H     1 <1>   0.0800 
@<TRIPOS>BOND
  1   1   2  2   
  2   2   3  am  
  3   2   4  1   
  4   3   5  1   
  5   3  24  1   
  6   4   6  1   
  7   4  25  1   
  8   4  26  1   
  9   5   7  1   
 10   5   8  1   
 11   5  27  1   
 12   6   8  1   
 13   7   9  ar  
 14   7  10  ar  
 15   8  11  1   
 16   8  28  1   
 17   9  12  ar  
 18   9  29  1   
 19  10  13  ar  
 20  10  30  1   
 21  11  14  2   
 22  11  15  am  
 23  12  16  ar  
 24  12  31  1   
 25  13  16  ar  
 26  13  32  1   
 27  15  17  1   
 28  15  18  1   
 29  16  33  1   
 30  17  19  1   
 31  17  34  1   
 32  17  35  1   
 33  18  20  1   
 34  18  36  1   
 35  18  37  1   
 36  19  21  1   
 37  19  38  1   
 38  19  39  1   
 39  20  22  1   
 40  20  40  1   
 41  20  41  1   
 42  21  23  1   
 43  22  42  1   
 44  22  43  1   
 45  22  44  1   
 46  23  45  1   
 47  23  46  1   
 48  23  47  1   
@<TRIPOS>SUBSTRUCTURE
  1 ****  11 GROUP 4 **** **** 0

# MOE 2024.06 (io_trps.svl 2023.06)
