@<TRIPOS>MOLECULE
NONAME
49 51 1 0 0 
SMALL
USER_CHARGES


@<TRIPOS>ATOM
  1 S       -2.0240    -0.0100    -1.7660 S.3   1 <1>  -0.0800 
  2 C       -1.4630    -0.9210    -0.3670 C.2   1 <1>  -0.1400 
  3 C       -1.7170     1.5140    -0.9560 C.2   1 <1>  -0.1100 
  4 C       -1.0800    -0.0800     0.6130 C.2   1 <1>  -0.1500 
  5 C       -1.4810    -2.4390    -0.4350 C.3   1 <1>   0.3800 
  6 C       -1.2260     1.3040     0.2790 C.2   1 <1>  -0.1500 
  7 O       -0.6330    -2.8180    -1.4520 O.3   1 <1>  -0.6800 
  8 C       -2.8810    -3.0300    -0.7150 C.3   1 <1>  -0.0800 
  9 C       -3.9210    -2.5770     0.3290 C.3   1 <1>  -0.1600 
 10 C       -2.8620    -4.5710    -0.7770 C.3   1 <1>  -0.1600 
 11 C       -5.2990    -3.1720     0.0470 C.3   1 <1>   0.3430 
 12 C       -4.2510    -5.1460    -1.0430 C.3   1 <1>   0.3430 
 13 N       -5.2060    -4.6570    -0.0040 N.4   1 <1>  -0.9590 
 14 C       -6.5580    -5.3250    -0.1290 C.3   1 <1>   0.4040 
 15 C       -6.5360    -6.8080     0.2800 C.2   1 <1>   0.5690 
 16 O       -5.6150    -7.1550     0.9850 O.2   1 <1>  -0.5700 
 17 N       -7.5190    -7.6520    -0.1610 N.am  1 <1>  -0.4930 
 18 C       -7.6530    -9.0440     0.0880 C.2   1 <1>   0.0630 
 19 C       -8.6560    -9.8880    -0.3980 C.2   1 <1>   0.1080 
 20 C       -6.8700    -9.8530     0.8300 C.2   1 <1>  -0.3020 
 21 N       -8.5080   -11.1100     0.0050 N.2   1 <1>  -0.7070 
 22 C       -9.8070    -9.4820    -1.2920 C.3   1 <1>  -0.0590 
 23 N       -7.4020   -11.0910     0.7660 N.pl3 1 <1>   0.3140 
 24 C       -6.8900   -12.2970     1.4250 C.3   1 <1>   0.0160 
 25 H       -1.9380     2.4170    -1.4970 H     1 <1>   0.1500 
 26 H       -0.6920    -0.3680     1.5750 H     1 <1>   0.1500 
 27 H       -1.0830    -2.8400     0.4820 H     1 <1>   0.0800 
 28 H       -0.9530     2.0740     0.9800 H     1 <1>   0.1500 
 29 H        0.0500    -2.1260    -1.5560 H     1 <1>   0.4000 
 30 H       -3.1970    -2.6600    -1.6760 H     1 <1>   0.0800 
 31 H       -4.0100    -1.5040     0.3110 H     1 <1>   0.0800 
 32 H       -3.6040    -2.8560     1.3190 H     1 <1>   0.0800 
 33 H       -2.4750    -4.9790     0.1410 H     1 <1>   0.0800 
 34 H       -2.2070    -4.8920    -1.5690 H     1 <1>   0.0800 
 35 H       -5.6640    -2.7950    -0.8960 H     1 <1>   0.0800 
 36 H       -5.9840    -2.8680     0.8230 H     1 <1>   0.0800 
 37 H       -4.1980    -6.2240    -1.0190 H     1 <1>   0.0800 
 38 H       -4.5830    -4.8400    -2.0220 H     1 <1>   0.0800 
 39 H       -4.8250    -4.9990     0.8960 H     1 <1>   0.4500 
 40 H       -6.9110    -5.2430    -1.1420 H     1 <1>   0.0800 
 41 H       -7.2600    -4.8250     0.5150 H     1 <1>   0.0800 
 42 H       -8.2750    -7.2810    -0.7350 H     1 <1>   0.3700 
 43 H       -5.9820    -9.6270     1.3900 H     1 <1>   0.1500 
 44 H      -10.4150    -8.7470    -0.7990 H     1 <1>   0.0800 
 45 H      -10.4170   -10.3420    -1.5070 H     1 <1>   0.0800 
 46 H       -9.4330    -9.0880    -2.2180 H     1 <1>   0.0800 
 47 H       -7.0580   -12.2170     2.4820 H     1 <1>   0.0800 
 48 H       -5.8400   -12.3930     1.2240 H     1 <1>   0.0800 
 49 H       -7.4120   -13.1550     1.0410 H     1 <1>   0.0800 
@<TRIPOS>BOND
  1   1   2  1   
  2   1   3  1   
  3   2   4  2   
  4   2   5  1   
  5   3   6  2   
  6   3  25  1   
  7   4   6  1   
  8   4  26  1   
  9   5   7  1   
 10   5   8  1   
 11   5  27  1   
 12   6  28  1   
 13   7  29  1   
 14   8   9  1   
 15   8  10  1   
 16   8  30  1   
 17   9  11  1   
 18   9  31  1   
 19   9  32  1   
 20  10  12  1   
 21  10  33  1   
 22  10  34  1   
 23  11  13  1   
 24  11  35  1   
 25  11  36  1   
 26  12  13  1   
 27  12  37  1   
 28  12  38  1   
 29  13  14  1   
 30  13  39  1   
 31  14  15  1   
 32  14  40  1   
 33  14  41  1   
 34  15  16  2   
 35  15  17  am  
 36  17  18  1   
 37  17  42  1   
 38  18  19  1   
 39  18  20  2   
 40  19  21  2   
 41  19  22  1   
 42  20  23  1   
 43  20  43  1   
 44  21  23  1   
 45  22  44  1   
 46  22  45  1   
 47  22  46  1   
 48  23  24  1   
 49  24  47  1   
 50  24  48  1   
 51  24  49  1   
@<TRIPOS>SUBSTRUCTURE
  1 ****  13 GROUP 4 **** **** 0

# MOE 2024.06 (io_trps.svl 2023.06)
