@<TRIPOS>MOLECULE
NONAME
53 55 1 0 0 
SMALL
USER_CHARGES


@<TRIPOS>ATOM
  1 O       -3.5880     2.4360    -1.5270 O.2   1 <1>  -0.5700 
  2 C       -3.1140     2.0640    -0.4730 C.2   1 <1>   0.5690 
  3 N       -3.5160     0.8430     0.0380 N.am  1 <1>  -0.6600 
  4 C       -2.0820     3.0110     0.2280 C.3   1 <1>   0.2040 
  5 C       -3.0330     0.2520     1.3310 C.3   1 <1>   0.3210 
  6 C       -4.6720     0.1340    -0.6120 C.3   1 <1>   0.1400 
  7 C       -0.6810     2.3660     0.2320 C.ar  1 <1>  -0.1440 
  8 C       -1.9690     4.3780    -0.4880 C.3   1 <1>  -0.1600 
  9 C       -2.6040     3.5000     1.5980 C.3   1 <1>  -0.1600 
 10 C       -2.8800    -1.2640     1.2970 C.2   1 <1>   0.0460 
 11 C       -4.2720    -0.5750    -1.9190 C.3   1 <1>   0.1200 
 12 C       -0.1160     2.0220    -0.9910 C.ar  1 <1>  -0.1500 
 13 C        0.0520     2.1140     1.3890 C.ar  1 <1>  -0.1500 
 14 C       -3.1670     5.2170    -0.0270 C.3   1 <1>  -0.1600 
 15 C       -3.6400     4.5790     1.2800 C.3   1 <1>  -0.1600 
 16 N       -3.8570    -2.0630     1.7740 N.2   1 <1>  -0.5650 
 17 C       -1.8450    -2.0030     0.8300 C.2   1 <1>  -0.3320 
 18 O       -3.4280    -1.6460    -1.6690 O.3   1 <1>  -0.6800 
 19 C        1.1400     1.4460    -1.0670 C.ar  1 <1>  -0.1500 
 20 C        1.3060     1.5330     1.3180 C.ar  1 <1>  -0.1500 
 21 C       -3.4050    -3.2580     1.5830 C.2   1 <1>   0.0360 
 22 N       -2.1840    -3.2920     1.0140 N.pl3 1 <1>   0.0330 
 23 C       -0.5350    -1.5810     0.1910 C.3   1 <1>  -0.0600 
 24 C        1.8600     1.1940     0.0960 C.ar  1 <1>   0.0820 
 25 O        3.0880     0.6220     0.1160 O.3   1 <1>  -0.3630 
 26 C        3.7660     0.3040    -1.0790 C.3   1 <1>   0.0400 
 27 H       -3.7310     0.5010     2.1100 H     1 <1>   0.0800 
 28 H       -2.0820     0.6640     1.5970 H     1 <1>   0.0800 
 29 H       -5.4250     0.8650    -0.8500 H     1 <1>   0.0800 
 30 H       -5.1280    -0.5710     0.0610 H     1 <1>   0.0800 
 31 H       -1.9320     4.2920    -1.5590 H     1 <1>   0.0800 
 32 H       -1.0650     4.8670    -0.1650 H     1 <1>   0.0800 
 33 H       -1.8060     3.9750     2.1410 H     1 <1>   0.0800 
 34 H       -3.0250     2.7290     2.2130 H     1 <1>   0.0800 
 35 H       -3.7660     0.1080    -2.5800 H     1 <1>   0.0800 
 36 H       -5.1430    -0.9580    -2.4180 H     1 <1>   0.0800 
 37 H       -0.6600     2.2010    -1.9040 H     1 <1>   0.1500 
 38 H       -0.3320     2.3570     2.3620 H     1 <1>   0.1500 
 39 H       -3.9540     5.1700    -0.7610 H     1 <1>   0.0800 
 40 H       -2.8800     6.2450     0.1150 H     1 <1>   0.0800 
 41 H       -3.7130     5.3030     2.0740 H     1 <1>   0.0800 
 42 H       -4.6050     4.1260     1.1280 H     1 <1>   0.0800 
 43 H       -3.0220    -1.5340    -0.7770 H     1 <1>   0.4000 
 44 H        1.5340     1.1990    -2.0340 H     1 <1>   0.1500 
 45 H        1.8680     1.3400     2.2140 H     1 <1>   0.1500 
 46 H       -3.9370    -4.1560     1.8460 H     1 <1>   0.1500 
 47 H       -1.6420    -4.1230     0.7620 H     1 <1>   0.2700 
 48 H       -0.5150    -0.5170     0.0670 H     1 <1>   0.0800 
 49 H       -0.4290    -2.0330    -0.7790 H     1 <1>   0.0800 
 50 H        0.2970    -1.8680     0.8090 H     1 <1>   0.0800 
 51 H        4.7230    -0.1110    -0.8200 H     1 <1>   0.0800 
 52 H        3.9010     1.2040    -1.6540 H     1 <1>   0.0800 
 53 H        3.1890    -0.4200    -1.6260 H     1 <1>   0.0800 
@<TRIPOS>BOND
  1   1   2  2   
  2   2   3  am  
  3   2   4  1   
  4   3   5  1   
  5   3   6  1   
  6   4   7  1   
  7   4   8  1   
  8   4   9  1   
  9   5  10  1   
 10   5  27  1   
 11   5  28  1   
 12   6  11  1   
 13   6  29  1   
 14   6  30  1   
 15   7  12  ar  
 16   7  13  ar  
 17   8  14  1   
 18   8  31  1   
 19   8  32  1   
 20   9  15  1   
 21   9  33  1   
 22   9  34  1   
 23  10  16  1   
 24  10  17  2   
 25  11  18  1   
 26  11  35  1   
 27  11  36  1   
 28  12  19  ar  
 29  12  37  1   
 30  13  20  ar  
 31  13  38  1   
 32  14  15  1   
 33  14  39  1   
 34  14  40  1   
 35  15  41  1   
 36  15  42  1   
 37  16  21  2   
 38  17  22  1   
 39  17  23  1   
 40  18  43  1   
 41  19  24  ar  
 42  19  44  1   
 43  20  24  ar  
 44  20  45  1   
 45  21  22  1   
 46  21  46  1   
 47  22  47  1   
 48  23  48  1   
 49  23  49  1   
 50  23  50  1   
 51  24  25  1   
 52  25  26  1   
 53  26  51  1   
 54  26  52  1   
 55  26  53  1   
@<TRIPOS>SUBSTRUCTURE
  1 ****   7 GROUP 4 **** **** 0

# MOE 2024.06 (io_trps.svl 2023.06)
