@<TRIPOS>MOLECULE
NONAME
44 46 1 0 0 
SMALL
USER_CHARGES


@<TRIPOS>ATOM
  1 F        1.2340     0.6950     0.0110 F     1 <1>  -0.1900 
  2 C        1.9700    -0.3420     0.3250 C.ar  1 <1>   0.1900 
  3 C        1.5990    -1.6250    -0.0920 C.ar  1 <1>   0.0830 
  4 C        3.1300    -0.0970     1.0570 C.ar  1 <1>   0.0860 
  5 O        0.4840    -1.9590    -0.8010 O.3   1 <1>  -0.3630 
  6 C        2.4330    -2.6820     0.2330 C.ar  1 <1>  -0.1500 
  7 C        3.5130     1.2300     1.4800 C.2   1 <1>   0.5440 
  8 C        3.9320    -1.1940     1.3700 C.ar  1 <1>  -0.1500 
  9 C       -0.6650    -1.1410    -0.8350 C.3   1 <1>   0.0400 
 10 C        3.5920    -2.4710     0.9610 C.ar  1 <1>  -0.1500 
 11 O        3.5720     1.4700     2.6720 O.2   1 <1>  -0.5700 
 12 N        3.8700     2.2300     0.5880 N.am  1 <1>  -0.6600 
 13 C        4.2360     3.5810     1.1210 C.3   1 <1>   0.1400 
 14 C        4.1930     1.9280    -0.8430 C.3   1 <1>   0.1400 
 15 C        5.7660     3.8210     1.2190 C.3   1 <1>   0.4230 
 16 C        5.6190     2.3330    -1.2800 C.3   1 <1>  -0.0800 
 17 N        6.3560     4.4130    -0.0380 N.4   1 <1>  -0.9590 
 18 C        6.5920     2.5810     1.6630 C.3   1 <1>   0.1200 
 19 C        6.7710     1.5930    -0.5640 C.3   1 <1>   0.1200 
 20 C        5.7920     3.8540    -1.3020 C.3   1 <1>   0.3430 
 21 C        6.2640     5.9060    -0.0360 C.3   1 <1>   0.2630 
 22 O        6.5580     1.4650     0.8060 O.3   1 <1>  -0.5600 
 23 H        2.1670    -3.6750    -0.0840 H     1 <1>   0.1500 
 24 H        4.8320    -1.0320     1.9410 H     1 <1>   0.1500 
 25 H       -1.4740    -1.7180    -1.2460 H     1 <1>   0.0800 
 26 H       -0.4720    -0.2910    -1.4650 H     1 <1>   0.0800 
 27 H       -0.9090    -0.8320     0.1660 H     1 <1>   0.0800 
 28 H        4.2280    -3.3040     1.2110 H     1 <1>   0.1500 
 29 H        3.7720     4.3420     0.5200 H     1 <1>   0.0800 
 30 H        3.8250     3.6960     2.1090 H     1 <1>   0.0800 
 31 H        4.0860     0.8740    -1.0290 H     1 <1>   0.0800 
 32 H        3.4680     2.4270    -1.4630 H     1 <1>   0.0800 
 33 H        5.8980     4.5500     2.0010 H     1 <1>   0.0800 
 34 H        5.6840     2.0380    -2.3120 H     1 <1>   0.0800 
 35 H        7.3510     4.1510    -0.0160 H     1 <1>   0.4500 
 36 H        6.2140     2.2420     2.6120 H     1 <1>   0.0800 
 37 H        7.6220     2.8540     1.8050 H     1 <1>   0.0800 
 38 H        7.7250     2.0630    -0.7290 H     1 <1>   0.0800 
 39 H        6.8290     0.5880    -0.9480 H     1 <1>   0.0800 
 40 H        4.8340     4.3050    -1.5060 H     1 <1>   0.0800 
 41 H        6.4500     4.1130    -2.1170 H     1 <1>   0.0800 
 42 H        5.2320     6.2190    -0.0490 H     1 <1>   0.0800 
 43 H        6.7580     6.3130    -0.9040 H     1 <1>   0.0800 
 44 H        6.7360     6.3110     0.8450 H     1 <1>   0.0800 
@<TRIPOS>BOND
  1   1   2  1   
  2   2   3  ar  
  3   2   4  ar  
  4   3   5  1   
  5   3   6  ar  
  6   4   7  1   
  7   4   8  ar  
  8   5   9  1   
  9   6  10  ar  
 10   6  23  1   
 11   7  11  2   
 12   7  12  am  
 13   8  10  ar  
 14   8  24  1   
 15   9  25  1   
 16   9  26  1   
 17   9  27  1   
 18  10  28  1   
 19  12  13  1   
 20  12  14  1   
 21  13  15  1   
 22  13  29  1   
 23  13  30  1   
 24  14  16  1   
 25  14  31  1   
 26  14  32  1   
 27  15  17  1   
 28  15  18  1   
 29  15  33  1   
 30  16  19  1   
 31  16  20  1   
 32  16  34  1   
 33  17  20  1   
 34  17  21  1   
 35  17  35  1   
 36  18  22  1   
 37  18  36  1   
 38  18  37  1   
 39  19  22  1   
 40  19  38  1   
 41  19  39  1   
 42  20  40  1   
 43  20  41  1   
 44  21  42  1   
 45  21  43  1   
 46  21  44  1   
@<TRIPOS>SUBSTRUCTURE
  1 ****  12 GROUP 4 **** **** 0

# MOE 2024.06 (io_trps.svl 2023.06)
