@<TRIPOS>MOLECULE
NONAME
53 55 1 0 0 
SMALL
USER_CHARGES


@<TRIPOS>ATOM
  1 F       -0.6510     1.2410    -2.0530 F     1 <1>  -0.1900 
  2 C       -1.8620     1.2840    -1.5600 C.ar  1 <1>   0.1900 
  3 C       -2.1690     2.0180    -0.4090 C.ar  1 <1>   0.0830 
  4 C       -2.8280     0.5660    -2.2390 C.ar  1 <1>  -0.1500 
  5 O       -1.3100     2.7630     0.3450 O.3   1 <1>  -0.3630 
  6 C       -3.4830     2.0010     0.0320 C.ar  1 <1>  -0.1500 
  7 C       -4.1290     0.5720    -1.7720 C.ar  1 <1>  -0.1500 
  8 C        0.0700     2.8600     0.0670 C.3   1 <1>   0.0400 
  9 C       -4.4830     1.2840    -0.6250 C.ar  1 <1>   0.0530 
 10 C       -5.8360     1.3030    -0.1290 C.2   1 <1>   0.0870 
 11 O       -6.3780     2.4510     0.1910 O.3   1 <1>  -0.0190 
 12 C       -6.7650     0.3390     0.1200 C.2   1 <1>  -0.0860 
 13 N       -7.6050     2.3340     0.6210 N.2   1 <1>  -0.4100 
 14 C       -7.8650     1.0750     0.5860 C.2   1 <1>   0.3720 
 15 C       -6.6970    -1.0870    -0.0090 C.2   1 <1>   0.7160 
 16 N       -9.1130     0.5500     0.9570 N.pl3 1 <1>  -0.8210 
 17 O       -5.7860    -1.6340    -0.6000 O.2   1 <1>  -0.5700 
 18 N       -7.6730    -1.8610     0.5320 N.am  1 <1>  -0.7300 
 19 C      -10.1270     0.6730    -0.1260 C.3   1 <1>   0.1290 
 20 C       -9.6290     1.0830     2.2490 C.3   1 <1>   0.1290 
 21 C       -7.8710    -3.3070     0.3560 C.3   1 <1>   0.2200 
 22 C       -9.2900    -3.6050    -0.1760 C.3   1 <1>  -0.0800 
 23 C       -7.6070    -3.9750     1.7040 C.3   1 <1>  -0.2400 
 24 C       -9.5860    -2.9970    -1.5530 C.3   1 <1>  -0.1600 
 25 C      -10.4530    -3.1270     0.6990 C.3   1 <1>  -0.1600 
 26 C      -11.1110    -2.8650    -1.6400 C.3   1 <1>  -0.1600 
 27 C      -11.6600    -3.1400    -0.2360 C.3   1 <1>  -0.1600 
 28 H       -2.5630     0.0100    -3.1210 H     1 <1>   0.1500 
 29 H       -3.7340     2.5620     0.9150 H     1 <1>   0.1500 
 30 H       -4.8830     0.0150    -2.3010 H     1 <1>   0.1500 
 31 H        0.5190     3.4840     0.8190 H     1 <1>   0.0800 
 32 H        0.2020     3.3060    -0.9020 H     1 <1>   0.0800 
 33 H        0.5040     1.8770     0.1030 H     1 <1>   0.0800 
 34 H       -8.4660    -1.3400     0.9290 H     1 <1>   0.3700 
 35 H       -9.7250     0.2950    -1.0500 H     1 <1>   0.0800 
 36 H      -10.3980     1.7060    -0.2640 H     1 <1>   0.0800 
 37 H      -11.0060     0.1050     0.1250 H     1 <1>   0.0800 
 38 H       -8.8540     1.0450     2.9950 H     1 <1>   0.0800 
 39 H      -10.4630     0.4910     2.5840 H     1 <1>   0.0800 
 40 H       -9.9440     2.1070     2.1310 H     1 <1>   0.0800 
 41 H       -7.1530    -3.6800    -0.3570 H     1 <1>   0.0800 
 42 H       -9.3840    -4.6730    -0.2770 H     1 <1>   0.0800 
 43 H       -8.2690    -3.5940     2.4600 H     1 <1>   0.0800 
 44 H       -6.5900    -3.7940     2.0040 H     1 <1>   0.0800 
 45 H       -7.7490    -5.0370     1.6220 H     1 <1>   0.0800 
 46 H       -9.1950    -3.6140    -2.3430 H     1 <1>   0.0800 
 47 H       -9.1470    -2.0190    -1.6370 H     1 <1>   0.0800 
 48 H      -10.2830    -2.1210     1.0390 H     1 <1>   0.0800 
 49 H      -10.6060    -3.7650     1.5510 H     1 <1>   0.0800 
 50 H      -11.5130    -3.5780    -2.3390 H     1 <1>   0.0800 
 51 H      -11.3770    -1.8750    -1.9650 H     1 <1>   0.0800 
 52 H      -12.3970    -2.4120     0.0570 H     1 <1>   0.0800 
 53 H      -12.1110    -4.1180    -0.2180 H     1 <1>   0.0800 
@<TRIPOS>BOND
  1   1   2  1   
  2   2   3  ar  
  3   2   4  ar  
  4   3   5  1   
  5   3   6  ar  
  6   4   7  ar  
  7   4  28  1   
  8   5   8  1   
  9   6   9  ar  
 10   6  29  1   
 11   7   9  ar  
 12   7  30  1   
 13   8  31  1   
 14   8  32  1   
 15   8  33  1   
 16   9  10  1   
 17  10  11  1   
 18  10  12  2   
 19  11  13  1   
 20  12  14  1   
 21  12  15  1   
 22  13  14  2   
 23  14  16  1   
 24  15  17  2   
 25  15  18  am  
 26  16  19  1   
 27  16  20  1   
 28  18  21  1   
 29  18  34  1   
 30  19  35  1   
 31  19  36  1   
 32  19  37  1   
 33  20  38  1   
 34  20  39  1   
 35  20  40  1   
 36  21  22  1   
 37  21  23  1   
 38  21  41  1   
 39  22  24  1   
 40  22  25  1   
 41  22  42  1   
 42  23  43  1   
 43  23  44  1   
 44  23  45  1   
 45  24  26  1   
 46  24  46  1   
 47  24  47  1   
 48  25  27  1   
 49  25  48  1   
 50  25  49  1   
 51  26  27  1   
 52  26  50  1   
 53  26  51  1   
 54  27  52  1   
 55  27  53  1   
@<TRIPOS>SUBSTRUCTURE
  1 ****  12 GROUP 4 **** **** 0

# MOE 2024.06 (io_trps.svl 2023.06)
