@<TRIPOS>MOLECULE
NONAME
45 48 1 0 0 
SMALL
USER_CHARGES


@<TRIPOS>ATOM
  1 O        0.1730     0.2820    -1.3550 O.2   1 <1>  -0.5700 
  2 C        1.1720     0.9850    -1.3370 C.2   1 <1>   0.7150 
  3 N        1.0160     2.3350    -1.0700 N.am  1 <1>  -0.6600 
  4 C        2.4370     0.3260    -1.6020 C.2   1 <1>   0.1020 
  5 C        0.0200     2.7780    -0.0260 C.3   1 <1>   0.2200 
  6 C        2.0670     3.3380    -1.4220 C.3   1 <1>   0.1400 
  7 N        2.4660    -0.9100    -2.1150 N.pl3 1 <1>   0.0330 
  8 N        3.6650     0.7300    -1.3920 N.2   1 <1>  -0.3380 
  9 C        0.3000     4.1840     0.5980 C.3   1 <1>   0.1380 
 10 C       -1.4560     2.5770    -0.4150 C.3   1 <1>  -0.1600 
 11 C        2.7390     3.9120    -0.1610 C.3   1 <1>  -0.1600 
 12 C        3.7530    -1.2050    -2.2070 C.2   1 <1>   0.0360 
 13 N        4.4890    -0.2370    -1.7830 N.2   1 <1>  -0.3380 
 14 C        0.0760     5.4390    -0.3070 C.2   1 <1>  -0.2760 
 15 C       -0.6370     4.2960     1.8390 C.3   1 <1>   0.1200 
 16 C        1.7840     4.1280     1.0350 C.3   1 <1>  -0.1600 
 17 C       -2.3700     3.4460     0.4590 C.3   1 <1>   0.1200 
 18 C       -0.4570     5.4660    -1.5380 C.2   1 <1>  -0.2880 
 19 C        0.5440     6.7800     0.2750 C.3   1 <1>  -0.0220 
 20 O       -1.8120     3.5280     1.7350 O.3   1 <1>  -0.5600 
 21 C       -0.6290     6.7230    -2.3830 C.3   1 <1>   0.2580 
 22 C       -0.0740     7.9660    -0.4760 C.3   1 <1>   0.1200 
 23 O        0.1000     7.7840    -1.8460 O.3   1 <1>  -0.5600 
 24 H        0.1640     2.0920     0.7930 H     1 <1>   0.0800 
 25 H        2.8080     2.9220    -2.0780 H     1 <1>   0.0800 
 26 H        1.6110     4.1350    -1.9770 H     1 <1>   0.0800 
 27 H        1.6410    -1.4690    -2.3510 H     1 <1>   0.2700 
 28 H       -1.7220     1.5510    -0.2410 H     1 <1>   0.0800 
 29 H       -1.6340     2.7750    -1.4530 H     1 <1>   0.0800 
 30 H        3.5380     3.2540     0.1370 H     1 <1>   0.0800 
 31 H        3.1910     4.8500    -0.4310 H     1 <1>   0.0800 
 32 H        4.1260    -2.1400    -2.5870 H     1 <1>   0.1500 
 33 H       -0.9420     5.3090     2.0140 H     1 <1>   0.0800 
 34 H       -0.1280     3.9470     2.7200 H     1 <1>   0.0800 
 35 H        2.0710     5.0060     1.5830 H     1 <1>   0.0800 
 36 H        1.9090     3.2960     1.7070 H     1 <1>   0.0800 
 37 H       -3.3460     3.0020     0.5460 H     1 <1>   0.0800 
 38 H       -2.4740     4.4420     0.0640 H     1 <1>   0.0800 
 39 H       -0.8060     4.6040    -2.0670 H     1 <1>   0.1500 
 40 H        1.6140     6.8530     0.1950 H     1 <1>   0.0800 
 41 H        0.2880     6.8790     1.3120 H     1 <1>   0.0800 
 42 H       -1.6650     7.0100    -2.4350 H     1 <1>   0.0800 
 43 H       -0.2600     6.5560    -3.3800 H     1 <1>   0.0800 
 44 H        0.4130     8.8850    -0.1990 H     1 <1>   0.0800 
 45 H       -1.1280     8.0470    -0.2710 H     1 <1>   0.0800 
@<TRIPOS>BOND
  1   1   2  2   
  2   2   3  am  
  3   2   4  1   
  4   3   5  1   
  5   3   6  1   
  6   4   7  1   
  7   4   8  2   
  8   5   9  1   
  9   5  10  1   
 10   5  24  1   
 11   6  11  1   
 12   6  25  1   
 13   6  26  1   
 14   7  12  1   
 15   7  27  1   
 16   8  13  1   
 17   9  14  1   
 18   9  15  1   
 19   9  16  1   
 20  10  17  1   
 21  10  28  1   
 22  10  29  1   
 23  11  16  1   
 24  11  30  1   
 25  11  31  1   
 26  12  13  2   
 27  12  32  1   
 28  14  18  2   
 29  14  19  1   
 30  15  20  1   
 31  15  33  1   
 32  15  34  1   
 33  16  35  1   
 34  16  36  1   
 35  17  20  1   
 36  17  37  1   
 37  17  38  1   
 38  18  21  1   
 39  18  39  1   
 40  19  22  1   
 41  19  40  1   
 42  19  41  1   
 43  21  23  1   
 44  21  42  1   
 45  21  43  1   
 46  22  23  1   
 47  22  44  1   
 48  22  45  1   
@<TRIPOS>SUBSTRUCTURE
  1 ****   3 GROUP 4 **** **** 0

# MOE 2024.06 (io_trps.svl 2023.06)
