@<TRIPOS>MOLECULE
NONAME
38 39 1 0 0 
SMALL
USER_CHARGES


@<TRIPOS>ATOM
  1 O       -2.8700     1.1660    -2.0090 O.2   1 <1>  -0.5700 
  2 C       -2.3920     1.0530    -0.9070 C.2   1 <1>   0.5690 
  3 N       -2.2880    -0.1470    -0.2900 N.am  1 <1>  -0.7300 
  4 C       -1.8950     2.2860    -0.1800 C.3   1 <1>  -0.0990 
  5 C       -2.6990    -1.4390    -0.8820 C.3   1 <1>   0.2200 
  6 C       -0.3600     2.3650    -0.1570 C.3   1 <1>  -0.1600 
  7 C       -3.9580    -1.9290    -0.1880 C.3   1 <1>  -0.0800 
  8 C       -1.6930    -2.5190    -0.5010 C.3   1 <1>   0.1200 
  9 C        0.1230     3.6190     0.5780 C.3   1 <1>  -0.2400 
 10 C       -3.3920    -2.6280     1.0540 C.3   1 <1>   0.1200 
 11 C       -4.7600    -2.8890    -1.0860 C.3   1 <1>  -0.0160 
 12 O       -2.0620    -2.9590     0.7720 O.3   1 <1>  -0.5600 
 13 C       -6.0350    -3.3590    -0.4010 C.ar  1 <1>  -0.1440 
 14 C       -7.1320    -2.5320    -0.2670 C.ar  1 <1>  -0.1500 
 15 C       -6.1630    -4.6310     0.1180 C.ar  1 <1>  -0.1500 
 16 C       -8.2700    -3.0020     0.3680 C.ar  1 <1>   0.1600 
 17 C       -7.3470    -5.0020     0.7350 C.ar  1 <1>   0.1600 
 18 N       -8.4030    -4.2170     0.8740 N.ar  1 <1>  -0.6200 
 19 H       -1.8780    -0.2190     0.6430 H     1 <1>   0.3700 
 20 H       -2.2910     3.1550    -0.6750 H     1 <1>   0.0800 
 21 H       -2.2790     2.2750     0.8230 H     1 <1>   0.0800 
 22 H       -2.8110    -1.3440    -1.9500 H     1 <1>   0.0800 
 23 H        0.0430     1.4920     0.3280 H     1 <1>   0.0800 
 24 H        0.0090     2.3810    -1.1690 H     1 <1>   0.0800 
 25 H       -4.5930    -1.1050     0.0890 H     1 <1>   0.0800 
 26 H       -0.6810    -2.1550    -0.4810 H     1 <1>   0.0800 
 27 H       -1.7650    -3.3580    -1.1700 H     1 <1>   0.0800 
 28 H       -0.2170     3.6150     1.5990 H     1 <1>   0.0800 
 29 H       -0.2470     4.5060     0.0930 H     1 <1>   0.0800 
 30 H        1.1990     3.6550     0.5770 H     1 <1>   0.0800 
 31 H       -3.9260    -3.5250     1.3150 H     1 <1>   0.0800 
 32 H       -3.3880    -1.9600     1.8970 H     1 <1>   0.0800 
 33 H       -4.1600    -3.7400    -1.3540 H     1 <1>   0.0800 
 34 H       -5.0290    -2.3820    -1.9980 H     1 <1>   0.0800 
 35 H       -7.1130    -1.5280    -0.6490 H     1 <1>   0.1500 
 36 H       -5.3560    -5.3380     0.0520 H     1 <1>   0.1500 
 37 H       -9.1150    -2.3430     0.4640 H     1 <1>   0.1500 
 38 H       -7.4290    -5.9980     1.1350 H     1 <1>   0.1500 
@<TRIPOS>BOND
  1   1   2  2   
  2   2   3  am  
  3   2   4  1   
  4   3   5  1   
  5   3  19  1   
  6   4   6  1   
  7   4  20  1   
  8   4  21  1   
  9   5   7  1   
 10   5   8  1   
 11   5  22  1   
 12   6   9  1   
 13   6  23  1   
 14   6  24  1   
 15   7  10  1   
 16   7  11  1   
 17   7  25  1   
 18   8  12  1   
 19   8  26  1   
 20   8  27  1   
 21   9  28  1   
 22   9  29  1   
 23   9  30  1   
 24  10  12  1   
 25  10  31  1   
 26  10  32  1   
 27  11  13  1   
 28  11  33  1   
 29  11  34  1   
 30  13  14  ar  
 31  13  15  ar  
 32  14  16  ar  
 33  14  35  1   
 34  15  17  ar  
 35  15  36  1   
 36  16  18  ar  
 37  16  37  1   
 38  17  18  ar  
 39  17  38  1   
@<TRIPOS>SUBSTRUCTURE
  1 ****   7 GROUP 4 **** **** 0

# MOE 2024.06 (io_trps.svl 2023.06)
