@<TRIPOS>MOLECULE
NONAME
40 42 1 0 0 
SMALL
USER_CHARGES


@<TRIPOS>ATOM
  1 F        2.2780     0.1730    -2.3470 F     1 <1>  -0.1900 
  2 C        2.6670    -0.5310    -1.3140 C.ar  1 <1>   0.1900 
  3 C        2.8240     0.0850    -0.0810 C.ar  1 <1>  -0.1440 
  4 C        2.8990    -1.8800    -1.5090 C.ar  1 <1>  -0.1500 
  5 C        3.2100    -0.7130     0.9870 C.ar  1 <1>  -0.1500 
  6 C        2.5670     1.5770     0.1200 C.3   1 <1>   0.2540 
  7 C        3.2980    -2.6550    -0.4340 C.ar  1 <1>  -0.1500 
  8 C        3.4540    -2.0690     0.8210 C.ar  1 <1>   0.0830 
  9 N        3.7820     2.4020    -0.0270 N.3   1 <1>  -0.8100 
 10 O        3.8390    -2.7520     1.9280 O.3   1 <1>  -0.3630 
 11 C        4.8250     2.0820     0.9810 C.3   1 <1>   0.1100 
 12 C        4.2710     2.4310    -1.4220 C.3   1 <1>   0.1100 
 13 C        4.1430    -4.1280     1.8710 C.3   1 <1>   0.0400 
 14 C        5.9950     3.0980     1.0960 C.3   1 <1>   0.2200 
 15 C        5.3130     3.5320    -1.7120 C.3   1 <1>  -0.0190 
 16 N        5.6480     4.4440     0.5690 N.am  1 <1>  -0.7300 
 17 C        7.2830     2.5760     0.4230 C.3   1 <1>   0.1200 
 18 C        5.2780     4.6690    -0.7080 C.2   1 <1>   0.5690 
 19 C        6.7430     2.9850    -1.8570 C.3   1 <1>   0.1200 
 20 O        7.0680     2.0620    -0.8610 O.3   1 <1>  -0.5600 
 21 O        4.9530     5.7760    -1.0630 O.2   1 <1>  -0.5700 
 22 H        2.7680    -2.3100    -2.4860 H     1 <1>   0.1500 
 23 H        3.3310    -0.2890     1.9670 H     1 <1>   0.1500 
 24 H        2.1610     1.7340     1.1040 H     1 <1>   0.0800 
 25 H        1.8230     1.9180    -0.5800 H     1 <1>   0.0800 
 26 H        3.4790    -3.7010    -0.5900 H     1 <1>   0.1500 
 27 H        4.3520     2.0380     1.9460 H     1 <1>   0.0800 
 28 H        5.2290     1.1040     0.7840 H     1 <1>   0.0800 
 29 H        4.6720     1.4670    -1.6880 H     1 <1>   0.0800 
 30 H        3.4260     2.6160    -2.0640 H     1 <1>   0.0800 
 31 H        4.4330    -4.4470     2.8560 H     1 <1>   0.0800 
 32 H        4.9580    -4.2770     1.1840 H     1 <1>   0.0800 
 33 H        3.2670    -4.6660     1.5560 H     1 <1>   0.0800 
 34 H        6.2240     3.2120     2.1410 H     1 <1>   0.0800 
 35 H        5.0640     3.9590    -2.6650 H     1 <1>   0.0800 
 36 H        5.4550     5.1890     1.2370 H     1 <1>   0.3700 
 37 H        7.6770     1.7660     1.0100 H     1 <1>   0.0800 
 38 H        8.0310     3.3490     0.3740 H     1 <1>   0.0800 
 39 H        7.4680     3.7820    -1.8490 H     1 <1>   0.0800 
 40 H        6.8270     2.4640    -2.7940 H     1 <1>   0.0800 
@<TRIPOS>BOND
  1   1   2  1   
  2   2   3  ar  
  3   2   4  ar  
  4   3   5  ar  
  5   3   6  1   
  6   4   7  ar  
  7   4  22  1   
  8   5   8  ar  
  9   5  23  1   
 10   6   9  1   
 11   6  24  1   
 12   6  25  1   
 13   7   8  ar  
 14   7  26  1   
 15   8  10  1   
 16   9  11  1   
 17   9  12  1   
 18  10  13  1   
 19  11  14  1   
 20  11  27  1   
 21  11  28  1   
 22  12  15  1   
 23  12  29  1   
 24  12  30  1   
 25  13  31  1   
 26  13  32  1   
 27  13  33  1   
 28  14  16  1   
 29  14  17  1   
 30  14  34  1   
 31  15  18  1   
 32  15  19  1   
 33  15  35  1   
 34  16  18  am  
 35  16  36  1   
 36  17  20  1   
 37  17  37  1   
 38  17  38  1   
 39  18  21  2   
 40  19  20  1   
 41  19  39  1   
 42  19  40  1   
@<TRIPOS>SUBSTRUCTURE
  1 ****   9 GROUP 4 **** **** 0

# MOE 2024.06 (io_trps.svl 2023.06)
