@<TRIPOS>MOLECULE
NONAME
47 49 1 0 0 
SMALL
USER_CHARGES


@<TRIPOS>ATOM
  1 S       -0.1890    -0.0980     1.1810 S.3   1 <1>  -0.0800 
  2 C        1.0040    -0.9560     0.2280 C.2   1 <1>  -0.0450 
  3 C        0.4650     1.4260     0.6380 C.2   1 <1>   0.1980 
  4 C        1.7670    -0.0180    -0.3790 C.2   1 <1>   0.0460 
  5 C        1.0360    -2.3970     0.2370 C.2   1 <1>   0.7150 
  6 N        1.4550     1.3060    -0.1530 N.2   1 <1>  -0.5650 
  7 C       -0.2080     2.6940     1.1600 C.3   1 <1>   0.1000 
  8 C        2.9470    -0.2710    -1.2960 C.3   1 <1>  -0.0590 
  9 O        2.1080    -2.9710     0.3040 O.2   1 <1>  -0.5700 
 10 N       -0.1060    -3.1620     0.1430 N.am  1 <1>  -0.6600 
 11 C       -1.5100     2.9660     0.3940 C.3   1 <1>  -0.2400 
 12 C        0.7200     3.9130     1.0620 C.3   1 <1>  -0.2400 
 13 C       -1.4130    -2.6790    -0.3680 C.3   1 <1>   0.1400 
 14 C       -0.0620    -4.6470     0.1280 C.3   1 <1>   0.1400 
 15 C       -2.1280    -3.9310    -0.8750 C.3   1 <1>   0.2000 
 16 C       -1.5070    -5.0930    -0.1050 C.3   1 <1>  -0.0800 
 17 O       -3.4920    -3.8730    -0.6340 O.3   1 <1>  -0.6800 
 18 C       -1.6410    -6.4340    -0.8470 C.3   1 <1>  -0.0170 
 19 C       -1.0530    -7.5830    -0.0440 C.ar  1 <1>   0.1670 
 20 N        0.2570    -7.7500    -0.1310 N.ar  1 <1>  -0.6200 
 21 C       -1.8870    -8.3820     0.7240 C.ar  1 <1>  -0.1500 
 22 C        0.7570    -8.7520     0.5750 C.ar  1 <1>   0.1600 
 23 C       -1.3540    -9.4220     1.4540 C.ar  1 <1>  -0.1500 
 24 C        0.0100    -9.6030     1.3710 C.ar  1 <1>  -0.1500 
 25 H       -0.4440     2.5400     2.1980 H     1 <1>   0.0800 
 26 H        3.1030    -1.3220    -1.4490 H     1 <1>   0.0800 
 27 H        3.8340     0.1510    -0.8610 H     1 <1>   0.0800 
 28 H        2.7710     0.1970    -2.2470 H     1 <1>   0.0800 
 29 H       -1.3000     3.1060    -0.6520 H     1 <1>   0.0800 
 30 H       -1.9910     3.8500     0.7730 H     1 <1>   0.0800 
 31 H       -2.1850     2.1370     0.5000 H     1 <1>   0.0800 
 32 H        0.9730     4.1090     0.0340 H     1 <1>   0.0800 
 33 H        1.6300     3.7230     1.6030 H     1 <1>   0.0800 
 34 H        0.2470     4.7840     1.4770 H     1 <1>   0.0800 
 35 H       -1.9640    -2.2320     0.4410 H     1 <1>   0.0800 
 36 H       -1.2740    -1.9680    -1.1640 H     1 <1>   0.0800 
 37 H        0.5760    -4.9740    -0.6770 H     1 <1>   0.0800 
 38 H        0.3260    -5.0300     1.0580 H     1 <1>   0.0800 
 39 H       -1.9720    -4.0350    -1.9360 H     1 <1>   0.0800 
 40 H       -1.9730    -5.1740     0.8620 H     1 <1>   0.0800 
 41 H       -3.6650    -3.8040     0.3250 H     1 <1>   0.4000 
 42 H       -1.1400    -6.3810    -1.7980 H     1 <1>   0.0800 
 43 H       -2.6800    -6.6290    -1.0400 H     1 <1>   0.0800 
 44 H       -2.9450    -8.1950     0.7520 H     1 <1>   0.1500 
 45 H        1.8220    -8.9020     0.5170 H     1 <1>   0.1500 
 46 H       -1.9720   -10.0620     2.0600 H     1 <1>   0.1500 
 47 H        0.4910   -10.3950     1.9150 H     1 <1>   0.1500 
@<TRIPOS>BOND
  1   1   2  1   
  2   1   3  1   
  3   2   4  2   
  4   2   5  1   
  5   3   6  2   
  6   3   7  1   
  7   4   6  1   
  8   4   8  1   
  9   5   9  2   
 10   5  10  am  
 11   7  11  1   
 12   7  12  1   
 13   7  25  1   
 14   8  26  1   
 15   8  27  1   
 16   8  28  1   
 17  10  13  1   
 18  10  14  1   
 19  11  29  1   
 20  11  30  1   
 21  11  31  1   
 22  12  32  1   
 23  12  33  1   
 24  12  34  1   
 25  13  15  1   
 26  13  35  1   
 27  13  36  1   
 28  14  16  1   
 29  14  37  1   
 30  14  38  1   
 31  15  16  1   
 32  15  17  1   
 33  15  39  1   
 34  16  18  1   
 35  16  40  1   
 36  17  41  1   
 37  18  19  1   
 38  18  42  1   
 39  18  43  1   
 40  19  20  ar  
 41  19  21  ar  
 42  20  22  ar  
 43  21  23  ar  
 44  21  44  1   
 45  22  24  ar  
 46  22  45  1   
 47  23  24  ar  
 48  23  46  1   
 49  24  47  1   
@<TRIPOS>SUBSTRUCTURE
  1 ****  10 GROUP 4 **** **** 0

# MOE 2024.06 (io_trps.svl 2023.06)
