@<TRIPOS>MOLECULE
NONAME
48 49 1 0 0 
SMALL
USER_CHARGES


@<TRIPOS>ATOM
  1 CL       0.3670     0.7960     2.1620 Cl    1 <1>  -0.1770 
  2 C        1.4520    -0.3420     1.4060 C.ar  1 <1>   0.1770 
  3 C        2.4590     0.1270     0.5880 C.ar  1 <1>  -0.1500 
  4 C        1.2740    -1.6900     1.6400 C.ar  1 <1>  -0.1500 
  5 C        3.3250    -0.7770    -0.0210 C.ar  1 <1>   0.0830 
  6 C        2.1320    -2.6020     1.0440 C.ar  1 <1>  -0.1440 
  7 O        4.3090    -0.3610    -0.8680 O.3   1 <1>  -0.3620 
  8 C        3.1640    -2.1510     0.2240 C.ar  1 <1>   0.0830 
  9 C        1.9430    -4.0880     1.2900 C.3   1 <1>   0.4870 
 10 C        4.5130     1.0030    -1.1740 C.3   1 <1>   0.0400 
 11 O        3.9620    -3.1140    -0.3210 O.3   1 <1>  -0.3630 
 12 N        1.6980    -4.7630    -0.0050 N.4   1 <1>  -0.9590 
 13 C        5.3650    -2.9420    -0.3470 C.3   1 <1>   0.1200 
 14 C        1.8010    -6.2510     0.1620 C.3   1 <1>   0.3430 
 15 C        0.4240    -4.2820    -0.6420 C.3   1 <1>   0.3430 
 16 C        6.0130    -4.3270    -0.3330 C.3   1 <1>  -0.1600 
 17 C        0.4230    -6.8360     0.3870 C.3   1 <1>  -0.1860 
 18 C       -0.1190    -5.3300    -1.6050 C.3   1 <1>  -0.1600 
 19 C        7.5410    -4.2230    -0.3620 C.3   1 <1>  -0.2400 
 20 C        0.5480    -8.2980     0.6610 C.2   1 <1>   0.9060 
 21 C       -0.4590    -6.6160    -0.8430 C.3   1 <1>   0.2000 
 22 O        1.6790    -8.7820     0.7370 O.co2 1 <1>  -0.9000 
 23 O       -0.4930    -8.9400     0.7950 O.co2 1 <1>  -0.9000 
 24 O       -1.7480    -6.5170    -0.3770 O.3   1 <1>  -0.6800 
 25 H        2.5380     1.1870     0.4440 H     1 <1>   0.1500 
 26 H        0.4710    -2.0040     2.2840 H     1 <1>   0.1500 
 27 H        1.1140    -4.2600     1.9580 H     1 <1>   0.0800 
 28 H        2.8370    -4.4850     1.7430 H     1 <1>   0.0800 
 29 H        5.3390     1.0710    -1.8600 H     1 <1>   0.0800 
 30 H        4.7480     1.5350    -0.2700 H     1 <1>   0.0800 
 31 H        3.6250     1.3970    -1.6360 H     1 <1>   0.0800 
 32 H        2.4890    -4.4550    -0.5950 H     1 <1>   0.4500 
 33 H        5.6250    -2.4110    -1.2460 H     1 <1>   0.0800 
 34 H        5.6630    -2.3700     0.5150 H     1 <1>   0.0800 
 35 H        2.2180    -6.6980    -0.7270 H     1 <1>   0.0800 
 36 H        2.4470    -6.5070     0.9870 H     1 <1>   0.0800 
 37 H       -0.3220    -4.1140     0.1190 H     1 <1>   0.0800 
 38 H        0.5980    -3.3520    -1.1580 H     1 <1>   0.0800 
 39 H        5.7150    -4.8530     0.5570 H     1 <1>   0.0800 
 40 H        5.6830    -4.8840    -1.1940 H     1 <1>   0.0800 
 41 H       -0.0050    -6.3890     1.2640 H     1 <1>   0.0800 
 42 H        0.6240    -5.5370    -2.3530 H     1 <1>   0.0800 
 43 H       -0.9950    -4.9610    -2.1100 H     1 <1>   0.0800 
 44 H        7.9010    -3.6820     0.4960 H     1 <1>   0.0800 
 45 H        7.8680    -3.7160    -1.2530 H     1 <1>   0.0800 
 46 H        7.9780    -5.2070    -0.3520 H     1 <1>   0.0800 
 47 H       -0.4180    -7.4630    -1.5110 H     1 <1>   0.0800 
 48 H       -1.9410    -7.3660     0.0950 H     1 <1>   0.4000 
@<TRIPOS>BOND
  1   1   2  1   
  2   2   3  ar  
  3   2   4  ar  
  4   3   5  ar  
  5   3  25  1   
  6   4   6  ar  
  7   4  26  1   
  8   5   7  1   
  9   5   8  ar  
 10   6   8  ar  
 11   6   9  1   
 12   7  10  1   
 13   8  11  1   
 14   9  12  1   
 15   9  27  1   
 16   9  28  1   
 17  10  29  1   
 18  10  30  1   
 19  10  31  1   
 20  11  13  1   
 21  12  14  1   
 22  12  15  1   
 23  12  32  1   
 24  13  16  1   
 25  13  33  1   
 26  13  34  1   
 27  14  17  1   
 28  14  35  1   
 29  14  36  1   
 30  15  18  1   
 31  15  37  1   
 32  15  38  1   
 33  16  19  1   
 34  16  39  1   
 35  16  40  1   
 36  17  20  1   
 37  17  21  1   
 38  17  41  1   
 39  18  21  1   
 40  18  42  1   
 41  18  43  1   
 42  19  44  1   
 43  19  45  1   
 44  19  46  1   
 45  20  22  ar  
 46  20  23  ar  
 47  21  24  1   
 48  21  47  1   
 49  24  48  1   
@<TRIPOS>SUBSTRUCTURE
  1 ****  12 GROUP 4 **** **** 0

# MOE 2024.06 (io_trps.svl 2023.06)
