@<TRIPOS>MOLECULE
NONAME
46 48 1 0 0 
SMALL
USER_CHARGES


@<TRIPOS>ATOM
  1 S        0.1550    -1.0580     2.2940 S.3   1 <1>  -0.0800 
  2 C       -0.3840    -1.0800     0.6280 C.2   1 <1>   0.1980 
  3 C        0.5240    -2.7530     2.1760 C.2   1 <1>  -0.1100 
  4 N       -0.3010    -2.2220     0.0680 N.2   1 <1>  -0.5650 
  5 C       -0.8860     0.2260     0.0370 C.3   1 <1>   0.0200 
  6 C        0.2210    -3.1750     0.9390 C.2   1 <1>   0.0460 
  7 C        0.2630     1.1990    -0.2500 C.3   1 <1>  -0.2400 
  8 C        0.3730    -4.5860     0.3930 C.3   1 <1>   0.5240 
  9 N       -0.8700    -4.9150    -0.3570 N.4   1 <1>  -0.9590 
 10 C       -2.0210    -5.1660     0.5560 C.3   1 <1>   0.3430 
 11 C       -0.6680    -5.9780    -1.3780 C.3   1 <1>   0.3430 
 12 C       -3.2970    -5.3160    -0.2610 C.3   1 <1>  -0.1600 
 13 C       -1.9380    -6.1450    -2.2070 C.3   1 <1>  -0.1600 
 14 C       -3.1350    -6.4250    -1.3020 C.3   1 <1>   0.2000 
 15 O       -4.2680    -6.4380    -2.1030 O.3   1 <1>  -0.5600 
 16 C       -5.1370    -7.5260    -1.9070 C.3   1 <1>   0.2630 
 17 C       -5.7580    -7.5190    -0.5100 C.ar  1 <1>   0.1660 
 18 N       -5.1470    -8.2330     0.4310 N.ar  1 <1>  -0.6200 
 19 C       -6.9110    -6.7800    -0.2930 C.ar  1 <1>  -0.1500 
 20 C       -5.7250    -8.2220     1.6230 C.ar  1 <1>   0.1600 
 21 C       -7.4930    -6.7700     0.9560 C.ar  1 <1>  -0.1500 
 22 C       -6.8760    -7.5190     1.9340 C.ar  1 <1>  -0.1500 
 23 H        0.9270    -3.2330     3.0510 H     1 <1>   0.1500 
 24 H       -1.5850     0.6770     0.7190 H     1 <1>   0.0800 
 25 H       -1.4070     0.0140    -0.8800 H     1 <1>   0.0800 
 26 H        0.7780     1.4550     0.6590 H     1 <1>   0.0800 
 27 H       -0.1200     2.1020    -0.6920 H     1 <1>   0.0800 
 28 H        0.9650     0.7530    -0.9320 H     1 <1>   0.0800 
 29 H        0.5460    -5.2900     1.1890 H     1 <1>   0.0800 
 30 H        1.2150    -4.5990    -0.2780 H     1 <1>   0.0800 
 31 H       -1.0780    -4.0210    -0.8380 H     1 <1>   0.4500 
 32 H       -2.1350    -4.3410     1.2430 H     1 <1>   0.0800 
 33 H       -1.8530    -6.0660     1.1250 H     1 <1>   0.0800 
 34 H       -0.4330    -6.9120    -0.8920 H     1 <1>   0.0800 
 35 H        0.1500    -5.7160    -2.0300 H     1 <1>   0.0800 
 36 H       -3.5280    -4.3830    -0.7450 H     1 <1>   0.0800 
 37 H       -4.1040    -5.5560     0.4070 H     1 <1>   0.0800 
 38 H       -1.8090    -6.9670    -2.8880 H     1 <1>   0.0800 
 39 H       -2.1120    -5.2530    -2.7830 H     1 <1>   0.0800 
 40 H       -3.0080    -7.3830    -0.8220 H     1 <1>   0.0800 
 41 H       -4.5950    -8.4400    -2.0740 H     1 <1>   0.0800 
 42 H       -5.9120    -7.4530    -2.6490 H     1 <1>   0.0800 
 43 H       -7.3500    -6.2140    -1.0950 H     1 <1>   0.1500 
 44 H       -5.2570    -8.8070     2.3970 H     1 <1>   0.1500 
 45 H       -8.3890    -6.2070     1.1570 H     1 <1>   0.1500 
 46 H       -7.2830    -7.5610     2.9280 H     1 <1>   0.1500 
@<TRIPOS>BOND
  1   1   2  1   
  2   1   3  1   
  3   2   4  2   
  4   2   5  1   
  5   3   6  2   
  6   3  23  1   
  7   4   6  1   
  8   5   7  1   
  9   5  24  1   
 10   5  25  1   
 11   6   8  1   
 12   7  26  1   
 13   7  27  1   
 14   7  28  1   
 15   8   9  1   
 16   8  29  1   
 17   8  30  1   
 18   9  10  1   
 19   9  11  1   
 20   9  31  1   
 21  10  12  1   
 22  10  32  1   
 23  10  33  1   
 24  11  13  1   
 25  11  34  1   
 26  11  35  1   
 27  12  14  1   
 28  12  36  1   
 29  12  37  1   
 30  13  14  1   
 31  13  38  1   
 32  13  39  1   
 33  14  15  1   
 34  14  40  1   
 35  15  16  1   
 36  16  17  1   
 37  16  41  1   
 38  16  42  1   
 39  17  18  ar  
 40  17  19  ar  
 41  18  20  ar  
 42  19  21  ar  
 43  19  43  1   
 44  20  22  ar  
 45  20  44  1   
 46  21  22  ar  
 47  21  45  1   
 48  22  46  1   
@<TRIPOS>SUBSTRUCTURE
  1 ****  12 GROUP 4 **** **** 0

# MOE 2024.06 (io_trps.svl 2023.06)
