@<TRIPOS>MOLECULE
NONAME
51 54 1 0 0 
SMALL
USER_CHARGES


@<TRIPOS>ATOM
  1 O       -1.4770     1.8210     1.5980 O.2   1 <1>  -0.5700 
  2 C       -2.2650     1.7450     0.6680 C.2   1 <1>   0.5440 
  3 N       -3.4280     1.0150     0.8710 N.am  1 <1>  -0.6600 
  4 C       -1.9480     2.4460    -0.5820 C.ar  1 <1>   0.3960 
  5 C       -4.6230     1.0690    -0.0130 C.3   1 <1>   0.1400 
  6 C       -3.5690     0.0400     1.9870 C.3   1 <1>   0.1400 
  7 N       -2.1910     1.8700    -1.7750 N.ar  1 <1>  -0.6200 
  8 C       -1.3750     3.7180    -0.5030 C.ar  1 <1>  -0.1500 
  9 C       -4.8350    -0.3100    -0.6390 C.3   1 <1>  -0.1600 
 10 C       -3.7840    -1.3570     1.3990 C.3   1 <1>  -0.1600 
 11 C       -1.8680     2.5570    -2.8550 C.ar  1 <1>   0.1600 
 12 C       -1.0460     4.4270    -1.6370 C.ar  1 <1>  -0.1500 
 13 C       -4.9810    -1.4030     0.4360 C.3   1 <1>   0.4240 
 14 C       -1.3040     3.8200    -2.8440 C.ar  1 <1>  -0.1500 
 15 O       -6.1030    -1.0900     1.2290 O.3   1 <1>  -0.5600 
 16 C       -5.1080    -2.8030    -0.2030 C.ar  1 <1>  -0.1430 
 17 C       -7.3540    -1.4850     0.7600 C.3   1 <1>   0.1200 
 18 C       -6.2590    -3.5660    -0.0500 C.ar  1 <1>  -0.1430 
 19 C       -4.0660    -3.3310    -0.9550 C.ar  1 <1>  -0.1500 
 20 C       -7.4170    -3.0090     0.7540 C.3   1 <1>  -0.0170 
 21 C       -6.3570    -4.8210    -0.6290 C.ar  1 <1>  -0.1500 
 22 C       -4.1430    -4.5850    -1.5350 C.ar  1 <1>   0.0820 
 23 C       -5.3120    -5.3480    -1.3830 C.ar  1 <1>   0.0820 
 24 O       -3.0330    -4.9650    -2.2300 O.3   1 <1>  -0.3620 
 25 O       -5.4130    -6.5710    -1.9830 O.3   1 <1>  -0.3620 
 26 C       -2.6260    -6.3140    -2.2680 C.3   1 <1>   0.0400 
 27 C       -6.6200    -7.3010    -2.0020 C.3   1 <1>   0.0400 
 28 H       -4.5100     1.8130    -0.7800 H     1 <1>   0.0800 
 29 H       -5.4820     1.3370     0.5780 H     1 <1>   0.0800 
 30 H       -4.4100     0.3200     2.5980 H     1 <1>   0.0800 
 31 H       -2.6910     0.0370     2.6090 H     1 <1>   0.0800 
 32 H       -1.1890     4.1410     0.4680 H     1 <1>   0.1500 
 33 H       -3.9860    -0.5270    -1.2620 H     1 <1>   0.0800 
 34 H       -5.6970    -0.2990    -1.2770 H     1 <1>   0.0800 
 35 H       -3.9410    -2.0660     2.1910 H     1 <1>   0.0800 
 36 H       -2.8850    -1.6410     0.8860 H     1 <1>   0.0800 
 37 H       -2.0610     2.0880    -3.8050 H     1 <1>   0.1500 
 38 H       -0.6050     5.4080    -1.5800 H     1 <1>   0.1500 
 39 H       -1.0700     4.3160    -3.7690 H     1 <1>   0.1500 
 40 H       -7.5070    -1.0860    -0.2270 H     1 <1>   0.0800 
 41 H       -8.0980    -1.0800     1.4240 H     1 <1>   0.0800 
 42 H       -3.1620    -2.7690    -1.1040 H     1 <1>   0.1500 
 43 H       -8.3520    -3.3220     0.3270 H     1 <1>   0.0800 
 44 H       -7.3650    -3.3730     1.7640 H     1 <1>   0.0800 
 45 H       -7.2620    -5.3750    -0.4810 H     1 <1>   0.1500 
 46 H       -1.5820    -6.3420    -2.5200 H     1 <1>   0.0800 
 47 H       -3.1960    -6.8270    -3.0210 H     1 <1>   0.0800 
 48 H       -2.7850    -6.7580    -1.3010 H     1 <1>   0.0800 
 49 H       -6.4640    -8.1880    -2.5900 H     1 <1>   0.0800 
 50 H       -7.3870    -6.6960    -2.4520 H     1 <1>   0.0800 
 51 H       -6.8800    -7.5730    -0.9950 H     1 <1>   0.0800 
@<TRIPOS>BOND
  1   1   2  2   
  2   2   3  am  
  3   2   4  1   
  4   3   5  1   
  5   3   6  1   
  6   4   7  ar  
  7   4   8  ar  
  8   5   9  1   
  9   5  28  1   
 10   5  29  1   
 11   6  10  1   
 12   6  30  1   
 13   6  31  1   
 14   7  11  ar  
 15   8  12  ar  
 16   8  32  1   
 17   9  13  1   
 18   9  33  1   
 19   9  34  1   
 20  10  13  1   
 21  10  35  1   
 22  10  36  1   
 23  11  14  ar  
 24  11  37  1   
 25  12  14  ar  
 26  12  38  1   
 27  13  15  1   
 28  13  16  1   
 29  14  39  1   
 30  15  17  1   
 31  16  18  ar  
 32  16  19  ar  
 33  17  20  1   
 34  17  40  1   
 35  17  41  1   
 36  18  20  1   
 37  18  21  ar  
 38  19  22  ar  
 39  19  42  1   
 40  20  43  1   
 41  20  44  1   
 42  21  23  ar  
 43  21  45  1   
 44  22  23  ar  
 45  22  24  1   
 46  23  25  1   
 47  24  26  1   
 48  25  27  1   
 49  26  46  1   
 50  26  47  1   
 51  26  48  1   
 52  27  49  1   
 53  27  50  1   
 54  27  51  1   
@<TRIPOS>SUBSTRUCTURE
  1 ****   9 GROUP 4 **** **** 0

# MOE 2024.06 (io_trps.svl 2023.06)
