@<TRIPOS>MOLECULE
NONAME
37 38 1 0 0 
SMALL
USER_CHARGES


@<TRIPOS>ATOM
  1 CL       0.4810    -0.3580    -2.2150 Cl    1 <1>  -0.1770 
  2 C        1.4380    -1.0710    -0.9280 C.ar  1 <1>   0.1770 
  3 C        1.2390    -2.3880    -0.5340 C.ar  1 <1>   0.4100 
  4 C        2.4020    -0.3380    -0.2920 C.ar  1 <1>   0.1600 
  5 N        1.9710    -2.9050     0.4360 N.ar  1 <1>  -0.6200 
  6 N        0.2790    -3.1810    -1.1330 N.pl3 1 <1>  -0.8690 
  7 N        3.1400    -0.8510     0.6780 N.ar  1 <1>  -0.6200 
  8 C        2.8760    -2.1120     0.9810 C.ar  1 <1>   0.4770 
  9 C        0.2090    -4.6670    -1.1330 C.3   1 <1>   0.2890 
 10 C        3.7040    -2.7210     2.0860 C.3   1 <1>  -0.0970 
 11 C        0.1350    -5.2420     0.2880 C.3   1 <1>   0.0960 
 12 C        1.3840    -5.2100    -1.9460 C.3   1 <1>  -0.2400 
 13 N       -0.5150    -6.5620     0.2650 N.pl3 1 <1>   0.3140 
 14 N        0.1950    -7.6950     0.1110 N.2   1 <1>  -0.7070 
 15 C       -1.8400    -6.8250     0.3660 C.2   1 <1>  -0.3320 
 16 C       -0.6840    -8.6460     0.1200 C.2   1 <1>   0.1080 
 17 C       -1.9770    -8.1650     0.2760 C.2   1 <1>  -0.1500 
 18 C       -2.9280    -5.7800     0.5470 C.3   1 <1>  -0.0600 
 19 C       -0.3020   -10.1000    -0.0250 C.3   1 <1>  -0.0590 
 20 H        2.5760     0.6850    -0.5780 H     1 <1>   0.1500 
 21 H       -0.1780    -2.7600    -1.9470 H     1 <1>   0.4000 
 22 H       -0.7040    -4.9350    -1.6400 H     1 <1>   0.0800 
 23 H        3.9310    -3.7450     1.8530 H     1 <1>   0.0800 
 24 H        3.1520    -2.6830     3.0060 H     1 <1>   0.0800 
 25 H        4.6250    -2.1800     2.2050 H     1 <1>   0.0800 
 26 H       -0.4360    -4.5900     0.9190 H     1 <1>   0.0800 
 27 H        1.1190    -5.3560     0.7000 H     1 <1>   0.0800 
 28 H        2.3160    -4.9800    -1.4620 H     1 <1>   0.0800 
 29 H        1.3810    -4.7900    -2.9340 H     1 <1>   0.0800 
 30 H        1.3050    -6.2800    -2.0320 H     1 <1>   0.0800 
 31 H       -2.8730    -8.7570     0.3130 H     1 <1>   0.1500 
 32 H       -2.9180    -5.0820    -0.2700 H     1 <1>   0.0800 
 33 H       -2.7800    -5.2450     1.4690 H     1 <1>   0.0800 
 34 H       -3.8930    -6.2540     0.5800 H     1 <1>   0.0800 
 35 H        0.2020   -10.2450    -0.9620 H     1 <1>   0.0800 
 36 H       -1.1760   -10.7230     0.0080 H     1 <1>   0.0800 
 37 H        0.3600   -10.3760     0.7740 H     1 <1>   0.0800 
@<TRIPOS>BOND
  1   1   2  1   
  2   2   3  ar  
  3   2   4  ar  
  4   3   5  ar  
  5   3   6  1   
  6   4   7  ar  
  7   4  20  1   
  8   5   8  ar  
  9   6   9  1   
 10   6  21  1   
 11   7   8  ar  
 12   8  10  1   
 13   9  11  1   
 14   9  12  1   
 15   9  22  1   
 16  10  23  1   
 17  10  24  1   
 18  10  25  1   
 19  11  13  1   
 20  11  26  1   
 21  11  27  1   
 22  12  28  1   
 23  12  29  1   
 24  12  30  1   
 25  13  14  1   
 26  13  15  1   
 27  14  16  2   
 28  15  17  2   
 29  15  18  1   
 30  16  17  1   
 31  16  19  1   
 32  17  31  1   
 33  18  32  1   
 34  18  33  1   
 35  18  34  1   
 36  19  35  1   
 37  19  36  1   
 38  19  37  1   
@<TRIPOS>SUBSTRUCTURE
  1 ****  11 GROUP 4 **** **** 0

# MOE 2024.06 (io_trps.svl 2023.06)
