@<TRIPOS>MOLECULE
NONAME
50 52 1 0 0 
SMALL
USER_CHARGES


@<TRIPOS>ATOM
  1 O       -0.4360    -3.5180     1.4950 O.co2 1 <1>  -0.9000 
  2 C        0.5060    -4.2790     1.2490 C.2   1 <1>   1.0330 
  3 O        0.4620    -5.4160     1.7680 O.co2 1 <1>  -0.9000 
  4 C        1.4300    -3.9990     0.2020 C.2   1 <1>  -0.2330 
  5 C        1.8480    -4.9840    -0.6850 C.2   1 <1>   0.3720 
  6 C        2.0090    -2.8680    -0.2820 C.2   1 <1>   0.0870 
  7 N        2.5610    -4.5020    -1.6340 N.2   1 <1>  -0.4100 
  8 N        1.4960    -6.3210    -0.5710 N.pl3 1 <1>  -0.8520 
  9 O        2.6610    -3.2250    -1.3680 O.3   1 <1>  -0.0190 
 10 C        2.0240    -1.4840     0.1400 C.ar  1 <1>   0.0530 
 11 C        0.4360    -6.7570    -1.5150 C.3   1 <1>   0.2090 
 12 C        1.6140    -1.0890     1.4140 C.ar  1 <1>  -0.1500 
 13 C        2.4670    -0.4770    -0.7220 C.ar  1 <1>  -0.1500 
 14 C       -0.9800    -6.1690    -1.2340 C.3   1 <1>   0.4230 
 15 C        1.6400     0.2360     1.8070 C.ar  1 <1>  -0.1500 
 16 C        2.4980     0.8510    -0.3360 C.ar  1 <1>  -0.1500 
 17 N       -1.4760    -6.4690     0.1580 N.4   1 <1>  -0.9590 
 18 C       -1.9300    -6.6830    -2.3450 C.3   1 <1>  -0.1600 
 19 C        2.0830     1.2120     0.9330 C.ar  1 <1>  -0.1500 
 20 C       -1.7690    -7.8980     0.4360 C.3   1 <1>   0.3430 
 21 C       -2.5330    -5.5210     0.6290 C.3   1 <1>   0.3430 
 22 C       -3.3730    -6.1570    -2.3370 C.3   1 <1>  -0.2400 
 23 C       -2.0260    -8.1020     1.9280 C.3   1 <1>  -0.1600 
 24 C       -2.8380    -5.7400     2.1120 C.3   1 <1>  -0.1600 
 25 C       -3.1600    -7.2040     2.4330 C.3   1 <1>  -0.1600 
 26 H        1.2150    -6.4590     0.4210 H     1 <1>   0.4000 
 27 H        0.3920    -7.8310    -1.5050 H     1 <1>   0.0800 
 28 H        0.7390    -6.4650    -2.5070 H     1 <1>   0.0800 
 29 H        1.2660    -1.8250     2.1140 H     1 <1>   0.1500 
 30 H        2.7920    -0.7360    -1.7130 H     1 <1>   0.1500 
 31 H       -0.8980    -5.0980    -1.3360 H     1 <1>   0.0800 
 32 H        1.3120     0.5050     2.7960 H     1 <1>   0.1500 
 33 H        2.8440     1.6040    -1.0220 H     1 <1>   0.1500 
 34 H       -0.6910    -6.2080     0.8070 H     1 <1>   0.4500 
 35 H       -1.9460    -7.7590    -2.3470 H     1 <1>   0.0800 
 36 H       -1.4990    -6.3850    -3.2860 H     1 <1>   0.0800 
 37 H        2.1040     2.2430     1.2380 H     1 <1>   0.1500 
 38 H       -0.9320    -8.5070     0.1370 H     1 <1>   0.0800 
 39 H       -2.6370    -8.2030    -0.1240 H     1 <1>   0.0800 
 40 H       -3.4380    -5.6600     0.0690 H     1 <1>   0.0800 
 41 H       -2.2010    -4.5040     0.4880 H     1 <1>   0.0800 
 42 H       -3.9520    -6.6240    -1.5620 H     1 <1>   0.0800 
 43 H       -3.8470    -6.3890    -3.2760 H     1 <1>   0.0800 
 44 H       -3.3910    -5.0880    -2.2110 H     1 <1>   0.0800 
 45 H       -1.1220    -7.8850     2.4720 H     1 <1>   0.0800 
 46 H       -2.2760    -9.1330     2.1080 H     1 <1>   0.0800 
 47 H       -3.6650    -5.1130     2.3950 H     1 <1>   0.0800 
 48 H       -1.9890    -5.4180     2.6910 H     1 <1>   0.0800 
 49 H       -3.2740    -7.3230     3.4980 H     1 <1>   0.0800 
 50 H       -4.0880    -7.4840     1.9640 H     1 <1>   0.0800 
@<TRIPOS>BOND
  1   1   2  ar  
  2   2   3  ar  
  3   2   4  1   
  4   4   5  1   
  5   4   6  2   
  6   5   7  2   
  7   5   8  1   
  8   6   9  1   
  9   6  10  1   
 10   7   9  1   
 11   8  11  1   
 12   8  26  1   
 13  10  12  ar  
 14  10  13  ar  
 15  11  14  1   
 16  11  27  1   
 17  11  28  1   
 18  12  15  ar  
 19  12  29  1   
 20  13  16  ar  
 21  13  30  1   
 22  14  17  1   
 23  14  18  1   
 24  14  31  1   
 25  15  19  ar  
 26  15  32  1   
 27  16  19  ar  
 28  16  33  1   
 29  17  20  1   
 30  17  21  1   
 31  17  34  1   
 32  18  22  1   
 33  18  35  1   
 34  18  36  1   
 35  19  37  1   
 36  20  23  1   
 37  20  38  1   
 38  20  39  1   
 39  21  24  1   
 40  21  40  1   
 41  21  41  1   
 42  22  42  1   
 43  22  43  1   
 44  22  44  1   
 45  23  25  1   
 46  23  45  1   
 47  23  46  1   
 48  24  25  1   
 49  24  47  1   
 50  24  48  1   
 51  25  49  1   
 52  25  50  1   
@<TRIPOS>SUBSTRUCTURE
  1 ****   2 GROUP 4 **** **** 0

# MOE 2024.06 (io_trps.svl 2023.06)
