@<TRIPOS>MOLECULE
NONAME
48 50 1 0 0 
SMALL
USER_CHARGES


@<TRIPOS>ATOM
  1 O       -2.2100    -0.7650     2.6390 O.co2 1 <1>  -0.9000 
  2 C       -1.8850    -0.5430     1.4690 C.2   1 <1>   0.9060 
  3 O       -1.2070     0.4230     1.1100 O.co2 1 <1>  -0.9000 
  4 C       -2.5080    -1.4220     0.3810 C.3   1 <1>   0.2370 
  5 N       -3.8840    -0.9650    -0.0810 N.4   1 <1>  -0.9590 
  6 C       -4.8070    -0.9450     1.1060 C.3   1 <1>   0.3430 
  7 C       -3.7640     0.3990    -0.6800 C.3   1 <1>   0.3430 
  8 C       -6.2940    -0.8110     0.6980 C.3   1 <1>   0.2200 
  9 C       -5.0660     0.9060    -1.3360 C.3   1 <1>  -0.0800 
 10 N       -6.5050    -1.1640    -0.7630 N.am  1 <1>  -0.6600 
 11 C       -6.8570     0.5760     1.0520 C.3   1 <1>   0.1200 
 12 C       -5.7590     1.9880    -0.4960 C.3   1 <1>   0.1200 
 13 C       -6.0500    -0.1830    -1.8070 C.3   1 <1>   0.1400 
 14 C       -7.0710    -2.3420    -1.1870 C.2   1 <1>   0.5690 
 15 O       -5.9220     1.5830     0.8200 O.3   1 <1>  -0.5600 
 16 O       -7.2030    -2.5770    -2.3630 O.2   1 <1>  -0.5700 
 17 C       -7.5290    -3.3950    -0.1950 C.3   1 <1>  -0.0990 
 18 C       -7.8830    -4.7320    -0.8640 C.3   1 <1>   0.0960 
 19 N       -8.2890    -5.7250     0.1520 N.pl3 1 <1>   0.3140 
 20 N       -7.4870    -6.0120     1.1970 N.2   1 <1>  -0.7070 
 21 C       -9.4370    -6.4410     0.2060 C.2   1 <1>  -0.3320 
 22 C       -8.1360    -6.9020     1.8820 C.2   1 <1>   0.1390 
 23 C       -9.3640    -7.2100     1.3130 C.2   1 <1>  -0.1500 
 24 C      -10.5670    -6.3680    -0.8080 C.3   1 <1>  -0.0600 
 25 H       -2.5700    -2.4180     0.7800 H     1 <1>   0.0800 
 26 H       -1.8260    -1.4300    -0.4490 H     1 <1>   0.0800 
 27 H       -4.2870    -1.6050    -0.7760 H     1 <1>   0.4500 
 28 H       -4.6860    -1.8610     1.6600 H     1 <1>   0.0800 
 29 H       -4.5330    -0.1420     1.7740 H     1 <1>   0.0800 
 30 H       -3.4460     1.1000     0.0780 H     1 <1>   0.0800 
 31 H       -2.9910     0.3740    -1.4300 H     1 <1>   0.0800 
 32 H       -6.8490    -1.4950     1.3120 H     1 <1>   0.0800 
 33 H       -4.7580     1.4200    -2.2290 H     1 <1>   0.0800 
 34 H       -7.0710     0.6050     2.1060 H     1 <1>   0.0800 
 35 H       -7.7670     0.7870     0.5170 H     1 <1>   0.0800 
 36 H       -6.7190     2.2590    -0.9030 H     1 <1>   0.0800 
 37 H       -5.1440     2.8720    -0.4690 H     1 <1>   0.0800 
 38 H       -5.5810    -0.7310    -2.6080 H     1 <1>   0.0800 
 39 H       -6.9230     0.2870    -2.2280 H     1 <1>   0.0800 
 40 H       -6.7360    -3.5710     0.5070 H     1 <1>   0.0800 
 41 H       -8.3920    -3.0260     0.3270 H     1 <1>   0.0800 
 42 H       -7.0290    -5.1210    -1.3870 H     1 <1>   0.0800 
 43 H       -8.6830    -4.5950    -1.5680 H     1 <1>   0.0800 
 44 H       -7.7580    -7.3460     2.7880 H     1 <1>   0.1500 
 45 H      -10.0790    -7.9160     1.6970 H     1 <1>   0.1500 
 46 H      -11.3560    -7.0450    -0.5320 H     1 <1>   0.0800 
 47 H      -10.2090    -6.6430    -1.7840 H     1 <1>   0.0800 
 48 H      -10.9700    -5.3720    -0.8470 H     1 <1>   0.0800 
@<TRIPOS>BOND
  1   1   2  ar  
  2   2   3  ar  
  3   2   4  1   
  4   4   5  1   
  5   4  25  1   
  6   4  26  1   
  7   5   6  1   
  8   5   7  1   
  9   5  27  1   
 10   6   8  1   
 11   6  28  1   
 12   6  29  1   
 13   7   9  1   
 14   7  30  1   
 15   7  31  1   
 16   8  10  1   
 17   8  11  1   
 18   8  32  1   
 19   9  12  1   
 20   9  13  1   
 21   9  33  1   
 22  10  13  1   
 23  10  14  am  
 24  11  15  1   
 25  11  34  1   
 26  11  35  1   
 27  12  15  1   
 28  12  36  1   
 29  12  37  1   
 30  13  38  1   
 31  13  39  1   
 32  14  16  2   
 33  14  17  1   
 34  17  18  1   
 35  17  40  1   
 36  17  41  1   
 37  18  19  1   
 38  18  42  1   
 39  18  43  1   
 40  19  20  1   
 41  19  21  1   
 42  20  22  2   
 43  21  23  2   
 44  21  24  1   
 45  22  23  1   
 46  22  44  1   
 47  23  45  1   
 48  24  46  1   
 49  24  47  1   
 50  24  48  1   
@<TRIPOS>SUBSTRUCTURE
  1 ****  10 GROUP 4 **** **** 0

# MOE 2024.06 (io_trps.svl 2023.06)
