@<TRIPOS>MOLECULE
NONAME
43 44 1 0 0 
SMALL
USER_CHARGES


@<TRIPOS>ATOM
  1 F        4.2390     0.7310    -1.6120 F     1 <1>  -0.1900 
  2 C        4.0980     1.6620    -0.7050 C.ar  1 <1>   0.1900 
  3 C        5.1860     2.4490    -0.3610 C.ar  1 <1>  -0.1440 
  4 C        2.8540     1.8220    -0.1260 C.ar  1 <1>  -0.1500 
  5 C        4.9990     3.4230     0.6070 C.ar  1 <1>  -0.1500 
  6 C        6.5480     2.2630    -1.0150 C.3   1 <1>  -0.0960 
  7 C        2.6850     2.8060     0.8320 C.ar  1 <1>  -0.1500 
  8 C        3.7560     3.6110     1.1990 C.ar  1 <1>  -0.1440 
  9 C        3.5810     4.7190     2.2350 C.3   1 <1>   0.0440 
 10 C        3.8590     6.0930     1.6500 C.2   1 <1>   0.5690 
 11 O        4.3470     6.9360     2.3600 O.2   1 <1>  -0.5700 
 12 N        3.5690     6.3140     0.3410 N.am  1 <1>  -0.7300 
 13 C        4.0900     7.4350    -0.4820 C.3   1 <1>   0.4000 
 14 C        5.6260     7.4610    -0.5070 C.2   1 <1>   0.2980 
 15 C        3.4480     8.7500    -0.0290 C.3   1 <1>  -0.2400 
 16 O        6.2470     6.3220    -0.7030 O.3   1 <1>  -0.0190 
 17 N        6.3890     8.4760    -0.3800 N.2   1 <1>  -0.5650 
 18 N        7.5050     6.6360    -0.6810 N.2   1 <1>  -0.4100 
 19 C        7.5740     7.8940    -0.4860 C.2   1 <1>   0.3350 
 20 C        8.8430     8.7160    -0.3740 C.3   1 <1>   0.0210 
 21 C       10.0990     7.8470    -0.4150 C.3   1 <1>   0.1200 
 22 O       11.2130     8.6770    -0.3180 O.3   1 <1>  -0.5600 
 23 C       12.4250     7.9950    -0.3320 C.3   1 <1>   0.0400 
 24 H        2.0390     1.1870    -0.4220 H     1 <1>   0.1500 
 25 H        5.8290     4.0460     0.8990 H     1 <1>   0.1500 
 26 H        6.4450     2.2600    -2.0850 H     1 <1>   0.0800 
 27 H        6.9760     1.3270    -0.7050 H     1 <1>   0.0800 
 28 H        7.2180     3.0580    -0.7420 H     1 <1>   0.0800 
 29 H        1.7180     2.9390     1.2880 H     1 <1>   0.1500 
 30 H        4.2590     4.5480     3.0510 H     1 <1>   0.0800 
 31 H        2.5830     4.7160     2.6310 H     1 <1>   0.0800 
 32 H        3.2840     5.4960    -0.2010 H     1 <1>   0.3700 
 33 H        3.7730     7.2570    -1.4940 H     1 <1>   0.0800 
 34 H        3.7890     9.0160     0.9550 H     1 <1>   0.0800 
 35 H        2.3770     8.6640    -0.0260 H     1 <1>   0.0800 
 36 H        3.7290     9.5400    -0.7020 H     1 <1>   0.0800 
 37 H        8.8180     9.2590     0.5530 H     1 <1>   0.0800 
 38 H        8.8690     9.4180    -1.1870 H     1 <1>   0.0800 
 39 H       10.1510     7.3040    -1.3430 H     1 <1>   0.0800 
 40 H       10.1040     7.1590     0.4140 H     1 <1>   0.0800 
 41 H       13.2170     8.7200    -0.2550 H     1 <1>   0.0800 
 42 H       12.5170     7.4530    -1.2570 H     1 <1>   0.0800 
 43 H       12.4650     7.3240     0.5080 H     1 <1>   0.0800 
@<TRIPOS>BOND
  1   1   2  1   
  2   2   3  ar  
  3   2   4  ar  
  4   3   5  ar  
  5   3   6  1   
  6   4   7  ar  
  7   4  24  1   
  8   5   8  ar  
  9   5  25  1   
 10   6  26  1   
 11   6  27  1   
 12   6  28  1   
 13   7   8  ar  
 14   7  29  1   
 15   8   9  1   
 16   9  10  1   
 17   9  30  1   
 18   9  31  1   
 19  10  11  2   
 20  10  12  am  
 21  12  13  1   
 22  12  32  1   
 23  13  14  1   
 24  13  15  1   
 25  13  33  1   
 26  14  16  1   
 27  14  17  2   
 28  15  34  1   
 29  15  35  1   
 30  15  36  1   
 31  16  18  1   
 32  17  19  1   
 33  18  19  2   
 34  19  20  1   
 35  20  21  1   
 36  20  37  1   
 37  20  38  1   
 38  21  22  1   
 39  21  39  1   
 40  21  40  1   
 41  22  23  1   
 42  23  41  1   
 43  23  42  1   
 44  23  43  1   
@<TRIPOS>SUBSTRUCTURE
  1 ****  16 GROUP 4 **** **** 0

# MOE 2024.06 (io_trps.svl 2023.06)
