@<TRIPOS>MOLECULE
NONAME
44 46 1 0 0 
SMALL
USER_CHARGES


@<TRIPOS>ATOM
  1 O       -1.1080     0.9830    -1.6160 O.3   1 <1>  -0.6800 
  2 C       -1.4580     1.6410    -0.4490 C.3   1 <1>   0.4240 
  3 C       -2.5210     0.7520     0.2370 C.ar  1 <1>  -0.1440 
  4 C       -0.1990     1.9440     0.3940 C.3   1 <1>   0.2090 
  5 C       -1.8970     3.0420    -0.8740 C.3   1 <1>  -0.1600 
  6 C       -2.2050    -0.4780     0.8300 C.ar  1 <1>  -0.1440 
  7 C       -3.8540     1.1630     0.2580 C.ar  1 <1>  -0.1500 
  8 N        0.2730     3.3280     0.0450 N.pl3 1 <1>  -0.8380 
  9 C       -0.6010     3.8220    -1.0400 C.3   1 <1>   0.2090 
 10 C       -3.2010    -1.2290     1.4380 C.ar  1 <1>  -0.1500 
 11 C       -0.8020    -1.0790     0.8510 C.3   1 <1>  -0.0970 
 12 C       -4.8370     0.4050     0.8630 C.ar  1 <1>  -0.1500 
 13 C        1.6420     3.6580    -0.0390 C.ar  1 <1>   0.4100 
 14 C       -4.5110    -0.7940     1.4600 C.ar  1 <1>  -0.1500 
 15 N        2.4720     2.6250    -0.0100 N.ar  1 <1>  -0.6200 
 16 C        2.1120     5.0210    -0.1530 C.ar  1 <1>   0.4100 
 17 C        3.7430     2.9700    -0.1420 C.ar  1 <1>   0.1600 
 18 N        3.3930     5.3280    -0.2950 N.ar  1 <1>  -0.6200 
 19 N        1.2540     6.1370    -0.0870 N.pl3 1 <1>  -0.8380 
 20 C        4.1850     4.2670    -0.2850 C.ar  1 <1>   0.1600 
 21 C        1.6520     7.4070    -0.7550 C.3   1 <1>   0.1290 
 22 C        0.5260     6.3300     1.1940 C.3   1 <1>   0.1290 
 23 H       -1.8300     0.3600    -1.8210 H     1 <1>   0.4000 
 24 H        0.5510     1.1980     0.2120 H     1 <1>   0.0800 
 25 H       -0.4580     1.9340     1.4370 H     1 <1>   0.0800 
 26 H       -2.4460     3.5120    -0.0790 H     1 <1>   0.0800 
 27 H       -2.4900     3.0430    -1.7700 H     1 <1>   0.0800 
 28 H       -4.1660     2.0830    -0.1990 H     1 <1>   0.1500 
 29 H       -0.7740     4.8800    -0.9580 H     1 <1>   0.0800 
 30 H       -0.1450     3.6020    -1.9920 H     1 <1>   0.0800 
 31 H       -2.9640    -2.1700     1.9040 H     1 <1>   0.1500 
 32 H       -0.3140    -0.9650    -0.1000 H     1 <1>   0.0800 
 33 H       -0.8390    -2.1320     1.0630 H     1 <1>   0.0800 
 34 H       -0.2090    -0.6080     1.6140 H     1 <1>   0.0800 
 35 H       -5.8570     0.7480     0.8700 H     1 <1>   0.1500 
 36 H       -5.2710    -1.3890     1.9360 H     1 <1>   0.1500 
 37 H        4.4620     2.1710    -0.1370 H     1 <1>   0.1500 
 38 H        5.2380     4.4500    -0.3940 H     1 <1>   0.1500 
 39 H        2.1010     7.1910    -1.7090 H     1 <1>   0.0800 
 40 H        2.3660     7.9330    -0.1460 H     1 <1>   0.0800 
 41 H        0.7870     8.0270    -0.9120 H     1 <1>   0.0800 
 42 H        0.4270     5.3940     1.7170 H     1 <1>   0.0800 
 43 H       -0.4570     6.7190     0.9970 H     1 <1>   0.0800 
 44 H        1.0650     7.0180     1.8220 H     1 <1>   0.0800 
@<TRIPOS>BOND
  1   1   2  1   
  2   1  23  1   
  3   2   3  1   
  4   2   4  1   
  5   2   5  1   
  6   3   6  ar  
  7   3   7  ar  
  8   4   8  1   
  9   4  24  1   
 10   4  25  1   
 11   5   9  1   
 12   5  26  1   
 13   5  27  1   
 14   6  10  ar  
 15   6  11  1   
 16   7  12  ar  
 17   7  28  1   
 18   8   9  1   
 19   8  13  1   
 20   9  29  1   
 21   9  30  1   
 22  10  14  ar  
 23  10  31  1   
 24  11  32  1   
 25  11  33  1   
 26  11  34  1   
 27  12  14  ar  
 28  12  35  1   
 29  13  15  ar  
 30  13  16  ar  
 31  14  36  1   
 32  15  17  ar  
 33  16  18  ar  
 34  16  19  1   
 35  17  20  ar  
 36  17  37  1   
 37  18  20  ar  
 38  19  21  1   
 39  19  22  1   
 40  20  38  1   
 41  21  39  1   
 42  21  40  1   
 43  21  41  1   
 44  22  42  1   
 45  22  43  1   
 46  22  44  1   
@<TRIPOS>SUBSTRUCTURE
  1 ****   4 GROUP 4 **** **** 0

# MOE 2024.06 (io_trps.svl 2023.06)
