@<TRIPOS>MOLECULE
NONAME
54 57 1 0 0 
SMALL
USER_CHARGES


@<TRIPOS>ATOM
  1 O        1.8010    -0.3440    -3.8610 O.2   1 <1>  -0.5700 
  2 C        2.0760    -1.0620    -2.9180 C.2   1 <1>   0.5440 
  3 N        2.9210    -0.5420    -1.9480 N.am  1 <1>  -0.6600 
  4 C        1.4940    -2.3990    -2.8460 C.ar  1 <1>   0.3960 
  5 C        3.0260     0.9310    -1.7320 C.3   1 <1>   0.1400 
  6 C        3.4870    -1.3380    -0.8200 C.3   1 <1>   0.1400 
  7 N        1.0170    -2.8580    -1.6750 N.ar  1 <1>  -0.6200 
  8 C        1.4470    -3.1620    -4.0130 C.ar  1 <1>   0.1600 
  9 C        2.2990     1.3110    -0.4270 C.3   1 <1>   0.3430 
 10 C        2.7380    -0.9840     0.4790 C.3   1 <1>   0.3430 
 11 C        0.5250    -4.0870    -1.7420 C.ar  1 <1>   0.4100 
 12 N        0.9780    -4.3960    -4.1010 N.ar  1 <1>  -0.6200 
 13 N        2.7740     0.5020     0.7610 N.4   1 <1>  -0.9590 
 14 N        0.0250    -4.5950    -0.5460 N.pl3 1 <1>  -0.8380 
 15 C        0.5270    -4.8270    -2.9400 C.ar  1 <1>   0.1600 
 16 C        1.9730     0.8300     1.9790 C.3   1 <1>   0.2630 
 17 C       -0.4980    -3.6890     0.5160 C.3   1 <1>   0.2090 
 18 C       -0.7040    -5.8900    -0.4800 C.3   1 <1>   0.2090 
 19 C       -1.5470    -4.4930     1.2860 C.3   1 <1>   0.2000 
 20 C       -1.3010    -5.9550     0.9250 C.3   1 <1>  -0.0800 
 21 O       -1.4170    -4.3190     2.6570 O.3   1 <1>  -0.6800 
 22 C       -2.5750    -6.8140     1.0260 C.3   1 <1>  -0.0170 
 23 C       -2.3140    -8.2710     0.6750 C.ar  1 <1>   0.1670 
 24 N       -2.1720    -8.5550    -0.6100 N.ar  1 <1>  -0.6200 
 25 C       -2.2370    -9.2270     1.6870 C.ar  1 <1>   0.1600 
 26 C       -1.9560    -9.8450    -0.8130 C.ar  1 <1>   0.1600 
 27 N       -2.0160   -10.5160     1.4860 N.ar  1 <1>  -0.6200 
 28 C       -1.8810   -10.7930     0.2000 C.ar  1 <1>   0.1600 
 29 H        4.0630     1.2150    -1.6790 H     1 <1>   0.0800 
 30 H        2.5850     1.4720    -2.5520 H     1 <1>   0.0800 
 31 H        3.4090    -2.3940    -1.0130 H     1 <1>   0.0800 
 32 H        4.5330    -1.1130    -0.7120 H     1 <1>   0.0800 
 33 H        1.8260    -2.7210    -4.9200 H     1 <1>   0.1500 
 34 H        1.2440     1.1460    -0.5760 H     1 <1>   0.0800 
 35 H        2.4430     2.3620    -0.2370 H     1 <1>   0.0800 
 36 H        3.1780    -1.5250     1.2990 H     1 <1>   0.0800 
 37 H        1.7160    -1.3120     0.3740 H     1 <1>   0.0800 
 38 H        3.7560     0.7590     0.9330 H     1 <1>   0.4500 
 39 H        0.1330    -5.8250    -2.9240 H     1 <1>   0.1500 
 40 H        0.9370     0.5720     1.8260 H     1 <1>   0.0800 
 41 H        2.0370     1.8840     2.1980 H     1 <1>   0.0800 
 42 H        2.3430     0.2810     2.8300 H     1 <1>   0.0800 
 43 H        0.3120    -3.3990     1.1600 H     1 <1>   0.0800 
 44 H       -0.9510    -2.8170     0.0760 H     1 <1>   0.0800 
 45 H       -1.4890    -5.9000    -1.2190 H     1 <1>   0.0800 
 46 H       -0.0370    -6.7180    -0.6550 H     1 <1>   0.0800 
 47 H       -2.5330    -4.1730     0.9940 H     1 <1>   0.0800 
 48 H       -0.5420    -6.3650     1.5680 H     1 <1>   0.0800 
 49 H       -0.5930    -4.7350     2.9770 H     1 <1>   0.4000 
 50 H       -3.3300    -6.4300     0.3620 H     1 <1>   0.0800 
 51 H       -2.9650    -6.7470     2.0260 H     1 <1>   0.0800 
 52 H       -2.3620    -8.9150     2.7080 H     1 <1>   0.1500 
 53 H       -1.8330   -10.1700    -1.8310 H     1 <1>   0.1500 
 54 H       -1.7010   -11.8200    -0.0640 H     1 <1>   0.1500 
@<TRIPOS>BOND
  1   1   2  2   
  2   2   3  am  
  3   2   4  1   
  4   3   5  1   
  5   3   6  1   
  6   4   7  ar  
  7   4   8  ar  
  8   5   9  1   
  9   5  29  1   
 10   5  30  1   
 11   6  10  1   
 12   6  31  1   
 13   6  32  1   
 14   7  11  ar  
 15   8  12  ar  
 16   8  33  1   
 17   9  13  1   
 18   9  34  1   
 19   9  35  1   
 20  10  13  1   
 21  10  36  1   
 22  10  37  1   
 23  11  14  1   
 24  11  15  ar  
 25  12  15  ar  
 26  13  16  1   
 27  13  38  1   
 28  14  17  1   
 29  14  18  1   
 30  15  39  1   
 31  16  40  1   
 32  16  41  1   
 33  16  42  1   
 34  17  19  1   
 35  17  43  1   
 36  17  44  1   
 37  18  20  1   
 38  18  45  1   
 39  18  46  1   
 40  19  20  1   
 41  19  21  1   
 42  19  47  1   
 43  20  22  1   
 44  20  48  1   
 45  21  49  1   
 46  22  23  1   
 47  22  50  1   
 48  22  51  1   
 49  23  24  ar  
 50  23  25  ar  
 51  24  26  ar  
 52  25  27  ar  
 53  25  52  1   
 54  26  28  ar  
 55  26  53  1   
 56  27  28  ar  
 57  28  54  1   
@<TRIPOS>SUBSTRUCTURE
  1 ****  14 GROUP 4 **** **** 0

# MOE 2024.06 (io_trps.svl 2023.06)
