@<TRIPOS>MOLECULE
NONAME
44 45 1 0 0 
SMALL
USER_CHARGES


@<TRIPOS>ATOM
  1 O       -2.8880     0.7640    -2.2670 O.2   1 <1>  -0.5700 
  2 C       -2.5980     0.7880    -1.0970 C.2   1 <1>   0.5690 
  3 N       -2.3520    -0.3460    -0.3980 N.am  1 <1>  -0.7300 
  4 C       -2.5180     2.1160    -0.3730 C.3   1 <1>  -0.0990 
  5 C       -2.3390    -1.7110    -0.9720 C.3   1 <1>   0.2200 
  6 C       -1.0610     2.5440    -0.1150 C.3   1 <1>  -0.1600 
  7 C       -3.5730    -2.4990    -0.5550 C.3   1 <1>  -0.0800 
  8 C       -1.2480    -2.5190    -0.2850 C.3   1 <1>   0.1200 
  9 C       -0.9390     3.8230     0.7330 C.3   1 <1>  -0.0800 
 10 C       -3.1820    -3.0530     0.8200 C.3   1 <1>   0.1200 
 11 C       -4.9040    -1.7240    -0.5740 C.3   1 <1>  -0.0160 
 12 O       -1.7970    -2.8980     0.9400 O.3   1 <1>  -0.5600 
 13 C       -1.5320     5.0470     0.0240 C.3   1 <1>  -0.2400 
 14 C        0.5360     4.0870     1.0560 C.3   1 <1>  -0.2400 
 15 C       -6.0690    -2.6390    -0.2310 C.ar  1 <1>  -0.1440 
 16 C       -6.6420    -3.4670    -1.1740 C.ar  1 <1>  -0.1500 
 17 C       -6.6130    -2.6930     1.0370 C.ar  1 <1>  -0.1500 
 18 C       -7.6970    -4.2900    -0.8140 C.ar  1 <1>   0.1600 
 19 C       -7.6690    -3.5520     1.2930 C.ar  1 <1>   0.1600 
 20 N       -8.2230    -4.3540     0.3990 N.ar  1 <1>  -0.6200 
 21 H       -2.1170    -0.3090     0.5960 H     1 <1>   0.3700 
 22 H       -3.0160     2.8520    -0.9770 H     1 <1>   0.0800 
 23 H       -3.0490     2.0340     0.5570 H     1 <1>   0.0800 
 24 H       -2.2100    -1.6730    -2.0410 H     1 <1>   0.0800 
 25 H       -0.5660     2.6870    -1.0610 H     1 <1>   0.0800 
 26 H       -0.5540     1.7430     0.3950 H     1 <1>   0.0800 
 27 H       -3.6660    -3.3370    -1.2230 H     1 <1>   0.0800 
 28 H       -0.3470    -1.9540    -0.1230 H     1 <1>   0.0800 
 29 H       -1.0270    -3.4140    -0.8400 H     1 <1>   0.0800 
 30 H       -1.4630     3.6770     1.6640 H     1 <1>   0.0800 
 31 H       -3.4280    -4.0970     0.9130 H     1 <1>   0.0800 
 32 H       -3.6410    -2.4980     1.6200 H     1 <1>   0.0800 
 33 H       -5.0570    -1.3020    -1.5530 H     1 <1>   0.0800 
 34 H       -4.8760    -0.9080     0.1260 H     1 <1>   0.0800 
 35 H       -1.0730     5.1860    -0.9390 H     1 <1>   0.0800 
 36 H       -1.3670     5.9330     0.6110 H     1 <1>   0.0800 
 37 H       -2.5920     4.9380    -0.1120 H     1 <1>   0.0800 
 38 H        1.1000     4.2430     0.1530 H     1 <1>   0.0800 
 39 H        0.9610     3.2530     1.5870 H     1 <1>   0.0800 
 40 H        0.6330     4.9610     1.6760 H     1 <1>   0.0800 
 41 H       -6.2790    -3.4800    -2.1860 H     1 <1>   0.1500 
 42 H       -6.2280    -2.0760     1.8280 H     1 <1>   0.1500 
 43 H       -8.1320    -4.9290    -1.5640 H     1 <1>   0.1500 
 44 H       -8.0800    -3.5800     2.2880 H     1 <1>   0.1500 
@<TRIPOS>BOND
  1   1   2  2   
  2   2   3  am  
  3   2   4  1   
  4   3   5  1   
  5   3  21  1   
  6   4   6  1   
  7   4  22  1   
  8   4  23  1   
  9   5   7  1   
 10   5   8  1   
 11   5  24  1   
 12   6   9  1   
 13   6  25  1   
 14   6  26  1   
 15   7  10  1   
 16   7  11  1   
 17   7  27  1   
 18   8  12  1   
 19   8  28  1   
 20   8  29  1   
 21   9  13  1   
 22   9  14  1   
 23   9  30  1   
 24  10  12  1   
 25  10  31  1   
 26  10  32  1   
 27  11  15  1   
 28  11  33  1   
 29  11  34  1   
 30  13  35  1   
 31  13  36  1   
 32  13  37  1   
 33  14  38  1   
 34  14  39  1   
 35  14  40  1   
 36  15  16  ar  
 37  15  17  ar  
 38  16  18  ar  
 39  16  41  1   
 40  17  19  ar  
 41  17  42  1   
 42  18  20  ar  
 43  18  43  1   
 44  19  20  ar  
 45  19  44  1   
@<TRIPOS>SUBSTRUCTURE
  1 ****   3 GROUP 4 **** **** 0

# MOE 2024.06 (io_trps.svl 2023.06)
