@<TRIPOS>MOLECULE
NONAME
40 42 1 0 0 
SMALL
USER_CHARGES


@<TRIPOS>ATOM
  1 O       -0.5580     0.2360     0.6010 O.2   1 <1>  -0.5700 
  2 C       -1.5760     0.7950     0.2650 C.2   1 <1>   0.6300 
  3 N       -2.6700     0.0870    -0.1540 N.am  1 <1>  -0.6600 
  4 C       -1.6240     2.3280     0.3360 C.3   1 <1>  -0.0950 
  5 C       -3.9790     0.6430    -0.5750 C.3   1 <1>   0.1400 
  6 C       -2.6850    -1.3940    -0.2070 C.3   1 <1>   0.1400 
  7 C       -0.4640     3.0980    -0.2250 C.3   1 <1>  -0.2000 
  8 C       -1.7920     3.1340    -0.9200 C.3   1 <1>  -0.2000 
  9 C       -2.2360     2.8400     1.6470 C.3   1 <1>  -0.1450 
 10 C       -4.7670    -0.5600    -1.0900 C.3   1 <1>   0.2000 
 11 C       -4.1540    -1.7730    -0.3950 C.3   1 <1>  -0.0800 
 12 O       -6.1140    -0.4580    -0.7830 O.3   1 <1>  -0.6800 
 13 C       -4.3590    -3.0830    -1.1700 C.3   1 <1>   0.0210 
 14 C       -3.6570    -4.2360    -0.4800 C.2   1 <1>   0.1080 
 15 N       -3.9880    -4.6530     0.7030 N.2   1 <1>  -0.7070 
 16 C       -2.5950    -4.9580    -1.0140 C.2   1 <1>  -0.1500 
 17 N       -3.1370    -5.6640     0.9580 N.pl3 1 <1>   0.3000 
 18 C       -2.2820    -5.8670    -0.0670 C.2   1 <1>  -0.3320 
 19 C       -1.2010    -6.9330    -0.0770 C.3   1 <1>  -0.0600 
 20 H       -4.4680     1.0830     0.2760 H     1 <1>   0.0800 
 21 H       -3.8530     1.3730    -1.3540 H     1 <1>   0.0800 
 22 H       -2.0890    -1.7190    -1.0430 H     1 <1>   0.0800 
 23 H       -2.2830    -1.8170     0.6990 H     1 <1>   0.0800 
 24 H       -0.1210     3.9780     0.2900 H     1 <1>   0.1000 
 25 H        0.3450     2.5420    -0.6690 H     1 <1>   0.1000 
 26 H       -1.8720     2.6290    -1.8670 H     1 <1>   0.1000 
 27 H       -2.3650     4.0450    -0.8890 H     1 <1>   0.1000 
 28 H       -2.2230     3.9140     1.6840 H     1 <1>   0.0800 
 29 H       -1.6690     2.4620     2.4800 H     1 <1>   0.0800 
 30 H       -3.2520     2.5040     1.7430 H     1 <1>   0.0800 
 31 H       -4.6660    -0.6260    -2.1600 H     1 <1>   0.0800 
 32 H       -4.5780    -1.8780     0.5890 H     1 <1>   0.0800 
 33 H       -6.2520    -0.5900     0.1760 H     1 <1>   0.4000 
 34 H       -3.9820    -2.9850    -2.1720 H     1 <1>   0.0800 
 35 H       -5.4090    -3.3050    -1.2270 H     1 <1>   0.0800 
 36 H       -2.1400    -4.8030    -1.9750 H     1 <1>   0.1500 
 37 H       -3.1640    -6.1930     1.8380 H     1 <1>   0.2700 
 38 H       -0.6530    -6.8940    -1.0020 H     1 <1>   0.0800 
 39 H       -1.6410    -7.9090     0.0200 H     1 <1>   0.0800 
 40 H       -0.5140    -6.7730     0.7340 H     1 <1>   0.0800 
@<TRIPOS>BOND
  1   1   2  2   
  2   2   3  am  
  3   2   4  1   
  4   3   5  1   
  5   3   6  1   
  6   4   7  1   
  7   4   8  1   
  8   4   9  1   
  9   5  10  1   
 10   5  20  1   
 11   5  21  1   
 12   6  11  1   
 13   6  22  1   
 14   6  23  1   
 15   7   8  1   
 16   7  24  1   
 17   7  25  1   
 18   8  26  1   
 19   8  27  1   
 20   9  28  1   
 21   9  29  1   
 22   9  30  1   
 23  10  11  1   
 24  10  12  1   
 25  10  31  1   
 26  11  13  1   
 27  11  32  1   
 28  12  33  1   
 29  13  14  1   
 30  13  34  1   
 31  13  35  1   
 32  14  15  2   
 33  14  16  1   
 34  15  17  1   
 35  16  18  2   
 36  16  36  1   
 37  17  18  1   
 38  17  37  1   
 39  18  19  1   
 40  19  38  1   
 41  19  39  1   
 42  19  40  1   
@<TRIPOS>SUBSTRUCTURE
  1 ****   6 GROUP 4 **** **** 0

# MOE 2024.06 (io_trps.svl 2023.06)
