@<TRIPOS>MOLECULE
NONAME
41 42 1 0 0 
SMALL
USER_CHARGES


@<TRIPOS>ATOM
  1 O       -2.6130     1.0260    -1.7210 O.2   1 <1>  -0.5700 
  2 C       -2.1540     0.6840    -0.6590 C.2   1 <1>   0.5690 
  3 N       -1.9760    -0.6220    -0.3480 N.am  1 <1>  -0.7300 
  4 C       -1.7850     1.7370     0.3660 C.3   1 <1>  -0.0990 
  5 C       -2.2310    -1.7560    -1.2660 C.3   1 <1>   0.2200 
  6 C       -0.3920     2.3520     0.1280 C.3   1 <1>  -0.0800 
  7 C       -3.4800    -2.5260    -0.8610 C.3   1 <1>  -0.0800 
  8 C       -1.1630    -2.8170    -1.0410 C.3   1 <1>   0.1200 
  9 C        0.7270     1.3100     0.2650 C.3   1 <1>  -0.2400 
 10 C       -0.1480     3.5010     1.1130 C.3   1 <1>  -0.2400 
 11 C       -2.9590    -3.4890     0.2130 C.3   1 <1>   0.1200 
 12 C       -4.6830    -1.6720    -0.4220 C.3   1 <1>  -0.0170 
 13 O       -1.5640    -3.4920     0.1120 O.3   1 <1>  -0.5600 
 14 C       -5.8950    -2.5470    -0.1400 C.ar  1 <1>  -0.1440 
 15 C       -6.2420    -2.9320     1.1390 C.ar  1 <1>  -0.1500 
 16 C       -6.7100    -3.0030    -1.1560 C.ar  1 <1>  -0.1500 
 17 C       -7.3530    -3.7360     1.3340 C.ar  1 <1>   0.1600 
 18 C       -7.7990    -3.8040    -0.8530 C.ar  1 <1>   0.1600 
 19 N       -8.1380    -4.1840     0.3680 N.ar  1 <1>  -0.6200 
 20 H       -1.5820    -0.8970     0.5540 H     1 <1>   0.3700 
 21 H       -2.5260     2.5130     0.3110 H     1 <1>   0.0800 
 22 H       -1.8350     1.3100     1.3500 H     1 <1>   0.0800 
 23 H       -2.2630    -1.4180    -2.2890 H     1 <1>   0.0800 
 24 H       -0.3660     2.7520    -0.8730 H     1 <1>   0.0800 
 25 H       -3.7830    -3.1220    -1.7040 H     1 <1>   0.0800 
 26 H       -0.1820    -2.4000    -0.8980 H     1 <1>   0.0800 
 27 H       -1.1490    -3.5240    -1.8510 H     1 <1>   0.0800 
 28 H        0.7120     0.8580     1.2410 H     1 <1>   0.0800 
 29 H        1.6860     1.7760     0.1200 H     1 <1>   0.0800 
 30 H        0.6220     0.5390    -0.4770 H     1 <1>   0.0800 
 31 H       -0.1650     3.1450     2.1280 H     1 <1>   0.0800 
 32 H       -0.9050     4.2570     1.0010 H     1 <1>   0.0800 
 33 H        0.8090     3.9570     0.9250 H     1 <1>   0.0800 
 34 H       -3.3250    -4.4900     0.0610 H     1 <1>   0.0800 
 35 H       -3.2120    -3.1550     1.2040 H     1 <1>   0.0800 
 36 H       -4.9240    -0.9680    -1.2000 H     1 <1>   0.0800 
 37 H       -4.4410    -1.1050     0.4600 H     1 <1>   0.0800 
 38 H       -5.6620    -2.6150     1.9860 H     1 <1>   0.1500 
 39 H       -6.5090    -2.7430    -2.1790 H     1 <1>   0.1500 
 40 H       -7.6090    -4.0270     2.3380 H     1 <1>   0.1500 
 41 H       -8.4230    -4.1500    -1.6590 H     1 <1>   0.1500 
@<TRIPOS>BOND
  1   1   2  2   
  2   2   3  am  
  3   2   4  1   
  4   3   5  1   
  5   3  20  1   
  6   4   6  1   
  7   4  21  1   
  8   4  22  1   
  9   5   7  1   
 10   5   8  1   
 11   5  23  1   
 12   6   9  1   
 13   6  10  1   
 14   6  24  1   
 15   7  11  1   
 16   7  12  1   
 17   7  25  1   
 18   8  13  1   
 19   8  26  1   
 20   8  27  1   
 21   9  28  1   
 22   9  29  1   
 23   9  30  1   
 24  10  31  1   
 25  10  32  1   
 26  10  33  1   
 27  11  13  1   
 28  11  34  1   
 29  11  35  1   
 30  12  14  1   
 31  12  36  1   
 32  12  37  1   
 33  14  15  ar  
 34  14  16  ar  
 35  15  17  ar  
 36  15  38  1   
 37  16  18  ar  
 38  16  39  1   
 39  17  19  ar  
 40  17  40  1   
 41  18  19  ar  
 42  18  41  1   
@<TRIPOS>SUBSTRUCTURE
  1 ****  12 GROUP 4 **** **** 0

# MOE 2024.06 (io_trps.svl 2023.06)
