@<TRIPOS>MOLECULE
NONAME
48 51 1 0 0 
SMALL
USER_CHARGES


@<TRIPOS>ATOM
  1 CL      -2.6640     0.1120    -1.3820 Cl    1 <1>  -0.1770 
  2 C       -1.7500     1.5520    -0.9900 C.ar  1 <1>   0.1770 
  3 C       -2.3230     2.4950    -0.1330 C.ar  1 <1>   0.1000 
  4 C       -0.4980     1.7230    -1.5330 C.ar  1 <1>  -0.1500 
  5 N       -3.5930     2.3040     0.4140 N.pl3 1 <1>  -0.6000 
  6 C       -1.5960     3.6550     0.1800 C.ar  1 <1>   0.0860 
  7 C        0.2230     2.8700    -1.2230 C.ar  1 <1>  -0.1500 
  8 C       -4.1780     3.2290     1.2540 C.2   1 <1>  -0.0380 
  9 C       -2.1980     4.6220     1.0600 C.2   1 <1>   0.4690 
 10 C       -0.3220     3.8170    -0.3810 C.ar  1 <1>  -0.1500 
 11 C       -3.4930     4.3560     1.5740 C.2   1 <1>  -0.1360 
 12 C       -5.5830     2.9620     1.7800 C.3   1 <1>   0.4810 
 13 O       -1.6370     5.6650     1.3610 O.2   1 <1>  -0.5700 
 14 N       -6.5370     3.0300     0.6410 N.4   1 <1>  -0.9590 
 15 C       -7.8730     2.4760     1.0240 C.3   1 <1>   0.3430 
 16 C       -6.6530     4.4160     0.1000 C.3   1 <1>   0.3430 
 17 C       -8.8400     2.4270    -0.1800 C.3   1 <1>   0.0000 
 18 C       -7.5640     4.4170    -1.1300 C.3   1 <1>  -0.1600 
 19 C      -10.2130     1.9030     0.2770 C.3   1 <1>   0.2000 
 20 C       -8.9490     3.8280    -0.8160 C.3   1 <1>  -0.1600 
 21 C       -8.3990     1.3540    -1.1900 C.3   1 <1>  -0.1600 
 22 O      -10.4870     2.3030     1.5740 O.3   1 <1>  -0.6800 
 23 C      -10.1500     0.3750     0.2030 C.3   1 <1>  -0.1600 
 24 C       -8.8880     0.0310    -0.6010 C.3   1 <1>  -0.1600 
 25 H       -0.0830     0.9780    -2.1900 H     1 <1>   0.1500 
 26 H       -4.0120     1.3820     0.2180 H     1 <1>   0.4000 
 27 H        1.2050     3.0140    -1.6420 H     1 <1>   0.1500 
 28 H        0.2390     4.7060    -0.1410 H     1 <1>   0.1500 
 29 H       -3.8890     5.1120     2.2280 H     1 <1>   0.1500 
 30 H       -5.8460     3.6930     2.5270 H     1 <1>   0.0800 
 31 H       -5.6110     1.9840     2.2340 H     1 <1>   0.0800 
 32 H       -6.1530     2.4510    -0.1140 H     1 <1>   0.4500 
 33 H       -7.7660     1.4820     1.4260 H     1 <1>   0.0800 
 34 H       -8.3090     3.0950     1.7910 H     1 <1>   0.0800 
 35 H       -7.0680     5.0680     0.8520 H     1 <1>   0.0800 
 36 H       -5.6800     4.7910    -0.1770 H     1 <1>   0.0800 
 37 H       -7.6820     5.4310    -1.4730 H     1 <1>   0.0800 
 38 H       -7.0950     3.8650    -1.9250 H     1 <1>   0.0800 
 39 H      -10.9940     2.2720    -0.3690 H     1 <1>   0.0800 
 40 H       -9.5390     3.7870    -1.7170 H     1 <1>   0.0800 
 41 H       -9.4590     4.4850    -0.1300 H     1 <1>   0.0800 
 42 H       -8.9050     1.5140    -2.1290 H     1 <1>   0.0800 
 43 H       -7.3410     1.3390    -1.3800 H     1 <1>   0.0800 
 44 H      -11.3850     2.0060     1.8340 H     1 <1>   0.4000 
 45 H      -10.1000    -0.0760     1.1800 H     1 <1>   0.0800 
 46 H      -11.0200     0.0050    -0.3100 H     1 <1>   0.0800 
 47 H       -8.1420    -0.3800     0.0580 H     1 <1>   0.0800 
 48 H       -9.0960    -0.6910    -1.3730 H     1 <1>   0.0800 
@<TRIPOS>BOND
  1   1   2  1   
  2   2   3  ar  
  3   2   4  ar  
  4   3   5  1   
  5   3   6  ar  
  6   4   7  ar  
  7   4  25  1   
  8   5   8  1   
  9   5  26  1   
 10   6   9  1   
 11   6  10  ar  
 12   7  10  ar  
 13   7  27  1   
 14   8  11  2   
 15   8  12  1   
 16   9  11  1   
 17   9  13  2   
 18  10  28  1   
 19  11  29  1   
 20  12  14  1   
 21  12  30  1   
 22  12  31  1   
 23  14  15  1   
 24  14  16  1   
 25  14  32  1   
 26  15  17  1   
 27  15  33  1   
 28  15  34  1   
 29  16  18  1   
 30  16  35  1   
 31  16  36  1   
 32  17  19  1   
 33  17  20  1   
 34  17  21  1   
 35  18  20  1   
 36  18  37  1   
 37  18  38  1   
 38  19  22  1   
 39  19  23  1   
 40  19  39  1   
 41  20  40  1   
 42  20  41  1   
 43  21  24  1   
 44  21  42  1   
 45  21  43  1   
 46  22  44  1   
 47  23  24  1   
 48  23  45  1   
 49  23  46  1   
 50  24  47  1   
 51  24  48  1   
@<TRIPOS>SUBSTRUCTURE
  1 ****  14 GROUP 4 **** **** 0

# MOE 2024.06 (io_trps.svl 2023.06)
