@<TRIPOS>MOLECULE
NONAME
53 55 1 0 0 
SMALL
USER_CHARGES


@<TRIPOS>ATOM
  1 O        1.6040     0.4740     0.3850 O.2   1 <1>  -0.5700 
  2 C        2.1130     1.5730     0.3300 C.2   1 <1>   0.6900 
  3 N        2.6620     2.2140     1.4050 N.am  1 <1>  -0.4200 
  4 N        2.2260     2.3170    -0.8060 N.am  1 <1>  -0.6600 
  5 C        3.1780     3.4080     1.0070 C.2   1 <1>   0.5690 
  6 C        2.6570     1.6760     2.7840 C.3   1 <1>   0.0600 
  7 C        2.9700     3.5670    -0.4990 C.3   1 <1>   0.2810 
  8 C        1.9860     1.8410    -2.1920 C.3   1 <1>   0.0600 
  9 O        3.6830     4.2410     1.7250 O.2   1 <1>  -0.5700 
 10 C        2.1390     4.8020    -0.8490 C.3   1 <1>  -0.0990 
 11 C        3.0150     6.0300    -0.8830 C.2   1 <1>   0.5690 
 12 O        3.4150     6.4000    -1.9580 O.2   1 <1>  -0.5700 
 13 N        3.3430     6.6540     0.2860 N.am  1 <1>  -0.4940 
 14 C        3.8460     7.9620     0.4320 C.2   1 <1>  -0.0880 
 15 N        5.0880     8.3250     0.8720 N.pl3 1 <1>   0.3140 
 16 C        3.1510     9.1080     0.1820 C.2   1 <1>  -0.0540 
 17 N        5.1860     9.6840     0.9280 N.2   1 <1>  -0.7070 
 18 C        6.2400     7.4310     1.2990 C.3   1 <1>   0.2560 
 19 C        1.8010     9.2760    -0.2870 C.ar  1 <1>   0.0540 
 20 C        4.0440    10.1250     0.5110 C.2   1 <1>   0.1390 
 21 C        6.4870     6.3050     0.2760 C.3   1 <1>  -0.2400 
 22 C        7.5520     8.2370     1.4130 C.3   1 <1>  -0.2400 
 23 C        5.9300     6.8280     2.6780 C.3   1 <1>  -0.2400 
 24 C        1.4590     9.0040    -1.6080 C.ar  1 <1>  -0.1500 
 25 C        0.7970     9.7130     0.5720 C.ar  1 <1>  -0.1500 
 26 C        0.1600     9.1560    -2.0570 C.ar  1 <1>  -0.1500 
 27 C       -0.5050     9.8670     0.1300 C.ar  1 <1>  -0.1500 
 28 C       -0.8260     9.5870    -1.1860 C.ar  1 <1>  -0.1500 
 29 H        3.1280     0.7090     2.7930 H     1 <1>   0.0800 
 30 H        1.6420     1.5750     3.1260 H     1 <1>   0.0800 
 31 H        3.1910     2.3380     3.4440 H     1 <1>   0.0800 
 32 H        3.9150     3.5660    -1.0150 H     1 <1>   0.0800 
 33 H        1.6260     0.8250    -2.1740 H     1 <1>   0.0800 
 34 H        2.9000     1.8750    -2.7580 H     1 <1>   0.0800 
 35 H        1.2460     2.4590    -2.6700 H     1 <1>   0.0800 
 36 H        1.3440     4.9410    -0.1400 H     1 <1>   0.0800 
 37 H        1.7050     4.6840    -1.8250 H     1 <1>   0.0800 
 38 H        3.2700     6.0890     1.1420 H     1 <1>   0.3700 
 39 H        3.8060    11.1710     0.4290 H     1 <1>   0.1500 
 40 H        6.5680     6.7160    -0.7150 H     1 <1>   0.0800 
 41 H        5.6970     5.5800     0.2920 H     1 <1>   0.0800 
 42 H        7.3990     5.7840     0.5040 H     1 <1>   0.0800 
 43 H        7.7920     8.6900     0.4680 H     1 <1>   0.0800 
 44 H        8.3680     7.6010     1.7040 H     1 <1>   0.0800 
 45 H        7.4550     9.0130     2.1520 H     1 <1>   0.0800 
 46 H        5.0300     6.2450     2.6470 H     1 <1>   0.0800 
 47 H        5.8070     7.6130     3.4040 H     1 <1>   0.0800 
 48 H        6.7340     6.1910     2.9990 H     1 <1>   0.0800 
 49 H        2.2270     8.6700    -2.2850 H     1 <1>   0.1500 
 50 H        1.0460     9.9300     1.5960 H     1 <1>   0.1500 
 51 H       -0.0820     8.9390    -3.0830 H     1 <1>   0.1500 
 52 H       -1.2680    10.2040     0.8100 H     1 <1>   0.1500 
 53 H       -1.8380     9.7060    -1.5330 H     1 <1>   0.1500 
@<TRIPOS>BOND
  1   1   2  2   
  2   2   3  am  
  3   2   4  am  
  4   3   5  am  
  5   3   6  1   
  6   4   7  1   
  7   4   8  1   
  8   5   7  1   
  9   5   9  2   
 10   6  29  1   
 11   6  30  1   
 12   6  31  1   
 13   7  10  1   
 14   7  32  1   
 15   8  33  1   
 16   8  34  1   
 17   8  35  1   
 18  10  11  1   
 19  10  36  1   
 20  10  37  1   
 21  11  12  2   
 22  11  13  am  
 23  13  14  1   
 24  13  38  1   
 25  14  15  1   
 26  14  16  2   
 27  15  17  1   
 28  15  18  1   
 29  16  19  1   
 30  16  20  1   
 31  17  20  2   
 32  18  21  1   
 33  18  22  1   
 34  18  23  1   
 35  19  24  ar  
 36  19  25  ar  
 37  20  39  1   
 38  21  40  1   
 39  21  41  1   
 40  21  42  1   
 41  22  43  1   
 42  22  44  1   
 43  22  45  1   
 44  23  46  1   
 45  23  47  1   
 46  23  48  1   
 47  24  26  ar  
 48  24  49  1   
 49  25  27  ar  
 50  25  50  1   
 51  26  28  ar  
 52  26  51  1   
 53  27  28  ar  
 54  27  52  1   
 55  28  53  1   
@<TRIPOS>SUBSTRUCTURE
  1 ****  13 GROUP 4 **** **** 0

# MOE 2024.06 (io_trps.svl 2023.06)
