@<TRIPOS>MOLECULE
NONAME
27 28 1 0 0 
SMALL
USER_CHARGES


@<TRIPOS>ATOM
  1 S       -0.0120    -0.0060    -0.5030 S.o2  1 <1>   1.3330 
  2 O       -0.0520    -1.3310     0.0730 O.2   1 <1>  -0.6500 
  3 O       -0.3140     0.1740    -1.9020 O.2   1 <1>  -0.6500 
  4 N        1.5460     0.5970    -0.2660 N.am  1 <1>  -0.7520 
  5 C       -1.0290     1.0970     0.4560 C.3   1 <1>  -0.1350 
  6 C        2.2180     0.1390     0.9690 C.3   1 <1>   0.3070 
  7 C        2.5220    -0.1540    -1.0730 C.3   1 <1>   0.3070 
  8 C        3.4970     0.0170     0.1130 C.3   1 <1>   0.0000 
  9 C        4.3660    -1.2110     0.3440 C.3   1 <1>   0.3430 
 10 C        4.4330     1.2270     0.0300 C.3   1 <1>  -0.1600 
 11 N        5.7740    -0.7420     0.1550 N.4   1 <1>  -0.9060 
 12 C        5.7470     0.6240    -0.4410 C.3   1 <1>   0.3430 
 13 H       -2.0600     0.8170     0.3630 H     1 <1>   0.0800 
 14 H       -0.9150     2.1030     0.1050 H     1 <1>   0.0800 
 15 H       -0.7550     1.0550     1.4920 H     1 <1>   0.0800 
 16 H        1.8770    -0.8120     1.3360 H     1 <1>   0.0000 
 17 H        2.2580     0.9090     1.7180 H     1 <1>   0.0000 
 18 H        2.8030     0.3710    -1.9680 H     1 <1>   0.0000 
 19 H        2.2290    -1.1780    -1.2360 H     1 <1>   0.0000 
 20 H        4.1190    -1.9850    -0.3660 H     1 <1>   0.0800 
 21 H        4.2270    -1.5920     1.3440 H     1 <1>   0.0800 
 22 H        4.5680     1.6650     1.0030 H     1 <1>   0.0800 
 23 H        4.0760     1.9880    -0.6440 H     1 <1>   0.0800 
 24 H        6.3140    -1.3920    -0.4330 H     1 <1>   0.4500 
 25 H        6.2450    -0.6990     1.0680 H     1 <1>   0.4500 
 26 H        6.5940     1.2160    -0.1320 H     1 <1>   0.0800 
 27 H        5.7390     0.5510    -1.5180 H     1 <1>   0.0800 
@<TRIPOS>BOND
  1   1   2  2   
  2   1   3  2   
  3   1   4  am  
  4   1   5  1   
  5   4   6  1   
  6   4   7  1   
  7   5  13  1   
  8   5  14  1   
  9   5  15  1   
 10   6   8  1   
 11   6  16  1   
 12   6  17  1   
 13   7   8  1   
 14   7  18  1   
 15   7  19  1   
 16   8   9  1   
 17   8  10  1   
 18   9  11  1   
 19   9  20  1   
 20   9  21  1   
 21  10  12  1   
 22  10  22  1   
 23  10  23  1   
 24  11  12  1   
 25  11  24  1   
 26  11  25  1   
 27  12  26  1   
 28  12  27  1   
@<TRIPOS>SUBSTRUCTURE
  1 ****   7 GROUP 4 **** **** 0

# MOE 2024.06 (io_trps.svl 2023.06)
