@<TRIPOS>MOLECULE
NONAME
46 48 1 0 0 
SMALL
USER_CHARGES


@<TRIPOS>ATOM
  1 O        0.7520     0.6500     0.6590 O.co2 1 <1>  -0.9000 
  2 C        0.5200     1.5850    -0.1240 C.2   1 <1>   0.9060 
  3 O        0.8190     1.4940    -1.3260 O.co2 1 <1>  -0.9000 
  4 C       -0.1500     2.8770     0.3910 C.3   1 <1>   0.0380 
  5 C       -1.6070     2.9760    -0.1280 C.ar  1 <1>  -0.1440 
  6 C        0.6950     4.0700    -0.0980 C.3   1 <1>   0.2090 
  7 C       -0.0390     3.0300     1.9240 C.3   1 <1>  -0.1600 
  8 C       -1.8270     3.2090    -1.4810 C.ar  1 <1>  -0.1500 
  9 C       -2.7170     2.8240     0.6970 C.ar  1 <1>  -0.1500 
 10 N        1.4960     4.5790     1.0580 N.pl3 1 <1>  -0.8380 
 11 C        1.3530     3.5880     2.1440 C.3   1 <1>   0.2090 
 12 C       -3.1080     3.3250    -1.9900 C.ar  1 <1>  -0.1500 
 13 C       -4.0010     2.9400     0.1920 C.ar  1 <1>  -0.1500 
 14 C        2.7040     5.2150     0.8320 C.ar  1 <1>   0.4100 
 15 C       -4.2000     3.1960    -1.1520 C.ar  1 <1>  -0.1500 
 16 N        3.7900     4.6230     1.2950 N.ar  1 <1>  -0.6200 
 17 C        2.7980     6.4330     0.1620 C.ar  1 <1>  -0.1430 
 18 C        4.9360     5.2150     1.0480 C.ar  1 <1>   0.4770 
 19 C        4.0550     6.9490    -0.0190 C.ar  1 <1>   0.1600 
 20 C        1.5920     7.2180    -0.3470 C.3   1 <1>  -0.0170 
 21 N        5.1470     6.3530     0.4140 N.ar  1 <1>  -0.6200 
 22 C        6.1610     4.4990     1.5630 C.3   1 <1>  -0.0970 
 23 C        1.4130     7.0370    -1.8610 C.3   1 <1>  -0.1600 
 24 C        0.1420     7.7300    -2.3620 C.3   1 <1>  -0.2400 
 25 H        0.0390     4.8510    -0.4310 H     1 <1>   0.0800 
 26 H        1.3480     3.7970    -0.9100 H     1 <1>   0.0800 
 27 H       -0.1870     2.1040     2.4490 H     1 <1>   0.0800 
 28 H       -0.7380     3.7620     2.2860 H     1 <1>   0.0800 
 29 H       -0.9860     3.2840    -2.1500 H     1 <1>   0.1500 
 30 H       -2.5980     2.6040     1.7410 H     1 <1>   0.1500 
 31 H        2.0870     2.8050     2.0290 H     1 <1>   0.0800 
 32 H        1.4580     4.0530     3.1080 H     1 <1>   0.0800 
 33 H       -3.2490     3.5070    -3.0400 H     1 <1>   0.1500 
 34 H       -4.8450     2.8240     0.8490 H     1 <1>   0.1500 
 35 H       -5.1970     3.2860    -1.5450 H     1 <1>   0.1500 
 36 H        4.1800     7.8850    -0.5330 H     1 <1>   0.1500 
 37 H        1.7340     8.2610    -0.1270 H     1 <1>   0.0800 
 38 H        0.7040     6.9100     0.1750 H     1 <1>   0.0800 
 39 H        6.0710     3.4470     1.3660 H     1 <1>   0.0800 
 40 H        6.2430     4.6550     2.6210 H     1 <1>   0.0800 
 41 H        7.0450     4.8710     1.0780 H     1 <1>   0.0800 
 42 H        1.3600     5.9880    -2.0950 H     1 <1>   0.0800 
 43 H        2.2680     7.4420    -2.3750 H     1 <1>   0.0800 
 44 H       -0.7260     7.3100    -1.8820 H     1 <1>   0.0800 
 45 H        0.0430     7.5910    -3.4240 H     1 <1>   0.0800 
 46 H        0.1780     8.7840    -2.1540 H     1 <1>   0.0800 
@<TRIPOS>BOND
  1   1   2  ar  
  2   2   3  ar  
  3   2   4  1   
  4   4   5  1   
  5   4   6  1   
  6   4   7  1   
  7   5   8  ar  
  8   5   9  ar  
  9   6  10  1   
 10   6  25  1   
 11   6  26  1   
 12   7  11  1   
 13   7  27  1   
 14   7  28  1   
 15   8  12  ar  
 16   8  29  1   
 17   9  13  ar  
 18   9  30  1   
 19  10  11  1   
 20  10  14  1   
 21  11  31  1   
 22  11  32  1   
 23  12  15  ar  
 24  12  33  1   
 25  13  15  ar  
 26  13  34  1   
 27  14  16  ar  
 28  14  17  ar  
 29  15  35  1   
 30  16  18  ar  
 31  17  19  ar  
 32  17  20  1   
 33  18  21  ar  
 34  18  22  1   
 35  19  21  ar  
 36  19  36  1   
 37  20  23  1   
 38  20  37  1   
 39  20  38  1   
 40  22  39  1   
 41  22  40  1   
 42  22  41  1   
 43  23  24  1   
 44  23  42  1   
 45  23  43  1   
 46  24  44  1   
 47  24  45  1   
 48  24  46  1   
@<TRIPOS>SUBSTRUCTURE
  1 ****   6 GROUP 4 **** **** 0

# MOE 2024.06 (io_trps.svl 2023.06)
