@<TRIPOS>MOLECULE
NONAME
42 45 1 0 0 
SMALL
USER_CHARGES


@<TRIPOS>ATOM
  1 O       -2.0810     0.6110    -2.0320 O.2   1 <1>  -0.5700 
  2 C       -2.2210    -0.2140    -1.1640 C.2   1 <1>   0.5690 
  3 N       -2.6470     0.1530     0.0620 N.am  1 <1>  -0.7300 
  4 C       -1.8790    -1.6650    -1.4390 C.3   1 <1>  -0.0190 
  5 C       -2.9140    -0.8050     1.1660 C.3   1 <1>   0.2200 
  6 C       -0.7540    -2.1510    -0.5120 C.3   1 <1>   0.1200 
  7 C       -3.1120    -2.5910    -1.4260 C.3   1 <1>   0.1100 
  8 C       -1.6110    -1.5070     1.6030 C.3   1 <1>   0.1200 
  9 C       -4.0310    -1.8250     0.8200 C.3   1 <1>   0.1100 
 10 O       -1.2320    -2.5430     0.7410 O.3   1 <1>  -0.5600 
 11 N       -4.2560    -2.0970    -0.6250 N.3   1 <1>  -0.8100 
 12 C       -5.5010    -2.8590    -0.8760 C.3   1 <1>   0.2910 
 13 C       -5.5120    -4.2990    -0.3600 C.2   1 <1>   0.0460 
 14 N       -6.6240    -5.0460    -0.5030 N.2   1 <1>  -0.5650 
 15 C       -4.5730    -5.0360     0.2550 C.2   1 <1>  -0.0100 
 16 C       -6.3110    -6.1900     0.0260 C.2   1 <1>   0.4250 
 17 O       -5.0760    -6.2120     0.4930 O.3   1 <1>  -0.2800 
 18 C       -7.1510    -7.3660     0.1390 C.ar  1 <1>   0.0530 
 19 C       -6.6950    -8.5450     0.7330 C.ar  1 <1>  -0.1500 
 20 C       -8.4610    -7.3620    -0.3460 C.ar  1 <1>  -0.1500 
 21 C       -7.5030    -9.6630     0.8370 C.ar  1 <1>  -0.1500 
 22 C       -9.2740    -8.4760    -0.2450 C.ar  1 <1>  -0.1500 
 23 C       -8.7960    -9.6310     0.3480 C.ar  1 <1>  -0.1500 
 24 H       -2.9960     1.1060     0.1550 H     1 <1>   0.3700 
 25 H       -1.4720    -1.6970    -2.4330 H     1 <1>   0.0800 
 26 H       -3.2480    -0.2330     2.0130 H     1 <1>   0.0800 
 27 H        0.0010    -1.3940    -0.3830 H     1 <1>   0.0800 
 28 H       -0.2890    -3.0190    -0.9460 H     1 <1>   0.0800 
 29 H       -2.8180    -3.5710    -1.0980 H     1 <1>   0.0800 
 30 H       -3.4470    -2.6850    -2.4450 H     1 <1>   0.0800 
 31 H       -1.7660    -1.9580     2.5670 H     1 <1>   0.0800 
 32 H       -0.8030    -0.8020     1.6890 H     1 <1>   0.0800 
 33 H       -4.9470    -1.4320     1.2250 H     1 <1>   0.0800 
 34 H       -3.8350    -2.7430     1.3430 H     1 <1>   0.0800 
 35 H       -6.3230    -2.3340    -0.4240 H     1 <1>   0.0800 
 36 H       -5.6900    -2.8780    -1.9360 H     1 <1>   0.0800 
 37 H       -3.5630    -4.8200     0.5520 H     1 <1>   0.1500 
 38 H       -5.6920    -8.5880     1.1190 H     1 <1>   0.1500 
 39 H       -8.8430    -6.4700    -0.8090 H     1 <1>   0.1500 
 40 H       -7.1270   -10.5590     1.3000 H     1 <1>   0.1500 
 41 H      -10.2800    -8.4450    -0.6280 H     1 <1>   0.1500 
 42 H       -9.4270   -10.4990     0.4280 H     1 <1>   0.1500 
@<TRIPOS>BOND
  1   1   2  2   
  2   2   3  am  
  3   2   4  1   
  4   3   5  1   
  5   3  24  1   
  6   4   6  1   
  7   4   7  1   
  8   4  25  1   
  9   5   8  1   
 10   5   9  1   
 11   5  26  1   
 12   6  10  1   
 13   6  27  1   
 14   6  28  1   
 15   7  11  1   
 16   7  29  1   
 17   7  30  1   
 18   8  10  1   
 19   8  31  1   
 20   8  32  1   
 21   9  11  1   
 22   9  33  1   
 23   9  34  1   
 24  11  12  1   
 25  12  13  1   
 26  12  35  1   
 27  12  36  1   
 28  13  14  1   
 29  13  15  2   
 30  14  16  2   
 31  15  17  1   
 32  15  37  1   
 33  16  17  1   
 34  16  18  1   
 35  18  19  ar  
 36  18  20  ar  
 37  19  21  ar  
 38  19  38  1   
 39  20  22  ar  
 40  20  39  1   
 41  21  23  ar  
 42  21  40  1   
 43  22  23  ar  
 44  22  41  1   
 45  23  42  1   
@<TRIPOS>SUBSTRUCTURE
  1 ****  13 GROUP 4 **** **** 0

# MOE 2024.06 (io_trps.svl 2023.06)
