@<TRIPOS>MOLECULE
NONAME
50 53 1 0 0 
SMALL
USER_CHARGES


@<TRIPOS>ATOM
  1 F       -0.8100    -2.7420     1.1180 F     1 <1>  -0.1900 
  2 C       -1.3770    -2.5110    -0.0350 C.ar  1 <1>   0.1900 
  3 C       -2.5620    -1.7760    -0.0760 C.ar  1 <1>   0.0000 
  4 C       -0.7520    -2.9990    -1.1660 C.ar  1 <1>  -0.1500 
  5 C       -3.2280    -1.2850     1.1100 C.ar  1 <1>   0.0000 
  6 C       -3.0890    -1.5180    -1.3410 C.ar  1 <1>  -0.1500 
  7 C       -1.3100    -2.7400    -2.4050 C.ar  1 <1>  -0.1500 
  8 C       -3.8350    -2.1490     2.0390 C.ar  1 <1>   0.0860 
  9 C       -3.2800     0.0880     1.3320 C.ar  1 <1>  -0.1500 
 10 C       -2.4760    -1.9950    -2.4880 C.ar  1 <1>  -0.1500 
 11 C       -3.8510    -3.5890     1.8690 C.2   1 <1>   0.5440 
 12 C       -4.4510    -1.5960     3.1600 C.ar  1 <1>  -0.1500 
 13 C       -3.9070     0.6160     2.4440 C.ar  1 <1>  -0.1500 
 14 O       -3.2050    -4.2720     2.6420 O.2   1 <1>  -0.5700 
 15 N       -4.6140    -4.2120     0.8950 N.am  1 <1>  -0.6600 
 16 C       -4.4940    -0.2310     3.3650 C.ar  1 <1>  -0.1500 
 17 C       -5.6660    -3.4700     0.1380 C.3   1 <1>   0.2200 
 18 C       -4.4970    -5.6860     0.6660 C.3   1 <1>   0.0600 
 19 C       -7.0470    -3.6460     0.7570 C.3   1 <1>  -0.1600 
 20 C       -5.8530    -3.8940    -1.3180 C.3   1 <1>  -0.1600 
 21 C       -8.0210    -3.2390    -0.3560 C.3   1 <1>  -0.0800 
 22 C       -7.2490    -3.3750    -1.6820 C.3   1 <1>  -0.0800 
 23 C       -8.4720    -1.7730    -0.2650 C.3   1 <1>  -0.1600 
 24 C       -7.2370    -1.9800    -2.3220 C.3   1 <1>  -0.1600 
 25 C       -8.4230    -1.2630    -1.6970 C.3   1 <1>   0.2000 
 26 O       -8.2160     0.0980    -1.7090 O.3   1 <1>  -0.6800 
 27 H        0.1550    -3.5680    -1.0720 H     1 <1>   0.1500 
 28 H       -3.9910    -0.9390    -1.4240 H     1 <1>   0.1500 
 29 H       -0.8390    -3.1110    -3.2990 H     1 <1>   0.1500 
 30 H       -2.8140     0.7520     0.6240 H     1 <1>   0.1500 
 31 H       -2.9070    -1.7860    -3.4530 H     1 <1>   0.1500 
 32 H       -4.8990    -2.2590     3.8800 H     1 <1>   0.1500 
 33 H       -3.9330     1.6810     2.5980 H     1 <1>   0.1500 
 34 H       -4.9770     0.1720     4.2390 H     1 <1>   0.1500 
 35 H       -5.4440    -2.4180     0.1350 H     1 <1>   0.0800 
 36 H       -5.4710    -6.1420     0.6660 H     1 <1>   0.0800 
 37 H       -3.9080    -6.1570     1.4330 H     1 <1>   0.0800 
 38 H       -4.0190    -5.8660    -0.2810 H     1 <1>   0.0800 
 39 H       -7.2080    -4.6810     1.0000 H     1 <1>   0.0800 
 40 H       -7.1620    -3.0540     1.6480 H     1 <1>   0.0800 
 41 H       -5.0840    -3.4980    -1.9560 H     1 <1>   0.0800 
 42 H       -5.8700    -4.9630    -1.4090 H     1 <1>   0.0800 
 43 H       -8.8830    -3.8850    -0.3600 H     1 <1>   0.0800 
 44 H       -7.7540    -4.0680    -2.3360 H     1 <1>   0.0800 
 45 H       -7.7870    -1.2110     0.3450 H     1 <1>   0.0800 
 46 H       -9.4640    -1.6940     0.1420 H     1 <1>   0.0800 
 47 H       -7.3380    -2.0380    -3.3920 H     1 <1>   0.0800 
 48 H       -6.3280    -1.4630    -2.0730 H     1 <1>   0.0800 
 49 H       -9.3360    -1.4880    -2.2240 H     1 <1>   0.0800 
 50 H       -7.4320     0.3210    -1.1760 H     1 <1>   0.4000 
@<TRIPOS>BOND
  1   1   2  1   
  2   2   3  ar  
  3   2   4  ar  
  4   3   5  1   
  5   3   6  ar  
  6   4   7  ar  
  7   4  27  1   
  8   5   8  ar  
  9   5   9  ar  
 10   6  10  ar  
 11   6  28  1   
 12   7  10  ar  
 13   7  29  1   
 14   8  11  1   
 15   8  12  ar  
 16   9  13  ar  
 17   9  30  1   
 18  10  31  1   
 19  11  14  2   
 20  11  15  am  
 21  12  16  ar  
 22  12  32  1   
 23  13  16  ar  
 24  13  33  1   
 25  15  17  1   
 26  15  18  1   
 27  16  34  1   
 28  17  19  1   
 29  17  20  1   
 30  17  35  1   
 31  18  36  1   
 32  18  37  1   
 33  18  38  1   
 34  19  21  1   
 35  19  39  1   
 36  19  40  1   
 37  20  22  1   
 38  20  41  1   
 39  20  42  1   
 40  21  22  1   
 41  21  23  1   
 42  21  43  1   
 43  22  24  1   
 44  22  44  1   
 45  23  25  1   
 46  23  45  1   
 47  23  46  1   
 48  24  25  1   
 49  24  47  1   
 50  24  48  1   
 51  25  26  1   
 52  25  49  1   
 53  26  50  1   
@<TRIPOS>SUBSTRUCTURE
  1 ****  17 GROUP 4 **** **** 0

# MOE 2024.06 (io_trps.svl 2023.06)
