@<TRIPOS>MOLECULE
NONAME
54 57 1 0 0 
SMALL
USER_CHARGES


@<TRIPOS>ATOM
  1 O       -5.7110    -1.2610     2.4550 O.3   1 <1>  -0.5600 
  2 C       -4.4700    -0.6240     2.5800 C.3   1 <1>   0.1200 
  3 C       -6.6380    -0.7980     3.3950 C.3   1 <1>   0.0400 
  4 C       -3.5070    -1.0890     1.4820 C.3   1 <1>   0.0960 
  5 N       -4.0090    -0.7340     0.1340 N.pl3 1 <1>   0.0480 
  6 C       -4.6710    -1.4870    -0.7790 C.2   1 <1>   0.0060 
  7 C       -3.9000     0.4750    -0.4470 C.2   1 <1>  -0.3020 
  8 N       -4.9880    -0.8450    -1.8610 N.2   1 <1>  -0.5650 
  9 C       -5.0460    -2.9410    -0.5590 C.3   1 <1>   0.5230 
 10 C       -4.4960     0.3900    -1.6550 C.2   1 <1>   0.0770 
 11 N       -6.4620    -3.1110    -0.9810 N.4   1 <1>  -0.9590 
 12 C       -7.3630    -2.3820    -0.0400 C.3   1 <1>   0.3430 
 13 C       -6.8800    -4.5450    -0.9670 C.3   1 <1>   0.3430 
 14 C       -7.8050    -3.4410     0.9730 C.3   1 <1>   0.2000 
 15 C       -8.0010    -4.6630     0.0760 C.3   1 <1>  -0.0800 
 16 O       -6.7600    -3.6940     1.8630 O.3   1 <1>  -0.6800 
 17 C       -8.0640    -6.0260     0.7970 C.3   1 <1>  -0.0170 
 18 C       -8.0270    -7.1610    -0.2210 C.ar  1 <1>  -0.1440 
 19 C       -6.8310    -7.8150    -0.6090 C.ar  1 <1>   0.0000 
 20 C       -9.1880    -7.5640    -0.8140 C.ar  1 <1>  -0.1500 
 21 C       -6.9250    -8.8040    -1.6210 C.ar  1 <1>   0.3100 
 22 C       -5.5510    -7.5550    -0.0620 C.ar  1 <1>  -0.1500 
 23 C       -9.1720    -8.5670    -1.7900 C.ar  1 <1>   0.1600 
 24 N       -8.0980    -9.1610    -2.1990 N.ar  1 <1>  -0.6200 
 25 C       -5.7580    -9.4500    -2.0550 C.ar  1 <1>  -0.1500 
 26 C       -4.4320    -8.2070    -0.5060 C.ar  1 <1>  -0.1500 
 27 C       -4.5330    -9.1630    -1.5180 C.ar  1 <1>  -0.1500 
 28 H       -4.6130     0.4430     2.5130 H     1 <1>   0.0800 
 29 H       -4.0610    -0.8630     3.5480 H     1 <1>   0.0800 
 30 H       -7.5680    -1.3200     3.2560 H     1 <1>   0.0800 
 31 H       -6.7960     0.2580     3.2530 H     1 <1>   0.0800 
 32 H       -6.2660    -0.9880     4.3890 H     1 <1>   0.0800 
 33 H       -3.3540    -2.1490     1.5540 H     1 <1>   0.0800 
 34 H       -2.5550    -0.6080     1.6220 H     1 <1>   0.0800 
 35 H       -3.4150     1.3180     0.0110 H     1 <1>   0.1500 
 36 H       -4.9270    -3.2100     0.4770 H     1 <1>   0.0800 
 37 H       -4.4030    -3.5620    -1.1600 H     1 <1>   0.0800 
 38 H       -4.5970     1.1670    -2.3970 H     1 <1>   0.1500 
 39 H       -6.5040    -2.6630    -1.9120 H     1 <1>   0.4500 
 40 H       -6.8780    -1.5430     0.4320 H     1 <1>   0.0800 
 41 H       -8.2260    -2.0270    -0.5780 H     1 <1>   0.0800 
 42 H       -7.2290    -4.8630    -1.9360 H     1 <1>   0.0800 
 43 H       -6.0490    -5.1650    -0.6770 H     1 <1>   0.0800 
 44 H       -8.6840    -3.1600     1.5280 H     1 <1>   0.0800 
 45 H       -8.9280    -4.5380    -0.4550 H     1 <1>   0.0800 
 46 H       -6.4470    -2.8520     2.2870 H     1 <1>   0.4000 
 47 H       -8.9840    -6.0800     1.3550 H     1 <1>   0.0800 
 48 H       -7.2760    -6.1380     1.5170 H     1 <1>   0.0800 
 49 H      -10.1370    -7.1280    -0.5580 H     1 <1>   0.1500 
 50 H       -5.4400    -6.8400     0.7290 H     1 <1>   0.1500 
 51 H      -10.1110    -8.8580    -2.2320 H     1 <1>   0.1500 
 52 H       -5.8610   -10.1890    -2.8290 H     1 <1>   0.1500 
 53 H       -3.4640    -8.0030    -0.0800 H     1 <1>   0.1500 
 54 H       -3.6460    -9.6710    -1.8600 H     1 <1>   0.1500 
@<TRIPOS>BOND
  1   1   2  1   
  2   1   3  1   
  3   2   4  1   
  4   2  28  1   
  5   2  29  1   
  6   3  30  1   
  7   3  31  1   
  8   3  32  1   
  9   4   5  1   
 10   4  33  1   
 11   4  34  1   
 12   5   6  1   
 13   5   7  1   
 14   6   8  2   
 15   6   9  1   
 16   7  10  2   
 17   7  35  1   
 18   8  10  1   
 19   9  11  1   
 20   9  36  1   
 21   9  37  1   
 22  10  38  1   
 23  11  12  1   
 24  11  13  1   
 25  11  39  1   
 26  12  14  1   
 27  12  40  1   
 28  12  41  1   
 29  13  15  1   
 30  13  42  1   
 31  13  43  1   
 32  14  15  1   
 33  14  16  1   
 34  14  44  1   
 35  15  17  1   
 36  15  45  1   
 37  16  46  1   
 38  17  18  1   
 39  17  47  1   
 40  17  48  1   
 41  18  19  ar  
 42  18  20  ar  
 43  19  21  ar  
 44  19  22  ar  
 45  20  23  ar  
 46  20  49  1   
 47  21  24  ar  
 48  21  25  ar  
 49  22  26  ar  
 50  22  50  1   
 51  23  24  ar  
 52  23  51  1   
 53  25  27  ar  
 54  25  52  1   
 55  26  27  ar  
 56  26  53  1   
 57  27  54  1   
@<TRIPOS>SUBSTRUCTURE
  1 ****  13 GROUP 4 **** **** 0

# MOE 2024.06 (io_trps.svl 2023.06)
