@<TRIPOS>MOLECULE
NONAME
41 42 1 0 0 
SMALL
USER_CHARGES


@<TRIPOS>ATOM
  1 O       -0.3400     0.4770     2.0570 O.3   1 <1>  -0.6800 
  2 C        0.6630    -0.3210     1.5230 C.3   1 <1>   0.1200 
  3 C        2.0010     0.4110     1.6750 C.3   1 <1>   0.1100 
  4 N        3.1800    -0.4380     1.3600 N.3   1 <1>  -0.8100 
  5 C        4.4340     0.1870     1.8260 C.3   1 <1>   0.2530 
  6 C        3.2390    -0.8100    -0.0770 C.3   1 <1>   0.2900 
  7 C        4.7670     1.4830     1.1000 C.ar  1 <1>  -0.1430 
  8 C        2.4130    -2.0550    -0.3530 C.2   1 <1>   0.0060 
  9 C        4.2980     2.6990     1.5410 C.ar  1 <1>   0.1600 
 10 C        5.5690     1.5030    -0.0170 C.ar  1 <1>   0.1600 
 11 N        1.6970    -2.2520    -1.4140 N.2   1 <1>  -0.5650 
 12 N        2.3650    -3.0770     0.5260 N.pl3 1 <1>   0.0330 
 13 N        4.5820     3.8270     0.9300 N.ar  1 <1>  -0.6200 
 14 N        5.8690     2.6130    -0.6510 N.ar  1 <1>  -0.6200 
 15 C        1.1560    -3.4700    -1.2160 C.2   1 <1>   0.0770 
 16 C        1.5510    -3.9890    -0.0340 C.2   1 <1>  -0.3020 
 17 C        5.3550     3.7250    -0.1440 C.ar  1 <1>   0.4770 
 18 C        5.6990     5.0250    -0.8840 C.3   1 <1>   0.0630 
 19 C        6.5010     5.9930     0.0020 C.3   1 <1>  -0.2400 
 20 C        4.4420     5.7240    -1.4290 C.3   1 <1>  -0.2400 
 21 H       -1.2150     0.0690     1.9040 H     1 <1>   0.4000 
 22 H        0.4330    -0.4940     0.4860 H     1 <1>   0.0800 
 23 H        0.6740    -1.2500     2.0640 H     1 <1>   0.0800 
 24 H        2.0750     0.7370     2.6990 H     1 <1>   0.0800 
 25 H        1.9910     1.2800     1.0390 H     1 <1>   0.0800 
 26 H        5.2420    -0.5120     1.6960 H     1 <1>   0.0800 
 27 H        4.3570     0.3810     2.8830 H     1 <1>   0.0800 
 28 H        4.2520    -1.0390    -0.3570 H     1 <1>   0.0800 
 29 H        2.9000     0.0040    -0.6960 H     1 <1>   0.0800 
 30 H        3.6720     2.7540     2.4150 H     1 <1>   0.1500 
 31 H        5.9800     0.5870    -0.4060 H     1 <1>   0.1500 
 32 H        2.8390    -3.0950     1.4340 H     1 <1>   0.2700 
 33 H        0.5000    -3.9140    -1.9470 H     1 <1>   0.1500 
 34 H        1.3050    -4.9300     0.4250 H     1 <1>   0.1500 
 35 H        6.3170     4.7680    -1.7270 H     1 <1>   0.0800 
 36 H        5.9130     6.2990     0.8490 H     1 <1>   0.0800 
 37 H        6.7880     6.8650    -0.5570 H     1 <1>   0.0800 
 38 H        7.3900     5.5060     0.3610 H     1 <1>   0.0800 
 39 H        3.8000     6.0240    -0.6200 H     1 <1>   0.0800 
 40 H        3.8970     5.0490    -2.0650 H     1 <1>   0.0800 
 41 H        4.7120     6.5940    -2.0000 H     1 <1>   0.0800 
@<TRIPOS>BOND
  1   1   2  1   
  2   1  21  1   
  3   2   3  1   
  4   2  22  1   
  5   2  23  1   
  6   3   4  1   
  7   3  24  1   
  8   3  25  1   
  9   4   5  1   
 10   4   6  1   
 11   5   7  1   
 12   5  26  1   
 13   5  27  1   
 14   6   8  1   
 15   6  28  1   
 16   6  29  1   
 17   7   9  ar  
 18   7  10  ar  
 19   8  11  2   
 20   8  12  1   
 21   9  13  ar  
 22   9  30  1   
 23  10  14  ar  
 24  10  31  1   
 25  11  15  1   
 26  12  16  1   
 27  12  32  1   
 28  13  17  ar  
 29  14  17  ar  
 30  15  16  2   
 31  15  33  1   
 32  16  34  1   
 33  17  18  1   
 34  18  19  1   
 35  18  20  1   
 36  18  35  1   
 37  19  36  1   
 38  19  37  1   
 39  19  38  1   
 40  20  39  1   
 41  20  40  1   
 42  20  41  1   
@<TRIPOS>SUBSTRUCTURE
  1 ****   7 GROUP 4 **** **** 0

# MOE 2024.06 (io_trps.svl 2023.06)
