@<TRIPOS>MOLECULE
NONAME
52 54 1 0 0 
SMALL
USER_CHARGES


@<TRIPOS>ATOM
  1 CL      -0.7550    -0.1670     0.2000 Cl    1 <1>  -0.1770 
  2 C       -2.1870     0.6890     0.7300 C.ar  1 <1>   0.1770 
  3 C       -3.2590    -0.0360     1.2490 C.ar  1 <1>   0.0860 
  4 C       -2.2160     2.0730     0.6160 C.ar  1 <1>  -0.1440 
  5 C       -3.2410    -1.4770     1.3540 C.2   1 <1>   0.5440 
  6 C       -4.3750     0.6830     1.6720 C.ar  1 <1>  -0.1500 
  7 C       -3.3470     2.7550     1.0370 C.ar  1 <1>  -0.1500 
  8 C       -1.0350     2.8450     0.0450 C.3   1 <1>  -0.0960 
  9 O       -3.1140    -1.9840     2.4500 O.2   1 <1>  -0.5700 
 10 N       -3.4160    -2.2790     0.2500 N.am  1 <1>  -0.6600 
 11 C       -4.4220     2.0610     1.5660 C.ar  1 <1>  -0.1500 
 12 C       -3.4690    -3.7790     0.3770 C.3   1 <1>   0.3640 
 13 C       -3.7250    -1.7160    -1.1030 C.3   1 <1>   0.1400 
 14 C       -2.1440    -4.4490    -0.0270 C.ar  1 <1>  -0.1430 
 15 C       -4.6670    -4.3840    -0.4250 C.3   1 <1>   0.2000 
 16 C       -4.1240    -2.8020    -2.1110 C.3   1 <1>   0.1200 
 17 C       -1.9830    -5.7970     0.2690 C.ar  1 <1>  -0.1500 
 18 C       -1.0980    -3.7840    -0.6610 C.ar  1 <1>  -0.1500 
 19 O       -5.0900    -3.6250    -1.5390 O.3   1 <1>  -0.5600 
 20 C       -5.8980    -4.5690     0.4700 C.3   1 <1>   0.1200 
 21 C       -0.8290    -6.4790    -0.0760 C.ar  1 <1>   0.0830 
 22 C        0.0690    -4.4500    -0.9930 C.ar  1 <1>  -0.1500 
 23 O       -5.6980    -5.6250     1.3550 O.3   1 <1>  -0.6800 
 24 O       -0.7820    -7.8050     0.2080 O.3   1 <1>  -0.3630 
 25 C        0.2200    -5.7910    -0.6940 C.ar  1 <1>   0.0830 
 26 C       -0.6550    -8.6850    -0.8880 C.3   1 <1>   0.0400 
 27 O        1.4020    -6.3750    -1.0070 O.3   1 <1>  -0.3630 
 28 C        2.2110    -6.7500     0.0860 C.3   1 <1>   0.0400 
 29 H       -5.2100     0.1480     2.0910 H     1 <1>   0.1500 
 30 H       -3.3970     3.8280     0.9620 H     1 <1>   0.1500 
 31 H       -1.2320     3.9020     0.0320 H     1 <1>   0.0800 
 32 H       -0.8350     2.5240    -0.9620 H     1 <1>   0.0800 
 33 H       -0.1580     2.6710     0.6440 H     1 <1>   0.0800 
 34 H       -5.2950     2.5970     1.8980 H     1 <1>   0.1500 
 35 H       -3.6170    -4.0370     1.4120 H     1 <1>   0.0800 
 36 H       -4.5380    -1.0160    -1.0160 H     1 <1>   0.0800 
 37 H       -2.8670    -1.1860    -1.4770 H     1 <1>   0.0800 
 38 H       -4.3880    -5.3480    -0.8100 H     1 <1>   0.0800 
 39 H       -3.2790    -3.4030    -2.4030 H     1 <1>   0.0800 
 40 H       -4.5490    -2.3550    -2.9920 H     1 <1>   0.0800 
 41 H       -2.7610    -6.3400     0.7760 H     1 <1>   0.1500 
 42 H       -1.1680    -2.7400    -0.8940 H     1 <1>   0.1500 
 43 H       -6.7690    -4.7910    -0.1220 H     1 <1>   0.0800 
 44 H       -6.0730    -3.6780     1.0480 H     1 <1>   0.0800 
 45 H        0.8740    -3.9250    -1.4760 H     1 <1>   0.1500 
 46 H       -5.8080    -6.4840     0.9020 H     1 <1>   0.4000 
 47 H       -0.8060    -9.6870    -0.5320 H     1 <1>   0.0800 
 48 H        0.3300    -8.5910    -1.3080 H     1 <1>   0.0800 
 49 H       -1.4000    -8.4360    -1.6220 H     1 <1>   0.0800 
 50 H        3.1400    -7.1310    -0.2970 H     1 <1>   0.0800 
 51 H        1.7080    -7.5110     0.6560 H     1 <1>   0.0800 
 52 H        2.3890    -5.8840     0.6980 H     1 <1>   0.0800 
@<TRIPOS>BOND
  1   1   2  1   
  2   2   3  ar  
  3   2   4  ar  
  4   3   5  1   
  5   3   6  ar  
  6   4   7  ar  
  7   4   8  1   
  8   5   9  2   
  9   5  10  am  
 10   6  11  ar  
 11   6  29  1   
 12   7  11  ar  
 13   7  30  1   
 14   8  31  1   
 15   8  32  1   
 16   8  33  1   
 17  10  12  1   
 18  10  13  1   
 19  11  34  1   
 20  12  14  1   
 21  12  15  1   
 22  12  35  1   
 23  13  16  1   
 24  13  36  1   
 25  13  37  1   
 26  14  17  ar  
 27  14  18  ar  
 28  15  19  1   
 29  15  20  1   
 30  15  38  1   
 31  16  19  1   
 32  16  39  1   
 33  16  40  1   
 34  17  21  ar  
 35  17  41  1   
 36  18  22  ar  
 37  18  42  1   
 38  20  23  1   
 39  20  43  1   
 40  20  44  1   
 41  21  24  1   
 42  21  25  ar  
 43  22  25  ar  
 44  22  45  1   
 45  23  46  1   
 46  24  26  1   
 47  25  27  1   
 48  26  47  1   
 49  26  48  1   
 50  26  49  1   
 51  27  28  1   
 52  28  50  1   
 53  28  51  1   
 54  28  52  1   
@<TRIPOS>SUBSTRUCTURE
  1 ****  10 GROUP 4 **** **** 0

# MOE 2024.06 (io_trps.svl 2023.06)
