@<TRIPOS>MOLECULE
NONAME
58 60 1 0 0 
SMALL
USER_CHARGES


@<TRIPOS>ATOM
  1 O       -0.0590     1.3280     1.7580 O.2   1 <1>  -0.5700 
  2 C        0.0020     2.4950     1.4690 C.2   1 <1>   0.5690 
  3 N       -1.0990     3.2770     1.5320 N.am  1 <1>  -0.7300 
  4 C        1.3280     3.1000     0.9920 C.3   1 <1>   0.1810 
  5 C       -1.0880     4.7260     1.2300 C.3   1 <1>   0.3640 
  6 O        1.3400     4.5160     1.0010 O.3   1 <1>  -0.5600 
  7 C       -2.3340     5.0890     0.4310 C.ar  1 <1>  -0.1440 
  8 C        0.1870     5.1200     0.4420 C.3   1 <1>   0.2610 
  9 C       -3.0230     6.2560     0.7320 C.ar  1 <1>   0.1600 
 10 C       -2.7940     4.3010    -0.6090 C.ar  1 <1>  -0.1500 
 11 C        0.3600     6.6470     0.3740 C.2   1 <1>   0.5690 
 12 N       -4.0920     6.6950     0.0890 N.ar  1 <1>  -0.6200 
 13 C       -3.9140     4.7390    -1.2820 C.ar  1 <1>  -0.1500 
 14 O       -0.1140     7.3310     1.2560 O.2   1 <1>  -0.5700 
 15 N        1.0570     7.2550    -0.6420 N.am  1 <1>  -0.6600 
 16 C       -4.5150     5.9250    -0.9000 C.ar  1 <1>   0.1600 
 17 C        2.0600     6.5390    -1.4900 C.3   1 <1>   0.2840 
 18 C        0.8820     8.7180    -0.9460 C.3   1 <1>   0.1400 
 19 C        3.4490     7.0390    -1.1340 C.ar  1 <1>  -0.1430 
 20 C        1.8670     9.6200    -0.1720 C.3   1 <1>   0.3430 
 21 C        4.0380     6.6510     0.0600 C.ar  1 <1>  -0.1500 
 22 C        4.1390     7.8880    -1.9860 C.ar  1 <1>  -0.1500 
 23 N        1.7370     9.4320     1.3030 N.4   1 <1>  -0.9590 
 24 C        5.2940     7.1180     0.4050 C.ar  1 <1>  -0.1500 
 25 C        5.3910     8.3610    -1.6350 C.ar  1 <1>  -0.1500 
 26 C        0.7450    10.3610     1.9170 C.3   1 <1>   0.2630 
 27 C        3.0640     9.4850     1.9780 C.3   1 <1>   0.2630 
 28 C        5.9730     7.9820    -0.4370 C.ar  1 <1>  -0.1430 
 29 C        7.3540     8.4910    -0.0650 C.3   1 <1>  -0.0970 
 30 H       -1.9720     2.8680     1.8730 H     1 <1>   0.3700 
 31 H        1.5290     2.7650    -0.0090 H     1 <1>   0.0800 
 32 H        2.1220     2.7610     1.6330 H     1 <1>   0.0800 
 33 H       -1.1010     5.2540     2.1690 H     1 <1>   0.0800 
 34 H        0.0830     4.7530    -0.5630 H     1 <1>   0.0800 
 35 H       -2.6770     6.8740     1.5440 H     1 <1>   0.1500 
 36 H       -2.3090     3.3810    -0.8900 H     1 <1>   0.1500 
 37 H       -4.3220     4.1680    -2.0970 H     1 <1>   0.1500 
 38 H       -5.3900     6.2580    -1.4340 H     1 <1>   0.1500 
 39 H        2.0260     5.4770    -1.3310 H     1 <1>   0.0800 
 40 H        1.8500     6.7200    -2.5300 H     1 <1>   0.0800 
 41 H        1.0170     8.8800    -2.0010 H     1 <1>   0.0800 
 42 H       -0.1260     9.0140    -0.7080 H     1 <1>   0.0800 
 43 H        1.6950    10.6520    -0.4270 H     1 <1>   0.0800 
 44 H        2.8690     9.3720    -0.4780 H     1 <1>   0.0800 
 45 H        3.5240     5.9770     0.7260 H     1 <1>   0.1500 
 46 H        3.7120     8.1870    -2.9280 H     1 <1>   0.1500 
 47 H        1.3430     8.4720     1.4140 H     1 <1>   0.4500 
 48 H        5.7460     6.7980     1.3290 H     1 <1>   0.1500 
 49 H        5.9200     9.0170    -2.3050 H     1 <1>   0.1500 
 50 H        1.0620    11.3840     1.7980 H     1 <1>   0.0800 
 51 H        0.6400    10.1490     2.9680 H     1 <1>   0.0800 
 52 H       -0.2190    10.2360     1.4500 H     1 <1>   0.0800 
 53 H        3.4920    10.4690     1.8900 H     1 <1>   0.0800 
 54 H        3.7370     8.7750     1.5270 H     1 <1>   0.0800 
 55 H        2.9600     9.2420     3.0230 H     1 <1>   0.0800 
 56 H        7.4920     8.4790     1.0010 H     1 <1>   0.0800 
 57 H        7.4920     9.4990    -0.4150 H     1 <1>   0.0800 
 58 H        8.1040     7.8650    -0.5160 H     1 <1>   0.0800 
@<TRIPOS>BOND
  1   1   2  2   
  2   2   3  am  
  3   2   4  1   
  4   3   5  1   
  5   3  30  1   
  6   4   6  1   
  7   4  31  1   
  8   4  32  1   
  9   5   7  1   
 10   5   8  1   
 11   5  33  1   
 12   6   8  1   
 13   7   9  ar  
 14   7  10  ar  
 15   8  11  1   
 16   8  34  1   
 17   9  12  ar  
 18   9  35  1   
 19  10  13  ar  
 20  10  36  1   
 21  11  14  2   
 22  11  15  am  
 23  12  16  ar  
 24  13  16  ar  
 25  13  37  1   
 26  15  17  1   
 27  15  18  1   
 28  16  38  1   
 29  17  19  1   
 30  17  39  1   
 31  17  40  1   
 32  18  20  1   
 33  18  41  1   
 34  18  42  1   
 35  19  21  ar  
 36  19  22  ar  
 37  20  23  1   
 38  20  43  1   
 39  20  44  1   
 40  21  24  ar  
 41  21  45  1   
 42  22  25  ar  
 43  22  46  1   
 44  23  26  1   
 45  23  27  1   
 46  23  47  1   
 47  24  28  ar  
 48  24  48  1   
 49  25  28  ar  
 50  25  49  1   
 51  26  50  1   
 52  26  51  1   
 53  26  52  1   
 54  27  53  1   
 55  27  54  1   
 56  27  55  1   
 57  28  29  1   
 58  29  56  1   
 59  29  57  1   
 60  29  58  1   
@<TRIPOS>SUBSTRUCTURE
  1 ****  11 GROUP 4 **** **** 0

# MOE 2024.06 (io_trps.svl 2023.06)
