@<TRIPOS>MOLECULE
NONAME
61 63 1 0 0 
SMALL
USER_CHARGES


@<TRIPOS>ATOM
  1 O       -2.4120     1.8760     1.1110 O.2   1 <1>  -0.5700 
  2 C       -2.1180     0.8280     0.5830 C.2   1 <1>   0.5690 
  3 N       -2.9150    -0.2930     0.7810 N.am  1 <1>  -0.6600 
  4 C       -0.8340     0.9230    -0.2800 C.3   1 <1>   0.4040 
  5 C       -2.6350    -1.7770     0.5830 C.3   1 <1>   0.3640 
  6 C       -4.2750    -0.0940     1.3870 C.3   1 <1>   0.1400 
  7 N        0.3450     1.6270     0.3620 N.4   1 <1>  -0.9590 
  8 C       -1.2480    -1.9950    -0.0140 C.ar  1 <1>  -0.1430 
  9 C       -3.8190    -2.4960    -0.1370 C.3   1 <1>   0.2000 
 10 C       -5.3430    -0.8310     0.5720 C.3   1 <1>   0.1200 
 11 C        1.5610     1.4820    -0.4910 C.3   1 <1>   0.3430 
 12 C        0.5940     1.1450     1.7520 C.3   1 <1>   0.3430 
 13 C       -0.1620    -2.0030     0.8520 C.ar  1 <1>  -0.1500 
 14 C       -1.0230    -2.0900    -1.3840 C.ar  1 <1>  -0.1500 
 15 O       -5.0310    -2.1890     0.5050 O.3   1 <1>  -0.5600 
 16 C       -3.7390    -4.0320    -0.1170 C.3   1 <1>   0.1200 
 17 C        2.7150     2.2890     0.1030 C.3   1 <1>  -0.1600 
 18 C        1.7270     1.9500     2.3870 C.3   1 <1>  -0.1600 
 19 C        1.1350    -2.0110     0.3620 C.ar  1 <1>   0.0830 
 20 C        0.2690    -2.1160    -1.8800 C.ar  1 <1>  -0.1500 
 21 O       -2.7550    -4.4980    -0.9780 O.3   1 <1>  -0.6800 
 22 C        3.0090     1.8650     1.5480 C.3   1 <1>  -0.0800 
 23 O        2.1820    -1.9010     1.2170 O.3   1 <1>  -0.3630 
 24 C        1.3480    -2.0480    -1.0170 C.ar  1 <1>   0.0830 
 25 C        4.1130     2.7370     2.1550 C.3   1 <1>  -0.2400 
 26 C        2.2910    -2.8640     2.2450 C.3   1 <1>   0.0400 
 27 O        2.5850    -1.9670    -1.5580 O.3   1 <1>  -0.3630 
 28 C        3.4200    -3.0930    -1.4000 C.3   1 <1>   0.0400 
 29 H       -1.1020     1.4570    -1.1750 H     1 <1>   0.0800 
 30 H       -0.5060    -0.0370    -0.5920 H     1 <1>   0.0800 
 31 H       -2.6070    -2.2150     1.5660 H     1 <1>   0.0800 
 32 H       -4.2790    -0.4630     2.3980 H     1 <1>   0.0800 
 33 H       -4.5410     0.9490     1.4190 H     1 <1>   0.0800 
 34 H        0.0940     2.6220     0.4420 H     1 <1>   0.4500 
 35 H       -3.9030    -2.1620    -1.1560 H     1 <1>   0.0800 
 36 H       -5.4120    -0.4350    -0.4270 H     1 <1>   0.0800 
 37 H       -6.3030    -0.7400     1.0490 H     1 <1>   0.0800 
 38 H        1.8480     0.4430    -0.5440 H     1 <1>   0.0800 
 39 H        1.3580     1.8280    -1.4920 H     1 <1>   0.0800 
 40 H       -0.2980     1.2540     2.3490 H     1 <1>   0.0800 
 41 H        0.8710     0.1050     1.7350 H     1 <1>   0.0800 
 42 H       -0.3250    -1.9580     1.9140 H     1 <1>   0.1500 
 43 H       -1.8440    -2.1320    -2.0800 H     1 <1>   0.1500 
 44 H       -4.6770    -4.4450    -0.4480 H     1 <1>   0.0800 
 45 H       -3.5180    -4.3890     0.8740 H     1 <1>   0.0800 
 46 H        3.5920     2.1290    -0.5010 H     1 <1>   0.0800 
 47 H        2.4780     3.3380     0.0590 H     1 <1>   0.0800 
 48 H        1.4160     2.9740     2.4990 H     1 <1>   0.0800 
 49 H        1.9180     1.5590     3.3710 H     1 <1>   0.0800 
 50 H        0.4440    -2.1800    -2.9400 H     1 <1>   0.1500 
 51 H       -2.7560    -5.4770    -1.0090 H     1 <1>   0.4000 
 52 H        3.3510     0.8410     1.5430 H     1 <1>   0.0800 
 53 H        3.8170     3.7720     2.1810 H     1 <1>   0.0800 
 54 H        5.0160     2.6550     1.5750 H     1 <1>   0.0800 
 55 H        4.3310     2.4190     3.1600 H     1 <1>   0.0800 
 56 H        3.2660    -2.7710     2.6890 H     1 <1>   0.0800 
 57 H        2.1770    -3.8460     1.8190 H     1 <1>   0.0800 
 58 H        1.5360    -2.6840     2.9870 H     1 <1>   0.0800 
 59 H        4.3000    -2.9460    -2.0010 H     1 <1>   0.0800 
 60 H        2.8910    -3.9690    -1.7310 H     1 <1>   0.0800 
 61 H        3.6970    -3.1870    -0.3660 H     1 <1>   0.0800 
@<TRIPOS>BOND
  1   1   2  2   
  2   2   3  am  
  3   2   4  1   
  4   3   5  1   
  5   3   6  1   
  6   4   7  1   
  7   4  29  1   
  8   4  30  1   
  9   5   8  1   
 10   5   9  1   
 11   5  31  1   
 12   6  10  1   
 13   6  32  1   
 14   6  33  1   
 15   7  11  1   
 16   7  12  1   
 17   7  34  1   
 18   8  13  ar  
 19   8  14  ar  
 20   9  15  1   
 21   9  16  1   
 22   9  35  1   
 23  10  15  1   
 24  10  36  1   
 25  10  37  1   
 26  11  17  1   
 27  11  38  1   
 28  11  39  1   
 29  12  18  1   
 30  12  40  1   
 31  12  41  1   
 32  13  19  ar  
 33  13  42  1   
 34  14  20  ar  
 35  14  43  1   
 36  16  21  1   
 37  16  44  1   
 38  16  45  1   
 39  17  22  1   
 40  17  46  1   
 41  17  47  1   
 42  18  22  1   
 43  18  48  1   
 44  18  49  1   
 45  19  23  1   
 46  19  24  ar  
 47  20  24  ar  
 48  20  50  1   
 49  21  51  1   
 50  22  25  1   
 51  22  52  1   
 52  23  26  1   
 53  24  27  1   
 54  25  53  1   
 55  25  54  1   
 56  25  55  1   
 57  26  56  1   
 58  26  57  1   
 59  26  58  1   
 60  27  28  1   
 61  28  59  1   
 62  28  60  1   
 63  28  61  1   
@<TRIPOS>SUBSTRUCTURE
  1 ****  13 GROUP 4 **** **** 0

# MOE 2024.06 (io_trps.svl 2023.06)
