@<TRIPOS>MOLECULE
NONAME
51 54 1 0 0 
SMALL
USER_CHARGES


@<TRIPOS>ATOM
  1 O       -0.6120     0.0720     1.5160 O.2   1 <1>  -0.5700 
  2 C       -1.5590     0.7740     1.2100 C.2   1 <1>   0.7160 
  3 N       -2.7400     0.1640     0.8470 N.am  1 <1>  -0.6600 
  4 C       -1.4300     2.2110     1.2080 C.2   1 <1>  -0.0860 
  5 C       -3.7920     0.8230     0.0270 C.3   1 <1>   0.1400 
  6 C       -2.8750    -1.3140     0.7550 C.3   1 <1>   0.1400 
  7 C       -0.4750     3.0350     0.6870 C.2   1 <1>  -0.3320 
  8 C       -2.3300     3.1000     1.7970 C.2   1 <1>   0.1390 
  9 C       -4.8000    -0.2850    -0.2750 C.3   1 <1>   0.2000 
 10 C       -3.9410    -1.5540    -0.3220 C.3   1 <1>  -0.0800 
 11 N       -0.8390     4.3040     0.9610 N.pl3 1 <1>   0.3140 
 12 C        0.7870     2.6410    -0.0670 C.3   1 <1>  -0.0600 
 13 N       -1.9960     4.3400     1.6450 N.2   1 <1>  -0.7070 
 14 O       -5.6880    -0.3600     0.7890 O.3   1 <1>  -0.6800 
 15 C       -4.7270    -2.8720    -0.1490 C.3   1 <1>  -0.0170 
 16 C       -0.1240     5.5520     0.6160 C.3   1 <1>   0.0960 
 17 C       -3.9330    -4.1730    -0.3190 C.ar  1 <1>  -0.1440 
 18 C       -0.5530     6.0740    -0.7620 C.3   1 <1>  -0.2400 
 19 C       -4.5290    -5.4100     0.0350 C.ar  1 <1>   0.0000 
 20 C       -2.6580    -4.2230    -0.8130 C.ar  1 <1>  -0.1500 
 21 C       -3.7580    -6.5890    -0.1170 C.ar  1 <1>   0.3100 
 22 C       -5.8500    -5.5490     0.5260 C.ar  1 <1>  -0.1500 
 23 C       -1.9860    -5.4450    -0.9290 C.ar  1 <1>   0.1600 
 24 N       -2.4910    -6.5890    -0.5980 N.ar  1 <1>  -0.6200 
 25 C       -4.3220    -7.8250     0.2380 C.ar  1 <1>  -0.1500 
 26 C       -6.3710    -6.7690     0.8610 C.ar  1 <1>  -0.1500 
 27 C       -5.5990    -7.9240     0.7190 C.ar  1 <1>  -0.1500 
 28 H       -4.2580     1.6440     0.5440 H     1 <1>   0.0800 
 29 H       -3.3510     1.1800    -0.8890 H     1 <1>   0.0800 
 30 H       -1.9370    -1.7740     0.4960 H     1 <1>   0.0800 
 31 H       -3.2000    -1.6940     1.7090 H     1 <1>   0.0800 
 32 H       -3.2140     2.7920     2.3280 H     1 <1>   0.1500 
 33 H       -5.3610    -0.1130    -1.1770 H     1 <1>   0.0800 
 34 H       -3.4540    -1.5630    -1.2800 H     1 <1>   0.0800 
 35 H        0.8400     1.5730    -0.1830 H     1 <1>   0.0800 
 36 H        1.6580     2.9620     0.4770 H     1 <1>   0.0800 
 37 H        0.7970     3.0890    -1.0440 H     1 <1>   0.0800 
 38 H       -5.1810    -0.3520     1.6260 H     1 <1>   0.4000 
 39 H       -5.5370    -2.8800    -0.8570 H     1 <1>   0.0800 
 40 H       -5.1600    -2.8720     0.8350 H     1 <1>   0.0800 
 41 H       -0.3510     6.2830     1.3700 H     1 <1>   0.0800 
 42 H        0.9320     5.3620     0.6330 H     1 <1>   0.0800 
 43 H       -1.6100     6.2740    -0.7640 H     1 <1>   0.0800 
 44 H       -0.3250     5.3530    -1.5260 H     1 <1>   0.0800 
 45 H       -0.0310     6.9880    -0.9840 H     1 <1>   0.0800 
 46 H       -2.1200    -3.3510    -1.1310 H     1 <1>   0.1500 
 47 H       -6.4690    -4.6790     0.6390 H     1 <1>   0.1500 
 48 H       -0.9820    -5.4310    -1.3180 H     1 <1>   0.1500 
 49 H       -3.7100    -8.6990     0.1170 H     1 <1>   0.1500 
 50 H       -7.3770    -6.8550     1.2350 H     1 <1>   0.1500 
 51 H       -6.0190    -8.8780     0.9870 H     1 <1>   0.1500 
@<TRIPOS>BOND
  1   1   2  2   
  2   2   3  am  
  3   2   4  1   
  4   3   5  1   
  5   3   6  1   
  6   4   7  2   
  7   4   8  1   
  8   5   9  1   
  9   5  28  1   
 10   5  29  1   
 11   6  10  1   
 12   6  30  1   
 13   6  31  1   
 14   7  11  1   
 15   7  12  1   
 16   8  13  2   
 17   8  32  1   
 18   9  10  1   
 19   9  14  1   
 20   9  33  1   
 21  10  15  1   
 22  10  34  1   
 23  11  13  1   
 24  11  16  1   
 25  12  35  1   
 26  12  36  1   
 27  12  37  1   
 28  14  38  1   
 29  15  17  1   
 30  15  39  1   
 31  15  40  1   
 32  16  18  1   
 33  16  41  1   
 34  16  42  1   
 35  17  19  ar  
 36  17  20  ar  
 37  18  43  1   
 38  18  44  1   
 39  18  45  1   
 40  19  21  ar  
 41  19  22  ar  
 42  20  23  ar  
 43  20  46  1   
 44  21  24  ar  
 45  21  25  ar  
 46  22  26  ar  
 47  22  47  1   
 48  23  24  ar  
 49  23  48  1   
 50  25  27  ar  
 51  25  49  1   
 52  26  27  ar  
 53  26  50  1   
 54  27  51  1   
@<TRIPOS>SUBSTRUCTURE
  1 ****   6 GROUP 4 **** **** 0

# MOE 2024.06 (io_trps.svl 2023.06)
