@<TRIPOS>MOLECULE
NONAME
44 46 1 0 0 
SMALL
USER_CHARGES


@<TRIPOS>ATOM
  1 S        0.3050     0.3680     0.3840 S.o2  1 <1>   1.3330 
  2 O        0.3680    -1.0390     0.7140 O.2   1 <1>  -0.6500 
  3 O       -0.0410     1.3240     1.4110 O.2   1 <1>  -0.6500 
  4 N       -0.7880     0.5480    -0.9030 N.am  1 <1>  -0.8490 
  5 C        1.8690     0.8630    -0.3340 C.3   1 <1>  -0.0550 
  6 C       -0.7990    -0.5920    -1.8250 C.3   1 <1>   0.1160 
  7 C       -2.1490     0.8310    -0.4400 C.3   1 <1>   0.1160 
  8 C        3.0200     0.8830     0.6850 C.3   1 <1>  -0.0800 
  9 C        4.3300     1.3340     0.0660 C.3   1 <1>   0.2200 
 10 C        3.3890    -0.4710     1.2770 C.3   1 <1>   0.1200 
 11 N        4.4740     2.7980     0.2170 N.am  1 <1>  -0.7300 
 12 C        5.3930     0.5390     0.8270 C.3   1 <1>   0.1200 
 13 O        4.7110    -0.3280     1.6840 O.3   1 <1>  -0.5600 
 14 C        4.1490     3.7090    -0.7480 C.2   1 <1>   0.5440 
 15 O        3.8470     3.2910    -1.8490 O.2   1 <1>  -0.5700 
 16 C        4.1530     5.1310    -0.4620 C.ar  1 <1>   0.0860 
 17 C        3.9760     5.6190     0.8270 C.ar  1 <1>  -0.1500 
 18 C        4.3330     6.0680    -1.5030 C.ar  1 <1>  -0.1500 
 19 C        3.9920     6.9850     1.0700 C.ar  1 <1>   0.2270 
 20 C        4.3470     7.4250    -1.2760 C.ar  1 <1>  -0.1500 
 21 N        3.8450     7.6500     2.2490 N.2   1 <1>  -0.5650 
 22 C        4.1760     7.8770     0.0320 C.ar  1 <1>  -0.1520 
 23 C        3.9360     8.8930     1.9260 C.2   1 <1>   0.0360 
 24 N        4.1370     9.1060     0.6000 N.pl3 1 <1>   0.0330 
 25 H        2.1180     0.2030    -1.1410 H     1 <1>   0.0800 
 26 H        1.7600     1.8490    -0.7430 H     1 <1>   0.0800 
 27 H       -1.4410    -0.3820    -2.6640 H     1 <1>   0.0800 
 28 H       -1.1530    -1.4790    -1.3250 H     1 <1>   0.0800 
 29 H        0.1940    -0.7780    -2.1980 H     1 <1>   0.0800 
 30 H       -2.8110     0.9570    -1.2800 H     1 <1>   0.0800 
 31 H       -2.1600     1.7430     0.1340 H     1 <1>   0.0800 
 32 H       -2.5090     0.0270     0.1800 H     1 <1>   0.0800 
 33 H        2.7590     1.5310     1.5050 H     1 <1>   0.0800 
 34 H        4.3810     1.0610    -0.9760 H     1 <1>   0.0800 
 35 H        3.3480    -1.2550     0.5400 H     1 <1>   0.0800 
 36 H        2.7820    -0.7320     2.1280 H     1 <1>   0.0800 
 37 H        4.7080     3.1210     1.1570 H     1 <1>   0.3700 
 38 H        6.0310     1.1690     1.4200 H     1 <1>   0.0800 
 39 H        5.9830    -0.0560     0.1520 H     1 <1>   0.0800 
 40 H        3.8130     4.9690     1.6640 H     1 <1>   0.1500 
 41 H        4.4600     5.6920    -2.5050 H     1 <1>   0.1500 
 42 H        4.4850     8.1250    -2.0830 H     1 <1>   0.1500 
 43 H        3.8630     9.7080     2.6250 H     1 <1>   0.1500 
 44 H        4.2360    10.0070     0.1250 H     1 <1>   0.2700 
@<TRIPOS>BOND
  1   1   2  2   
  2   1   3  2   
  3   1   4  am  
  4   1   5  1   
  5   4   6  1   
  6   4   7  1   
  7   5   8  1   
  8   5  25  1   
  9   5  26  1   
 10   6  27  1   
 11   6  28  1   
 12   6  29  1   
 13   7  30  1   
 14   7  31  1   
 15   7  32  1   
 16   8   9  1   
 17   8  10  1   
 18   8  33  1   
 19   9  11  1   
 20   9  12  1   
 21   9  34  1   
 22  10  13  1   
 23  10  35  1   
 24  10  36  1   
 25  11  14  am  
 26  11  37  1   
 27  12  13  1   
 28  12  38  1   
 29  12  39  1   
 30  14  15  2   
 31  14  16  1   
 32  16  17  ar  
 33  16  18  ar  
 34  17  19  ar  
 35  17  40  1   
 36  18  20  ar  
 37  18  41  1   
 38  19  21  1   
 39  19  22  ar  
 40  20  22  ar  
 41  20  42  1   
 42  21  23  2   
 43  22  24  1   
 44  23  24  1   
 45  23  43  1   
 46  24  44  1   
@<TRIPOS>SUBSTRUCTURE
  1 ****  14 GROUP 4 **** **** 0

# MOE 2024.06 (io_trps.svl 2023.06)
