@<TRIPOS>MOLECULE
NONAME
42 45 1 0 0 
SMALL
USER_CHARGES


@<TRIPOS>ATOM
  1 S       -0.0290     2.1170     1.0230 S.3   1 <1>  -0.0800 
  2 C        1.5450     2.0510     0.2590 C.ar  1 <1>   0.0400 
  3 C       -0.1710     0.3730     0.8350 C.2   1 <1>   0.2280 
  4 C        1.8070     0.7330    -0.0620 C.ar  1 <1>   0.2270 
  5 C        2.4140     3.0910    -0.0050 C.ar  1 <1>  -0.1500 
  6 N        0.8230    -0.1890     0.2760 N.2   1 <1>  -0.5650 
  7 C        3.0120     0.4490    -0.6860 C.ar  1 <1>  -0.1500 
  8 C        3.6340     2.8150    -0.6280 C.ar  1 <1>   0.0860 
  9 C        3.9020     1.4750    -0.9610 C.ar  1 <1>  -0.1500 
 10 C        4.5950     3.8660    -0.9250 C.2   1 <1>   0.5440 
 11 O        5.5990     3.6580    -1.5820 O.2   1 <1>  -0.5700 
 12 N        4.4500     5.1410    -0.4450 N.am  1 <1>  -0.6600 
 13 C        5.0550     5.4410     0.9010 C.3   1 <1>   0.2200 
 14 C        4.2980     6.2460    -1.4410 C.3   1 <1>   0.1400 
 15 C        4.4300     6.6730     1.5760 C.3   1 <1>   0.1200 
 16 C        6.5980     5.5880     0.8150 C.3   1 <1>   0.3430 
 17 C        5.2030     7.4710    -1.2090 C.3   1 <1>  -0.0800 
 18 O        5.0850     7.8390     1.1770 O.3   1 <1>  -0.5600 
 19 N        7.0890     5.8420    -0.5840 N.4   1 <1>  -0.9590 
 20 C        4.7060     8.3540    -0.0550 C.3   1 <1>   0.1200 
 21 C        6.7190     7.1870    -1.1250 C.3   1 <1>   0.3430 
 22 C        8.5480     5.5760    -0.7120 C.3   1 <1>   0.2630 
 23 H       -1.0760    -0.0800     1.2020 H     1 <1>   0.1500 
 24 H        2.1380     4.0930     0.2670 H     1 <1>   0.1500 
 25 H        3.2330    -0.5700    -0.9470 H     1 <1>   0.1500 
 26 H        4.8320     1.2370    -1.4490 H     1 <1>   0.1500 
 27 H        4.8430     4.6050     1.5450 H     1 <1>   0.0800 
 28 H        4.4980     5.8550    -2.4260 H     1 <1>   0.0800 
 29 H        3.2690     6.5630    -1.4380 H     1 <1>   0.0800 
 30 H        4.5660     6.5980     2.6410 H     1 <1>   0.0800 
 31 H        3.3740     6.7490     1.3770 H     1 <1>   0.0800 
 32 H        7.0320     4.6690     1.1730 H     1 <1>   0.0800 
 33 H        6.9240     6.3770     1.4720 H     1 <1>   0.0800 
 34 H        5.0750     8.0850    -2.0820 H     1 <1>   0.0800 
 35 H        6.5770     5.1310    -1.1570 H     1 <1>   0.4500 
 36 H        3.6340     8.4730    -0.0730 H     1 <1>   0.0800 
 37 H        5.1480     9.3330    -0.1290 H     1 <1>   0.0800 
 38 H        7.1830     7.9550    -0.5270 H     1 <1>   0.0800 
 39 H        7.1230     7.2670    -2.1210 H     1 <1>   0.0800 
 40 H        9.1100     6.2690    -0.1070 H     1 <1>   0.0800 
 41 H        8.8570     5.6810    -1.7400 H     1 <1>   0.0800 
 42 H        8.7730     4.5720    -0.3920 H     1 <1>   0.0800 
@<TRIPOS>BOND
  1   1   2  1   
  2   1   3  1   
  3   2   4  ar  
  4   2   5  ar  
  5   3   6  2   
  6   3  23  1   
  7   4   6  1   
  8   4   7  ar  
  9   5   8  ar  
 10   5  24  1   
 11   7   9  ar  
 12   7  25  1   
 13   8   9  ar  
 14   8  10  1   
 15   9  26  1   
 16  10  11  2   
 17  10  12  am  
 18  12  13  1   
 19  12  14  1   
 20  13  15  1   
 21  13  16  1   
 22  13  27  1   
 23  14  17  1   
 24  14  28  1   
 25  14  29  1   
 26  15  18  1   
 27  15  30  1   
 28  15  31  1   
 29  16  19  1   
 30  16  32  1   
 31  16  33  1   
 32  17  20  1   
 33  17  21  1   
 34  17  34  1   
 35  18  20  1   
 36  19  21  1   
 37  19  22  1   
 38  19  35  1   
 39  20  36  1   
 40  20  37  1   
 41  21  38  1   
 42  21  39  1   
 43  22  40  1   
 44  22  41  1   
 45  22  42  1   
@<TRIPOS>SUBSTRUCTURE
  1 ****  10 GROUP 4 **** **** 0

# MOE 2024.06 (io_trps.svl 2023.06)
