@<TRIPOS>MOLECULE
NONAME
46 48 1 0 0 
SMALL
USER_CHARGES


@<TRIPOS>ATOM
  1 CL      -3.8660     0.6480     2.1240 Cl    1 <1>  -0.1240 
  2 C       -3.5900    -0.5430     0.8790 C.2   1 <1>   0.2640 
  3 O       -4.0040    -1.7730     1.0960 O.3   1 <1>  -0.2800 
  4 C       -3.0030    -0.4080    -0.3260 C.2   1 <1>  -0.1500 
  5 C       -3.6870    -2.4730     0.0180 C.2   1 <1>  -0.0400 
  6 C       -3.0690    -1.6880    -0.8980 C.2   1 <1>  -0.1500 
  7 C       -4.0640    -3.9430    -0.0090 C.3   1 <1>   0.5230 
  8 N       -5.4840    -4.0540     0.4240 N.4   1 <1>  -0.9590 
  9 C       -5.8450    -5.4550     0.8380 C.3   1 <1>   0.3430 
 10 C       -6.4090    -3.5080    -0.6140 C.3   1 <1>   0.3430 
 11 C       -7.1610    -5.5550     1.6420 C.3   1 <1>   0.1400 
 12 C       -7.5140    -2.6680     0.0280 C.3   1 <1>  -0.1600 
 13 N       -8.2910    -4.8210     0.9880 N.am  1 <1>  -0.6600 
 14 C       -8.2610    -3.3450     1.1810 C.3   1 <1>   0.1400 
 15 C       -9.3080    -5.3980     0.2680 C.2   1 <1>   0.5690 
 16 O      -10.0990    -4.7220    -0.3430 O.2   1 <1>  -0.5700 
 17 C       -9.4490    -6.9060     0.1960 C.3   1 <1>  -0.0990 
 18 C      -10.5620    -7.3510    -0.7690 C.3   1 <1>   0.0960 
 19 N      -10.6480    -8.8240    -0.8190 N.pl3 1 <1>   0.3140 
 20 N       -9.6120    -9.5830    -1.1070 N.2   1 <1>  -0.4180 
 21 C      -11.6770    -9.6260    -0.5900 C.2   1 <1>   0.0060 
 22 N      -10.0240   -10.7970    -1.0480 N.2   1 <1>   0.0000 
 23 N      -11.3120   -10.8420    -0.7250 N.2   1 <1>  -0.3380 
 24 C      -13.0830    -9.1880    -0.2220 C.3   1 <1>  -0.0600 
 25 H       -2.5740     0.4730    -0.7680 H     1 <1>   0.1500 
 26 H       -2.6860    -1.9390    -1.8740 H     1 <1>   0.1500 
 27 H       -3.4270    -4.4730     0.6800 H     1 <1>   0.0800 
 28 H       -3.9270    -4.3520    -0.9970 H     1 <1>   0.0800 
 29 H       -5.5500    -3.4230     1.2360 H     1 <1>   0.4500 
 30 H       -5.0540    -5.8640     1.4460 H     1 <1>   0.0800 
 31 H       -5.9310    -6.0750    -0.0380 H     1 <1>   0.0800 
 32 H       -6.8560    -4.3180    -1.1690 H     1 <1>   0.0800 
 33 H       -5.8690    -2.8860    -1.3100 H     1 <1>   0.0800 
 34 H       -7.0060    -5.1550     2.6300 H     1 <1>   0.0800 
 35 H       -7.4100    -6.5940     1.7720 H     1 <1>   0.0800 
 36 H       -8.2330    -2.4360    -0.7380 H     1 <1>   0.0800 
 37 H       -7.1120    -1.7280     0.3640 H     1 <1>   0.0800 
 38 H       -9.2670    -2.9600     1.2340 H     1 <1>   0.0800 
 39 H       -7.7840    -3.1120     2.1180 H     1 <1>   0.0800 
 40 H       -9.6680    -7.2760     1.1810 H     1 <1>   0.0800 
 41 H       -8.5160    -7.3190    -0.1390 H     1 <1>   0.0800 
 42 H      -10.3560    -6.9930    -1.7610 H     1 <1>   0.0800 
 43 H      -11.5070    -6.9490    -0.4520 H     1 <1>   0.0800 
 44 H      -13.0730    -8.6420     0.7030 H     1 <1>   0.0800 
 45 H      -13.7130   -10.0520    -0.1020 H     1 <1>   0.0800 
 46 H      -13.4960    -8.5710    -0.9990 H     1 <1>   0.0800 
@<TRIPOS>BOND
  1   1   2  1   
  2   2   3  1   
  3   2   4  2   
  4   3   5  1   
  5   4   6  1   
  6   4  25  1   
  7   5   6  2   
  8   5   7  1   
  9   6  26  1   
 10   7   8  1   
 11   7  27  1   
 12   7  28  1   
 13   8   9  1   
 14   8  10  1   
 15   8  29  1   
 16   9  11  1   
 17   9  30  1   
 18   9  31  1   
 19  10  12  1   
 20  10  32  1   
 21  10  33  1   
 22  11  13  1   
 23  11  34  1   
 24  11  35  1   
 25  12  14  1   
 26  12  36  1   
 27  12  37  1   
 28  13  14  1   
 29  13  15  am  
 30  14  38  1   
 31  14  39  1   
 32  15  16  2   
 33  15  17  1   
 34  17  18  1   
 35  17  40  1   
 36  17  41  1   
 37  18  19  1   
 38  18  42  1   
 39  18  43  1   
 40  19  20  1   
 41  19  21  1   
 42  20  22  2   
 43  21  23  2   
 44  21  24  1   
 45  22  23  1   
 46  24  44  1   
 47  24  45  1   
 48  24  46  1   
@<TRIPOS>SUBSTRUCTURE
  1 ****  13 GROUP 4 **** **** 0

# MOE 2024.06 (io_trps.svl 2023.06)
