@<TRIPOS>MOLECULE
NONAME
48 51 1 0 0 
SMALL
USER_CHARGES


@<TRIPOS>ATOM
  1 S       -0.2480    -0.1060    -1.9440 S.o2  1 <1>   1.4470 
  2 O        0.1690     1.1310    -2.5700 O.2   1 <1>  -0.6500 
  3 O       -0.6020    -1.2400    -2.7690 O.2   1 <1>  -0.6500 
  4 N       -1.5850     0.2510    -0.9640 N.am  1 <1>  -0.8490 
  5 C        1.0050    -0.6300    -0.7410 C.ar  1 <1>  -0.0090 
  6 C       -2.8190     0.3350    -1.7540 C.3   1 <1>   0.1960 
  7 C       -1.3910     1.4860    -0.1970 C.3   1 <1>   0.1960 
  8 C        2.2890    -0.0960    -0.7620 C.ar  1 <1>  -0.1500 
  9 C        0.7070    -1.5810     0.2300 C.ar  1 <1>  -0.1500 
 10 C       -4.0230     0.4760    -0.8220 C.3   1 <1>  -0.1600 
 11 C       -2.5350     1.6560     0.8020 C.3   1 <1>  -0.1600 
 12 C        3.2500    -0.4870     0.1580 C.ar  1 <1>   0.1170 
 13 C        1.6530    -1.9830     1.1580 C.ar  1 <1>  -0.1500 
 14 C       -3.8850     1.7000     0.0820 C.3   1 <1>   0.4180 
 15 N        4.5350     0.0570     0.1480 N.am  1 <1>  -0.5470 
 16 C        2.9230    -1.4400     1.1250 C.ar  1 <1>   0.0830 
 17 O       -3.9220     2.8190    -0.7690 O.3   1 <1>  -0.5600 
 18 C       -5.0430     1.7460     1.0760 C.2   1 <1>  -0.2880 
 19 C        5.5140    -0.3870     0.9710 C.2   1 <1>   0.5690 
 20 O        3.8260    -1.8480     2.0600 O.3   1 <1>  -0.3630 
 21 C       -4.2440     4.0570    -0.1990 C.3   1 <1>   0.1200 
 22 C       -5.8690     2.7850     1.2160 C.2   1 <1>  -0.2760 
 23 O        6.6000     0.1360     0.9840 O.2   1 <1>  -0.5700 
 24 C        5.2210    -1.5910     1.8660 C.3   1 <1>   0.1810 
 25 C       -5.6660     4.0340     0.3780 C.3   1 <1>  -0.0220 
 26 C       -7.0480     2.8260     2.1730 C.3   1 <1>  -0.1020 
 27 H       -2.9420    -0.5620    -2.3390 H     1 <1>   0.0800 
 28 H       -2.7680     1.1730    -2.4310 H     1 <1>   0.0800 
 29 H       -1.3540     2.3350    -0.8620 H     1 <1>   0.0800 
 30 H       -0.4610     1.4410     0.3430 H     1 <1>   0.0800 
 31 H        2.5410     0.6370    -1.5080 H     1 <1>   0.1500 
 32 H       -0.2820    -2.0090     0.2580 H     1 <1>   0.1500 
 33 H       -4.0990    -0.4120    -0.2220 H     1 <1>   0.0800 
 34 H       -4.9260     0.5620    -1.3980 H     1 <1>   0.0800 
 35 H       -2.3930     2.5460     1.3840 H     1 <1>   0.0800 
 36 H       -2.5220     0.8240     1.4830 H     1 <1>   0.0800 
 37 H        1.4090    -2.7160     1.9070 H     1 <1>   0.1500 
 38 H        4.7730     0.8390    -0.4630 H     1 <1>   0.3700 
 39 H       -5.1330     0.8430     1.6520 H     1 <1>   0.1500 
 40 H       -4.1650     4.8050    -0.9680 H     1 <1>   0.0800 
 41 H       -3.5290     4.2780     0.5730 H     1 <1>   0.0800 
 42 H        5.6610    -1.4360     2.8330 H     1 <1>   0.0800 
 43 H        5.6530    -2.4690     1.4230 H     1 <1>   0.0800 
 44 H       -6.3830     4.0560    -0.4230 H     1 <1>   0.0800 
 45 H       -5.8050     4.9140     0.9790 H     1 <1>   0.0800 
 46 H       -6.9250     3.6250     2.8820 H     1 <1>   0.0800 
 47 H       -7.1280     1.8990     2.7130 H     1 <1>   0.0800 
 48 H       -7.9610     2.9810     1.6270 H     1 <1>   0.0800 
@<TRIPOS>BOND
  1   1   2  2   
  2   1   3  2   
  3   1   4  am  
  4   1   5  1   
  5   4   6  1   
  6   4   7  1   
  7   5   8  ar  
  8   5   9  ar  
  9   6  10  1   
 10   6  27  1   
 11   6  28  1   
 12   7  11  1   
 13   7  29  1   
 14   7  30  1   
 15   8  12  ar  
 16   8  31  1   
 17   9  13  ar  
 18   9  32  1   
 19  10  14  1   
 20  10  33  1   
 21  10  34  1   
 22  11  14  1   
 23  11  35  1   
 24  11  36  1   
 25  12  15  1   
 26  12  16  ar  
 27  13  16  ar  
 28  13  37  1   
 29  14  17  1   
 30  14  18  1   
 31  15  19  am  
 32  15  38  1   
 33  16  20  1   
 34  17  21  1   
 35  18  22  2   
 36  18  39  1   
 37  19  23  2   
 38  19  24  1   
 39  20  24  1   
 40  21  25  1   
 41  21  40  1   
 42  21  41  1   
 43  22  25  1   
 44  22  26  1   
 45  24  42  1   
 46  24  43  1   
 47  25  44  1   
 48  25  45  1   
 49  26  46  1   
 50  26  47  1   
 51  26  48  1   
@<TRIPOS>SUBSTRUCTURE
  1 ****   7 GROUP 4 **** **** 0

# MOE 2024.06 (io_trps.svl 2023.06)
