@<TRIPOS>MOLECULE
NONAME
57 61 1 0 0 
SMALL
USER_CHARGES


@<TRIPOS>ATOM
  1 O       -0.4810     3.2040     2.0480 O.2   1 <1>  -0.5700 
  2 C       -0.2770     3.3800     0.8620 C.2   1 <1>   0.5440 
  3 N       -1.3380     3.3740    -0.0210 N.am  1 <1>  -0.6600 
  4 C        1.0780     3.6240     0.4240 C.ar  1 <1>   0.0860 
  5 C       -2.7550     3.2230     0.4410 C.3   1 <1>   0.1400 
  6 C       -1.2170     3.6090    -1.4860 C.3   1 <1>   0.1400 
  7 C        1.8300     2.6630    -0.2900 C.ar  1 <1>   0.0000 
  8 C        1.6910     4.8190     0.6830 C.ar  1 <1>  -0.1500 
  9 C       -3.4580     2.0500    -0.2870 C.3   1 <1>   0.0000 
 10 C       -1.8630     2.4460    -2.2460 C.3   1 <1>  -0.1600 
 11 C        3.1180     3.0330    -0.7290 C.ar  1 <1>   0.3100 
 12 C        1.3640     1.3640    -0.5860 C.ar  1 <1>  -0.1500 
 13 C        2.9910     5.1000     0.2380 C.ar  1 <1>   0.3100 
 14 C       -4.9340     1.9370     0.1330 C.3   1 <1>   0.2000 
 15 C       -3.3230     2.2290    -1.8160 C.3   1 <1>  -0.1600 
 16 C       -2.8930     0.7040     0.2010 C.3   1 <1>  -0.1600 
 17 N        3.6730     4.2370    -0.4690 N.ar  1 <1>  -0.6200 
 18 C        3.8680     2.1050    -1.4700 C.ar  1 <1>  -0.1500 
 19 C        2.1210     0.4800    -1.3060 C.ar  1 <1>  -0.1500 
 20 C        3.5940     6.3780     0.5530 C.ar  1 <1>   0.0000 
 21 O       -5.5310     3.1950     0.2420 O.3   1 <1>  -0.5600 
 22 C       -4.9300     1.2000     1.4750 C.3   1 <1>  -0.1600 
 23 C       -3.6190     0.4030     1.5170 C.3   1 <1>  -0.1600 
 24 C        3.3880     0.8550    -1.7590 C.ar  1 <1>  -0.1500 
 25 C        4.3440     7.0680    -0.3990 C.ar  1 <1>   0.1600 
 26 C        3.4600     6.9750     1.8010 C.ar  1 <1>  -0.1500 
 27 C       -6.9210     3.1810     0.3210 C.3   1 <1>   0.0400 
 28 N        4.9210     8.2480    -0.2300 N.ar  1 <1>  -0.6200 
 29 C        4.0560     8.2010     2.0010 C.ar  1 <1>  -0.1500 
 30 C        4.7640     8.7880     0.9670 C.ar  1 <1>   0.1600 
 31 H       -2.7950     3.0720     1.5050 H     1 <1>   0.0800 
 32 H       -3.2730     4.1410     0.2300 H     1 <1>   0.0800 
 33 H       -1.7230     4.5270    -1.7320 H     1 <1>   0.0800 
 34 H       -0.1890     3.7080    -1.7840 H     1 <1>   0.0800 
 35 H        1.1580     5.5710     1.2360 H     1 <1>   0.1500 
 36 H       -1.8290     2.6550    -3.3010 H     1 <1>   0.0800 
 37 H       -1.2920     1.5520    -2.0750 H     1 <1>   0.0800 
 38 H        0.3940     1.0650    -0.2320 H     1 <1>   0.1500 
 39 H       -5.4670     1.3570    -0.6020 H     1 <1>   0.0800 
 40 H       -3.7280     1.3750    -2.3290 H     1 <1>   0.0800 
 41 H       -3.9010     3.0890    -2.1100 H     1 <1>   0.0800 
 42 H       -3.1290    -0.0690    -0.5100 H     1 <1>   0.0800 
 43 H       -1.8280     0.7280     0.3420 H     1 <1>   0.0800 
 44 H        4.8440     2.4100    -1.8040 H     1 <1>   0.1500 
 45 H        1.7550    -0.5080    -1.5290 H     1 <1>   0.1500 
 46 H       -4.9460     1.9060     2.2870 H     1 <1>   0.0800 
 47 H       -5.7790     0.5440     1.5490 H     1 <1>   0.0800 
 48 H       -3.0190     0.7410     2.3460 H     1 <1>   0.0800 
 49 H       -3.7980    -0.6520     1.6260 H     1 <1>   0.0800 
 50 H        3.9760     0.1540    -2.3270 H     1 <1>   0.1500 
 51 H        4.4700     6.6070    -1.3650 H     1 <1>   0.1500 
 52 H        2.9130     6.4950     2.5930 H     1 <1>   0.1500 
 53 H       -7.2620     4.1990     0.3780 H     1 <1>   0.0800 
 54 H       -7.2260     2.6490     1.2060 H     1 <1>   0.0800 
 55 H       -7.3240     2.7130    -0.5610 H     1 <1>   0.0800 
 56 H        3.9780     8.7000     2.9490 H     1 <1>   0.1500 
 57 H        5.2260     9.7460     1.1320 H     1 <1>   0.1500 
@<TRIPOS>BOND
  1   1   2  2   
  2   2   3  am  
  3   2   4  1   
  4   3   5  1   
  5   3   6  1   
  6   4   7  ar  
  7   4   8  ar  
  8   5   9  1   
  9   5  31  1   
 10   5  32  1   
 11   6  10  1   
 12   6  33  1   
 13   6  34  1   
 14   7  11  ar  
 15   7  12  ar  
 16   8  13  ar  
 17   8  35  1   
 18   9  14  1   
 19   9  15  1   
 20   9  16  1   
 21  10  15  1   
 22  10  36  1   
 23  10  37  1   
 24  11  17  ar  
 25  11  18  ar  
 26  12  19  ar  
 27  12  38  1   
 28  13  17  ar  
 29  13  20  1   
 30  14  21  1   
 31  14  22  1   
 32  14  39  1   
 33  15  40  1   
 34  15  41  1   
 35  16  23  1   
 36  16  42  1   
 37  16  43  1   
 38  18  24  ar  
 39  18  44  1   
 40  19  24  ar  
 41  19  45  1   
 42  20  25  ar  
 43  20  26  ar  
 44  21  27  1   
 45  22  23  1   
 46  22  46  1   
 47  22  47  1   
 48  23  48  1   
 49  23  49  1   
 50  24  50  1   
 51  25  28  ar  
 52  25  51  1   
 53  26  29  ar  
 54  26  52  1   
 55  27  53  1   
 56  27  54  1   
 57  27  55  1   
 58  28  30  ar  
 59  29  30  ar  
 60  29  56  1   
 61  30  57  1   
@<TRIPOS>SUBSTRUCTURE
  1 ****   4 GROUP 4 **** **** 0

# MOE 2024.06 (io_trps.svl 2023.06)
