@<TRIPOS>MOLECULE
Untitled Document
45 47 1 0 0 
SMALL
USER_CHARGES


@<TRIPOS>ATOM
  1 O       -0.4280     0.0820     0.5400 O.2   1 <1>  -0.5700 
  2 C       -1.3480     0.9170     0.5260 C.2   1 <1>   0.6160 
  3 N       -1.1310     2.2610     0.5670 N.am  1 <1>  -0.3400 
  4 C       -2.7270     0.6970     0.3920 C.2   1 <1>  -0.1240 
  5 N       -2.4040     2.8900     0.4180 N.pl3 1 <1>  -0.5200 
  6 C        0.1200     2.8250     0.0040 C.3   1 <1>   0.2200 
  7 C       -3.3490     1.9150     0.3360 C.2   1 <1>   0.0720 
  8 C       -3.3650    -0.6820     0.3090 C.3   1 <1>  -0.0220 
  9 C        1.1680     2.9100     1.1160 C.3   1 <1>  -0.1600 
 10 C       -0.0850     4.2010    -0.6410 C.3   1 <1>  -0.1600 
 11 C       -4.7570     2.2260     0.2510 C.ar  1 <1>   0.0280 
 12 C       -3.3320    -1.3910     1.6650 C.3   1 <1>  -0.2400 
 13 C        2.4770     3.4800     0.5810 C.3   1 <1>   0.3430 
 14 C        1.2420     4.7540    -1.1520 C.3   1 <1>   0.3430 
 15 C       -5.2440     3.0470    -0.7620 C.ar  1 <1>  -0.1500 
 16 C       -5.6650     1.7250     1.1790 C.ar  1 <1>  -0.1500 
 17 N        2.2310     4.8190    -0.0350 N.4   1 <1>  -0.9590 
 18 C       -6.5900     3.3550    -0.8480 C.ar  1 <1>  -0.1500 
 19 C       -7.0120     2.0290     1.0980 C.ar  1 <1>  -0.1500 
 20 C        3.5150     5.4290    -0.4970 C.3   1 <1>   0.2630 
 21 C       -7.4770     2.8450     0.0830 C.ar  1 <1>  -0.1500 
 22 H       -2.6300     3.7450     0.9460 H     1 <1>   0.4000 
 23 H        0.4760     2.1440    -0.7530 H     1 <1>   0.0800 
 24 H       -2.8310    -1.2730    -0.4160 H     1 <1>   0.0800 
 25 H       -4.3830    -0.5930    -0.0270 H     1 <1>   0.0800 
 26 H        1.3570     1.9230     1.5020 H     1 <1>   0.0800 
 27 H        0.8070     3.5200     1.9250 H     1 <1>   0.0800 
 28 H       -0.5100     4.8900     0.0670 H     1 <1>   0.0800 
 29 H       -0.7630     4.1060    -1.4710 H     1 <1>   0.0800 
 30 H       -2.3140    -1.5340     1.9850 H     1 <1>   0.0800 
 31 H       -3.8050    -2.3540     1.5890 H     1 <1>   0.0800 
 32 H       -3.8490    -0.8100     2.4080 H     1 <1>   0.0800 
 33 H        2.8860     2.8070    -0.1560 H     1 <1>   0.0800 
 34 H        3.1860     3.5670     1.3890 H     1 <1>   0.0800 
 35 H        1.0850     5.7380    -1.5650 H     1 <1>   0.0800 
 36 H        1.6190     4.1150    -1.9360 H     1 <1>   0.0800 
 37 H       -4.5590     3.4420    -1.4900 H     1 <1>   0.1500 
 38 H       -5.3110     1.0950     1.9750 H     1 <1>   0.1500 
 39 H        1.8310     5.4240     0.6980 H     1 <1>   0.4500 
 40 H       -6.9490     3.9900    -1.6400 H     1 <1>   0.1500 
 41 H       -7.7000     1.6310     1.8250 H     1 <1>   0.1500 
 42 H        3.9660     4.8210    -1.2640 H     1 <1>   0.0800 
 43 H        4.2070     5.5140     0.3260 H     1 <1>   0.0800 
 44 H        3.3390     6.4150    -0.8970 H     1 <1>   0.0800 
 45 H       -8.5250     3.0830     0.0170 H     1 <1>   0.1500 
@<TRIPOS>BOND
  1   1   2  2   
  2   2   3  am  
  3   2   4  1   
  4   3   5  1   
  5   3   6  1   
  6   4   7  2   
  7   4   8  1   
  8   5   7  1   
  9   5  22  1   
 10   6   9  1   
 11   6  10  1   
 12   6  23  1   
 13   7  11  1   
 14   8  12  1   
 15   8  24  1   
 16   8  25  1   
 17   9  13  1   
 18   9  26  1   
 19   9  27  1   
 20  10  14  1   
 21  10  28  1   
 22  10  29  1   
 23  11  15  ar  
 24  11  16  ar  
 25  12  30  1   
 26  12  31  1   
 27  12  32  1   
 28  13  17  1   
 29  13  33  1   
 30  13  34  1   
 31  14  17  1   
 32  14  35  1   
 33  14  36  1   
 34  15  18  ar  
 35  15  37  1   
 36  16  19  ar  
 37  16  38  1   
 38  17  20  1   
 39  17  39  1   
 40  18  21  ar  
 41  18  40  1   
 42  19  21  ar  
 43  19  41  1   
 44  20  42  1   
 45  20  43  1   
 46  20  44  1   
 47  21  45  1   
@<TRIPOS>SUBSTRUCTURE
  1 ****   5 GROUP 4 **** **** 0

# MOE 2024.06 (io_trps.svl 2023.06)
