@<TRIPOS>MOLECULE
NONAME
57 61 1 0 0 
SMALL
USER_CHARGES


@<TRIPOS>ATOM
  1 CL       1.2010     1.1150     2.1360 Cl    1 <1>  -0.1770 
  2 C        0.0320     1.2420     0.8340 C.ar  1 <1>   0.1770 
  3 C        0.3380     1.9750    -0.3200 C.ar  1 <1>   0.4100 
  4 C       -1.1740     0.5980     0.9630 C.ar  1 <1>  -0.1500 
  5 N       -0.5040     2.0690    -1.3420 N.ar  1 <1>  -0.6200 
  6 N        1.5440     2.6540    -0.4610 N.pl3 1 <1>  -0.8380 
  7 C       -2.0590     0.7090    -0.1020 C.ar  1 <1>  -0.1430 
  8 C       -1.6660     1.4450    -1.2100 C.ar  1 <1>   0.1600 
  9 C        2.1920     2.6770    -1.8260 C.3   1 <1>   0.2090 
 10 C        1.6550     3.9550     0.2650 C.3   1 <1>   0.2090 
 11 C       -3.4350     0.0450    -0.1040 C.3   1 <1>   1.1640 
 12 C        3.7020     2.3730    -1.7210 C.3   1 <1>   0.3430 
 13 C        2.9610     4.0230     1.0740 C.3   1 <1>  -0.1600 
 14 F       -3.8530    -0.2790     1.1130 F     1 <1>  -0.3400 
 15 F       -4.3720     0.8260    -0.6250 F     1 <1>  -0.3400 
 16 F       -3.4400    -1.0730    -0.8140 F     1 <1>  -0.3400 
 17 N        4.1180     2.3400    -0.2780 N.4   1 <1>  -0.9590 
 18 C        4.2400     3.7070     0.2910 C.3   1 <1>   0.3430 
 19 C        5.2340     1.4080     0.0250 C.3   1 <1>   0.3430 
 20 C        4.7200     0.1720     0.7880 C.3   1 <1>  -0.0800 
 21 C        3.7210    -0.6390    -0.0530 C.3   1 <1>   0.2000 
 22 C        5.7880    -0.9230     1.0710 C.3   1 <1>  -0.0800 
 23 O        4.6060    -1.4230    -0.7560 O.3   1 <1>  -0.5600 
 24 C        2.9730    -1.6860     0.7850 C.3   1 <1>  -0.1600 
 25 C        5.2220    -2.1010     0.2810 C.3   1 <1>   0.2800 
 26 C        7.2320    -0.7850     0.5370 C.3   1 <1>   0.3430 
 27 C        4.0390    -2.7650     0.9790 C.3   1 <1>  -0.1600 
 28 C        6.4150    -2.9110    -0.2110 C.3   1 <1>   0.3430 
 29 N        7.4490    -1.8700    -0.4690 N.4   1 <1>  -0.9060 
 30 H       -1.4070     0.0370     1.8530 H     1 <1>   0.1500 
 31 H       -2.3440     1.5320    -2.0460 H     1 <1>   0.1500 
 32 H        1.7420     1.9390    -2.4700 H     1 <1>   0.0800 
 33 H        2.0390     3.6350    -2.2930 H     1 <1>   0.0800 
 34 H        1.6130     4.7700    -0.4390 H     1 <1>   0.0800 
 35 H        0.8180     4.0720     0.9350 H     1 <1>   0.0800 
 36 H        4.2700     3.1060    -2.2710 H     1 <1>   0.0800 
 37 H        3.8790     1.4110    -2.1730 H     1 <1>   0.0800 
 38 H        2.8890     3.3640     1.9200 H     1 <1>   0.0800 
 39 H        3.0500     5.0170     1.4730 H     1 <1>   0.0800 
 40 H        3.2390     1.9950     0.1650 H     1 <1>   0.4500 
 41 H        5.0850     3.7610     0.9580 H     1 <1>   0.0800 
 42 H        4.3810     4.4310    -0.4960 H     1 <1>   0.0800 
 43 H        5.7000     1.0950    -0.8950 H     1 <1>   0.0800 
 44 H        5.9720     1.9150     0.6260 H     1 <1>   0.0800 
 45 H        4.2600     0.4950     1.7070 H     1 <1>   0.0800 
 46 H        3.0770    -0.0820    -0.7110 H     1 <1>   0.0800 
 47 H        5.8270    -1.1550     2.1220 H     1 <1>   0.0800 
 48 H        2.6210    -1.2870     1.7200 H     1 <1>   0.0800 
 49 H        2.1330    -2.0730     0.2330 H     1 <1>   0.0800 
 50 H        7.9210    -0.9130     1.3580 H     1 <1>   0.0800 
 51 H        7.4110     0.1800     0.0940 H     1 <1>   0.0800 
 52 H        3.7610    -3.6730     0.4730 H     1 <1>   0.0800 
 53 H        4.2340    -2.9760     2.0160 H     1 <1>   0.0800 
 54 H        6.1670    -3.4780    -1.0940 H     1 <1>   0.0800 
 55 H        6.7440    -3.5780     0.5700 H     1 <1>   0.0800 
 56 H        8.4020    -2.2570    -0.4520 H     1 <1>   0.4500 
 57 H        7.2690    -1.5070    -1.4160 H     1 <1>   0.4500 
@<TRIPOS>BOND
  1   1   2  1   
  2   2   3  ar  
  3   2   4  ar  
  4   3   5  ar  
  5   3   6  1   
  6   4   7  ar  
  7   4  30  1   
  8   5   8  ar  
  9   6   9  1   
 10   6  10  1   
 11   7   8  ar  
 12   7  11  1   
 13   8  31  1   
 14   9  12  1   
 15   9  32  1   
 16   9  33  1   
 17  10  13  1   
 18  10  34  1   
 19  10  35  1   
 20  11  14  1   
 21  11  15  1   
 22  11  16  1   
 23  12  17  1   
 24  12  36  1   
 25  12  37  1   
 26  13  18  1   
 27  13  38  1   
 28  13  39  1   
 29  17  18  1   
 30  17  19  1   
 31  17  40  1   
 32  18  41  1   
 33  18  42  1   
 34  19  20  1   
 35  19  43  1   
 36  19  44  1   
 37  20  21  1   
 38  20  22  1   
 39  20  45  1   
 40  21  23  1   
 41  21  24  1   
 42  21  46  1   
 43  22  25  1   
 44  22  26  1   
 45  22  47  1   
 46  23  25  1   
 47  24  27  1   
 48  24  48  1   
 49  24  49  1   
 50  25  27  1   
 51  25  28  1   
 52  26  29  1   
 53  26  50  1   
 54  26  51  1   
 55  27  52  1   
 56  27  53  1   
 57  28  29  1   
 58  28  54  1   
 59  28  55  1   
 60  29  56  1   
 61  29  57  1   
@<TRIPOS>SUBSTRUCTURE
  1 ****  21 GROUP 4 **** **** 0

# MOE 2024.06 (io_trps.svl 2023.06)
