@<TRIPOS>MOLECULE
NONAME
49 51 1 0 0 
SMALL
USER_CHARGES


@<TRIPOS>ATOM
  1 O       -0.3150     1.9500    -0.2480 O.2   1 <1>  -0.5700 
  2 C       -0.5110     3.1390    -0.2610 C.2   1 <1>   0.5690 
  3 N       -1.3280     3.7130     0.6470 N.am  1 <1>  -0.7300 
  4 C        0.1750     4.0150    -1.3120 C.3   1 <1>   0.1810 
  5 C       -1.7230     5.1400     0.6030 C.3   1 <1>   0.3640 
  6 O       -0.4780     5.2550    -1.5290 O.3   1 <1>  -0.5600 
  7 C       -3.1900     5.2180     0.1860 C.ar  1 <1>  -0.1440 
  8 C       -0.8210     5.9770    -0.3480 C.3   1 <1>   0.2610 
  9 C       -4.1080     5.8470     1.0180 C.ar  1 <1>  -0.1500 
 10 C       -3.6310     4.6810    -1.0170 C.ar  1 <1>  -0.1500 
 11 C        0.4250     6.5400     0.3510 C.2   1 <1>   0.5690 
 12 C       -5.4420     5.9430     0.6600 C.ar  1 <1>   0.0830 
 13 C       -4.9660     4.7580    -1.3760 C.ar  1 <1>  -0.1500 
 14 O        0.4160     6.7190     1.5460 O.2   1 <1>  -0.5700 
 15 N        1.5080     6.8450    -0.4150 N.am  1 <1>  -0.6550 
 16 O       -6.2660     6.6040     1.5100 O.3   1 <1>  -0.3620 
 17 C       -5.8810     5.3720    -0.5390 C.ar  1 <1>   0.0830 
 18 C        2.7970     7.3880     0.0500 C.3   1 <1>   0.2250 
 19 C       -6.8620     7.7860     1.0210 C.3   1 <1>   0.0400 
 20 O       -7.1790     5.3810    -0.9290 O.3   1 <1>  -0.3630 
 21 C        2.6670     8.7470     0.7960 C.3   1 <1>   0.0000 
 22 C        3.5390     8.1500    -1.0830 C.3   1 <1>   0.0000 
 23 C        3.6340     6.3170     0.7560 C.3   1 <1>  -0.2400 
 24 C       -8.0680     4.6100    -0.1520 C.3   1 <1>   0.0400 
 25 C        3.8600     9.2610    -0.0490 C.3   1 <1>   0.0000 
 26 H       -1.8520     3.1050     1.2770 H     1 <1>   0.3700 
 27 H        0.1930     3.4890    -2.2490 H     1 <1>   0.0800 
 28 H        1.1880     4.2030    -1.0060 H     1 <1>   0.0800 
 29 H       -1.6490     5.5360     1.6010 H     1 <1>   0.0800 
 30 H       -1.3910     6.8300    -0.6680 H     1 <1>   0.0800 
 31 H       -3.8010     6.2770     1.9550 H     1 <1>   0.1500 
 32 H       -2.9380     4.1940    -1.6820 H     1 <1>   0.1500 
 33 H       -5.3040     4.3370    -2.3050 H     1 <1>   0.1500 
 34 H        1.4460     6.6680    -1.4200 H     1 <1>   0.3700 
 35 H       -7.3650     8.2720     1.8380 H     1 <1>   0.0800 
 36 H       -7.5720     7.5380     0.2530 H     1 <1>   0.0800 
 37 H       -6.0930     8.4270     0.6270 H     1 <1>   0.0800 
 38 H        1.7560     9.2750     0.5660 H     1 <1>   0.0000 
 39 H        2.8850     8.7000     1.8480 H     1 <1>   0.0000 
 40 H        4.4190     7.6530    -1.4530 H     1 <1>   0.0000 
 41 H        2.8840     8.5040    -1.8610 H     1 <1>   0.0000 
 42 H        4.5820     6.7180     1.0660 H     1 <1>   0.0800 
 43 H        3.8130     5.4890     0.0960 H     1 <1>   0.0800 
 44 H        3.1170     5.9680     1.6320 H     1 <1>   0.0800 
 45 H       -9.0370     4.6460    -0.6150 H     1 <1>   0.0800 
 46 H       -8.1200     5.0180     0.8410 H     1 <1>   0.0800 
 47 H       -7.7100     3.5960    -0.1210 H     1 <1>   0.0800 
 48 H        4.8090     9.1130     0.4380 H     1 <1>   0.0000 
 49 H        3.7250    10.2580    -0.4290 H     1 <1>   0.0000 
@<TRIPOS>BOND
  1   1   2  2   
  2   2   3  am  
  3   2   4  1   
  4   3   5  1   
  5   3  26  1   
  6   4   6  1   
  7   4  27  1   
  8   4  28  1   
  9   5   7  1   
 10   5   8  1   
 11   5  29  1   
 12   6   8  1   
 13   7   9  ar  
 14   7  10  ar  
 15   8  11  1   
 16   8  30  1   
 17   9  12  ar  
 18   9  31  1   
 19  10  13  ar  
 20  10  32  1   
 21  11  14  2   
 22  11  15  am  
 23  12  16  1   
 24  12  17  ar  
 25  13  17  ar  
 26  13  33  1   
 27  15  18  1   
 28  15  34  1   
 29  16  19  1   
 30  17  20  1   
 31  18  21  1   
 32  18  22  1   
 33  18  23  1   
 34  19  35  1   
 35  19  36  1   
 36  19  37  1   
 37  20  24  1   
 38  21  25  1   
 39  21  38  1   
 40  21  39  1   
 41  22  25  1   
 42  22  40  1   
 43  22  41  1   
 44  23  42  1   
 45  23  43  1   
 46  23  44  1   
 47  24  45  1   
 48  24  46  1   
 49  24  47  1   
 50  25  48  1   
 51  25  49  1   
@<TRIPOS>SUBSTRUCTURE
  1 ****   5 GROUP 4 **** **** 0

# MOE 2024.06 (io_trps.svl 2023.06)
