@<TRIPOS>MOLECULE
NONAME
45 46 1 0 0 
SMALL
USER_CHARGES


@<TRIPOS>ATOM
  1 S        0.2610     0.1070    -0.6650 S.o2  1 <1>   1.3330 
  2 O        0.2740    -1.3350    -0.5820 O.2   1 <1>  -0.6500 
  3 O       -0.0410     0.7470    -1.9250 O.2   1 <1>  -0.6500 
  4 N       -0.8360     0.6850     0.4940 N.am  1 <1>  -0.8490 
  5 C        1.8230     0.7840    -0.1040 C.3   1 <1>  -0.0550 
  6 C       -0.8470    -0.1140     1.7260 C.3   1 <1>   0.1160 
  7 C       -2.1980     0.7850    -0.0410 C.3   1 <1>   0.1160 
  8 C        3.0200     0.3950    -1.0050 C.3   1 <1>  -0.0800 
  9 C        4.2980     1.1810    -0.7250 C.3   1 <1>   0.2200 
 10 C        3.4960    -1.0120    -0.6520 C.3   1 <1>   0.1200 
 11 N        4.0580     2.6170    -0.4260 N.am  1 <1>  -0.7300 
 12 C        4.9320     0.4010     0.4330 C.3   1 <1>   0.1200 
 13 O        4.2850    -0.8410     0.4790 O.3   1 <1>  -0.5600 
 14 C        5.0330     3.5070    -0.0670 C.2   1 <1>   0.5440 
 15 O        6.1660     3.0950     0.0810 O.2   1 <1>  -0.5700 
 16 C        4.7230     4.9150     0.1100 C.ar  1 <1>   0.0860 
 17 C        5.6810     5.8970    -0.1370 C.ar  1 <1>  -0.1500 
 18 C        3.4620     5.3440     0.5320 C.ar  1 <1>  -0.1500 
 19 C        5.4060     7.2440     0.0160 C.ar  1 <1>   0.0820 
 20 C        3.1700     6.6880     0.6820 C.ar  1 <1>  -0.1500 
 21 O        6.4180     8.1070    -0.2460 O.3   1 <1>  -0.3630 
 22 C        4.1360     7.6430     0.4220 C.ar  1 <1>  -0.1500 
 23 C        6.3860     9.4230     0.2530 C.3   1 <1>   0.8800 
 24 F        5.6510    10.1700    -0.5620 F     1 <1>  -0.3400 
 25 F        7.6140     9.9160     0.1880 F     1 <1>  -0.3400 
 26 H        1.7100     1.8490    -0.0880 H     1 <1>   0.0800 
 27 H        2.0180     0.4680     0.9020 H     1 <1>   0.0800 
 28 H       -1.4960     0.3410     2.4550 H     1 <1>   0.0800 
 29 H        0.1430    -0.1710     2.1430 H     1 <1>   0.0800 
 30 H       -1.1940    -1.1140     1.5240 H     1 <1>   0.0800 
 31 H       -2.8680     1.1660     0.7110 H     1 <1>   0.0800 
 32 H       -2.5440    -0.1820    -0.3680 H     1 <1>   0.0800 
 33 H       -2.2150     1.4600    -0.8800 H     1 <1>   0.0800 
 34 H        2.7510     0.4610    -2.0450 H     1 <1>   0.0800 
 35 H        4.9590     1.1120    -1.5740 H     1 <1>   0.0800 
 36 H        4.1190    -1.4190    -1.4310 H     1 <1>   0.0800 
 37 H        2.7050    -1.7050    -0.4280 H     1 <1>   0.0800 
 38 H        3.1950     2.9990    -0.8130 H     1 <1>   0.3700 
 39 H        4.7760     0.8920     1.3770 H     1 <1>   0.0800 
 40 H        5.9830     0.2400     0.2680 H     1 <1>   0.0800 
 41 H        6.6660     5.5990    -0.4540 H     1 <1>   0.1500 
 42 H        2.7000     4.6180     0.7520 H     1 <1>   0.1500 
 43 H        2.1870     6.9920     1.0010 H     1 <1>   0.1500 
 44 H        3.8720     8.6800     0.5310 H     1 <1>   0.1500 
 45 H        6.0170     9.4870     1.2610 H     1 <1>   0.0800 
@<TRIPOS>BOND
  1   1   2  2   
  2   1   3  2   
  3   1   4  am  
  4   1   5  1   
  5   4   6  1   
  6   4   7  1   
  7   5   8  1   
  8   5  26  1   
  9   5  27  1   
 10   6  28  1   
 11   6  29  1   
 12   6  30  1   
 13   7  31  1   
 14   7  32  1   
 15   7  33  1   
 16   8   9  1   
 17   8  10  1   
 18   8  34  1   
 19   9  11  1   
 20   9  12  1   
 21   9  35  1   
 22  10  13  1   
 23  10  36  1   
 24  10  37  1   
 25  11  14  am  
 26  11  38  1   
 27  12  13  1   
 28  12  39  1   
 29  12  40  1   
 30  14  15  2   
 31  14  16  1   
 32  16  17  ar  
 33  16  18  ar  
 34  17  19  ar  
 35  17  41  1   
 36  18  20  ar  
 37  18  42  1   
 38  19  21  1   
 39  19  22  ar  
 40  20  22  ar  
 41  20  43  1   
 42  21  23  1   
 43  22  44  1   
 44  23  24  1   
 45  23  25  1   
 46  23  45  1   
@<TRIPOS>SUBSTRUCTURE
  1 ****  11 GROUP 4 **** **** 0

# MOE 2024.06 (io_trps.svl 2023.06)
