@<TRIPOS>MOLECULE
NONAME
50 52 1 0 0 
SMALL
USER_CHARGES


@<TRIPOS>ATOM
  1 F       -0.4090     0.5210     0.1430 F     1 <1>  -0.1900 
  2 C       -1.6900     0.7600     0.0270 C.ar  1 <1>   0.1900 
  3 C       -2.3040     1.8460     0.6620 C.ar  1 <1>   0.0830 
  4 C       -2.4090    -0.1180    -0.7610 C.ar  1 <1>  -0.1500 
  5 O       -1.7050     2.7780     1.4590 O.3   1 <1>  -0.3630 
  6 C       -3.6660     2.0130     0.4750 C.ar  1 <1>  -0.1500 
  7 C       -3.7680     0.0790    -0.9260 C.ar  1 <1>  -0.1500 
  8 C       -0.3330     2.7470     1.7810 C.3   1 <1>   0.0400 
  9 C       -4.4260     1.1430    -0.3090 C.ar  1 <1>   0.0530 
 10 C       -5.8400     1.3650    -0.4790 C.2   1 <1>   0.0870 
 11 O       -6.2630     2.5720    -0.7550 O.3   1 <1>  -0.0190 
 12 C       -6.9390     0.5610    -0.4140 C.2   1 <1>  -0.0860 
 13 N       -7.5590     2.6400    -0.8960 N.2   1 <1>  -0.4100 
 14 C       -7.9900     1.4450    -0.7000 C.2   1 <1>   0.3720 
 15 C       -7.0660    -0.8340    -0.1080 C.2   1 <1>   0.7160 
 16 N       -9.3510     1.1100    -0.7860 N.pl3 1 <1>  -0.8210 
 17 O       -6.0900    -1.5420     0.0410 O.2   1 <1>  -0.5700 
 18 N       -8.3030    -1.3910     0.0200 N.am  1 <1>  -0.7300 
 19 C      -10.2220     1.9740     0.0610 C.3   1 <1>   0.1290 
 20 C       -9.8370     1.0780    -2.1930 C.3   1 <1>   0.1290 
 21 C       -8.6970    -2.8130     0.1450 C.3   1 <1>   0.2200 
 22 C       -7.8300    -3.5670     1.1670 C.3   1 <1>   0.0960 
 23 C       -8.6540    -3.4370    -1.2500 C.3   1 <1>  -0.2400 
 24 N       -8.5310    -4.7700     1.6460 N.pl3 1 <1>   0.3140 
 25 N       -8.4230    -5.9650     1.0350 N.2   1 <1>  -0.7070 
 26 C       -9.3560    -4.8420     2.7100 C.2   1 <1>  -0.3020 
 27 C       -9.1780    -6.7640     1.7260 C.2   1 <1>   0.1390 
 28 C       -9.7920    -6.1160     2.7900 C.2   1 <1>  -0.1500 
 29 H       -1.9120    -0.9440    -1.2360 H     1 <1>   0.1500 
 30 H       -4.1500     2.8450     0.9540 H     1 <1>   0.1500 
 31 H       -4.3280    -0.6030    -1.5420 H     1 <1>   0.1500 
 32 H       -0.1230     3.5770     2.4310 H     1 <1>   0.0800 
 33 H        0.2420     2.8390     0.8760 H     1 <1>   0.0800 
 34 H       -0.1120     1.8230     2.2870 H     1 <1>   0.0800 
 35 H       -9.0680    -0.7340    -0.1980 H     1 <1>   0.3700 
 36 H       -9.8150     2.0380     1.0560 H     1 <1>   0.0800 
 37 H      -11.2120     1.5580     0.1170 H     1 <1>   0.0800 
 38 H      -10.2770     2.9670    -0.3530 H     1 <1>   0.0800 
 39 H       -9.1980     0.4470    -2.7870 H     1 <1>   0.0800 
 40 H       -9.8280     2.0710    -2.6120 H     1 <1>   0.0800 
 41 H      -10.8390     0.6870    -2.2300 H     1 <1>   0.0800 
 42 H       -9.7140    -2.8290     0.5000 H     1 <1>   0.0800 
 43 H       -7.6290    -2.9380     2.0140 H     1 <1>   0.0800 
 44 H       -6.8990    -3.8680     0.7240 H     1 <1>   0.0800 
 45 H       -7.6460    -3.4440    -1.6270 H     1 <1>   0.0800 
 46 H       -9.2840    -2.8880    -1.9260 H     1 <1>   0.0800 
 47 H       -9.0050    -4.4520    -1.2120 H     1 <1>   0.0800 
 48 H       -9.5820    -4.0000     3.3390 H     1 <1>   0.1500 
 49 H       -9.3060    -7.8070     1.4910 H     1 <1>   0.1500 
 50 H      -10.4610    -6.5620     3.5040 H     1 <1>   0.1500 
@<TRIPOS>BOND
  1   1   2  1   
  2   2   3  ar  
  3   2   4  ar  
  4   3   5  1   
  5   3   6  ar  
  6   4   7  ar  
  7   4  29  1   
  8   5   8  1   
  9   6   9  ar  
 10   6  30  1   
 11   7   9  ar  
 12   7  31  1   
 13   8  32  1   
 14   8  33  1   
 15   8  34  1   
 16   9  10  1   
 17  10  11  1   
 18  10  12  2   
 19  11  13  1   
 20  12  14  1   
 21  12  15  1   
 22  13  14  2   
 23  14  16  1   
 24  15  17  2   
 25  15  18  am  
 26  16  19  1   
 27  16  20  1   
 28  18  21  1   
 29  18  35  1   
 30  19  36  1   
 31  19  37  1   
 32  19  38  1   
 33  20  39  1   
 34  20  40  1   
 35  20  41  1   
 36  21  22  1   
 37  21  23  1   
 38  21  42  1   
 39  22  24  1   
 40  22  43  1   
 41  22  44  1   
 42  23  45  1   
 43  23  46  1   
 44  23  47  1   
 45  24  25  1   
 46  24  26  1   
 47  25  27  2   
 48  26  28  2   
 49  26  48  1   
 50  27  28  1   
 51  27  49  1   
 52  28  50  1   
@<TRIPOS>SUBSTRUCTURE
  1 ****  15 GROUP 4 **** **** 0

# MOE 2024.06 (io_trps.svl 2023.06)
