@<TRIPOS>MOLECULE
NONAME
59 61 1 0 0 
SMALL
USER_CHARGES


@<TRIPOS>ATOM
  1 O       -4.7410     1.7650    -1.9290 O.2   1 <1>  -0.5700 
  2 C       -3.9210     1.2870    -1.1660 C.2   1 <1>   0.5440 
  3 N       -4.1990     0.0510    -0.6010 N.am  1 <1>  -0.6600 
  4 C       -2.7110     2.0440    -0.9060 C.ar  1 <1>   0.0860 
  5 C       -3.1860    -0.8910     0.0250 C.3   1 <1>   0.3640 
  6 C       -5.6230    -0.3970    -0.5050 C.3   1 <1>   0.1400 
  7 C       -1.9580     2.5510    -1.9650 C.ar  1 <1>  -0.1500 
  8 C       -2.2430     2.2810     0.3880 C.ar  1 <1>  -0.1500 
  9 C       -1.8070    -0.7280    -0.6260 C.ar  1 <1>  -0.1430 
 10 C       -3.5950    -2.4000    -0.0430 C.3   1 <1>   0.2000 
 11 C       -5.7520    -1.8820    -0.8290 C.3   1 <1>   0.1200 
 12 C       -0.7590     3.2020    -1.7510 C.ar  1 <1>  -0.1500 
 13 C       -1.0380     2.9230     0.6110 C.ar  1 <1>  -0.1500 
 14 C       -0.7020    -0.4420     0.1650 C.ar  1 <1>  -0.1500 
 15 C       -1.6360    -0.8460    -2.0010 C.ar  1 <1>  -0.1500 
 16 O       -4.9790    -2.6060     0.0720 O.3   1 <1>  -0.5600 
 17 C       -2.9770    -3.2670     1.0710 C.3   1 <1>   0.1200 
 18 C       -0.2740     3.3650    -0.4650 C.ar  1 <1>   0.0830 
 19 C        0.5480    -0.2520    -0.3960 C.ar  1 <1>   0.0830 
 20 C       -0.3910    -0.6500    -2.5730 C.ar  1 <1>  -0.1500 
 21 O       -1.5940    -3.1500     1.1460 O.3   1 <1>  -0.6800 
 22 O        0.9420     3.9370    -0.3310 O.3   1 <1>  -0.3630 
 23 O        1.5770     0.0070     0.4490 O.3   1 <1>  -0.3620 
 24 C        0.7000    -0.3290    -1.7830 C.ar  1 <1>   0.0830 
 25 C        1.7220     3.6840     0.8160 C.3   1 <1>   0.1200 
 26 C        2.5860    -0.9750     0.5210 C.3   1 <1>   0.0400 
 27 O        1.8800    -0.0900    -2.4040 O.3   1 <1>  -0.3630 
 28 C        3.1460     4.1670     0.5430 C.3   1 <1>  -0.1600 
 29 C        2.3480     1.2410    -2.3430 C.3   1 <1>   0.0400 
 30 C        4.0670     3.8790     1.7330 C.3   1 <1>  -0.2400 
 31 H       -3.1080    -0.6280     1.0650 H     1 <1>   0.0800 
 32 H       -5.9850    -0.2200     0.4920 H     1 <1>   0.0800 
 33 H       -6.2500     0.1550    -1.1830 H     1 <1>   0.0800 
 34 H       -2.3210     2.4150    -2.9690 H     1 <1>   0.1500 
 35 H       -2.8280     1.9420     1.2230 H     1 <1>   0.1500 
 36 H       -3.3020    -2.8050    -0.9940 H     1 <1>   0.0800 
 37 H       -5.4270    -2.0920    -1.8340 H     1 <1>   0.0800 
 38 H       -6.7730    -2.2000    -0.7160 H     1 <1>   0.0800 
 39 H       -0.1860     3.5770    -2.5790 H     1 <1>   0.1500 
 40 H       -0.7030     3.0700     1.6200 H     1 <1>   0.1500 
 41 H       -0.7980    -0.3630     1.2330 H     1 <1>   0.1500 
 42 H       -2.4790    -1.0710    -2.6330 H     1 <1>   0.1500 
 43 H       -3.2100    -4.3030     0.8990 H     1 <1>   0.0800 
 44 H       -3.3740    -2.9720     2.0270 H     1 <1>   0.0800 
 45 H       -0.2620    -0.7280    -3.6370 H     1 <1>   0.1500 
 46 H       -1.1720    -3.3280     0.2810 H     1 <1>   0.4000 
 47 H        1.2900     4.2150     1.6450 H     1 <1>   0.0800 
 48 H        1.7110     2.6240     1.0060 H     1 <1>   0.0800 
 49 H        3.2780    -0.6900     1.2920 H     1 <1>   0.0800 
 50 H        3.0950    -1.0330    -0.4240 H     1 <1>   0.0800 
 51 H        2.1330    -1.9200     0.7610 H     1 <1>   0.0800 
 52 H        3.5280     3.6640    -0.3290 H     1 <1>   0.0800 
 53 H        3.1300     5.2260     0.3510 H     1 <1>   0.0800 
 54 H        3.2630     1.3030    -2.9020 H     1 <1>   0.0800 
 55 H        2.5230     1.5120    -1.3180 H     1 <1>   0.0800 
 56 H        1.6060     1.8880    -2.7740 H     1 <1>   0.0800 
 57 H        4.1060     2.8210     1.9310 H     1 <1>   0.0800 
 58 H        3.7140     4.3850     2.6140 H     1 <1>   0.0800 
 59 H        5.0640     4.2230     1.5170 H     1 <1>   0.0800 
@<TRIPOS>BOND
  1   1   2  2   
  2   2   3  am  
  3   2   4  1   
  4   3   5  1   
  5   3   6  1   
  6   4   7  ar  
  7   4   8  ar  
  8   5   9  1   
  9   5  10  1   
 10   5  31  1   
 11   6  11  1   
 12   6  32  1   
 13   6  33  1   
 14   7  12  ar  
 15   7  34  1   
 16   8  13  ar  
 17   8  35  1   
 18   9  14  ar  
 19   9  15  ar  
 20  10  16  1   
 21  10  17  1   
 22  10  36  1   
 23  11  16  1   
 24  11  37  1   
 25  11  38  1   
 26  12  18  ar  
 27  12  39  1   
 28  13  18  ar  
 29  13  40  1   
 30  14  19  ar  
 31  14  41  1   
 32  15  20  ar  
 33  15  42  1   
 34  17  21  1   
 35  17  43  1   
 36  17  44  1   
 37  18  22  1   
 38  19  23  1   
 39  19  24  ar  
 40  20  24  ar  
 41  20  45  1   
 42  21  46  1   
 43  22  25  1   
 44  23  26  1   
 45  24  27  1   
 46  25  28  1   
 47  25  47  1   
 48  25  48  1   
 49  26  49  1   
 50  26  50  1   
 51  26  51  1   
 52  27  29  1   
 53  28  30  1   
 54  28  52  1   
 55  28  53  1   
 56  29  54  1   
 57  29  55  1   
 58  29  56  1   
 59  30  57  1   
 60  30  58  1   
 61  30  59  1   
@<TRIPOS>SUBSTRUCTURE
  1 ****  14 GROUP 4 **** **** 0

# MOE 2024.06 (io_trps.svl 2023.06)
