@<TRIPOS>MOLECULE
NONAME
36 38 1 0 0 
SMALL
USER_CHARGES


@<TRIPOS>ATOM
  1 S        0.1150     0.3540    -0.0740 S.3   1 <1>  -0.0800 
  2 C       -1.4930     1.0880     0.0170 C.2   1 <1>  -0.0450 
  3 C       -0.5340    -1.2650    -0.0030 C.2   1 <1>  -0.1100 
  4 C       -2.4190     0.0920     0.0950 C.2   1 <1>  -0.1810 
  5 C       -1.5860     2.5300    -0.0190 C.2   1 <1>   0.7150 
  6 C       -1.8750    -1.2330     0.0900 C.2   1 <1>  -0.1810 
  7 C       -3.9270     0.3200     0.1400 C.3   1 <1>   0.0210 
  8 O       -2.6700     3.0870    -0.0210 O.2   1 <1>  -0.5700 
  9 N       -0.4350     3.2710    -0.0540 N.am  1 <1>  -0.4930 
 10 C       -2.7540    -2.4680     0.2050 C.3   1 <1>   0.0210 
 11 C       -4.7110    -0.9290     0.5640 C.3   1 <1>  -0.1600 
 12 C       -0.2410     4.6750    -0.0940 C.2   1 <1>   0.0630 
 13 C       -4.2070    -2.1720    -0.1810 C.3   1 <1>  -0.1600 
 14 C        0.9830     5.3470    -0.1360 C.2   1 <1>   0.1080 
 15 C       -1.1600     5.6620    -0.1010 C.2   1 <1>  -0.3020 
 16 N        0.8390     6.6350    -0.1660 N.2   1 <1>  -0.7070 
 17 C        2.3450     4.6890    -0.1460 C.3   1 <1>  -0.0590 
 18 N       -0.4900     6.8300    -0.1450 N.pl3 1 <1>   0.3140 
 19 C       -1.0800     8.1720    -0.1650 C.3   1 <1>   0.0160 
 20 H        0.1630    -2.0830    -0.0310 H     1 <1>   0.1500 
 21 H       -4.2480     0.6160    -0.8430 H     1 <1>   0.0800 
 22 H       -4.1580     1.1270     0.8140 H     1 <1>   0.0800 
 23 H        0.4170     2.7150    -0.0540 H     1 <1>   0.3700 
 24 H       -2.7270    -2.8070     1.2260 H     1 <1>   0.0800 
 25 H       -2.3630    -3.2550    -0.4160 H     1 <1>   0.0800 
 26 H       -5.7570    -0.7780     0.3610 H     1 <1>   0.0800 
 27 H       -4.5960    -1.0760     1.6240 H     1 <1>   0.0800 
 28 H       -4.8230    -3.0200     0.0630 H     1 <1>   0.0800 
 29 H       -4.2690    -2.0060    -1.2430 H     1 <1>   0.0800 
 30 H       -2.2310     5.5910    -0.0780 H     1 <1>   0.1500 
 31 H        2.4370     4.0540    -1.0070 H     1 <1>   0.0800 
 32 H        2.4760     4.1080     0.7480 H     1 <1>   0.0800 
 33 H        3.1120     5.4420    -0.1860 H     1 <1>   0.0800 
 34 H       -1.8490     8.2090    -0.9130 H     1 <1>   0.0800 
 35 H       -0.3150     8.8890    -0.3970 H     1 <1>   0.0800 
 36 H       -1.4950     8.3860     0.8020 H     1 <1>   0.0800 
@<TRIPOS>BOND
  1   1   2  1   
  2   1   3  1   
  3   2   4  2   
  4   2   5  1   
  5   3   6  2   
  6   3  20  1   
  7   4   6  1   
  8   4   7  1   
  9   5   8  2   
 10   5   9  am  
 11   6  10  1   
 12   7  11  1   
 13   7  21  1   
 14   7  22  1   
 15   9  12  1   
 16   9  23  1   
 17  10  13  1   
 18  10  24  1   
 19  10  25  1   
 20  11  13  1   
 21  11  26  1   
 22  11  27  1   
 23  12  14  1   
 24  12  15  2   
 25  13  28  1   
 26  13  29  1   
 27  14  16  2   
 28  14  17  1   
 29  15  18  1   
 30  15  30  1   
 31  16  18  1   
 32  17  31  1   
 33  17  32  1   
 34  17  33  1   
 35  18  19  1   
 36  19  34  1   
 37  19  35  1   
 38  19  36  1   
@<TRIPOS>SUBSTRUCTURE
  1 ****   5 GROUP 4 **** **** 0

# MOE 2024.06 (io_trps.svl 2023.06)
