@<TRIPOS>MOLECULE
NONAME
54 57 1 0 0 
SMALL
USER_CHARGES


@<TRIPOS>ATOM
  1 F       -1.8960     0.9310    -0.9390 F     1 <1>  -0.1900 
  2 C       -2.7830     1.2440    -0.0290 C.ar  1 <1>   0.1900 
  3 C       -3.6790     0.2610     0.4000 C.ar  1 <1>   0.1000 
  4 C       -2.7930     2.5290     0.4610 C.ar  1 <1>  -0.1500 
  5 N       -3.6620    -1.0430    -0.0900 N.pl3 1 <1>  -0.6000 
  6 C       -4.6320     0.6100     1.3670 C.ar  1 <1>   0.0860 
  7 C       -3.7330     2.8670     1.4260 C.ar  1 <1>  -0.1500 
  8 C       -4.4750    -2.0640     0.3760 C.2   1 <1>   0.1140 
  9 C       -5.5700    -0.3990     1.7830 C.2   1 <1>   0.4690 
 10 C       -4.6350     1.9200     1.8690 C.ar  1 <1>  -0.1500 
 11 C       -4.3230    -3.3990    -0.1970 C.2   1 <1>   0.6160 
 12 C       -5.3770    -1.7310     1.3420 C.2   1 <1>  -0.1360 
 13 O       -6.5820    -0.1130     2.4170 O.2   1 <1>  -0.5700 
 14 O       -3.3210    -3.6530    -0.8410 O.2   1 <1>  -0.5700 
 15 N       -5.2610    -4.3980    -0.0330 N.am  1 <1>  -0.6600 
 16 C       -6.6470    -4.3940    -0.6010 C.3   1 <1>   0.2200 
 17 C       -4.7560    -5.7760     0.2360 C.3   1 <1>   0.0600 
 18 C       -7.0420    -3.1800    -1.4500 C.3   1 <1>  -0.1600 
 19 C       -7.6890    -4.5060     0.5130 C.3   1 <1>  -0.1600 
 20 C       -8.5490    -2.9710    -1.2210 C.3   1 <1>  -0.0800 
 21 C       -8.8480    -3.5600     0.1640 C.3   1 <1>  -0.0800 
 22 C       -8.9370    -1.4910    -1.1290 C.3   1 <1>  -0.1600 
 23 C       -9.0010    -2.3600     1.1170 C.3   1 <1>  -0.1600 
 24 C       -8.5580    -1.1460     0.3030 C.3   1 <1>   0.4230 
 25 N       -9.0580     0.1540     0.8250 N.4   1 <1>  -0.9590 
 26 C      -10.5450     0.2800     0.9330 C.3   1 <1>   0.2630 
 27 C       -8.4850     1.2970     0.0550 C.3   1 <1>   0.2630 
 28 H       -2.0820     3.2540     0.1030 H     1 <1>   0.1500 
 29 H       -2.9270    -1.3120    -0.7690 H     1 <1>   0.4000 
 30 H       -3.7500     3.8680     1.8260 H     1 <1>   0.1500 
 31 H       -5.3560     2.1860     2.6230 H     1 <1>   0.1500 
 32 H       -5.9970    -2.4770     1.7930 H     1 <1>   0.1500 
 33 H       -6.7540    -5.2600    -1.2360 H     1 <1>   0.0800 
 34 H       -5.4140    -6.2880     0.9160 H     1 <1>   0.0800 
 35 H       -3.7730    -5.7320     0.6760 H     1 <1>   0.0800 
 36 H       -4.6920    -6.3280    -0.6860 H     1 <1>   0.0800 
 37 H       -6.5040    -2.3010    -1.1640 H     1 <1>   0.0800 
 38 H       -6.8390    -3.3710    -2.4900 H     1 <1>   0.0800 
 39 H       -8.0530    -5.5190     0.5400 H     1 <1>   0.0800 
 40 H       -7.2650    -4.2880     1.4750 H     1 <1>   0.0800 
 41 H       -9.1090    -3.4870    -1.9850 H     1 <1>   0.0800 
 42 H       -9.7730    -4.1140     0.1370 H     1 <1>   0.0800 
 43 H       -9.9970    -1.3950    -1.2790 H     1 <1>   0.0800 
 44 H       -8.4060    -0.8990    -1.8530 H     1 <1>   0.0800 
 45 H       -8.4150    -2.4570     2.0130 H     1 <1>   0.0800 
 46 H      -10.0370    -2.2900     1.3890 H     1 <1>   0.0800 
 47 H       -7.4840    -1.1230     0.3340 H     1 <1>   0.0800 
 48 H       -8.6430     0.2140     1.7770 H     1 <1>   0.4500 
 49 H      -11.0020     0.1660    -0.0360 H     1 <1>   0.0800 
 50 H      -10.8080     1.2480     1.3270 H     1 <1>   0.0800 
 51 H      -10.9420    -0.4720     1.5940 H     1 <1>   0.0800 
 52 H       -8.8450     1.2850    -0.9600 H     1 <1>   0.0800 
 53 H       -7.4080     1.2340     0.0430 H     1 <1>   0.0800 
 54 H       -8.7660     2.2320     0.5110 H     1 <1>   0.0800 
@<TRIPOS>BOND
  1   1   2  1   
  2   2   3  ar  
  3   2   4  ar  
  4   3   5  1   
  5   3   6  ar  
  6   4   7  ar  
  7   4  28  1   
  8   5   8  1   
  9   5  29  1   
 10   6   9  1   
 11   6  10  ar  
 12   7  10  ar  
 13   7  30  1   
 14   8  11  1   
 15   8  12  2   
 16   9  12  1   
 17   9  13  2   
 18  10  31  1   
 19  11  14  2   
 20  11  15  am  
 21  12  32  1   
 22  15  16  1   
 23  15  17  1   
 24  16  18  1   
 25  16  19  1   
 26  16  33  1   
 27  17  34  1   
 28  17  35  1   
 29  17  36  1   
 30  18  20  1   
 31  18  37  1   
 32  18  38  1   
 33  19  21  1   
 34  19  39  1   
 35  19  40  1   
 36  20  21  1   
 37  20  22  1   
 38  20  41  1   
 39  21  23  1   
 40  21  42  1   
 41  22  24  1   
 42  22  43  1   
 43  22  44  1   
 44  23  24  1   
 45  23  45  1   
 46  23  46  1   
 47  24  25  1   
 48  24  47  1   
 49  25  26  1   
 50  25  27  1   
 51  25  48  1   
 52  26  49  1   
 53  26  50  1   
 54  26  51  1   
 55  27  52  1   
 56  27  53  1   
 57  27  54  1   
@<TRIPOS>SUBSTRUCTURE
  1 ****  12 GROUP 4 **** **** 0

# MOE 2024.06 (io_trps.svl 2023.06)
