@<TRIPOS>MOLECULE
NONAME
43 45 1 0 0 
SMALL
USER_CHARGES


@<TRIPOS>ATOM
  1 S       -0.4410    -0.3220     0.4950 S.3   1 <1>  -0.0800 
  2 C       -0.3310    -1.9050     1.2010 C.2   1 <1>   0.4420 
  3 C        0.3810     0.2760     1.8940 C.2   1 <1>   0.1980 
  4 N        0.2580    -1.8870     2.3400 N.2   1 <1>  -0.3380 
  5 N       -0.8280    -3.0310     0.5790 N.am  1 <1>  -0.4940 
  6 N        0.6590    -0.6400     2.7320 N.2   1 <1>  -0.3380 
  7 C        0.6650     1.7630     1.9760 C.3   1 <1>   0.1640 
  8 C       -1.5340    -3.1930    -0.5780 C.2   1 <1>   0.5690 
  9 C        1.6590     2.1950     0.9070 C.ar  1 <1>  -0.1440 
 10 O       -1.8610    -2.2830    -1.2930 O.2   1 <1>  -0.5700 
 11 C       -1.9350    -4.5980    -0.9650 C.3   1 <1>  -0.0990 
 12 C        1.2320     2.8740    -0.2250 C.ar  1 <1>  -0.1500 
 13 C        3.0060     1.9060     1.0590 C.ar  1 <1>  -0.1500 
 14 C       -3.3960    -4.8950    -0.5740 C.3   1 <1>   0.1760 
 15 C        2.1370     3.2640    -1.1980 C.ar  1 <1>  -0.1430 
 16 C        3.9150     2.2960     0.0920 C.ar  1 <1>  -0.1500 
 17 N       -3.6340    -6.3650    -0.5140 N.pl3 1 <1>   0.3140 
 18 C       -4.4050    -4.2490    -1.5380 C.3   1 <1>  -0.2400 
 19 C        3.4820     2.9750    -1.0330 C.ar  1 <1>  -0.1500 
 20 C        1.6550     4.0030    -2.4330 C.3   1 <1>  -0.0970 
 21 N       -2.9970    -7.2540    -1.3060 N.2   1 <1>  -0.7070 
 22 C       -4.4920    -6.9900     0.3180 C.2   1 <1>  -0.3020 
 23 C       -3.4710    -8.4120    -0.9600 C.2   1 <1>   0.1390 
 24 C       -4.4120    -8.3120     0.0560 C.2   1 <1>  -0.1500 
 25 H       -0.6090    -3.8800     1.0940 H     1 <1>   0.3700 
 26 H        1.0660     1.9900     2.9470 H     1 <1>   0.0800 
 27 H       -0.2580     2.3030     1.8690 H     1 <1>   0.0800 
 28 H       -1.2780    -5.2930    -0.4750 H     1 <1>   0.0800 
 29 H       -1.8090    -4.7190    -2.0260 H     1 <1>   0.0800 
 30 H        0.1880     3.0990    -0.3570 H     1 <1>   0.1500 
 31 H        3.3520     1.3730     1.9280 H     1 <1>   0.1500 
 32 H       -3.5710    -4.5120     0.4150 H     1 <1>   0.0800 
 33 H        4.9600     2.0700     0.2140 H     1 <1>   0.1500 
 34 H       -4.2490    -4.6120    -2.5390 H     1 <1>   0.0800 
 35 H       -4.2940    -3.1790    -1.5430 H     1 <1>   0.0800 
 36 H       -5.4100    -4.4790    -1.2340 H     1 <1>   0.0800 
 37 H        4.1960     3.2730    -1.7790 H     1 <1>   0.1500 
 38 H        0.7060     3.6130    -2.7530 H     1 <1>   0.0800 
 39 H        2.3570     3.8900    -3.2400 H     1 <1>   0.0800 
 40 H        1.5460     5.0490    -2.2120 H     1 <1>   0.0800 
 41 H       -5.1030    -6.4730     1.0340 H     1 <1>   0.1500 
 42 H       -3.1620    -9.3390    -1.4160 H     1 <1>   0.1500 
 43 H       -4.9440    -9.1290     0.5100 H     1 <1>   0.1500 
@<TRIPOS>BOND
  1   1   2  1   
  2   1   3  1   
  3   2   4  2   
  4   2   5  1   
  5   3   6  2   
  6   3   7  1   
  7   4   6  1   
  8   5   8  am  
  9   5  25  1   
 10   7   9  1   
 11   7  26  1   
 12   7  27  1   
 13   8  10  2   
 14   8  11  1   
 15   9  12  ar  
 16   9  13  ar  
 17  11  14  1   
 18  11  28  1   
 19  11  29  1   
 20  12  15  ar  
 21  12  30  1   
 22  13  16  ar  
 23  13  31  1   
 24  14  17  1   
 25  14  18  1   
 26  14  32  1   
 27  15  19  ar  
 28  15  20  1   
 29  16  19  ar  
 30  16  33  1   
 31  17  21  1   
 32  17  22  1   
 33  18  34  1   
 34  18  35  1   
 35  18  36  1   
 36  19  37  1   
 37  20  38  1   
 38  20  39  1   
 39  20  40  1   
 40  21  23  2   
 41  22  24  2   
 42  22  41  1   
 43  23  24  1   
 44  23  42  1   
 45  24  43  1   
@<TRIPOS>SUBSTRUCTURE
  1 ****   2 GROUP 4 **** **** 0

# MOE 2024.06 (io_trps.svl 2023.06)
