@<TRIPOS>MOLECULE
NONAME
40 42 1 0 0 
SMALL
USER_CHARGES


@<TRIPOS>ATOM
  1 O       -0.5720     0.2450     0.5800 O.2   1 <1>  -0.5700 
  2 C       -1.5380     0.7690     0.0560 C.2   1 <1>   0.7160 
  3 N       -2.7160     0.0600    -0.0070 N.am  1 <1>  -0.6600 
  4 C       -1.4150     2.1120    -0.4640 C.2   1 <1>  -0.0860 
  5 C       -4.0610     0.6580    -0.1640 C.3   1 <1>   0.1400 
  6 C       -2.8230    -1.3390     0.4620 C.3   1 <1>   0.1400 
  7 C       -0.5790     3.0910    -0.0270 C.2   1 <1>  -0.0100 
  8 C       -2.1030     2.7130    -1.5410 C.2   1 <1>  -0.1500 
  9 C       -5.0050    -0.2630     0.6190 C.3   1 <1>  -0.0800 
 10 C       -4.3210    -1.6420     0.5620 C.3   1 <1>  -0.0800 
 11 O       -0.7200     4.1950    -0.7220 O.3   1 <1>  -0.2800 
 12 C       -1.6360     3.9740    -1.6400 C.2   1 <1>  -0.0100 
 13 C       -6.5020    -0.2490     0.1780 C.3   1 <1>   0.2800 
 14 C       -4.8380    -2.4620    -0.6310 C.3   1 <1>  -0.1600 
 15 O       -6.6070     0.1090    -1.1530 O.3   1 <1>  -0.6800 
 16 C       -7.1050    -1.6610     0.2990 C.3   1 <1>  -0.1600 
 17 C       -7.3530     0.7580     0.9830 C.3   1 <1>  -0.1600 
 18 C       -6.3510    -2.7280    -0.5240 C.3   1 <1>  -0.1600 
 19 C       -6.9140     2.2300     0.8840 C.3   1 <1>  -0.2400 
 20 H       -4.0890     1.6640     0.2140 H     1 <1>   0.0800 
 21 H       -4.2980     0.6610    -1.2130 H     1 <1>   0.0800 
 22 H       -2.3230    -2.0020    -0.2230 H     1 <1>   0.0800 
 23 H       -2.3620    -1.4220     1.4320 H     1 <1>   0.0800 
 24 H        0.1410     3.0600     0.7730 H     1 <1>   0.1500 
 25 H       -2.8430     2.2300    -2.1530 H     1 <1>   0.1500 
 26 H       -4.9610     0.0450     1.6490 H     1 <1>   0.0800 
 27 H       -4.5110    -2.1970     1.4640 H     1 <1>   0.0800 
 28 H       -1.8900     4.7670    -2.3220 H     1 <1>   0.1500 
 29 H       -4.6430    -1.9130    -1.5370 H     1 <1>   0.0800 
 30 H       -4.3110    -3.3980    -0.6990 H     1 <1>   0.0800 
 31 H       -7.5360     0.0290    -1.4340 H     1 <1>   0.4000 
 32 H       -7.0650    -1.9480     1.3360 H     1 <1>   0.0800 
 33 H       -8.1430    -1.6550     0.0190 H     1 <1>   0.0800 
 34 H       -8.3770     0.6850     0.6600 H     1 <1>   0.0800 
 35 H       -7.3350     0.4720     2.0200 H     1 <1>   0.0800 
 36 H       -6.5160    -3.6910    -0.0720 H     1 <1>   0.0800 
 37 H       -6.7580    -2.7660    -1.5200 H     1 <1>   0.0800 
 38 H       -6.8670     2.5470    -0.1440 H     1 <1>   0.0800 
 39 H       -5.9520     2.3760     1.3380 H     1 <1>   0.0800 
 40 H       -7.6230     2.8560     1.3970 H     1 <1>   0.0800 
@<TRIPOS>BOND
  1   1   2  2   
  2   2   3  am  
  3   2   4  1   
  4   3   5  1   
  5   3   6  1   
  6   4   7  2   
  7   4   8  1   
  8   5   9  1   
  9   5  20  1   
 10   5  21  1   
 11   6  10  1   
 12   6  22  1   
 13   6  23  1   
 14   7  11  1   
 15   7  24  1   
 16   8  12  2   
 17   8  25  1   
 18   9  10  1   
 19   9  13  1   
 20   9  26  1   
 21  10  14  1   
 22  10  27  1   
 23  11  12  1   
 24  12  28  1   
 25  13  15  1   
 26  13  16  1   
 27  13  17  1   
 28  14  18  1   
 29  14  29  1   
 30  14  30  1   
 31  15  31  1   
 32  16  18  1   
 33  16  32  1   
 34  16  33  1   
 35  17  19  1   
 36  17  34  1   
 37  17  35  1   
 38  18  36  1   
 39  18  37  1   
 40  19  38  1   
 41  19  39  1   
 42  19  40  1   
@<TRIPOS>SUBSTRUCTURE
  1 ****   5 GROUP 4 **** **** 0

# MOE 2024.06 (io_trps.svl 2023.06)
