@<TRIPOS>MOLECULE
NONAME
50 54 1 0 0 
SMALL
USER_CHARGES


@<TRIPOS>ATOM
  1 O       -0.2700     0.4690     0.4300 O.2   1 <1>  -0.5700 
  2 C       -1.3810     0.8340     0.0780 C.2   1 <1>   0.5440 
  3 N       -2.4810     0.2850     0.7220 N.am  1 <1>  -0.6600 
  4 C       -1.5100     1.8360    -0.9840 C.ar  1 <1>   0.3960 
  5 C       -3.8900     0.6370     0.4020 C.3   1 <1>   0.1400 
  6 C       -2.3660    -0.8750     1.6470 C.3   1 <1>   0.1400 
  7 N       -2.1200     1.4790    -2.1300 N.ar  1 <1>  -0.6200 
  8 C       -1.0120     3.1360    -0.7900 C.ar  1 <1>  -0.1430 
  9 C       -4.5360    -0.5550    -0.3050 C.3   1 <1>  -0.1600 
 10 C       -2.9940    -2.0960     0.9740 C.3   1 <1>  -0.1600 
 11 C       -2.2190     2.3950    -3.0720 C.ar  1 <1>   0.1600 
 12 C       -1.1320     4.0770    -1.7920 C.ar  1 <1>  -0.1500 
 13 C       -0.3330     3.5430     0.5140 C.3   1 <1>  -0.0970 
 14 C       -4.4420    -1.8280     0.5480 C.3   1 <1>   0.4600 
 15 C       -1.7500     3.6900    -2.9580 C.ar  1 <1>  -0.1500 
 16 O       -5.1750    -1.6400     1.7410 O.3   1 <1>  -0.5600 
 17 C       -5.0000    -3.0320    -0.2020 C.2   1 <1>  -0.3320 
 18 C       -6.5690    -1.8360     1.7020 C.3   1 <1>   0.1200 
 19 N       -4.4700    -3.6010    -1.3270 N.pl3 1 <1>   0.0330 
 20 C       -6.1100    -3.7060     0.1580 C.2   1 <1>  -0.1810 
 21 C       -6.9170    -3.2950     1.3630 C.3   1 <1>   0.0210 
 22 C       -5.2660    -4.6640    -1.6790 C.ar  1 <1>  -0.1520 
 23 C       -6.3080    -4.7590    -0.7590 C.ar  1 <1>   0.0000 
 24 C       -5.1630    -5.5690    -2.7390 C.ar  1 <1>  -0.1500 
 25 C       -7.2620    -5.7720    -0.8960 C.ar  1 <1>  -0.1500 
 26 C       -6.1090    -6.5600    -2.8620 C.ar  1 <1>  -0.1500 
 27 C       -7.1590    -6.6620    -1.9410 C.ar  1 <1>  -0.1500 
 28 H       -3.9430     1.5100    -0.2230 H     1 <1>   0.0800 
 29 H       -4.4160     0.8510     1.3160 H     1 <1>   0.0800 
 30 H       -2.8830    -0.6510     2.5640 H     1 <1>   0.0800 
 31 H       -1.3360    -1.0790     1.8860 H     1 <1>   0.0800 
 32 H       -4.0250    -0.7110    -1.2370 H     1 <1>   0.0800 
 33 H       -5.5610    -0.3380    -0.5380 H     1 <1>   0.0800 
 34 H       -2.9720    -2.9370     1.6430 H     1 <1>   0.0800 
 35 H       -2.4010    -2.3470     0.1150 H     1 <1>   0.0800 
 36 H       -2.7000     2.1020    -3.9900 H     1 <1>   0.1500 
 37 H       -0.7580     5.0800    -1.6770 H     1 <1>   0.1500 
 38 H       -0.9520     3.2860     1.3550 H     1 <1>   0.0800 
 39 H       -0.1480     4.6020     0.5440 H     1 <1>   0.0800 
 40 H        0.6090     3.0310     0.6110 H     1 <1>   0.0800 
 41 H       -1.8680     4.3820    -3.7720 H     1 <1>   0.1500 
 42 H       -6.9870    -1.1720     0.9660 H     1 <1>   0.0800 
 43 H       -6.9640    -1.5740     2.6670 H     1 <1>   0.0800 
 44 H       -3.6260    -3.3010    -1.8240 H     1 <1>   0.2700 
 45 H       -7.9680    -3.3780     1.1520 H     1 <1>   0.0800 
 46 H       -6.6800    -3.9330     2.1950 H     1 <1>   0.0800 
 47 H       -4.3530    -5.4840    -3.4410 H     1 <1>   0.1500 
 48 H       -8.0610    -5.8380    -0.1810 H     1 <1>   0.1500 
 49 H       -6.0520    -7.2690    -3.6690 H     1 <1>   0.1500 
 50 H       -7.8850    -7.4460    -2.0590 H     1 <1>   0.1500 
@<TRIPOS>BOND
  1   1   2  2   
  2   2   3  am  
  3   2   4  1   
  4   3   5  1   
  5   3   6  1   
  6   4   7  ar  
  7   4   8  ar  
  8   5   9  1   
  9   5  28  1   
 10   5  29  1   
 11   6  10  1   
 12   6  30  1   
 13   6  31  1   
 14   7  11  ar  
 15   8  12  ar  
 16   8  13  1   
 17   9  14  1   
 18   9  32  1   
 19   9  33  1   
 20  10  14  1   
 21  10  34  1   
 22  10  35  1   
 23  11  15  ar  
 24  11  36  1   
 25  12  15  ar  
 26  12  37  1   
 27  13  38  1   
 28  13  39  1   
 29  13  40  1   
 30  14  16  1   
 31  14  17  1   
 32  15  41  1   
 33  16  18  1   
 34  17  19  1   
 35  17  20  2   
 36  18  21  1   
 37  18  42  1   
 38  18  43  1   
 39  19  22  1   
 40  19  44  1   
 41  20  21  1   
 42  20  23  1   
 43  21  45  1   
 44  21  46  1   
 45  22  23  ar  
 46  22  24  ar  
 47  23  25  ar  
 48  24  26  ar  
 49  24  47  1   
 50  25  27  ar  
 51  25  48  1   
 52  26  27  ar  
 53  26  49  1   
 54  27  50  1   
@<TRIPOS>SUBSTRUCTURE
  1 ****   9 GROUP 4 **** **** 0

# MOE 2024.06 (io_trps.svl 2023.06)
