@<TRIPOS>MOLECULE
NONAME
56 59 1 0 0 
SMALL
USER_CHARGES


@<TRIPOS>ATOM
  1 O        0.7770    -0.6820    -1.6190 O.2   1 <1>  -0.5700 
  2 C        0.6240    -1.8690    -1.4180 C.2   1 <1>   0.5440 
  3 N        0.1460    -2.5820    -2.4610 N.am  1 <1>  -0.8000 
  4 C        0.9570    -2.4720    -0.1450 C.ar  1 <1>   0.0860 
  5 C        0.3610    -3.6620     0.3390 C.ar  1 <1>   0.4100 
  6 C        1.9210    -1.8710     0.6560 C.ar  1 <1>  -0.1500 
  7 N        0.7010    -4.2380     1.4930 N.ar  1 <1>  -0.6200 
  8 N       -0.6610    -4.3140    -0.3370 N.pl3 1 <1>  -0.8380 
  9 C        2.2580    -2.4650     1.8490 C.ar  1 <1>  -0.1500 
 10 C        1.6270    -3.6380     2.2120 C.ar  1 <1>   0.1600 
 11 C       -2.0330    -3.7190    -0.2500 C.3   1 <1>   0.2090 
 12 C       -0.6780    -5.8160    -0.3910 C.3   1 <1>   0.2090 
 13 C       -2.8820    -4.3550     0.8710 C.3   1 <1>   0.2090 
 14 C       -1.5440    -6.4390     0.7230 C.3   1 <1>   0.2090 
 15 N       -2.9310    -5.8530     0.7540 N.pl3 1 <1>  -0.8380 
 16 C       -4.0560    -6.6070     0.6450 C.ar  1 <1>   0.4100 
 17 N       -3.9630    -7.7650     0.0180 N.ar  1 <1>  -0.6200 
 18 C       -5.2800    -6.1740     1.1910 C.ar  1 <1>  -0.1500 
 19 C       -5.0510    -8.5130    -0.1120 C.ar  1 <1>   0.7710 
 20 C       -6.3810    -6.9510     1.0560 C.ar  1 <1>   0.2180 
 21 N       -6.2330    -8.1210     0.3930 N.ar  1 <1>  -0.1790 
 22 N       -4.9780    -9.7060    -0.7640 N.pl3 1 <1>  -0.8380 
 23 C       -7.7460    -6.5860     1.6120 C.3   1 <1>  -0.0970 
 24 C       -6.1140   -10.6010    -1.1500 C.3   1 <1>   0.2090 
 25 C       -3.6620   -10.2960    -1.1810 C.3   1 <1>   0.2090 
 26 C       -5.9730   -11.9360    -0.4140 C.3   1 <1>  -0.1600 
 27 C       -3.4640   -11.6350    -0.4640 C.3   1 <1>  -0.1600 
 28 C       -4.6270   -12.6040    -0.7260 C.3   1 <1>  -0.1600 
 29 H       -0.1040    -2.1150    -3.3310 H     1 <1>   0.3700 
 30 H       -0.1810    -3.5410    -2.3050 H     1 <1>   0.3700 
 31 H        2.3960    -0.9570     0.3410 H     1 <1>   0.1500 
 32 H        3.0020    -2.0270     2.4910 H     1 <1>   0.1500 
 33 H        1.9000    -4.1030     3.1450 H     1 <1>   0.1500 
 34 H       -2.5360    -3.8590    -1.1910 H     1 <1>   0.0800 
 35 H       -1.9570    -2.6600    -0.0740 H     1 <1>   0.0800 
 36 H        0.3270    -6.1910    -0.3050 H     1 <1>   0.0800 
 37 H       -1.0640    -6.1300    -1.3450 H     1 <1>   0.0800 
 38 H       -3.8690    -3.9350     0.8220 H     1 <1>   0.0800 
 39 H       -2.4510    -4.0900     1.8220 H     1 <1>   0.0800 
 40 H       -1.0670    -6.2540     1.6700 H     1 <1>   0.0800 
 41 H       -1.5760    -7.5050     0.5870 H     1 <1>   0.0800 
 42 H       -5.3140    -5.2430     1.7210 H     1 <1>   0.1500 
 43 H       -6.9930    -8.7750     0.2730 H     1 <1>   0.4570 
 44 H       -7.7060    -5.6350     2.1140 H     1 <1>   0.0800 
 45 H       -8.0730    -7.3250     2.3220 H     1 <1>   0.0800 
 46 H       -8.4700    -6.5150     0.8190 H     1 <1>   0.0800 
 47 H       -6.0760   -10.7760    -2.2130 H     1 <1>   0.0800 
 48 H       -7.0700   -10.1620    -0.9310 H     1 <1>   0.0800 
 49 H       -2.8320    -9.6500    -0.9490 H     1 <1>   0.0800 
 50 H       -3.6620   -10.4500    -2.2480 H     1 <1>   0.0800 
 51 H       -6.7720   -12.5940    -0.7110 H     1 <1>   0.0800 
 52 H       -6.0590   -11.7730     0.6460 H     1 <1>   0.0800 
 53 H       -3.3710   -11.4530     0.5920 H     1 <1>   0.0800 
 54 H       -2.5430   -12.0820    -0.7970 H     1 <1>   0.0800 
 55 H       -4.6090   -12.9070    -1.7600 H     1 <1>   0.0800 
 56 H       -4.5070   -13.4890    -0.1230 H     1 <1>   0.0800 
@<TRIPOS>BOND
  1   1   2  2   
  2   2   3  am  
  3   2   4  1   
  4   3  29  1   
  5   3  30  1   
  6   4   5  ar  
  7   4   6  ar  
  8   5   7  ar  
  9   5   8  1   
 10   6   9  ar  
 11   6  31  1   
 12   7  10  ar  
 13   8  11  1   
 14   8  12  1   
 15   9  10  ar  
 16   9  32  1   
 17  10  33  1   
 18  11  13  1   
 19  11  34  1   
 20  11  35  1   
 21  12  14  1   
 22  12  36  1   
 23  12  37  1   
 24  13  15  1   
 25  13  38  1   
 26  13  39  1   
 27  14  15  1   
 28  14  40  1   
 29  14  41  1   
 30  15  16  1   
 31  16  17  ar  
 32  16  18  ar  
 33  17  19  ar  
 34  18  20  ar  
 35  18  42  1   
 36  19  21  ar  
 37  19  22  1   
 38  20  21  ar  
 39  20  23  1   
 40  21  43  1   
 41  22  24  1   
 42  22  25  1   
 43  23  44  1   
 44  23  45  1   
 45  23  46  1   
 46  24  26  1   
 47  24  47  1   
 48  24  48  1   
 49  25  27  1   
 50  25  49  1   
 51  25  50  1   
 52  26  28  1   
 53  26  51  1   
 54  26  52  1   
 55  27  28  1   
 56  27  53  1   
 57  27  54  1   
 58  28  55  1   
 59  28  56  1   
@<TRIPOS>SUBSTRUCTURE
  1 ****  15 GROUP 4 **** **** 0

# MOE 2024.06 (io_trps.svl 2023.06)
