@<TRIPOS>MOLECULE
NONAME
56 59 1 0 0 
SMALL
USER_CHARGES


@<TRIPOS>ATOM
  1 O       -0.6480     1.9500    -2.4730 O.2   1 <1>  -0.5700 
  2 C       -0.5920     2.8570    -1.6740 C.2   1 <1>   0.5690 
  3 N       -1.2540     2.8190    -0.4570 N.am  1 <1>  -0.4770 
  4 C        0.2320     4.0890    -2.0790 C.3   1 <1>   0.2700 
  5 C       -2.0850     1.7550    -0.0590 C.ar  1 <1>   0.1170 
  6 C       -0.9600     3.8450     0.5890 C.3   1 <1>   0.1400 
  7 N        0.5780     5.0370    -0.9550 N.pl3 1 <1>  -0.8380 
  8 C       -1.6110     0.4480    -0.0480 C.ar  1 <1>  -0.1500 
  9 C       -3.3950     1.9940     0.3450 C.ar  1 <1>  -0.1500 
 10 C       -0.5440     5.2050     0.0070 C.3   1 <1>   0.2090 
 11 C        1.8570     5.1360    -0.5300 C.ar  1 <1>   0.4100 
 12 C       -2.4240    -0.6000     0.3670 C.ar  1 <1>   0.0830 
 13 C       -4.2070     0.9570     0.7680 C.ar  1 <1>  -0.1500 
 14 N        2.4490     4.0050    -0.2140 N.ar  1 <1>  -0.6200 
 15 C        2.5110     6.3860    -0.4330 C.ar  1 <1>  -0.1430 
 16 O       -2.0260    -1.8970     0.3880 O.3   1 <1>  -0.3630 
 17 C       -3.7190    -0.3370     0.7820 C.ar  1 <1>  -0.1500 
 18 C        3.7030     4.0480     0.2060 C.ar  1 <1>   0.7710 
 19 C        3.8000     6.3990     0.0000 C.ar  1 <1>   0.2180 
 20 C        1.7900     7.6730    -0.8390 C.3   1 <1>  -0.0160 
 21 C       -0.8450    -2.2970    -0.2710 C.3   1 <1>   0.0400 
 22 N        4.3650     5.2110     0.3220 N.ar  1 <1>  -0.1790 
 23 N        4.3420     2.8890     0.5310 N.pl3 1 <1>  -0.8380 
 24 C        4.6380     7.6660     0.1410 C.3   1 <1>  -0.0170 
 25 C        2.5100     8.9360    -0.3450 C.3   1 <1>  -0.1600 
 26 C        5.7980     2.7130     0.8330 C.3   1 <1>   0.1290 
 27 C        3.6050     1.5790     0.5400 C.3   1 <1>   0.1290 
 28 C        4.0170     8.8520    -0.6100 C.3   1 <1>  -0.1600 
 29 H       -0.3290     4.6270    -2.8210 H     1 <1>   0.0800 
 30 H        1.1350     3.7420    -2.5480 H     1 <1>   0.0800 
 31 H       -0.1630     3.4750     1.2100 H     1 <1>   0.0800 
 32 H       -1.8230     3.9850     1.2140 H     1 <1>   0.0800 
 33 H       -0.6050     0.2750    -0.3720 H     1 <1>   0.1500 
 34 H       -3.7830     2.9950     0.3230 H     1 <1>   0.1500 
 35 H       -0.2430     5.8550     0.8100 H     1 <1>   0.0800 
 36 H       -1.3830     5.6590    -0.4930 H     1 <1>   0.0800 
 37 H       -5.2180     1.1530     1.0820 H     1 <1>   0.1500 
 38 H       -4.3410    -1.1520     1.1060 H     1 <1>   0.1500 
 39 H        0.7860     7.6820    -0.4520 H     1 <1>   0.0800 
 40 H        1.7190     7.6990    -1.9130 H     1 <1>   0.0800 
 41 H       -0.7870    -3.3690    -0.2310 H     1 <1>   0.0800 
 42 H        0.0010    -1.8660     0.2350 H     1 <1>   0.0800 
 43 H       -0.8890    -1.9690    -1.2950 H     1 <1>   0.0800 
 44 H        5.3080     5.1380     0.6750 H     1 <1>   0.4570 
 45 H        5.6310     7.5030    -0.2390 H     1 <1>   0.0800 
 46 H        4.7150     7.9150     1.1860 H     1 <1>   0.0800 
 47 H        2.3380     9.0580     0.7110 H     1 <1>   0.0800 
 48 H        2.1000     9.7980    -0.8440 H     1 <1>   0.0800 
 49 H        6.3840     3.5480     0.4960 H     1 <1>   0.0800 
 50 H        6.1690     1.8330     0.3320 H     1 <1>   0.0800 
 51 H        5.9390     2.5820     1.8930 H     1 <1>   0.0800 
 52 H        2.5500     1.7180     0.7030 H     1 <1>   0.0800 
 53 H        3.9770     0.9470     1.3290 H     1 <1>   0.0800 
 54 H        3.7430     1.0770    -0.4030 H     1 <1>   0.0800 
 55 H        4.1830     8.7380    -1.6690 H     1 <1>   0.0800 
 56 H        4.4940     9.7680    -0.3010 H     1 <1>   0.0800 
@<TRIPOS>BOND
  1   1   2  2   
  2   2   3  am  
  3   2   4  1   
  4   3   5  1   
  5   3   6  1   
  6   4   7  1   
  7   4  29  1   
  8   4  30  1   
  9   5   8  ar  
 10   5   9  ar  
 11   6  10  1   
 12   6  31  1   
 13   6  32  1   
 14   7  10  1   
 15   7  11  1   
 16   8  12  ar  
 17   8  33  1   
 18   9  13  ar  
 19   9  34  1   
 20  10  35  1   
 21  10  36  1   
 22  11  14  ar  
 23  11  15  ar  
 24  12  16  1   
 25  12  17  ar  
 26  13  17  ar  
 27  13  37  1   
 28  14  18  ar  
 29  15  19  ar  
 30  15  20  1   
 31  16  21  1   
 32  17  38  1   
 33  18  22  ar  
 34  18  23  1   
 35  19  22  ar  
 36  19  24  1   
 37  20  25  1   
 38  20  39  1   
 39  20  40  1   
 40  21  41  1   
 41  21  42  1   
 42  21  43  1   
 43  22  44  1   
 44  23  26  1   
 45  23  27  1   
 46  24  28  1   
 47  24  45  1   
 48  24  46  1   
 49  25  28  1   
 50  25  47  1   
 51  25  48  1   
 52  26  49  1   
 53  26  50  1   
 54  26  51  1   
 55  27  52  1   
 56  27  53  1   
 57  27  54  1   
 58  28  55  1   
 59  28  56  1   
@<TRIPOS>SUBSTRUCTURE
  1 ****  14 GROUP 4 **** **** 0

# MOE 2024.06 (io_trps.svl 2023.06)
