@<TRIPOS>MOLECULE
NONAME
44 48 1 0 0 
SMALL
USER_CHARGES


@<TRIPOS>ATOM
  1 S       -1.2200     0.7160     1.0590 S.3   1 <1>  -0.0800 
  2 C       -0.5860     2.1160     0.2210 C.2   1 <1>  -0.1400 
  3 C        0.2880     0.5390     1.9440 C.2   1 <1>  -0.1100 
  4 C        0.6710     2.3940     0.5920 C.2   1 <1>  -0.1810 
  5 C       -1.3910     2.8920    -0.7850 C.3   1 <1>   0.0200 
  6 C        1.1720     1.4920     1.5890 C.2   1 <1>  -0.1500 
  7 C        1.4320     3.5700    -0.0270 C.3   1 <1>   0.4610 
  8 C       -0.7030     4.2560    -0.9620 C.3   1 <1>   0.1200 
  9 O        0.6900     4.1080    -1.1080 O.3   1 <1>  -0.5600 
 10 C        2.7590     3.0940    -0.6210 C.3   1 <1>  -0.1600 
 11 C        1.6860     4.6700     1.0090 C.3   1 <1>  -0.1600 
 12 C        3.5650     4.2570    -1.1940 C.3   1 <1>   0.2090 
 13 C        2.5020     5.8180     0.4180 C.3   1 <1>   0.2090 
 14 N        3.7780     5.2860    -0.1370 N.pl3 1 <1>  -0.8210 
 15 C        4.8110     6.2030    -0.3610 C.2   1 <1>   0.5990 
 16 N        5.7860     6.0250    -1.1760 N.2   1 <1>  -0.4100 
 17 N        4.8520     7.3710     0.2930 N.2   1 <1>  -0.5650 
 18 O        6.4820     7.1020    -1.0490 O.3   1 <1>  -0.0190 
 19 C        5.9260     7.8960    -0.1760 C.2   1 <1>   0.4250 
 20 C        6.5150     9.1780     0.1500 C.ar  1 <1>   0.0530 
 21 C        7.6830     9.6310    -0.4680 C.ar  1 <1>  -0.1500 
 22 C        5.9300    10.0140     1.1020 C.ar  1 <1>  -0.1500 
 23 C        8.2380    10.8580    -0.1510 C.ar  1 <1>  -0.1500 
 24 C        6.4800    11.2420     1.4230 C.ar  1 <1>  -0.1500 
 25 C        7.6370    11.6660     0.7970 C.ar  1 <1>  -0.1500 
 26 H        0.3530    -0.2720     2.6480 H     1 <1>   0.1500 
 27 H       -2.3970     3.0340    -0.4350 H     1 <1>   0.0800 
 28 H       -1.4170     2.3640    -1.7210 H     1 <1>   0.0800 
 29 H        2.1650     1.5970     1.9900 H     1 <1>   0.1500 
 30 H       -0.8930     4.8840    -0.1100 H     1 <1>   0.0800 
 31 H       -1.0760     4.7480    -1.8420 H     1 <1>   0.0800 
 32 H        2.5630     2.3690    -1.3890 H     1 <1>   0.0800 
 33 H        3.3500     2.6170     0.1380 H     1 <1>   0.0800 
 34 H        2.2360     4.2580     1.8350 H     1 <1>   0.0800 
 35 H        0.7570     5.0380     1.3980 H     1 <1>   0.0800 
 36 H        3.0420     4.7000    -2.0260 H     1 <1>   0.0800 
 37 H        4.5100     3.8830    -1.5490 H     1 <1>   0.0800 
 38 H        2.6990     6.5350     1.1960 H     1 <1>   0.0800 
 39 H        1.9480     6.3070    -0.3660 H     1 <1>   0.0800 
 40 H        8.1680     9.0190    -1.2080 H     1 <1>   0.1500 
 41 H        5.0290     9.6950     1.5970 H     1 <1>   0.1500 
 42 H        9.1390    11.1850    -0.6400 H     1 <1>   0.1500 
 43 H        6.0080    11.8670     2.1620 H     1 <1>   0.1500 
 44 H        8.0670    12.6210     1.0450 H     1 <1>   0.1500 
@<TRIPOS>BOND
  1   1   2  1   
  2   1   3  1   
  3   2   4  2   
  4   2   5  1   
  5   3   6  2   
  6   3  26  1   
  7   4   6  1   
  8   4   7  1   
  9   5   8  1   
 10   5  27  1   
 11   5  28  1   
 12   6  29  1   
 13   7   9  1   
 14   7  10  1   
 15   7  11  1   
 16   8   9  1   
 17   8  30  1   
 18   8  31  1   
 19  10  12  1   
 20  10  32  1   
 21  10  33  1   
 22  11  13  1   
 23  11  34  1   
 24  11  35  1   
 25  12  14  1   
 26  12  36  1   
 27  12  37  1   
 28  13  14  1   
 29  13  38  1   
 30  13  39  1   
 31  14  15  1   
 32  15  16  2   
 33  15  17  1   
 34  16  18  1   
 35  17  19  2   
 36  18  19  1   
 37  19  20  1   
 38  20  21  ar  
 39  20  22  ar  
 40  21  23  ar  
 41  21  40  1   
 42  22  24  ar  
 43  22  41  1   
 44  23  25  ar  
 45  23  42  1   
 46  24  25  ar  
 47  24  43  1   
 48  25  44  1   
@<TRIPOS>SUBSTRUCTURE
  1 ****  14 GROUP 4 **** **** 0

# MOE 2024.06 (io_trps.svl 2023.06)
