@<TRIPOS>MOLECULE
NONAME
42 44 1 0 0 
SMALL
USER_CHARGES


@<TRIPOS>ATOM
  1 CL       0.3980    -0.1530     0.7610 Cl    1 <1>  -0.1770 
  2 C       -0.0230    -1.7870     0.2570 C.ar  1 <1>   0.1770 
  3 C       -1.3850    -2.1680     0.0830 C.ar  1 <1>   0.4100 
  4 C        0.9620    -2.7100     0.0780 C.ar  1 <1>   0.2170 
  5 N       -1.7020    -3.4300    -0.1730 N.ar  1 <1>  -0.6200 
  6 N       -2.4330    -1.2980     0.1570 N.pl3 1 <1>  -0.8380 
  7 N        0.5710    -3.9720    -0.2380 N.ar  1 <1>  -0.1790 
  8 C        2.4600    -2.4560     0.2160 C.3   1 <1>  -0.0970 
  9 C       -0.7300    -4.2960    -0.3410 C.ar  1 <1>   0.7710 
 10 C       -3.7310    -1.6600     0.8210 C.3   1 <1>   0.2090 
 11 C       -2.4290     0.0780    -0.4240 C.3   1 <1>   0.2090 
 12 N       -1.0920    -5.5420    -0.6260 N.pl3 1 <1>  -0.9000 
 13 C       -4.9430    -1.5150    -0.1360 C.3   1 <1>   0.0000 
 14 C       -3.6120     0.2620    -1.3800 C.3   1 <1>  -0.1600 
 15 C       -6.2800    -1.8450     0.5630 C.3   1 <1>   0.2000 
 16 C       -4.9550    -0.0870    -0.7190 C.3   1 <1>  -0.1600 
 17 C       -4.9020    -2.5860    -1.2400 C.3   1 <1>  -0.1600 
 18 O       -6.3120    -1.4580     1.8920 O.3   1 <1>  -0.6800 
 19 C       -6.4860    -3.3580     0.4500 C.3   1 <1>  -0.1600 
 20 C       -5.4830    -3.8480    -0.6020 C.3   1 <1>  -0.1600 
 21 H        1.2430    -4.7180    -0.3900 H     1 <1>   0.4570 
 22 H        2.6720    -1.4260     0.4370 H     1 <1>   0.0800 
 23 H        2.9680    -2.7020    -0.7000 H     1 <1>   0.0800 
 24 H        2.8690    -3.0530     1.0120 H     1 <1>   0.0800 
 25 H       -3.6870    -2.6620     1.2100 H     1 <1>   0.0800 
 26 H       -3.8630    -0.9970     1.6580 H     1 <1>   0.0800 
 27 H       -2.4910     0.7980     0.3750 H     1 <1>   0.0800 
 28 H       -1.5210     0.2530    -0.9730 H     1 <1>   0.0800 
 29 H       -0.5100    -6.3640    -0.7980 H     1 <1>   0.4000 
 30 H       -2.0970    -5.7300    -0.7050 H     1 <1>   0.4000 
 31 H       -3.6350     1.2840    -1.7140 H     1 <1>   0.0800 
 32 H       -3.4580    -0.3570    -2.2460 H     1 <1>   0.0800 
 33 H       -7.0840    -1.3370     0.0570 H     1 <1>   0.0800 
 34 H       -5.7490     0.0180    -1.4380 H     1 <1>   0.0800 
 35 H       -5.1450     0.6130     0.0780 H     1 <1>   0.0800 
 36 H       -5.5400    -2.2880    -2.0550 H     1 <1>   0.0800 
 37 H       -3.9130    -2.7500    -1.6290 H     1 <1>   0.0800 
 38 H       -5.8560    -2.1180     2.4460 H     1 <1>   0.4000 
 39 H       -6.3160    -3.8620     1.3850 H     1 <1>   0.0800 
 40 H       -7.4910    -3.5550     0.1200 H     1 <1>   0.0800 
 41 H       -4.6950    -4.4010    -0.1190 H     1 <1>   0.0800 
 42 H       -5.9510    -4.4810    -1.3370 H     1 <1>   0.0800 
@<TRIPOS>BOND
  1   1   2  1   
  2   2   3  ar  
  3   2   4  ar  
  4   3   5  ar  
  5   3   6  1   
  6   4   7  ar  
  7   4   8  1   
  8   5   9  ar  
  9   6  10  1   
 10   6  11  1   
 11   7   9  ar  
 12   7  21  1   
 13   8  22  1   
 14   8  23  1   
 15   8  24  1   
 16   9  12  1   
 17  10  13  1   
 18  10  25  1   
 19  10  26  1   
 20  11  14  1   
 21  11  27  1   
 22  11  28  1   
 23  12  29  1   
 24  12  30  1   
 25  13  15  1   
 26  13  16  1   
 27  13  17  1   
 28  14  16  1   
 29  14  31  1   
 30  14  32  1   
 31  15  18  1   
 32  15  19  1   
 33  15  33  1   
 34  16  34  1   
 35  16  35  1   
 36  17  20  1   
 37  17  36  1   
 38  17  37  1   
 39  18  38  1   
 40  19  20  1   
 41  19  39  1   
 42  19  40  1   
 43  20  41  1   
 44  20  42  1   
@<TRIPOS>SUBSTRUCTURE
  1 ****   6 GROUP 4 **** **** 0

# MOE 2024.06 (io_trps.svl 2023.06)
