@<TRIPOS>MOLECULE
NONAME
39 40 1 0 0 
SMALL
USER_CHARGES


@<TRIPOS>ATOM
  1 F        0.9970    -2.5350     2.6240 F     1 <1>  -0.1900 
  2 C        1.6570    -2.0960     1.5840 C.ar  1 <1>   0.1900 
  3 C        1.0730    -2.1570     0.3250 C.ar  1 <1>  -0.1440 
  4 C        2.9250    -1.5870     1.7930 C.ar  1 <1>  -0.1500 
  5 C        1.8110    -1.6850    -0.7520 C.ar  1 <1>  -0.1500 
  6 C       -0.3250    -2.7200     0.1070 C.3   1 <1>  -0.0160 
  7 C        3.6440    -1.1200     0.7060 C.ar  1 <1>  -0.1500 
  8 C        3.0850    -1.1710    -0.5620 C.ar  1 <1>  -0.1500 
  9 C       -0.2640    -4.2320    -0.1380 C.3   1 <1>  -0.1600 
 10 C       -1.6570    -4.8140    -0.3670 C.3   1 <1>   0.2090 
 11 N       -1.5300    -6.2540    -0.6520 N.pl3 1 <1>  -0.8690 
 12 C       -2.6660    -7.0500    -0.7320 C.ar  1 <1>   0.4100 
 13 N       -3.7580    -6.4790    -1.2080 N.ar  1 <1>  -0.6200 
 14 C       -2.6100    -8.4170    -0.2980 C.ar  1 <1>   0.4100 
 15 C       -4.7870    -7.3170    -1.2390 C.ar  1 <1>   0.1600 
 16 N       -3.6540    -9.2280    -0.3350 N.ar  1 <1>  -0.6200 
 17 N       -1.4130    -8.9700     0.1870 N.pl3 1 <1>  -0.8380 
 18 C       -4.7370    -8.6330    -0.8200 C.ar  1 <1>   0.1600 
 19 C       -1.5090    -9.9630     1.2910 C.3   1 <1>   0.1290 
 20 C       -0.4250    -9.3450    -0.8580 C.3   1 <1>   0.1290 
 21 H        3.3370    -1.5590     2.7850 H     1 <1>   0.1500 
 22 H        1.3970    -1.7180    -1.7450 H     1 <1>   0.1500 
 23 H       -0.7780    -2.2350    -0.7410 H     1 <1>   0.0800 
 24 H       -0.9410    -2.5130     0.9650 H     1 <1>   0.0800 
 25 H        4.6330    -0.7200     0.8440 H     1 <1>   0.1500 
 26 H        3.6450    -0.8080    -1.4070 H     1 <1>   0.1500 
 27 H        0.1860    -4.7100     0.7150 H     1 <1>   0.0800 
 28 H        0.3450    -4.4260    -1.0040 H     1 <1>   0.0800 
 29 H       -2.1300    -4.3300    -1.2050 H     1 <1>   0.0800 
 30 H       -2.2740    -4.6730     0.5060 H     1 <1>   0.0800 
 31 H       -0.8360    -6.7300    -0.0640 H     1 <1>   0.4000 
 32 H       -5.7140    -6.9270    -1.6190 H     1 <1>   0.1500 
 33 H       -5.6280    -9.2320    -0.8850 H     1 <1>   0.1500 
 34 H       -2.2530    -9.6470     2.0020 H     1 <1>   0.0800 
 35 H       -0.5620   -10.0470     1.7950 H     1 <1>   0.0800 
 36 H       -1.7920   -10.9250     0.8980 H     1 <1>   0.0800 
 37 H       -0.4470    -8.6320    -1.6650 H     1 <1>   0.0800 
 38 H       -0.6620   -10.3190    -1.2520 H     1 <1>   0.0800 
 39 H        0.5650    -9.3610    -0.4380 H     1 <1>   0.0800 
@<TRIPOS>BOND
  1   1   2  1   
  2   2   3  ar  
  3   2   4  ar  
  4   3   5  ar  
  5   3   6  1   
  6   4   7  ar  
  7   4  21  1   
  8   5   8  ar  
  9   5  22  1   
 10   6   9  1   
 11   6  23  1   
 12   6  24  1   
 13   7   8  ar  
 14   7  25  1   
 15   8  26  1   
 16   9  10  1   
 17   9  27  1   
 18   9  28  1   
 19  10  11  1   
 20  10  29  1   
 21  10  30  1   
 22  11  12  1   
 23  11  31  1   
 24  12  13  ar  
 25  12  14  ar  
 26  13  15  ar  
 27  14  16  ar  
 28  14  17  1   
 29  15  18  ar  
 30  15  32  1   
 31  16  18  ar  
 32  17  19  1   
 33  17  20  1   
 34  18  33  1   
 35  19  34  1   
 36  19  35  1   
 37  19  36  1   
 38  20  37  1   
 39  20  38  1   
 40  20  39  1   
@<TRIPOS>SUBSTRUCTURE
  1 ****  10 GROUP 4 **** **** 0

# MOE 2024.06 (io_trps.svl 2023.06)
