@<TRIPOS>MOLECULE
NONAME
48 50 1 0 0 
SMALL
USER_CHARGES


@<TRIPOS>ATOM
  1 O       -0.8620     0.5430     1.7930 O.2   1 <1>  -0.5700 
  2 C       -1.7830     1.1360     1.2590 C.2   1 <1>   0.7150 
  3 N       -2.8020     0.3910     0.7060 N.am  1 <1>  -0.6600 
  4 C       -1.8140     2.5800     1.2180 C.2   1 <1>   0.0550 
  5 C       -3.8290     0.9270    -0.2240 C.3   1 <1>   0.1400 
  6 C       -2.7510    -1.0910     0.6150 C.3   1 <1>   0.1400 
  7 O       -0.8080     3.2730     0.6930 O.3   1 <1>  -0.2800 
  8 C       -2.7660     3.4610     1.6370 C.2   1 <1>  -0.1500 
  9 C       -4.7170    -0.2750    -0.5410 C.3   1 <1>   0.2000 
 10 C       -3.7500    -1.4620    -0.4880 C.3   1 <1>  -0.0800 
 11 C       -1.0810     4.5610     0.7550 C.2   1 <1>   0.1600 
 12 C       -2.2910     4.7350     1.3370 C.2   1 <1>  -0.1500 
 13 O       -5.6540    -0.3930     0.4740 O.3   1 <1>  -0.6800 
 14 C       -4.4070    -2.8420    -0.2970 C.3   1 <1>  -0.0170 
 15 C       -0.1520     5.5170     0.2420 C.1   1 <1>  -0.0200 
 16 C       -3.3650    -3.9490    -0.3360 C.ar  1 <1>  -0.1430 
 17 C        0.6150     6.3200    -0.1880 C.1   1 <1>  -0.2000 
 18 C       -2.8940    -4.4590    -1.5280 C.ar  1 <1>  -0.1500 
 19 C       -2.8340    -4.4980     0.8140 C.ar  1 <1>  -0.1500 
 20 C        1.5800     7.3160    -0.7260 C.3   1 <1>   0.4800 
 21 C       -1.9390    -5.4620    -1.5140 C.ar  1 <1>   0.1600 
 22 C       -1.8810    -5.4980     0.7180 C.ar  1 <1>   0.1600 
 23 O        0.9290     8.5160    -0.8210 O.3   1 <1>  -0.6800 
 24 C        2.7550     7.5110     0.2240 C.3   1 <1>  -0.2400 
 25 C        2.0370     6.9360    -2.1300 C.3   1 <1>  -0.2400 
 26 N       -1.4200    -5.9930    -0.4190 N.ar  1 <1>  -0.6200 
 27 H       -4.3950     1.7300     0.2130 H     1 <1>   0.0800 
 28 H       -3.3430     1.2730    -1.1200 H     1 <1>   0.0800 
 29 H       -1.7570    -1.4320     0.3730 H     1 <1>   0.0800 
 30 H       -3.0470    -1.5080     1.5620 H     1 <1>   0.0800 
 31 H       -3.7040     3.2390     2.1140 H     1 <1>   0.1500 
 32 H       -5.2370    -0.1840    -1.4800 H     1 <1>   0.0800 
 33 H       -3.2050    -1.4770    -1.4160 H     1 <1>   0.0800 
 34 H       -2.7940     5.6650     1.5340 H     1 <1>   0.1500 
 35 H       -5.1930    -0.3460     1.3360 H     1 <1>   0.4000 
 36 H       -5.1290    -3.0050    -1.0780 H     1 <1>   0.0800 
 37 H       -4.9350    -2.8820     0.6400 H     1 <1>   0.0800 
 38 H       -3.2590    -4.0880    -2.4680 H     1 <1>   0.1500 
 39 H       -3.1490    -4.1590     1.7840 H     1 <1>   0.1500 
 40 H       -1.5820    -5.8490    -2.4540 H     1 <1>   0.1500 
 41 H       -1.4760    -5.9130     1.6260 H     1 <1>   0.1500 
 42 H        1.5420     9.1820    -1.1740 H     1 <1>   0.4000 
 43 H        3.2820     6.5810     0.3430 H     1 <1>   0.0800 
 44 H        2.4000     7.8200     1.1910 H     1 <1>   0.0800 
 45 H        3.4410     8.2450    -0.1580 H     1 <1>   0.0800 
 46 H        2.5380     5.9850    -2.1020 H     1 <1>   0.0800 
 47 H        2.7170     7.6680    -2.5240 H     1 <1>   0.0800 
 48 H        1.1860     6.8470    -2.7820 H     1 <1>   0.0800 
@<TRIPOS>BOND
  1   1   2  2   
  2   2   3  am  
  3   2   4  1   
  4   3   5  1   
  5   3   6  1   
  6   4   7  1   
  7   4   8  2   
  8   5   9  1   
  9   5  27  1   
 10   5  28  1   
 11   6  10  1   
 12   6  29  1   
 13   6  30  1   
 14   7  11  1   
 15   8  12  1   
 16   8  31  1   
 17   9  10  1   
 18   9  13  1   
 19   9  32  1   
 20  10  14  1   
 21  10  33  1   
 22  11  12  2   
 23  11  15  1   
 24  12  34  1   
 25  13  35  1   
 26  14  16  1   
 27  14  36  1   
 28  14  37  1   
 29  15  17  3   
 30  16  18  ar  
 31  16  19  ar  
 32  17  20  1   
 33  18  21  ar  
 34  18  38  1   
 35  19  22  ar  
 36  19  39  1   
 37  20  23  1   
 38  20  24  1   
 39  20  25  1   
 40  21  26  ar  
 41  21  40  1   
 42  22  26  ar  
 43  22  41  1   
 44  23  42  1   
 45  24  43  1   
 46  24  44  1   
 47  24  45  1   
 48  25  46  1   
 49  25  47  1   
 50  25  48  1   
@<TRIPOS>SUBSTRUCTURE
  1 ****   2 GROUP 4 **** **** 0

# MOE 2024.06 (io_trps.svl 2023.06)
