@<TRIPOS>MOLECULE
NONAME
44 47 1 0 0 
SMALL
USER_CHARGES


@<TRIPOS>ATOM
  1 O        0.1400    -0.1540     2.4780 O.2   1 <1>  -0.5700 
  2 C       -0.4910     0.7050     1.9090 C.2   1 <1>   0.5690 
  3 N       -1.4500     0.3880     0.9830 N.am  1 <1>  -0.6600 
  4 C       -0.1960     2.1560     2.2680 C.3   1 <1>   0.0440 
  5 C       -2.2640     1.3390     0.1850 C.3   1 <1>   0.1400 
  6 C       -1.7690    -1.0090     0.6100 C.3   1 <1>   0.1400 
  7 C        0.3050     2.9800     1.0860 C.ar  1 <1>  -0.1440 
  8 C       -3.2020     0.4660    -0.6520 C.3   1 <1>   0.2000 
  9 C       -3.1550    -0.9310    -0.0310 C.3   1 <1>  -0.0800 
 10 C       -0.3130     4.1850     0.7610 C.ar  1 <1>  -0.1500 
 11 C        1.3800     2.5210     0.3240 C.ar  1 <1>  -0.1500 
 12 O       -4.5030     0.9430    -0.6220 O.3   1 <1>  -0.6800 
 13 C       -3.4390    -2.0410    -1.0580 C.3   1 <1>  -0.0170 
 14 C        0.1610     4.8860    -0.3290 C.ar  1 <1>   0.0820 
 15 C        1.8430     3.2430    -0.7690 C.ar  1 <1>  -0.1500 
 16 C       -3.4140    -3.4200    -0.4210 C.ar  1 <1>   0.1670 
 17 O       -0.2830     6.0480    -0.8220 O.3   1 <1>  -0.3630 
 18 C        1.2080     4.4290    -1.0740 C.ar  1 <1>   0.0820 
 19 N       -2.2260    -3.9870    -0.2840 N.ar  1 <1>  -0.6200 
 20 C       -4.6040    -4.0210    -0.0120 C.ar  1 <1>   0.1600 
 21 C        0.5380     6.3530    -1.9480 C.3   1 <1>   0.4000 
 22 O        1.4720     5.2810    -2.0700 O.3   1 <1>  -0.3630 
 23 C       -2.3050    -5.1770     0.2860 C.ar  1 <1>   0.1600 
 24 N       -4.6850    -5.2120     0.5580 N.ar  1 <1>  -0.6200 
 25 C       -3.4940    -5.7690     0.6930 C.ar  1 <1>   0.1600 
 26 H       -1.0880     2.5890     2.6780 H     1 <1>   0.0800 
 27 H        0.5530     2.1730     3.0390 H     1 <1>   0.0800 
 28 H       -2.8140     1.9890     0.8420 H     1 <1>   0.0800 
 29 H       -1.6270     1.9160    -0.4620 H     1 <1>   0.0800 
 30 H       -1.0350    -1.3590    -0.0970 H     1 <1>   0.0800 
 31 H       -1.7640    -1.6540     1.4730 H     1 <1>   0.0800 
 32 H       -2.8680     0.4540    -1.6760 H     1 <1>   0.0800 
 33 H       -3.8720    -0.9930     0.7680 H     1 <1>   0.0800 
 34 H       -1.1380     4.5770     1.3270 H     1 <1>   0.1500 
 35 H        1.8610     1.5900     0.5790 H     1 <1>   0.1500 
 36 H       -4.8330     0.9710     0.2960 H     1 <1>   0.4000 
 37 H       -2.7080    -2.0070    -1.8470 H     1 <1>   0.0800 
 38 H       -4.4030    -1.8690    -1.5040 H     1 <1>   0.0800 
 39 H        2.6680     2.8980    -1.3640 H     1 <1>   0.1500 
 40 H       -5.5290    -3.4930    -0.1610 H     1 <1>   0.1500 
 41 H       -0.0690     6.4050    -2.8340 H     1 <1>   0.0800 
 42 H        1.0670     7.2730    -1.7700 H     1 <1>   0.0800 
 43 H       -1.3830    -5.7110     0.4390 H     1 <1>   0.1500 
 44 H       -3.4560    -6.7430     1.1490 H     1 <1>   0.1500 
@<TRIPOS>BOND
  1   1   2  2   
  2   2   3  am  
  3   2   4  1   
  4   3   5  1   
  5   3   6  1   
  6   4   7  1   
  7   4  26  1   
  8   4  27  1   
  9   5   8  1   
 10   5  28  1   
 11   5  29  1   
 12   6   9  1   
 13   6  30  1   
 14   6  31  1   
 15   7  10  ar  
 16   7  11  ar  
 17   8   9  1   
 18   8  12  1   
 19   8  32  1   
 20   9  13  1   
 21   9  33  1   
 22  10  14  ar  
 23  10  34  1   
 24  11  15  ar  
 25  11  35  1   
 26  12  36  1   
 27  13  16  1   
 28  13  37  1   
 29  13  38  1   
 30  14  17  1   
 31  14  18  ar  
 32  15  18  ar  
 33  15  39  1   
 34  16  19  ar  
 35  16  20  ar  
 36  17  21  1   
 37  18  22  1   
 38  19  23  ar  
 39  20  24  ar  
 40  20  40  1   
 41  21  22  1   
 42  21  41  1   
 43  21  42  1   
 44  23  25  ar  
 45  23  43  1   
 46  24  25  ar  
 47  25  44  1   
@<TRIPOS>SUBSTRUCTURE
  1 ****   3 GROUP 4 **** **** 0

# MOE 2024.06 (io_trps.svl 2023.06)
