@<TRIPOS>MOLECULE
NONAME
39 41 1 0 0 
SMALL
USER_CHARGES


@<TRIPOS>ATOM
  1 F       -0.6230    -0.1290     0.0710 F     1 <1>  -0.1900 
  2 C       -1.7250    -0.8430     0.1240 C.ar  1 <1>   0.1900 
  3 C       -1.7030    -2.2190    -0.0030 C.ar  1 <1>   0.3920 
  4 C       -2.9310    -0.2230     0.3100 C.ar  1 <1>   0.1600 
  5 O       -0.5250    -2.8550    -0.1890 O.3   1 <1>  -0.3630 
  6 N       -2.8160    -2.9250     0.0540 N.ar  1 <1>  -0.6200 
  7 N       -4.0530    -0.9100     0.3670 N.ar  1 <1>  -0.6200 
  8 C       -0.4730    -4.2630    -0.3230 C.3   1 <1>   0.0400 
  9 C       -3.9390    -2.2340     0.2380 C.ar  1 <1>   0.7200 
 10 N       -5.1030    -2.9610     0.3070 N.pl3 1 <1>  -0.8380 
 11 C       -6.4470    -2.3400     0.1900 C.3   1 <1>   0.2090 
 12 C       -5.1680    -4.4090    -0.0100 C.3   1 <1>   0.2090 
 13 C       -7.3800    -3.4790    -0.2310 C.3   1 <1>   0.2000 
 14 C       -6.6470    -4.7720     0.1200 C.3   1 <1>  -0.0800 
 15 O       -8.5940    -3.4290     0.4410 O.3   1 <1>  -0.6800 
 16 C       -7.0830    -5.9570    -0.7590 C.3   1 <1>  -0.0170 
 17 C       -6.3840    -7.2460    -0.3610 C.ar  1 <1>   0.1670 
 18 N       -5.1650    -7.4300    -0.8460 N.ar  1 <1>  -0.6200 
 19 C       -7.0330    -8.1490     0.4670 C.ar  1 <1>  -0.1500 
 20 C       -4.5720    -8.5600    -0.4930 C.ar  1 <1>   0.1600 
 21 C       -6.4030    -9.3210     0.8280 C.ar  1 <1>  -0.1500 
 22 C       -5.1360    -9.5230     0.3270 C.ar  1 <1>  -0.1500 
 23 H       -2.9740     0.8470     0.4110 H     1 <1>   0.1500 
 24 H        0.5530    -4.5520    -0.4610 H     1 <1>   0.0800 
 25 H       -1.0580    -4.5530    -1.1780 H     1 <1>   0.0800 
 26 H       -0.8680    -4.7120     0.5710 H     1 <1>   0.0800 
 27 H       -6.7300    -1.9330     1.1440 H     1 <1>   0.0800 
 28 H       -6.4400    -1.5630    -0.5550 H     1 <1>   0.0800 
 29 H       -4.8190    -4.5700    -1.0170 H     1 <1>   0.0800 
 30 H       -4.5610    -4.9820     0.6710 H     1 <1>   0.0800 
 31 H       -7.5740    -3.4130    -1.2880 H     1 <1>   0.0800 
 32 H       -6.8210    -5.0130     1.1540 H     1 <1>   0.0800 
 33 H       -8.4410    -3.4630     1.4060 H     1 <1>   0.4000 
 34 H       -6.8680    -5.7470    -1.7920 H     1 <1>   0.0800 
 35 H       -8.1470    -6.0860    -0.6720 H     1 <1>   0.0800 
 36 H       -8.0240    -7.9410     0.8290 H     1 <1>   0.1500 
 37 H       -3.5820    -8.7290    -0.8790 H     1 <1>   0.1500 
 38 H       -6.8780   -10.0440     1.4680 H     1 <1>   0.1500 
 39 H       -4.5880   -10.4160     0.5670 H     1 <1>   0.1500 
@<TRIPOS>BOND
  1   1   2  1   
  2   2   3  ar  
  3   2   4  ar  
  4   3   5  1   
  5   3   6  ar  
  6   4   7  ar  
  7   4  23  1   
  8   5   8  1   
  9   6   9  ar  
 10   7   9  ar  
 11   8  24  1   
 12   8  25  1   
 13   8  26  1   
 14   9  10  1   
 15  10  11  1   
 16  10  12  1   
 17  11  13  1   
 18  11  27  1   
 19  11  28  1   
 20  12  14  1   
 21  12  29  1   
 22  12  30  1   
 23  13  14  1   
 24  13  15  1   
 25  13  31  1   
 26  14  16  1   
 27  14  32  1   
 28  15  33  1   
 29  16  17  1   
 30  16  34  1   
 31  16  35  1   
 32  17  18  ar  
 33  17  19  ar  
 34  18  20  ar  
 35  19  21  ar  
 36  19  36  1   
 37  20  22  ar  
 38  20  37  1   
 39  21  22  ar  
 40  21  38  1   
 41  22  39  1   
@<TRIPOS>SUBSTRUCTURE
  1 ****  12 GROUP 4 **** **** 0

# MOE 2024.06 (io_trps.svl 2023.06)
