@<TRIPOS>MOLECULE
NONAME
49 51 1 0 0 
SMALL
USER_CHARGES


@<TRIPOS>ATOM
  1 S       -0.1960    -0.5250    -0.8670 S.o2  1 <1>   1.4470 
  2 O       -0.8540    -1.7610    -1.2410 O.2   1 <1>  -0.6500 
  3 O       -0.1380     0.5260    -1.8610 O.2   1 <1>  -0.6500 
  4 N       -0.9900     0.0640     0.5180 N.am  1 <1>  -0.8490 
  5 C        1.4520    -0.9620    -0.2440 C.ar  1 <1>  -0.0090 
  6 C       -2.3700    -0.3960     0.7550 C.3   1 <1>   0.1960 
  7 C       -0.7850     1.4770     0.8410 C.3   1 <1>   0.1960 
  8 C        2.4960    -0.0430    -0.1570 C.ar  1 <1>   0.0820 
  9 C        1.7060    -2.2570     0.1960 C.ar  1 <1>  -0.1500 
 10 C       -3.4460     0.4430     0.0270 C.3   1 <1>   0.0000 
 11 C       -1.7880     2.3880     0.1200 C.3   1 <1>  -0.1600 
 12 O        2.3250     1.2400    -0.5370 O.3   1 <1>  -0.3630 
 13 C        3.7360    -0.4060     0.3480 C.ar  1 <1>  -0.1500 
 14 C        2.9400    -2.6360     0.6960 C.ar  1 <1>   0.0820 
 15 C       -4.8470    -0.0750     0.4110 C.3   1 <1>   0.2000 
 16 C       -3.2390     1.9450     0.3640 C.3   1 <1>  -0.1600 
 17 C       -3.4760     0.2280    -1.4980 C.3   1 <1>  -0.1600 
 18 C        2.8360     1.5900    -1.8040 C.3   1 <1>   0.0400 
 19 C        3.9650    -1.7000     0.7720 C.ar  1 <1>  -0.1500 
 20 O        3.0660    -3.9290     1.0910 O.3   1 <1>  -0.3630 
 21 O       -5.2900     0.4030     1.6300 O.3   1 <1>  -0.6800 
 22 C       -5.7930     0.3620    -0.7050 C.3   1 <1>  -0.1600 
 23 C       -4.9080     0.5470    -1.9440 C.3   1 <1>  -0.1600 
 24 C        4.2790    -4.4170     1.6200 C.3   1 <1>   0.0400 
 25 H       -2.4690    -1.4360     0.4960 H     1 <1>   0.0800 
 26 H       -2.5600    -0.3270     1.8130 H     1 <1>   0.0800 
 27 H       -0.9080     1.6010     1.9030 H     1 <1>   0.0800 
 28 H        0.2190     1.7750     0.5970 H     1 <1>   0.0800 
 29 H        0.9250    -2.9970     0.1520 H     1 <1>   0.1500 
 30 H       -1.6600     3.3930     0.4800 H     1 <1>   0.0800 
 31 H       -1.5700     2.4060    -0.9310 H     1 <1>   0.0800 
 32 H        4.5170     0.3310     0.4110 H     1 <1>   0.1500 
 33 H       -4.8350    -1.1520     0.4630 H     1 <1>   0.0800 
 34 H       -3.9060     2.5630    -0.2100 H     1 <1>   0.0800 
 35 H       -3.4490     2.1130     1.4060 H     1 <1>   0.0800 
 36 H       -2.7590     0.8250    -2.0310 H     1 <1>   0.0800 
 37 H       -3.2770    -0.8070    -1.7170 H     1 <1>   0.0800 
 38 H        2.5800     2.6160    -1.9980 H     1 <1>   0.0800 
 39 H        2.3870     0.9560    -2.5490 H     1 <1>   0.0800 
 40 H        3.9040     1.4690    -1.8000 H     1 <1>   0.0800 
 41 H        4.9340    -1.9570     1.1570 H     1 <1>   0.1500 
 42 H       -5.3890     1.3710     1.5810 H     1 <1>   0.4000 
 43 H       -6.5400    -0.3930    -0.8760 H     1 <1>   0.0800 
 44 H       -6.2720     1.2940    -0.4650 H     1 <1>   0.0800 
 45 H       -5.2100    -0.1030    -2.7470 H     1 <1>   0.0800 
 46 H       -4.9670     1.5670    -2.2850 H     1 <1>   0.0800 
 47 H        4.1440    -5.4560     1.8610 H     1 <1>   0.0800 
 48 H        4.5200    -3.8640     2.5100 H     1 <1>   0.0800 
 49 H        5.0510    -4.3120     0.8780 H     1 <1>   0.0800 
@<TRIPOS>BOND
  1   1   2  2   
  2   1   3  2   
  3   1   4  am  
  4   1   5  1   
  5   4   6  1   
  6   4   7  1   
  7   5   8  ar  
  8   5   9  ar  
  9   6  10  1   
 10   6  25  1   
 11   6  26  1   
 12   7  11  1   
 13   7  27  1   
 14   7  28  1   
 15   8  12  1   
 16   8  13  ar  
 17   9  14  ar  
 18   9  29  1   
 19  10  15  1   
 20  10  16  1   
 21  10  17  1   
 22  11  16  1   
 23  11  30  1   
 24  11  31  1   
 25  12  18  1   
 26  13  19  ar  
 27  13  32  1   
 28  14  19  ar  
 29  14  20  1   
 30  15  21  1   
 31  15  22  1   
 32  15  33  1   
 33  16  34  1   
 34  16  35  1   
 35  17  23  1   
 36  17  36  1   
 37  17  37  1   
 38  18  38  1   
 39  18  39  1   
 40  18  40  1   
 41  19  41  1   
 42  20  24  1   
 43  21  42  1   
 44  22  23  1   
 45  22  43  1   
 46  22  44  1   
 47  23  45  1   
 48  23  46  1   
 49  24  47  1   
 50  24  48  1   
 51  24  49  1   
@<TRIPOS>SUBSTRUCTURE
  1 ****   1 GROUP 4 **** **** 0

# MOE 2024.06 (io_trps.svl 2023.06)
