@<TRIPOS>MOLECULE
NONAME
43 45 1 0 0 
SMALL
USER_CHARGES


@<TRIPOS>ATOM
  1 CL      -0.5300     1.0350    -1.5130 Cl    1 <1>  -0.1230 
  2 C       -2.1510     0.8650    -0.8630 C.2   1 <1>   0.1230 
  3 C       -2.6340    -0.2260    -0.1580 C.2   1 <1>   0.1390 
  4 C       -3.1630     1.7480    -0.9420 C.2   1 <1>  -0.3020 
  5 N       -3.8780    -0.0460     0.1870 N.2   1 <1>  -0.7070 
  6 N       -4.2010     1.1740    -0.2980 N.pl3 1 <1>   0.3140 
  7 C       -5.5410     1.7470    -0.1000 C.3   1 <1>   0.0960 
  8 C       -6.5520     0.6030     0.0480 C.3   1 <1>   0.3430 
  9 N       -7.9510     1.0850     0.2830 N.4   1 <1>  -0.9590 
 10 C       -8.1490     1.7620     1.6040 C.3   1 <1>   0.3430 
 11 C       -8.9490     0.0020     0.0770 C.3   1 <1>   0.3430 
 12 C       -9.6260     2.1060     1.8430 C.3   1 <1>  -0.1600 
 13 C      -10.3570     0.6010    -0.0120 C.3   1 <1>  -0.1600 
 14 C      -10.4630     2.0190     0.5630 C.3   1 <1>   0.4180 
 15 O       -9.8910     2.8750    -0.4030 O.3   1 <1>  -0.5600 
 16 C      -11.9240     2.3690     0.8110 C.2   1 <1>  -0.2880 
 17 C      -10.2700     4.2280    -0.3710 C.3   1 <1>   0.1200 
 18 C      -12.5420     3.4220     0.2730 C.2   1 <1>  -0.2760 
 19 C      -11.7770     4.3800    -0.6180 C.3   1 <1>  -0.0220 
 20 C      -14.0090     3.7550     0.4770 C.3   1 <1>  -0.1020 
 21 H       -2.0560    -1.1050     0.0730 H     1 <1>   0.1500 
 22 H       -3.1880     2.7160    -1.4060 H     1 <1>   0.1500 
 23 H       -5.7830     2.3550    -0.9510 H     1 <1>   0.0800 
 24 H       -5.5120     2.3490     0.7880 H     1 <1>   0.0800 
 25 H       -6.2490    -0.0290     0.8680 H     1 <1>   0.0800 
 26 H       -6.5230     0.0120    -0.8530 H     1 <1>   0.0800 
 27 H       -8.2170     1.8000    -0.4250 H     1 <1>   0.4500 
 28 H       -7.5760     2.6750     1.6220 H     1 <1>   0.0800 
 29 H       -7.7950     1.1300     2.4030 H     1 <1>   0.0800 
 30 H       -8.9000    -0.6910     0.9010 H     1 <1>   0.0800 
 31 H       -8.7350    -0.5380    -0.8320 H     1 <1>   0.0800 
 32 H       -9.7110     3.0840     2.2800 H     1 <1>   0.0800 
 33 H      -10.0260     1.4160     2.5650 H     1 <1>   0.0800 
 34 H      -11.0230    -0.0550     0.5200 H     1 <1>   0.0800 
 35 H      -10.6910     0.6120    -1.0340 H     1 <1>   0.0800 
 36 H      -12.4260     1.6730     1.4610 H     1 <1>   0.1500 
 37 H       -9.7170     4.7500    -1.1330 H     1 <1>   0.0800 
 38 H      -10.0100     4.6370     0.5890 H     1 <1>   0.0800 
 39 H      -12.0040     4.1830    -1.6510 H     1 <1>   0.0800 
 40 H      -12.0580     5.3950    -0.4010 H     1 <1>   0.0800 
 41 H      -14.5200     3.7720    -0.4700 H     1 <1>   0.0800 
 42 H      -14.1120     4.7190     0.9430 H     1 <1>   0.0800 
 43 H      -14.4820     3.0220     1.1050 H     1 <1>   0.0800 
@<TRIPOS>BOND
  1   1   2  1   
  2   2   3  1   
  3   2   4  2   
  4   3   5  2   
  5   3  21  1   
  6   4   6  1   
  7   4  22  1   
  8   5   6  1   
  9   6   7  1   
 10   7   8  1   
 11   7  23  1   
 12   7  24  1   
 13   8   9  1   
 14   8  25  1   
 15   8  26  1   
 16   9  10  1   
 17   9  11  1   
 18   9  27  1   
 19  10  12  1   
 20  10  28  1   
 21  10  29  1   
 22  11  13  1   
 23  11  30  1   
 24  11  31  1   
 25  12  14  1   
 26  12  32  1   
 27  12  33  1   
 28  13  14  1   
 29  13  34  1   
 30  13  35  1   
 31  14  15  1   
 32  14  16  1   
 33  15  17  1   
 34  16  18  2   
 35  16  36  1   
 36  17  19  1   
 37  17  37  1   
 38  17  38  1   
 39  18  19  1   
 40  18  20  1   
 41  19  39  1   
 42  19  40  1   
 43  20  41  1   
 44  20  42  1   
 45  20  43  1   
@<TRIPOS>SUBSTRUCTURE
  1 ****   9 GROUP 4 **** **** 0

# MOE 2024.06 (io_trps.svl 2023.06)
