@<TRIPOS>MOLECULE
NONAME
47 50 1 0 0 
SMALL
USER_CHARGES


@<TRIPOS>ATOM
  1 O       -0.3520     1.0480     0.9800 O.2   1 <1>  -0.5700 
  2 C       -0.0380     2.1850     0.6680 C.2   1 <1>   0.5440 
  3 N       -1.0340     3.0730     0.3130 N.am  1 <1>  -0.6600 
  4 C        1.3670     2.5510     0.6480 C.ar  1 <1>   0.0860 
  5 C       -2.4680     2.8290     0.6680 C.3   1 <1>   0.1400 
  6 C       -0.8240     4.2360    -0.5920 C.3   1 <1>   0.1400 
  7 C        2.3290     1.6620     0.1370 C.ar  1 <1>  -0.1520 
  8 C        1.8450     3.7680     1.1170 C.ar  1 <1>  -0.1500 
  9 C       -3.3380     2.6250    -0.5980 C.3   1 <1>   0.0000 
 10 C       -1.6620     4.0700    -1.8650 C.3   1 <1>  -0.1600 
 11 N        2.1600     0.3910    -0.3400 N.pl3 1 <1>   0.0330 
 12 C        3.6780     1.9880     0.0530 C.ar  1 <1>   0.0000 
 13 C        3.1990     4.1080     1.0490 C.ar  1 <1>  -0.1500 
 14 C       -4.8190     2.4250    -0.2310 C.3   1 <1>   0.2000 
 15 C       -3.1470     3.8250    -1.5490 C.3   1 <1>  -0.1600 
 16 C       -3.0040     1.2830    -1.2730 C.3   1 <1>  -0.1600 
 17 C        3.3790    -0.0800    -0.7420 C.2   1 <1>  -0.3020 
 18 C        4.1150     3.2300     0.5150 C.ar  1 <1>  -0.1500 
 19 C        4.3210     0.8680    -0.5180 C.2   1 <1>  -0.1500 
 20 O       -5.2130     3.2810     0.8000 O.3   1 <1>  -0.5600 
 21 C       -4.9510     0.9550     0.1810 C.3   1 <1>  -0.1600 
 22 C       -3.7750     0.2230    -0.4810 C.3   1 <1>  -0.1600 
 23 C       -6.5890     3.3830     0.9860 C.3   1 <1>   0.0400 
 24 H       -2.5540     1.9780     1.3210 H     1 <1>   0.0800 
 25 H       -2.8250     3.6840     1.2150 H     1 <1>   0.0800 
 26 H       -1.1180     5.1350    -0.0760 H     1 <1>   0.0800 
 27 H        0.2110     4.3260    -0.8690 H     1 <1>   0.0800 
 28 H        1.1540     4.4710     1.5470 H     1 <1>   0.1500 
 29 H       -1.5660     4.9560    -2.4670 H     1 <1>   0.0800 
 30 H       -1.2670     3.2470    -2.4340 H     1 <1>   0.0800 
 31 H        1.2590    -0.1070    -0.3200 H     1 <1>   0.2700 
 32 H        3.5220     5.0650     1.4200 H     1 <1>   0.1500 
 33 H       -5.4260     2.6180    -1.1000 H     1 <1>   0.0800 
 34 H       -3.6890     3.6650    -2.4650 H     1 <1>   0.0800 
 35 H       -3.5530     4.7050    -1.0790 H     1 <1>   0.0800 
 36 H       -3.3650     1.2880    -2.2870 H     1 <1>   0.0800 
 37 H       -1.9490     1.0740    -1.2880 H     1 <1>   0.0800 
 38 H        3.4990    -1.0650    -1.1580 H     1 <1>   0.1500 
 39 H        5.1600     3.4770     0.4520 H     1 <1>   0.1500 
 40 H        5.3770     0.8170    -0.7190 H     1 <1>   0.1500 
 41 H       -4.8750     0.8590     1.2500 H     1 <1>   0.0800 
 42 H       -5.8900     0.5520    -0.1540 H     1 <1>   0.0800 
 43 H       -3.1340    -0.1920     0.2800 H     1 <1>   0.0800 
 44 H       -4.1100    -0.5730    -1.1240 H     1 <1>   0.0800 
 45 H       -6.7670     4.0800     1.7860 H     1 <1>   0.0800 
 46 H       -6.9890     2.4210     1.2510 H     1 <1>   0.0800 
 47 H       -7.0440     3.7480     0.0810 H     1 <1>   0.0800 
@<TRIPOS>BOND
  1   1   2  2   
  2   2   3  am  
  3   2   4  1   
  4   3   5  1   
  5   3   6  1   
  6   4   7  ar  
  7   4   8  ar  
  8   5   9  1   
  9   5  24  1   
 10   5  25  1   
 11   6  10  1   
 12   6  26  1   
 13   6  27  1   
 14   7  11  1   
 15   7  12  ar  
 16   8  13  ar  
 17   8  28  1   
 18   9  14  1   
 19   9  15  1   
 20   9  16  1   
 21  10  15  1   
 22  10  29  1   
 23  10  30  1   
 24  11  17  1   
 25  11  31  1   
 26  12  18  ar  
 27  12  19  1   
 28  13  18  ar  
 29  13  32  1   
 30  14  20  1   
 31  14  21  1   
 32  14  33  1   
 33  15  34  1   
 34  15  35  1   
 35  16  22  1   
 36  16  36  1   
 37  16  37  1   
 38  17  19  2   
 39  17  38  1   
 40  18  39  1   
 41  19  40  1   
 42  20  23  1   
 43  21  22  1   
 44  21  41  1   
 45  21  42  1   
 46  22  43  1   
 47  22  44  1   
 48  23  45  1   
 49  23  46  1   
 50  23  47  1   
@<TRIPOS>SUBSTRUCTURE
  1 ****   3 GROUP 4 **** **** 0

# MOE 2024.06 (io_trps.svl 2023.06)
