@<TRIPOS>MOLECULE
NONAME
52 55 1 0 0 
SMALL
USER_CHARGES


@<TRIPOS>ATOM
  1 O        0.3350     0.6760    -1.3310 O.2   1 <1>  -0.5700 
  2 C        0.2250     1.7550    -0.7820 C.2   1 <1>   0.5440 
  3 N       -1.0320     2.2610    -0.5370 N.am  1 <1>  -0.6600 
  4 C        1.4290     2.4540    -0.3810 C.ar  1 <1>   0.0860 
  5 C       -2.2350     1.6440    -1.1810 C.3   1 <1>   0.1400 
  6 C       -1.2760     3.4500     0.3380 C.3   1 <1>   0.1400 
  7 C        2.3820     1.8400     0.4500 C.ar  1 <1>   0.0170 
  8 C        1.6690     3.7520    -0.8280 C.ar  1 <1>  -0.1500 
  9 C       -3.2900     2.7100    -1.4840 C.3   1 <1>  -0.1600 
 10 C       -2.6950     3.4080     0.8980 C.3   1 <1>  -0.1600 
 11 C        2.2030     0.4920     0.9300 C.cat 1 <1>   0.7830 
 12 C        3.5230     2.5560     0.8140 C.ar  1 <1>  -0.1500 
 13 C        2.8040     4.4460    -0.4580 C.ar  1 <1>  -0.1500 
 14 C       -3.7280     3.5010    -0.2370 C.3   1 <1>   0.4180 
 15 N        1.6730     0.1710     2.1100 N.pl3 1 <1>  -0.7000 
 16 N        2.5530    -0.6410     0.3050 N.pl3 1 <1>  -0.7640 
 17 C        3.7340     3.8460     0.3700 C.ar  1 <1>  -0.1500 
 18 O       -3.8070     4.8420    -0.6560 O.3   1 <1>  -0.5600 
 19 C       -5.0910     3.0030     0.2430 C.2   1 <1>  -0.2880 
 20 C        1.6590    -1.1920     2.2310 C.2   1 <1>   0.2000 
 21 C        2.2040    -1.6970     1.1070 C.2   1 <1>   0.2000 
 22 C        3.0780    -0.7650    -1.0830 C.3   1 <1>   0.2740 
 23 C       -4.6310     5.7140     0.0690 C.3   1 <1>   0.1200 
 24 C       -6.1760     3.7720     0.3530 C.2   1 <1>  -0.2760 
 25 C       -6.0920     5.2500     0.0230 C.3   1 <1>  -0.0220 
 26 C       -7.5440     3.2750     0.7870 C.3   1 <1>  -0.1020 
 27 H       -2.6450     0.8990    -0.5200 H     1 <1>   0.0800 
 28 H       -1.9520     1.1560    -2.0990 H     1 <1>   0.0800 
 29 H       -1.1500     4.3510    -0.2410 H     1 <1>   0.0800 
 30 H       -0.5700     3.4620     1.1490 H     1 <1>   0.0800 
 31 H        0.9540     4.2230    -1.4830 H     1 <1>   0.1500 
 32 H       -4.1450     2.2420    -1.9350 H     1 <1>   0.0800 
 33 H       -2.8740     3.3810    -2.2150 H     1 <1>   0.0800 
 34 H       -2.8400     4.2040     1.6030 H     1 <1>   0.0800 
 35 H       -2.8240     2.4860     1.4340 H     1 <1>   0.0800 
 36 H        4.2620     2.1000     1.4530 H     1 <1>   0.1500 
 37 H        2.9670     5.4510    -0.8130 H     1 <1>   0.1500 
 38 H        1.3180     0.8460     2.7910 H     1 <1>   0.4500 
 39 H        4.6200     4.3870     0.6600 H     1 <1>   0.1500 
 40 H       -5.0920     1.9530     0.4730 H     1 <1>   0.1500 
 41 H        1.2670    -1.7140     3.0900 H     1 <1>   0.1500 
 42 H        2.3570    -2.7300     0.8320 H     1 <1>   0.1500 
 43 H        3.3670     0.1970    -1.4690 H     1 <1>   0.0800 
 44 H        2.3130    -1.1730    -1.7230 H     1 <1>   0.0800 
 45 H        3.9340    -1.4170    -1.0970 H     1 <1>   0.0800 
 46 H       -4.5380     6.6920    -0.3670 H     1 <1>   0.0800 
 47 H       -4.2840     5.7540     1.0850 H     1 <1>   0.0800 
 48 H       -6.5030     5.4300    -0.9540 H     1 <1>   0.0800 
 49 H       -6.6550     5.8240     0.7370 H     1 <1>   0.0800 
 50 H       -7.8570     3.7810     1.6830 H     1 <1>   0.0800 
 51 H       -7.5160     2.2180     0.9830 H     1 <1>   0.0800 
 52 H       -8.2660     3.4590     0.0110 H     1 <1>   0.0800 
@<TRIPOS>BOND
  1   1   2  2   
  2   2   3  am  
  3   2   4  1   
  4   3   5  1   
  5   3   6  1   
  6   4   7  ar  
  7   4   8  ar  
  8   5   9  1   
  9   5  27  1   
 10   5  28  1   
 11   6  10  1   
 12   6  29  1   
 13   6  30  1   
 14   7  11  1   
 15   7  12  ar  
 16   8  13  ar  
 17   8  31  1   
 18   9  14  1   
 19   9  32  1   
 20   9  33  1   
 21  10  14  1   
 22  10  34  1   
 23  10  35  1   
 24  11  15  ar  
 25  11  16  ar  
 26  12  17  ar  
 27  12  36  1   
 28  13  17  ar  
 29  13  37  1   
 30  14  18  1   
 31  14  19  1   
 32  15  20  1   
 33  15  38  1   
 34  16  21  1   
 35  16  22  1   
 36  17  39  1   
 37  18  23  1   
 38  19  24  2   
 39  19  40  1   
 40  20  21  2   
 41  20  41  1   
 42  21  42  1   
 43  22  43  1   
 44  22  44  1   
 45  22  45  1   
 46  23  25  1   
 47  23  46  1   
 48  23  47  1   
 49  24  25  1   
 50  24  26  1   
 51  25  48  1   
 52  25  49  1   
 53  26  50  1   
 54  26  51  1   
 55  26  52  1   
@<TRIPOS>SUBSTRUCTURE
  1 ****   3 GROUP 4 **** **** 0

# MOE 2024.06 (io_trps.svl 2023.06)
