@<TRIPOS>MOLECULE
NONAME
60 63 1 0 0 
SMALL
USER_CHARGES


@<TRIPOS>ATOM
  1 O       -0.5220    -0.7410     1.6800 O.3   1 <1>  -0.5600 
  2 C       -0.1930    -1.7930     0.8090 C.3   1 <1>   0.2800 
  3 C       -1.8300    -0.2340     1.6810 C.3   1 <1>   0.1200 
  4 C       -1.4180    -2.2810    -0.0210 C.3   1 <1>   0.2000 
  5 C        0.3220    -2.9280     1.7220 C.3   1 <1>  -0.1600 
  6 C        0.9350    -1.2280    -0.0840 C.3   1 <1>  -0.1600 
  7 C       -2.2430     0.1160     0.2470 C.3   1 <1>  -0.1600 
  8 O       -1.0430    -3.2590    -0.9510 O.3   1 <1>  -0.6800 
  9 C       -2.2340    -1.1240    -0.6660 C.3   1 <1>   0.2800 
 10 C        1.4430    -3.6970     1.0340 C.3   1 <1>   0.3430 
 11 C        2.2770    -1.3530     0.6230 C.3   1 <1>   0.3430 
 12 O       -3.5320    -1.5800    -0.7670 O.3   1 <1>  -0.6800 
 13 C       -1.8310    -0.7410    -2.0980 C.3   1 <1>  -0.2400 
 14 N        2.6270    -2.8030     0.8150 N.4   1 <1>  -0.9590 
 15 C        3.4620    -3.3240    -0.3010 C.3   1 <1>   0.4860 
 16 C        4.7840    -2.5810    -0.3120 C.ar  1 <1>  -0.1440 
 17 C        5.0570    -1.6530    -1.3060 C.ar  1 <1>  -0.1500 
 18 C        5.7330    -2.8160     0.6730 C.ar  1 <1>  -0.1500 
 19 C        6.2540    -0.9610    -1.3040 C.ar  1 <1>  -0.1500 
 20 C        6.9270    -2.1190     0.6680 C.ar  1 <1>  -0.1500 
 21 C        7.2090    -1.1780    -0.3170 C.ar  1 <1>   0.0000 
 22 C        8.4580    -0.4510    -0.3150 C.ar  1 <1>   0.0000 
 23 C        9.6750    -1.1220    -0.3900 C.ar  1 <1>  -0.1500 
 24 C        8.4790     0.9380    -0.2380 C.ar  1 <1>  -0.1500 
 25 C       10.8780    -0.4360    -0.3880 C.ar  1 <1>  -0.1440 
 26 C        9.6740     1.6320    -0.2350 C.ar  1 <1>  -0.1500 
 27 C       10.8730     0.9460    -0.3080 C.ar  1 <1>  -0.1500 
 28 C       12.1950    -1.1870    -0.4690 C.3   1 <1>  -0.0960 
 29 H       -2.4900    -0.9680     2.1140 H     1 <1>   0.0800 
 30 H       -1.8390     0.6450     2.3020 H     1 <1>   0.0800 
 31 H       -2.0780    -2.7770     0.6700 H     1 <1>   0.0800 
 32 H        0.6890    -2.5350     2.6540 H     1 <1>   0.0800 
 33 H       -0.4750    -3.6120     1.9530 H     1 <1>   0.0800 
 34 H        0.9930    -1.7490    -1.0220 H     1 <1>   0.0800 
 35 H        0.7430    -0.1940    -0.3030 H     1 <1>   0.0800 
 36 H       -1.5430     0.8490    -0.1130 H     1 <1>   0.0800 
 37 H       -3.2130     0.5820     0.2520 H     1 <1>   0.0800 
 38 H       -1.8480    -3.5200    -1.4500 H     1 <1>   0.4000 
 39 H        1.0730    -4.0550     0.0850 H     1 <1>   0.0800 
 40 H        1.7270    -4.5490     1.6290 H     1 <1>   0.0800 
 41 H        2.1950    -0.8710     1.5840 H     1 <1>   0.0800 
 42 H        3.0450    -0.8440     0.0630 H     1 <1>   0.0800 
 43 H       -4.0850    -0.9140    -1.2190 H     1 <1>   0.4000 
 44 H       -0.8110    -0.4100    -2.1300 H     1 <1>   0.0800 
 45 H       -2.4470     0.0630    -2.4610 H     1 <1>   0.0800 
 46 H       -1.9310    -1.5800    -2.7630 H     1 <1>   0.0800 
 47 H        3.2220    -2.8370     1.6520 H     1 <1>   0.4500 
 48 H        3.6510    -4.3760    -0.1640 H     1 <1>   0.0800 
 49 H        2.9530    -3.1880    -1.2410 H     1 <1>   0.0800 
 50 H        4.3470    -1.4580    -2.0930 H     1 <1>   0.1500 
 51 H        5.5630    -3.5410     1.4500 H     1 <1>   0.1500 
 52 H        6.4640    -0.2450    -2.0790 H     1 <1>   0.1500 
 53 H        7.6600    -2.2990     1.4360 H     1 <1>   0.1500 
 54 H        9.6720    -2.1950    -0.4540 H     1 <1>   0.1500 
 55 H        7.5510     1.4770    -0.1770 H     1 <1>   0.1500 
 56 H        9.6750     2.7070    -0.1730 H     1 <1>   0.1500 
 57 H       11.8000     1.4920    -0.3030 H     1 <1>   0.1500 
 58 H       12.8850    -0.6590    -1.1040 H     1 <1>   0.0800 
 59 H       12.0480    -2.1720    -0.8740 H     1 <1>   0.0800 
 60 H       12.6240    -1.2750     0.5130 H     1 <1>   0.0800 
@<TRIPOS>BOND
  1   1   2  1   
  2   1   3  1   
  3   2   4  1   
  4   2   5  1   
  5   2   6  1   
  6   3   7  1   
  7   3  29  1   
  8   3  30  1   
  9   4   8  1   
 10   4   9  1   
 11   4  31  1   
 12   5  10  1   
 13   5  32  1   
 14   5  33  1   
 15   6  11  1   
 16   6  34  1   
 17   6  35  1   
 18   7   9  1   
 19   7  36  1   
 20   7  37  1   
 21   8  38  1   
 22   9  12  1   
 23   9  13  1   
 24  10  14  1   
 25  10  39  1   
 26  10  40  1   
 27  11  14  1   
 28  11  41  1   
 29  11  42  1   
 30  12  43  1   
 31  13  44  1   
 32  13  45  1   
 33  13  46  1   
 34  14  15  1   
 35  14  47  1   
 36  15  16  1   
 37  15  48  1   
 38  15  49  1   
 39  16  17  ar  
 40  16  18  ar  
 41  17  19  ar  
 42  17  50  1   
 43  18  20  ar  
 44  18  51  1   
 45  19  21  ar  
 46  19  52  1   
 47  20  21  ar  
 48  20  53  1   
 49  21  22  1   
 50  22  23  ar  
 51  22  24  ar  
 52  23  25  ar  
 53  23  54  1   
 54  24  26  ar  
 55  24  55  1   
 56  25  27  ar  
 57  25  28  1   
 58  26  27  ar  
 59  26  56  1   
 60  27  57  1   
 61  28  58  1   
 62  28  59  1   
 63  28  60  1   
@<TRIPOS>SUBSTRUCTURE
  1 ****  11 GROUP 4 **** **** 0

# MOE 2024.06 (io_trps.svl 2023.06)
