@<TRIPOS>MOLECULE
NONAME
48 51 1 0 0 
SMALL
USER_CHARGES


@<TRIPOS>ATOM
  1 O       -1.8820     0.7010     3.0710 O.2   1 <1>  -0.5700 
  2 C       -2.1510     1.2570     2.0310 C.2   1 <1>   0.5690 
  3 N       -2.6810     0.5670     0.9740 N.am  1 <1>  -0.6600 
  4 C       -1.8880     2.7550     1.9380 C.3   1 <1>   0.0440 
  5 C       -2.9240     1.0850    -0.3990 C.3   1 <1>   0.1400 
  6 C       -2.9330    -0.8890     1.0120 C.3   1 <1>   0.1400 
  7 C       -0.8780     3.1300     0.8560 C.ar  1 <1>  -0.1440 
  8 C       -3.4360    -0.1120    -1.2110 C.3   1 <1>   0.2000 
  9 C       -2.8890    -1.3260    -0.4530 C.3   1 <1>  -0.0800 
 10 C        0.3130     2.4180     0.7430 C.ar  1 <1>  -0.1500 
 11 C       -1.1510     4.1750    -0.0270 C.ar  1 <1>  -0.1500 
 12 O       -4.8350    -0.1510    -1.1770 O.3   1 <1>  -0.5600 
 13 C       -3.6350    -2.6440    -0.7260 C.3   1 <1>   0.0200 
 14 C        1.1900     2.7670    -0.2640 C.ar  1 <1>   0.0820 
 15 C       -0.2540     4.5140    -1.0330 C.ar  1 <1>  -0.1500 
 16 C       -5.4740     0.6120    -2.1520 C.3   1 <1>   0.0400 
 17 C       -2.9510    -3.8520    -0.1070 C.2   1 <1>  -0.0400 
 18 O        2.3720     2.2180    -0.5610 O.3   1 <1>  -0.3630 
 19 C        0.9140     3.7850    -1.1280 C.ar  1 <1>   0.0820 
 20 O       -3.5310    -5.0200    -0.1980 O.3   1 <1>  -0.0190 
 21 C       -1.7980    -4.0230     0.5610 C.2   1 <1>  -0.1500 
 22 C        2.8910     2.9440    -1.6740 C.3   1 <1>   0.4000 
 23 O        1.9100     3.9250    -2.0080 O.3   1 <1>  -0.3630 
 24 N       -2.8330    -5.9580     0.3720 N.2   1 <1>  -0.4100 
 25 C       -1.7830    -5.3860     0.8390 C.2   1 <1>   0.1080 
 26 C       -0.6840    -6.1040     1.5900 C.3   1 <1>  -0.0590 
 27 H       -2.8270     3.2460     1.7620 H     1 <1>   0.0800 
 28 H       -1.5170     3.0980     2.8870 H     1 <1>   0.0800 
 29 H       -3.6310     1.8950    -0.3880 H     1 <1>   0.0800 
 30 H       -1.9910     1.4190    -0.8170 H     1 <1>   0.0800 
 31 H       -2.1950    -1.3940     1.6100 H     1 <1>   0.0800 
 32 H       -3.9110    -1.0590     1.4290 H     1 <1>   0.0800 
 33 H       -3.1040    -0.0940    -2.2360 H     1 <1>   0.0800 
 34 H       -1.8570    -1.4460    -0.7310 H     1 <1>   0.0800 
 35 H        0.5590     1.6110     1.4120 H     1 <1>   0.1500 
 36 H       -2.0660     4.7350     0.0630 H     1 <1>   0.1500 
 37 H       -3.7030    -2.8020    -1.7870 H     1 <1>   0.0800 
 38 H       -4.6380    -2.5820    -0.3410 H     1 <1>   0.0800 
 39 H       -0.4490     5.3170    -1.7200 H     1 <1>   0.1500 
 40 H       -6.5350     0.5120    -2.0100 H     1 <1>   0.0800 
 41 H       -5.2040     0.2410    -3.1260 H     1 <1>   0.0800 
 42 H       -5.1920     1.6450    -2.0470 H     1 <1>   0.0800 
 43 H       -1.0390    -3.3150     0.8360 H     1 <1>   0.1500 
 44 H        3.8060     3.4320    -1.3900 H     1 <1>   0.0800 
 45 H        3.0340     2.2780    -2.5050 H     1 <1>   0.0800 
 46 H        0.2570    -5.9510     1.0950 H     1 <1>   0.0800 
 47 H       -0.8920    -7.1590     1.6250 H     1 <1>   0.0800 
 48 H       -0.6240    -5.7270     2.5940 H     1 <1>   0.0800 
@<TRIPOS>BOND
  1   1   2  2   
  2   2   3  am  
  3   2   4  1   
  4   3   5  1   
  5   3   6  1   
  6   4   7  1   
  7   4  27  1   
  8   4  28  1   
  9   5   8  1   
 10   5  29  1   
 11   5  30  1   
 12   6   9  1   
 13   6  31  1   
 14   6  32  1   
 15   7  10  ar  
 16   7  11  ar  
 17   8   9  1   
 18   8  12  1   
 19   8  33  1   
 20   9  13  1   
 21   9  34  1   
 22  10  14  ar  
 23  10  35  1   
 24  11  15  ar  
 25  11  36  1   
 26  12  16  1   
 27  13  17  1   
 28  13  37  1   
 29  13  38  1   
 30  14  18  1   
 31  14  19  ar  
 32  15  19  ar  
 33  15  39  1   
 34  16  40  1   
 35  16  41  1   
 36  16  42  1   
 37  17  20  1   
 38  17  21  2   
 39  18  22  1   
 40  19  23  1   
 41  20  24  1   
 42  21  25  1   
 43  21  43  1   
 44  22  23  1   
 45  22  44  1   
 46  22  45  1   
 47  24  25  2   
 48  25  26  1   
 49  26  46  1   
 50  26  47  1   
 51  26  48  1   
@<TRIPOS>SUBSTRUCTURE
  1 ****   3 GROUP 4 **** **** 0

# MOE 2024.06 (io_trps.svl 2023.06)
