@<TRIPOS>MOLECULE
NONAME
44 45 1 0 0 
SMALL
USER_CHARGES


@<TRIPOS>ATOM
  1 BR       0.1650     1.6500    -0.3800 Br    1 <1>  -0.1110 
  2 C       -1.3590     0.5090    -0.1060 C.ar  1 <1>   0.1110 
  3 C       -2.2390     0.3060    -1.1510 C.ar  1 <1>  -0.1500 
  4 C       -1.5390    -0.0810     1.1300 C.ar  1 <1>  -0.1500 
  5 C       -3.3310    -0.5180    -0.9460 C.ar  1 <1>  -0.1500 
  6 C       -2.6360    -0.9020     1.3170 C.ar  1 <1>  -0.1500 
  7 C       -3.5510    -1.1370     0.2870 C.ar  1 <1>   0.0280 
  8 C       -4.6830    -2.0120     0.4950 C.2   1 <1>  -0.0140 
  9 C       -4.5300    -3.3340     0.8290 C.2   1 <1>   0.2480 
 10 C       -6.0210    -1.5020     0.3760 C.2   1 <1>   0.4860 
 11 O       -3.3300    -3.9000     0.9950 O.3   1 <1>  -0.3570 
 12 N       -5.5630    -4.2010     1.0350 N.2   1 <1>  -0.6210 
 13 N       -7.0130    -2.4470     0.5610 N.pl3 1 <1>  -0.5000 
 14 N       -6.2620    -0.2740     0.1120 N.2   1 <1>  -0.6380 
 15 C       -2.5450    -4.2130    -0.1410 C.3   1 <1>   0.1200 
 16 C       -6.7480    -3.7380     0.8920 C.2   1 <1>   0.4400 
 17 S       -7.8210     0.3040     0.2190 S.o2  1 <1>   1.6260 
 18 C       -2.7700    -5.6760    -0.5430 C.3   1 <1>   0.1200 
 19 O       -8.6920    -0.5560    -0.5550 O.2   1 <1>  -0.6500 
 20 O       -8.1290     0.5950     1.5990 O.2   1 <1>  -0.6500 
 21 N       -7.6830     1.7320    -0.6390 N.am  1 <1>  -0.9140 
 22 O       -4.1100    -5.8870    -0.8210 O.3   1 <1>  -0.6800 
 23 C       -8.6690     2.7500    -0.3230 C.3   1 <1>   0.1960 
 24 C      -10.0410     2.3880    -0.9020 C.3   1 <1>  -0.1600 
 25 C      -11.0460     3.5250    -0.6920 C.3   1 <1>  -0.2400 
 26 H       -2.0710     0.7840    -2.1000 H     1 <1>   0.1500 
 27 H       -0.8360     0.0990     1.9240 H     1 <1>   0.1500 
 28 H       -4.0270    -0.6840    -1.7490 H     1 <1>   0.1500 
 29 H       -2.7920    -1.3730     2.2720 H     1 <1>   0.1500 
 30 H       -7.9780    -2.1800     0.3420 H     1 <1>   0.4000 
 31 H       -1.5150    -4.0580     0.1260 H     1 <1>   0.0800 
 32 H       -2.7990    -3.5530    -0.9510 H     1 <1>   0.0800 
 33 H       -7.5950    -4.3880     1.0290 H     1 <1>   0.0600 
 34 H       -2.4820    -6.3330     0.2590 H     1 <1>   0.0800 
 35 H       -2.2030    -5.9240    -1.4240 H     1 <1>   0.0800 
 36 H       -7.7980     1.4510    -1.6070 H     1 <1>   0.4200 
 37 H       -4.6480    -5.4720    -0.0990 H     1 <1>   0.4000 
 38 H       -8.3420     3.6810    -0.7540 H     1 <1>   0.0800 
 39 H       -8.7320     2.8910     0.7450 H     1 <1>   0.0800 
 40 H      -10.4240     1.5050    -0.4220 H     1 <1>   0.0800 
 41 H       -9.9510     2.1960    -1.9570 H     1 <1>   0.0800 
 42 H      -11.1720     3.7280     0.3580 H     1 <1>   0.0800 
 43 H      -12.0030     3.2510    -1.1010 H     1 <1>   0.0800 
 44 H      -10.7120     4.4230    -1.1810 H     1 <1>   0.0800 
@<TRIPOS>BOND
  1   1   2  1   
  2   2   3  ar  
  3   2   4  ar  
  4   3   5  ar  
  5   3  26  1   
  6   4   6  ar  
  7   4  27  1   
  8   5   7  ar  
  9   5  28  1   
 10   6   7  ar  
 11   6  29  1   
 12   7   8  1   
 13   8   9  2   
 14   8  10  1   
 15   9  11  1   
 16   9  12  1   
 17  10  13  1   
 18  10  14  2   
 19  11  15  1   
 20  12  16  2   
 21  13  16  1   
 22  13  30  1   
 23  14  17  1   
 24  15  18  1   
 25  15  31  1   
 26  15  32  1   
 27  16  33  1   
 28  17  19  2   
 29  17  20  2   
 30  17  21  am  
 31  18  22  1   
 32  18  34  1   
 33  18  35  1   
 34  21  23  1   
 35  21  36  1   
 36  22  37  1   
 37  23  24  1   
 38  23  38  1   
 39  23  39  1   
 40  24  25  1   
 41  24  40  1   
 42  24  41  1   
 43  25  42  1   
 44  25  43  1   
 45  25  44  1   
@<TRIPOS>SUBSTRUCTURE
  1 ****  10 GROUP 4 **** **** 0

# MOE 2024.06 (io_trps.svl 2023.06)
