@<TRIPOS>MOLECULE
NONAME
55 58 1 0 0 
SMALL
USER_CHARGES


@<TRIPOS>ATOM
  1 S        0.4470     0.9640    -1.9130 S.o2  1 <1>   1.4470 
  2 O       -0.5960     0.3650    -2.7160 O.2   1 <1>  -0.6500 
  3 O        1.2160     2.0550    -2.4710 O.2   1 <1>  -0.6500 
  4 N       -0.2520     1.5590    -0.4850 N.am  1 <1>  -0.8490 
  5 C        1.5980    -0.3130    -1.3310 C.ar  1 <1>  -0.0090 
  6 C       -0.8740     0.5840     0.4310 C.3   1 <1>   0.1960 
  7 C       -1.0030     2.8120    -0.6670 C.3   1 <1>   0.1960 
  8 C        2.6120    -0.0030    -0.4350 C.ar  1 <1>  -0.1500 
  9 C        1.5030    -1.6280    -1.7660 C.ar  1 <1>  -0.1500 
 10 C       -2.3460     0.1930     0.1050 C.3   1 <1>   0.0000 
 11 C       -2.4790     2.7060    -0.2540 C.3   1 <1>  -0.1600 
 12 C        3.4950    -0.9620     0.0330 C.ar  1 <1>  -0.1430 
 13 C        2.3760    -2.5970    -1.3060 C.ar  1 <1>  -0.1500 
 14 C       -3.1140    -0.1330     1.4070 C.3   1 <1>   0.2000 
 15 C       -3.0640     1.3450    -0.6510 C.3   1 <1>  -0.1600 
 16 C       -2.4810    -1.1270    -0.6860 C.3   1 <1>  -0.1600 
 17 C        3.3670    -2.2910    -0.3790 C.ar  1 <1>   0.1170 
 18 C        4.6210    -0.5180     0.9640 C.3   1 <1>  -0.0170 
 19 O       -2.3250    -0.8990     2.2510 O.3   1 <1>  -0.6800 
 20 C       -4.2850    -1.0160     0.9850 C.3   1 <1>  -0.1600 
 21 C       -3.8110    -1.7690    -0.2640 C.3   1 <1>  -0.1600 
 22 N        4.2430    -3.2780     0.1180 N.am  1 <1>  -0.4770 
 23 C        5.4720    -1.6840     1.4870 C.3   1 <1>  -0.1600 
 24 C        3.9090    -4.5590     0.5120 C.2   1 <1>   0.5690 
 25 C        5.6090    -2.7840     0.4330 C.3   1 <1>   0.1400 
 26 O        4.7390    -5.4040     0.7450 O.2   1 <1>  -0.5700 
 27 C        2.4630    -4.9600     0.7150 C.3   1 <1>  -0.1790 
 28 H       -0.2640    -0.2980     0.5150 H     1 <1>   0.0800 
 29 H       -0.8650     1.0410     1.4070 H     1 <1>   0.0800 
 30 H       -0.5260     3.5890    -0.0940 H     1 <1>   0.0800 
 31 H       -0.9620     3.1110    -1.7020 H     1 <1>   0.0800 
 32 H        2.7100     1.0190    -0.1080 H     1 <1>   0.1500 
 33 H        0.7400    -1.8950    -2.4780 H     1 <1>   0.1500 
 34 H       -2.5660     2.8510     0.8080 H     1 <1>   0.0800 
 35 H       -3.0310     3.4960    -0.7330 H     1 <1>   0.0800 
 36 H        2.2920    -3.5990    -1.6840 H     1 <1>   0.1500 
 37 H       -3.4230     0.7480     1.9450 H     1 <1>   0.0800 
 38 H       -2.9250     1.2280    -1.7120 H     1 <1>   0.0800 
 39 H       -4.1240     1.3370    -0.4720 H     1 <1>   0.0800 
 40 H       -2.4530    -0.9820    -1.7510 H     1 <1>   0.0800 
 41 H       -1.6790    -1.7940    -0.4230 H     1 <1>   0.0800 
 42 H        5.2580     0.1510     0.4110 H     1 <1>   0.0800 
 43 H        4.2140     0.0300     1.7960 H     1 <1>   0.0800 
 44 H       -2.2430    -1.7950     1.8730 H     1 <1>   0.4000 
 45 H       -4.6040    -1.6770     1.7730 H     1 <1>   0.0800 
 46 H       -5.1180    -0.3890     0.7200 H     1 <1>   0.0800 
 47 H       -3.6720    -2.8150    -0.0530 H     1 <1>   0.0800 
 48 H       -4.5410    -1.6700    -1.0500 H     1 <1>   0.0800 
 49 H        5.0090    -2.1060     2.3620 H     1 <1>   0.0800 
 50 H        6.4450    -1.3250     1.7700 H     1 <1>   0.0800 
 51 H        6.2350    -3.5750     0.8090 H     1 <1>   0.0800 
 52 H        6.0590    -2.3940    -0.4630 H     1 <1>   0.0800 
 53 H        1.8750    -4.1180     1.0260 H     1 <1>   0.0800 
 54 H        2.4090    -5.7130     1.4790 H     1 <1>   0.0800 
 55 H        2.0680    -5.3690    -0.1950 H     1 <1>   0.0800 
@<TRIPOS>BOND
  1   1   2  2   
  2   1   3  2   
  3   1   4  am  
  4   1   5  1   
  5   4   6  1   
  6   4   7  1   
  7   5   8  ar  
  8   5   9  ar  
  9   6  10  1   
 10   6  28  1   
 11   6  29  1   
 12   7  11  1   
 13   7  30  1   
 14   7  31  1   
 15   8  12  ar  
 16   8  32  1   
 17   9  13  ar  
 18   9  33  1   
 19  10  14  1   
 20  10  15  1   
 21  10  16  1   
 22  11  15  1   
 23  11  34  1   
 24  11  35  1   
 25  12  17  ar  
 26  12  18  1   
 27  13  17  ar  
 28  13  36  1   
 29  14  19  1   
 30  14  20  1   
 31  14  37  1   
 32  15  38  1   
 33  15  39  1   
 34  16  21  1   
 35  16  40  1   
 36  16  41  1   
 37  17  22  1   
 38  18  23  1   
 39  18  42  1   
 40  18  43  1   
 41  19  44  1   
 42  20  21  1   
 43  20  45  1   
 44  20  46  1   
 45  21  47  1   
 46  21  48  1   
 47  22  24  am  
 48  22  25  1   
 49  23  25  1   
 50  23  49  1   
 51  23  50  1   
 52  24  26  2   
 53  24  27  1   
 54  25  51  1   
 55  25  52  1   
 56  27  53  1   
 57  27  54  1   
 58  27  55  1   
@<TRIPOS>SUBSTRUCTURE
  1 ****   5 GROUP 4 **** **** 0

# MOE 2024.06 (io_trps.svl 2023.06)
