@<TRIPOS>MOLECULE
NONAME
45 47 1 0 0 
SMALL
USER_CHARGES


@<TRIPOS>ATOM
  1 F       -1.5960     1.5840    -1.8270 F     1 <1>  -0.1900 
  2 C       -0.9410     2.1530    -0.8520 C.ar  1 <1>   0.1900 
  3 C       -1.5440     2.2690     0.3980 C.ar  1 <1>   0.0860 
  4 C        0.3290     2.6250    -1.1240 C.ar  1 <1>  -0.1500 
  5 C       -2.8750     1.7750     0.6620 C.2   1 <1>   0.5440 
  6 C       -0.7930     2.8880     1.3980 C.ar  1 <1>  -0.1500 
  7 C        1.0450     3.2400    -0.1120 C.ar  1 <1>  -0.1500 
  8 O       -3.0030     0.7260     1.2650 O.2   1 <1>  -0.5700 
  9 N       -4.0030     2.4760     0.2840 N.am  1 <1>  -0.6600 
 10 C        0.4810     3.3690     1.1480 C.ar  1 <1>  -0.1500 
 11 C       -3.9430     3.7650    -0.4680 C.3   1 <1>   0.1400 
 12 C       -5.3620     1.9510     0.6130 C.3   1 <1>   0.1400 
 13 C       -5.1730     3.8900    -1.3650 C.3   1 <1>  -0.1600 
 14 C       -6.3700     3.0970     0.7390 C.3   1 <1>  -0.1600 
 15 C       -6.4710     3.9610    -0.5400 C.3   1 <1>   0.2800 
 16 O       -6.5580     5.2940    -0.0930 O.3   1 <1>  -0.5600 
 17 C       -7.6700     3.5380    -1.4320 C.3   1 <1>  -0.1600 
 18 C       -7.6630     6.0760    -0.4720 C.3   1 <1>   0.1200 
 19 C       -9.0580     4.0670    -0.9940 C.3   1 <1>   0.2800 
 20 C       -8.9510     5.3350    -0.1050 C.3   1 <1>   0.2000 
 21 O       -9.6970     4.4550    -2.1580 O.3   1 <1>  -0.6800 
 22 C       -9.9590     2.9740    -0.4040 C.3   1 <1>  -0.2400 
 23 O       -8.8600     5.0190     1.2500 O.3   1 <1>  -0.6800 
 24 H        0.7470     2.5110    -2.1080 H     1 <1>   0.1500 
 25 H       -1.2220     2.9850     2.3810 H     1 <1>   0.1500 
 26 H        2.0370     3.6150    -0.3010 H     1 <1>   0.1500 
 27 H        1.0400     3.8440     1.9370 H     1 <1>   0.1500 
 28 H       -3.9150     4.5850     0.2300 H     1 <1>   0.0800 
 29 H       -3.0590     3.8070    -1.0790 H     1 <1>   0.0800 
 30 H       -5.6680     1.2690    -0.1610 H     1 <1>   0.0800 
 31 H       -5.3270     1.4060     1.5420 H     1 <1>   0.0800 
 32 H       -5.1890     3.0350    -2.0180 H     1 <1>   0.0800 
 33 H       -5.0890     4.7650    -1.9830 H     1 <1>   0.0800 
 34 H       -6.0530     3.7040     1.5690 H     1 <1>   0.0800 
 35 H       -7.3240     2.6810     0.9930 H     1 <1>   0.0800 
 36 H       -7.4610     3.9000    -2.4240 H     1 <1>   0.0800 
 37 H       -7.6880     2.4660    -1.5010 H     1 <1>   0.0800 
 38 H       -7.6080     7.0140     0.0510 H     1 <1>   0.0800 
 39 H       -7.6130     6.2660    -1.5300 H     1 <1>   0.0800 
 40 H       -9.8200     5.9550    -0.2360 H     1 <1>   0.0800 
 41 H       -9.9330     3.6640    -2.6770 H     1 <1>   0.4000 
 42 H       -9.5410     2.5900     0.5080 H     1 <1>   0.0800 
 43 H      -10.0750     2.1530    -1.0880 H     1 <1>   0.0800 
 44 H      -10.9260     3.3830    -0.1700 H     1 <1>   0.0800 
 45 H       -7.9060     4.8980     1.4450 H     1 <1>   0.4000 
@<TRIPOS>BOND
  1   1   2  1   
  2   2   3  ar  
  3   2   4  ar  
  4   3   5  1   
  5   3   6  ar  
  6   4   7  ar  
  7   4  24  1   
  8   5   8  2   
  9   5   9  am  
 10   6  10  ar  
 11   6  25  1   
 12   7  10  ar  
 13   7  26  1   
 14   9  11  1   
 15   9  12  1   
 16  10  27  1   
 17  11  13  1   
 18  11  28  1   
 19  11  29  1   
 20  12  14  1   
 21  12  30  1   
 22  12  31  1   
 23  13  15  1   
 24  13  32  1   
 25  13  33  1   
 26  14  15  1   
 27  14  34  1   
 28  14  35  1   
 29  15  16  1   
 30  15  17  1   
 31  16  18  1   
 32  17  19  1   
 33  17  36  1   
 34  17  37  1   
 35  18  20  1   
 36  18  38  1   
 37  18  39  1   
 38  19  20  1   
 39  19  21  1   
 40  19  22  1   
 41  20  23  1   
 42  20  40  1   
 43  21  41  1   
 44  22  42  1   
 45  22  43  1   
 46  22  44  1   
 47  23  45  1   
@<TRIPOS>SUBSTRUCTURE
  1 ****  11 GROUP 4 **** **** 0

# MOE 2024.06 (io_trps.svl 2023.06)
