@<TRIPOS>MOLECULE
NONAME
51 52 1 0 0 
SMALL
USER_CHARGES


@<TRIPOS>ATOM
  1 S        0.4190     0.3480    -0.0090 S.o2  1 <1>   1.3330 
  2 O        0.3460     0.1790     1.4260 O.2   1 <1>  -0.6500 
  3 O        0.3380    -0.8110    -0.8680 O.2   1 <1>  -0.6500 
  4 N       -0.7970     1.4410    -0.4660 N.am  1 <1>  -0.8490 
  5 C        1.9270     1.2240    -0.4130 C.3   1 <1>  -0.0550 
  6 C       -1.0720     2.4670     0.5460 C.3   1 <1>   0.1160 
  7 C       -2.0410     0.7620    -0.8420 C.3   1 <1>   0.1160 
  8 C        3.1950     0.3720    -0.2050 C.3   1 <1>  -0.0800 
  9 C        4.4960     1.0370    -0.6290 C.3   1 <1>   0.2200 
 10 C        3.4710    -0.0270     1.2510 C.3   1 <1>   0.1200 
 11 N        4.5310     2.4540    -0.1950 N.am  1 <1>  -0.7300 
 12 C        5.4910     0.2500     0.2090 C.3   1 <1>   0.1200 
 13 O        4.8550     0.0700     1.4370 O.3   1 <1>  -0.5600 
 14 C        4.3010     3.5190    -0.9990 C.2   1 <1>   0.5690 
 15 O        3.9830     3.3860    -2.1540 O.2   1 <1>  -0.5700 
 16 C        4.4370     4.9100    -0.4230 C.3   1 <1>  -0.0990 
 17 C        5.8050     5.5120    -0.7580 C.3   1 <1>  -0.0170 
 18 C        5.9380     6.8950    -0.1400 C.ar  1 <1>  -0.1440 
 19 C        5.4660     8.0090    -0.8170 C.ar  1 <1>  -0.1500 
 20 C        6.5270     7.0550     1.1050 C.ar  1 <1>  -0.1500 
 21 C        5.5800     9.2710    -0.2590 C.ar  1 <1>  -0.1500 
 22 C        6.6420     8.3150     1.6650 C.ar  1 <1>  -0.1500 
 23 C        6.1720     9.4300     0.9910 C.ar  1 <1>   0.0820 
 24 O        6.3240    10.6280     1.6100 O.3   1 <1>  -0.3630 
 25 C        5.8960    11.8260     1.0020 C.3   1 <1>   0.0400 
 26 H        1.8850     1.5260    -1.4430 H     1 <1>   0.0800 
 27 H        1.9850     2.1120     0.1830 H     1 <1>   0.0800 
 28 H       -1.7840     3.1790     0.1650 H     1 <1>   0.0800 
 29 H       -0.1670     2.9930     0.7960 H     1 <1>   0.0800 
 30 H       -1.4700     2.0160     1.4410 H     1 <1>   0.0800 
 31 H       -2.7820     1.4820    -1.1440 H     1 <1>   0.0800 
 32 H       -2.4190     0.1870    -0.0130 H     1 <1>   0.0800 
 33 H       -1.8610     0.0980    -1.6710 H     1 <1>   0.0800 
 34 H        3.0870    -0.5360    -0.7740 H     1 <1>   0.0800 
 35 H        4.6850     0.9550    -1.6860 H     1 <1>   0.0800 
 36 H        3.1600    -1.0380     1.4550 H     1 <1>   0.0800 
 37 H        3.0010     0.6440     1.9500 H     1 <1>   0.0800 
 38 H        4.7650     2.5760     0.7930 H     1 <1>   0.3700 
 39 H        6.4230     0.7670     0.3520 H     1 <1>   0.0800 
 40 H        5.6700    -0.7220    -0.2180 H     1 <1>   0.0800 
 41 H        3.6620     5.5290    -0.8360 H     1 <1>   0.0800 
 42 H        4.3040     4.8770     0.6420 H     1 <1>   0.0800 
 43 H        5.9170     5.5790    -1.8260 H     1 <1>   0.0800 
 44 H        6.5860     4.8720    -0.3880 H     1 <1>   0.0800 
 45 H        5.0070     7.8980    -1.7840 H     1 <1>   0.1500 
 46 H        6.9000     6.2030     1.6450 H     1 <1>   0.1500 
 47 H        5.2050    10.1130    -0.8090 H     1 <1>   0.1500 
 48 H        7.0980     8.4420     2.6290 H     1 <1>   0.1500 
 49 H        6.1230    12.6380     1.6690 H     1 <1>   0.0800 
 50 H        4.8340    11.7740     0.8380 H     1 <1>   0.0800 
 51 H        6.4250    11.9550     0.0750 H     1 <1>   0.0800 
@<TRIPOS>BOND
  1   1   2  2   
  2   1   3  2   
  3   1   4  am  
  4   1   5  1   
  5   4   6  1   
  6   4   7  1   
  7   5   8  1   
  8   5  26  1   
  9   5  27  1   
 10   6  28  1   
 11   6  29  1   
 12   6  30  1   
 13   7  31  1   
 14   7  32  1   
 15   7  33  1   
 16   8   9  1   
 17   8  10  1   
 18   8  34  1   
 19   9  11  1   
 20   9  12  1   
 21   9  35  1   
 22  10  13  1   
 23  10  36  1   
 24  10  37  1   
 25  11  14  am  
 26  11  38  1   
 27  12  13  1   
 28  12  39  1   
 29  12  40  1   
 30  14  15  2   
 31  14  16  1   
 32  16  17  1   
 33  16  41  1   
 34  16  42  1   
 35  17  18  1   
 36  17  43  1   
 37  17  44  1   
 38  18  19  ar  
 39  18  20  ar  
 40  19  21  ar  
 41  19  45  1   
 42  20  22  ar  
 43  20  46  1   
 44  21  23  ar  
 45  21  47  1   
 46  22  23  ar  
 47  22  48  1   
 48  23  24  1   
 49  24  25  1   
 50  25  49  1   
 51  25  50  1   
 52  25  51  1   
@<TRIPOS>SUBSTRUCTURE
  1 ****  14 GROUP 4 **** **** 0

# MOE 2024.06 (io_trps.svl 2023.06)
