@<TRIPOS>MOLECULE
NONAME
44 46 1 0 0 
SMALL
USER_CHARGES


@<TRIPOS>ATOM
  1 F       -1.7470    -0.4750     1.9440 F     1 <1>  -0.1900 
  2 C       -1.3920    -1.1880     0.9090 C.ar  1 <1>   0.1900 
  3 C       -2.0660    -2.3720     0.6240 C.ar  1 <1>  -0.1440 
  4 C       -0.3470    -0.7180     0.1370 C.ar  1 <1>  -0.1500 
  5 C       -1.6600    -3.1080    -0.4840 C.ar  1 <1>  -0.1500 
  6 C       -3.2200    -2.8850     1.4870 C.3   1 <1>   0.0450 
  7 C        0.0210    -1.4780    -0.9540 C.ar  1 <1>   0.1900 
  8 C       -0.6140    -2.6630    -1.2800 C.ar  1 <1>  -0.1500 
  9 C       -4.4670    -3.2060     0.6730 C.2   1 <1>   0.5690 
 10 F        1.0050    -1.0640    -1.7050 F     1 <1>  -0.1900 
 11 O       -4.7090    -4.3770     0.4890 O.2   1 <1>  -0.5700 
 12 N       -5.2800    -2.2140     0.1760 N.am  1 <1>  -0.6600 
 13 C       -5.0400    -0.7490     0.3050 C.3   1 <1>   0.1400 
 14 C       -6.5040    -2.5370    -0.6100 C.3   1 <1>   0.1400 
 15 C       -6.2390    -0.1060     1.0050 C.3   1 <1>  -0.1600 
 16 C       -7.7230    -1.9050     0.0670 C.3   1 <1>  -0.1600 
 17 C       -7.5490    -0.3960     0.2580 C.3   1 <1>   0.4180 
 18 O       -7.4810     0.1580    -1.0340 O.3   1 <1>  -0.5600 
 19 C       -8.7470     0.1670     1.0180 C.2   1 <1>  -0.2880 
 20 C       -7.7540     1.5260    -1.1660 C.3   1 <1>   0.1200 
 21 C       -9.5160     1.1650     0.5740 C.2   1 <1>  -0.2760 
 22 C       -9.1990     1.8320    -0.7520 C.3   1 <1>  -0.0220 
 23 C      -10.7330     1.7040     1.3020 C.3   1 <1>  -0.1020 
 24 H        0.1590     0.1990     0.3760 H     1 <1>   0.1500 
 25 H       -2.1590    -4.0320    -0.7340 H     1 <1>   0.1500 
 26 H       -3.4850    -2.1890     2.2590 H     1 <1>   0.0800 
 27 H       -2.8990    -3.7850     1.9800 H     1 <1>   0.0800 
 28 H       -0.2950    -3.2250    -2.1390 H     1 <1>   0.1500 
 29 H       -4.9220    -0.3270    -0.6780 H     1 <1>   0.0800 
 30 H       -4.1480    -0.5420     0.8630 H     1 <1>   0.0800 
 31 H       -6.6450    -3.6020    -0.6840 H     1 <1>   0.0800 
 32 H       -6.3950    -2.1460    -1.6080 H     1 <1>   0.0800 
 33 H       -6.0900     0.9520     1.0960 H     1 <1>   0.0800 
 34 H       -6.3070    -0.5030     2.0010 H     1 <1>   0.0800 
 35 H       -7.8670    -2.3780     1.0210 H     1 <1>   0.0800 
 36 H       -8.6030    -2.0860    -0.5230 H     1 <1>   0.0800 
 37 H       -8.9180    -0.3330     1.9540 H     1 <1>   0.1500 
 38 H       -7.5960     1.7940    -2.1960 H     1 <1>   0.0800 
 39 H       -7.0620     2.0760    -0.5550 H     1 <1>   0.0800 
 40 H       -9.8770     1.4800    -1.5090 H     1 <1>   0.0800 
 41 H       -9.3120     2.8980    -0.6690 H     1 <1>   0.0800 
 42 H      -11.6090     1.5970     0.6880 H     1 <1>   0.0800 
 43 H      -10.5970     2.7450     1.5370 H     1 <1>   0.0800 
 44 H      -10.8920     1.1660     2.2200 H     1 <1>   0.0800 
@<TRIPOS>BOND
  1   1   2  1   
  2   2   3  ar  
  3   2   4  ar  
  4   3   5  ar  
  5   3   6  1   
  6   4   7  ar  
  7   4  24  1   
  8   5   8  ar  
  9   5  25  1   
 10   6   9  1   
 11   6  26  1   
 12   6  27  1   
 13   7   8  ar  
 14   7  10  1   
 15   8  28  1   
 16   9  11  2   
 17   9  12  am  
 18  12  13  1   
 19  12  14  1   
 20  13  15  1   
 21  13  29  1   
 22  13  30  1   
 23  14  16  1   
 24  14  31  1   
 25  14  32  1   
 26  15  17  1   
 27  15  33  1   
 28  15  34  1   
 29  16  17  1   
 30  16  35  1   
 31  16  36  1   
 32  17  18  1   
 33  17  19  1   
 34  18  20  1   
 35  19  21  2   
 36  19  37  1   
 37  20  22  1   
 38  20  38  1   
 39  20  39  1   
 40  21  22  1   
 41  21  23  1   
 42  22  40  1   
 43  22  41  1   
 44  23  42  1   
 45  23  43  1   
 46  23  44  1   
@<TRIPOS>SUBSTRUCTURE
  1 ****  13 GROUP 4 **** **** 0

# MOE 2024.06 (io_trps.svl 2023.06)
