@<TRIPOS>MOLECULE
NONAME
50 52 1 0 0 
SMALL
USER_CHARGES


@<TRIPOS>ATOM
  1 F        1.1240    -0.0400     2.7570 F     1 <1>  -0.1900 
  2 C        1.8730     0.8390     2.1220 C.ar  1 <1>   0.1900 
  3 C        2.6940     0.4630     1.0610 C.ar  1 <1>   0.4100 
  4 C        1.8470     2.1480     2.5140 C.ar  1 <1>   0.1600 
  5 N        3.4310     1.3740     0.4540 N.ar  1 <1>  -0.6200 
  6 N        2.7800    -0.8400     0.5840 N.pl3 1 <1>  -0.8380 
  7 N        2.5780     3.0640     1.9080 N.ar  1 <1>  -0.6200 
  8 C        3.3240     2.6160     0.9090 C.ar  1 <1>   0.7200 
  9 C        1.5530    -1.4750     0.0160 C.3   1 <1>   0.2090 
 10 C        4.0230    -1.3140    -0.1010 C.3   1 <1>   0.2090 
 11 N        4.0500     3.5740     0.3000 N.pl3 1 <1>  -0.8690 
 12 C        1.5460    -1.3800    -1.5230 C.3   1 <1>   0.1200 
 13 C        3.8800    -1.2170    -1.6300 C.3   1 <1>   0.1200 
 14 C        5.3960     3.3110    -0.1990 C.3   1 <1>   0.4700 
 15 O        2.7320    -1.8920    -2.0670 O.3   1 <1>  -0.5600 
 16 C        6.3080     4.4230     0.2990 C.2   1 <1>  -0.1810 
 17 C        5.3580     3.2660    -1.7210 C.3   1 <1>  -0.2400 
 18 C        7.5310     4.2130     0.9300 C.2   1 <1>   0.1080 
 19 C        6.1730     5.7730     0.2610 C.2   1 <1>  -0.3320 
 20 N        8.1140     5.3210     1.2560 N.2   1 <1>  -0.7070 
 21 C        8.1620     2.8720     1.2340 C.3   1 <1>  -0.0590 
 22 N        7.2800     6.2900     0.8450 N.pl3 1 <1>   0.3140 
 23 C        5.0480     6.6290    -0.3080 C.3   1 <1>  -0.0600 
 24 C        7.6200     7.7140     1.0540 C.3   1 <1>   0.0960 
 25 C        8.3860     8.2850    -0.1460 C.3   1 <1>  -0.2400 
 26 H        1.2200     2.4510     3.3340 H     1 <1>   0.1500 
 27 H        0.6710    -0.9960     0.4020 H     1 <1>   0.0800 
 28 H        1.5220    -2.5100     0.3080 H     1 <1>   0.0800 
 29 H        4.2080    -2.3380     0.1720 H     1 <1>   0.0800 
 30 H        4.8700    -0.7330     0.2210 H     1 <1>   0.0800 
 31 H        4.0500     4.4310     0.8480 H     1 <1>   0.4000 
 32 H        1.4420    -0.3540    -1.8310 H     1 <1>   0.0800 
 33 H        0.7280    -1.9480    -1.9260 H     1 <1>   0.0800 
 34 H        4.7290    -1.6650    -2.1130 H     1 <1>   0.0800 
 35 H        3.8110    -0.1860    -1.9330 H     1 <1>   0.0800 
 36 H        5.7460     2.3650     0.1760 H     1 <1>   0.0800 
 37 H        5.0010     4.1980    -2.1170 H     1 <1>   0.0800 
 38 H        4.7130     2.4700    -2.0440 H     1 <1>   0.0800 
 39 H        6.3470     3.0880    -2.0990 H     1 <1>   0.0800 
 40 H        8.2960     2.3160     0.3260 H     1 <1>   0.0800 
 41 H        7.5350     2.3200     1.9090 H     1 <1>   0.0800 
 42 H        9.1220     3.0180     1.6950 H     1 <1>   0.0800 
 43 H        4.2900     6.0210    -0.7660 H     1 <1>   0.0800 
 44 H        5.4330     7.2980    -1.0560 H     1 <1>   0.0800 
 45 H        4.5890     7.2050     0.4750 H     1 <1>   0.0800 
 46 H        8.2260     7.7820     1.9390 H     1 <1>   0.0800 
 47 H        6.7140     8.2660     1.2200 H     1 <1>   0.0800 
 48 H        9.2960     7.7290    -0.2930 H     1 <1>   0.0800 
 49 H        8.6380     9.3140     0.0360 H     1 <1>   0.0800 
 50 H        7.7880     8.2270    -1.0370 H     1 <1>   0.0800 
@<TRIPOS>BOND
  1   1   2  1   
  2   2   3  ar  
  3   2   4  ar  
  4   3   5  ar  
  5   3   6  1   
  6   4   7  ar  
  7   4  26  1   
  8   5   8  ar  
  9   6   9  1   
 10   6  10  1   
 11   7   8  ar  
 12   8  11  1   
 13   9  12  1   
 14   9  27  1   
 15   9  28  1   
 16  10  13  1   
 17  10  29  1   
 18  10  30  1   
 19  11  14  1   
 20  11  31  1   
 21  12  15  1   
 22  12  32  1   
 23  12  33  1   
 24  13  15  1   
 25  13  34  1   
 26  13  35  1   
 27  14  16  1   
 28  14  17  1   
 29  14  36  1   
 30  16  18  1   
 31  16  19  2   
 32  17  37  1   
 33  17  38  1   
 34  17  39  1   
 35  18  20  2   
 36  18  21  1   
 37  19  22  1   
 38  19  23  1   
 39  20  22  1   
 40  21  40  1   
 41  21  41  1   
 42  21  42  1   
 43  22  24  1   
 44  23  43  1   
 45  23  44  1   
 46  23  45  1   
 47  24  25  1   
 48  24  46  1   
 49  24  47  1   
 50  25  48  1   
 51  25  49  1   
 52  25  50  1   
@<TRIPOS>SUBSTRUCTURE
  1 ****  11 GROUP 4 **** **** 0

# MOE 2024.06 (io_trps.svl 2023.06)
