@<TRIPOS>MOLECULE
NONAME
50 52 1 0 0 
SMALL
USER_CHARGES


@<TRIPOS>ATOM
  1 O        1.1780    -0.8840    -1.5700 O.2   1 <1>  -0.5700 
  2 C        2.1100    -0.8480    -0.7890 C.2   1 <1>   0.5440 
  3 N        2.2180    -1.8470     0.1580 N.am  1 <1>  -0.6600 
  4 C        3.0730     0.2240    -0.8870 C.ar  1 <1>   0.0860 
  5 C        1.0950    -2.7940     0.4390 C.3   1 <1>   0.1400 
  6 C        3.5120    -2.2790     0.7730 C.3   1 <1>   0.1400 
  7 C        3.5370     0.8890     0.2450 C.ar  1 <1>   0.1600 
  8 C        3.5760     0.6510    -2.1110 C.ar  1 <1>  -0.1500 
  9 C        1.5180    -4.2400     0.1410 C.3   1 <1>   0.1200 
 10 C        3.7910    -3.7620     0.4700 C.3   1 <1>   0.1200 
 11 N        4.4370     1.8550     0.2670 N.ar  1 <1>  -0.6200 
 12 C        4.5040     1.6640    -2.1100 C.ar  1 <1>  -0.1500 
 13 O        2.6970    -4.5580     0.8270 O.3   1 <1>  -0.5600 
 14 C        4.9210     2.2360    -0.9100 C.ar  1 <1>   0.4100 
 15 N        5.8780     3.2240    -0.9120 N.pl3 1 <1>  -0.8380 
 16 C        7.2420     2.8760    -1.3970 C.3   1 <1>   0.3900 
 17 C        5.7710     4.3560     0.0510 C.3   1 <1>   0.2090 
 18 C        8.2000     2.6350    -0.2440 C.2   1 <1>  -0.1810 
 19 C        6.0600     5.6710    -0.6660 C.3   1 <1>  -0.2400 
 20 C        7.9590     1.8260     0.8590 C.2   1 <1>   0.1390 
 21 C        9.4440     3.1230    -0.0410 C.2   1 <1>  -0.3020 
 22 N        8.9650     1.8000     1.6800 N.2   1 <1>  -0.7070 
 23 N        9.8860     2.6060     1.1230 N.pl3 1 <1>   0.3140 
 24 C       11.1930     2.8570     1.7630 C.3   1 <1>   0.0960 
 25 C       12.3060     2.0450     1.0890 C.3   1 <1>  -0.2400 
 26 H        0.2290    -2.5480    -0.1500 H     1 <1>   0.0800 
 27 H        0.8170    -2.7150     1.4760 H     1 <1>   0.0800 
 28 H        3.4620    -2.1400     1.8390 H     1 <1>   0.0800 
 29 H        4.3310    -1.6920     0.3970 H     1 <1>   0.0800 
 30 H        3.1310     0.5920     1.1970 H     1 <1>   0.1500 
 31 H        3.2340     0.1950    -3.0240 H     1 <1>   0.1500 
 32 H        1.6820    -4.3750    -0.9150 H     1 <1>   0.0800 
 33 H        0.7550    -4.9250     0.4630 H     1 <1>   0.0800 
 34 H        4.6420    -4.1020     1.0320 H     1 <1>   0.0800 
 35 H        3.9910    -3.9020    -0.5780 H     1 <1>   0.0800 
 36 H        4.9150     2.0340    -3.0300 H     1 <1>   0.1500 
 37 H        7.6130     3.6710    -2.0190 H     1 <1>   0.0800 
 38 H        7.1990     1.9830    -1.9960 H     1 <1>   0.0800 
 39 H        6.4520     4.2150     0.8730 H     1 <1>   0.0800 
 40 H        4.7730     4.3920     0.4540 H     1 <1>   0.0800 
 41 H        7.0830     5.7100    -0.9900 H     1 <1>   0.0800 
 42 H        5.8890     6.4890     0.0090 H     1 <1>   0.0800 
 43 H        5.4050     5.7800    -1.5110 H     1 <1>   0.0800 
 44 H        7.0400     1.2860     1.0210 H     1 <1>   0.1500 
 45 H       10.0290     3.7920    -0.6430 H     1 <1>   0.1500 
 46 H       11.1150     2.5840     2.7990 H     1 <1>   0.0800 
 47 H       11.4060     3.9080     1.7000 H     1 <1>   0.0800 
 48 H       12.0850     0.9930     1.1590 H     1 <1>   0.0800 
 49 H       13.2430     2.2310     1.5810 H     1 <1>   0.0800 
 50 H       12.4000     2.3210     0.0540 H     1 <1>   0.0800 
@<TRIPOS>BOND
  1   1   2  2   
  2   2   3  am  
  3   2   4  1   
  4   3   5  1   
  5   3   6  1   
  6   4   7  ar  
  7   4   8  ar  
  8   5   9  1   
  9   5  26  1   
 10   5  27  1   
 11   6  10  1   
 12   6  28  1   
 13   6  29  1   
 14   7  11  ar  
 15   7  30  1   
 16   8  12  ar  
 17   8  31  1   
 18   9  13  1   
 19   9  32  1   
 20   9  33  1   
 21  10  13  1   
 22  10  34  1   
 23  10  35  1   
 24  11  14  ar  
 25  12  14  ar  
 26  12  36  1   
 27  14  15  1   
 28  15  16  1   
 29  15  17  1   
 30  16  18  1   
 31  16  37  1   
 32  16  38  1   
 33  17  19  1   
 34  17  39  1   
 35  17  40  1   
 36  18  20  1   
 37  18  21  2   
 38  19  41  1   
 39  19  42  1   
 40  19  43  1   
 41  20  22  2   
 42  20  44  1   
 43  21  23  1   
 44  21  45  1   
 45  22  23  1   
 46  23  24  1   
 47  24  25  1   
 48  24  46  1   
 49  24  47  1   
 50  25  48  1   
 51  25  49  1   
 52  25  50  1   
@<TRIPOS>SUBSTRUCTURE
  1 ****  11 GROUP 4 **** **** 0

# MOE 2024.06 (io_trps.svl 2023.06)
