@<TRIPOS>MOLECULE
NONAME
40 40 1 0 0 
SMALL
USER_CHARGES


@<TRIPOS>ATOM
  1 F       -2.0850    -0.9290     2.6040 F     1 <1>  -0.1900 
  2 C       -2.5050    -1.2100     1.3960 C.ar  1 <1>   0.1900 
  3 C       -2.9440    -0.1860     0.5630 C.ar  1 <1>   0.0830 
  4 C       -2.4970    -2.5350     1.0030 C.ar  1 <1>  -0.1500 
  5 O       -2.9260     1.0930     1.0280 O.3   1 <1>  -0.3630 
  6 C       -3.3850    -0.5310    -0.7120 C.ar  1 <1>  -0.1500 
  7 C       -2.9540    -2.8690    -0.2660 C.ar  1 <1>  -0.1430 
  8 C       -3.2280     2.1880     0.1920 C.3   1 <1>   0.0400 
  9 C       -3.3880    -1.8580    -1.1160 C.ar  1 <1>  -0.1500 
 10 C       -2.9990    -4.3270    -0.7300 C.3   1 <1>   0.4610 
 11 N       -4.0990    -5.0630     0.0180 N.4   1 <1>  -0.9590 
 12 C       -1.6550    -5.0580    -0.5070 C.2   1 <1>   0.9060 
 13 C       -4.3830    -6.3670    -0.6540 C.3   1 <1>   0.3430 
 14 C       -5.3230    -4.2730     0.3390 C.3   1 <1>   0.2630 
 15 O       -1.5600    -5.6950     0.5580 O.co2 1 <1>  -0.9000 
 16 O       -0.8140    -5.1090    -1.4060 O.co2 1 <1>  -0.9000 
 17 C       -4.7350    -7.4550     0.3630 C.3   1 <1>   0.1200 
 18 O       -5.5040    -8.4130    -0.2880 O.3   1 <1>  -0.5600 
 19 C       -5.7620    -9.5470     0.4720 C.3   1 <1>   0.1200 
 20 C       -6.6280   -10.4750    -0.3700 C.3   1 <1>  -0.2400 
 21 H       -2.1320    -3.2850     1.6860 H     1 <1>   0.1500 
 22 H       -3.7280     0.2170    -1.4010 H     1 <1>   0.1500 
 23 H       -3.0950     3.0890     0.7640 H     1 <1>   0.0800 
 24 H       -4.2510     2.1100    -0.1320 H     1 <1>   0.0800 
 25 H       -2.5540     2.1850    -0.6460 H     1 <1>   0.0800 
 26 H       -3.7290    -2.0980    -2.1090 H     1 <1>   0.1500 
 27 H       -3.1990    -4.3490    -1.7860 H     1 <1>   0.0800 
 28 H       -3.5610    -5.3130     0.8760 H     1 <1>   0.4500 
 29 H       -3.5140    -6.6970    -1.2020 H     1 <1>   0.0800 
 30 H       -5.2000    -6.2480    -1.3460 H     1 <1>   0.0800 
 31 H       -5.8010    -3.9450    -0.5690 H     1 <1>   0.0800 
 32 H       -5.0660    -3.4060     0.9260 H     1 <1>   0.0800 
 33 H       -6.0180    -4.8730     0.9020 H     1 <1>   0.0800 
 34 H       -5.3190    -7.0580     1.1740 H     1 <1>   0.0800 
 35 H       -3.8330    -7.9130     0.7350 H     1 <1>   0.0800 
 36 H       -6.2800    -9.2580     1.3710 H     1 <1>   0.0800 
 37 H       -4.8270   -10.0230     0.7200 H     1 <1>   0.0800 
 38 H       -7.5520    -9.9900    -0.6260 H     1 <1>   0.0800 
 39 H       -6.8510   -11.3680     0.1840 H     1 <1>   0.0800 
 40 H       -6.1070   -10.7510    -1.2700 H     1 <1>   0.0800 
@<TRIPOS>BOND
  1   1   2  1   
  2   2   3  ar  
  3   2   4  ar  
  4   3   5  1   
  5   3   6  ar  
  6   4   7  ar  
  7   4  21  1   
  8   5   8  1   
  9   6   9  ar  
 10   6  22  1   
 11   7   9  ar  
 12   7  10  1   
 13   8  23  1   
 14   8  24  1   
 15   8  25  1   
 16   9  26  1   
 17  10  11  1   
 18  10  12  1   
 19  10  27  1   
 20  11  13  1   
 21  11  14  1   
 22  11  28  1   
 23  12  15  ar  
 24  12  16  ar  
 25  13  17  1   
 26  13  29  1   
 27  13  30  1   
 28  14  31  1   
 29  14  32  1   
 30  14  33  1   
 31  17  18  1   
 32  17  34  1   
 33  17  35  1   
 34  18  19  1   
 35  19  20  1   
 36  19  36  1   
 37  19  37  1   
 38  20  38  1   
 39  20  39  1   
 40  20  40  1   
@<TRIPOS>SUBSTRUCTURE
  1 ****  10 GROUP 4 **** **** 0

# MOE 2024.06 (io_trps.svl 2023.06)
