@<TRIPOS>MOLECULE
NONAME
41 43 1 0 0 
SMALL
USER_CHARGES


@<TRIPOS>ATOM
  1 S       -0.5090     0.7040    -1.2090 S.3   1 <1>  -0.0800 
  2 C       -1.0240     1.5690     0.2140 C.2   1 <1>  -0.1400 
  3 C       -1.9470    -0.2830    -1.0970 C.2   1 <1>   0.2280 
  4 C       -2.1930     1.0500     0.6290 C.2   1 <1>   0.0460 
  5 C       -0.1200     2.6840     0.7100 C.3   1 <1>   0.0200 
  6 N       -2.7080     0.0050    -0.1190 N.2   1 <1>  -0.5650 
  7 C       -3.0200     1.4740     1.8250 C.3   1 <1>  -0.0590 
  8 C       -0.1280     3.8600    -0.2660 C.3   1 <1>   0.2090 
  9 N        0.7610     4.9350     0.2380 N.pl3 1 <1>  -0.8690 
 10 C        1.9040     5.2950    -0.4280 C.ar  1 <1>   0.4100 
 11 N        2.0670     6.5970    -0.5040 N.ar  1 <1>  -0.6200 
 12 C        2.8120     4.3730    -0.9720 C.ar  1 <1>   0.1600 
 13 C        3.1790     6.9670    -1.1650 C.ar  1 <1>   0.3960 
 14 N        3.9060     4.6970    -1.6290 N.ar  1 <1>  -0.6200 
 15 C        3.5230     8.3790    -1.3540 C.2   1 <1>   0.5440 
 16 C        4.0490     6.0140    -1.7080 C.ar  1 <1>   0.1600 
 17 O        4.1370     8.7030    -2.3580 O.2   1 <1>  -0.5700 
 18 N        3.2260     9.3820    -0.4470 N.am  1 <1>  -0.6600 
 19 C        2.6000     9.1990     0.8830 C.3   1 <1>   0.1400 
 20 C        3.6760    10.7810    -0.6260 C.3   1 <1>   0.1400 
 21 C        2.5700    10.5900     1.5080 C.3   1 <1>  -0.1600 
 22 C        3.6560    11.3740     0.7770 C.3   1 <1>  -0.1600 
 23 H       -2.0810    -1.0430    -1.8460 H     1 <1>   0.1500 
 24 H        0.8810     2.3050     0.8160 H     1 <1>   0.0800 
 25 H       -0.4550     3.0240     1.6720 H     1 <1>   0.0800 
 26 H       -2.5620     2.2910     2.3460 H     1 <1>   0.0800 
 27 H       -3.1240     0.6440     2.5000 H     1 <1>   0.0800 
 28 H       -3.9980     1.7750     1.4950 H     1 <1>   0.0800 
 29 H       -1.1300     4.2420    -0.3610 H     1 <1>   0.0800 
 30 H        0.1970     3.5360    -1.2410 H     1 <1>   0.0800 
 31 H        0.2500     5.7710     0.5360 H     1 <1>   0.4000 
 32 H        2.6050     3.3280    -0.8430 H     1 <1>   0.1500 
 33 H        4.9170     6.3690    -2.2360 H     1 <1>   0.1500 
 34 H        3.2040     8.5300     1.4720 H     1 <1>   0.0800 
 35 H        1.6030     8.8030     0.7870 H     1 <1>   0.0800 
 36 H        2.9780    11.2920    -1.2660 H     1 <1>   0.0800 
 37 H        4.6610    10.8220    -1.0600 H     1 <1>   0.0800 
 38 H        2.7340    10.5540     2.5700 H     1 <1>   0.0800 
 39 H        1.6100    11.0360     1.3180 H     1 <1>   0.0800 
 40 H        3.4610    12.4320     0.7600 H     1 <1>   0.0800 
 41 H        4.6110    11.2000     1.2420 H     1 <1>   0.0800 
@<TRIPOS>BOND
  1   1   2  1   
  2   1   3  1   
  3   2   4  2   
  4   2   5  1   
  5   3   6  2   
  6   3  23  1   
  7   4   6  1   
  8   4   7  1   
  9   5   8  1   
 10   5  24  1   
 11   5  25  1   
 12   7  26  1   
 13   7  27  1   
 14   7  28  1   
 15   8   9  1   
 16   8  29  1   
 17   8  30  1   
 18   9  10  1   
 19   9  31  1   
 20  10  11  ar  
 21  10  12  ar  
 22  11  13  ar  
 23  12  14  ar  
 24  12  32  1   
 25  13  15  1   
 26  13  16  ar  
 27  14  16  ar  
 28  15  17  2   
 29  15  18  am  
 30  16  33  1   
 31  18  19  1   
 32  18  20  1   
 33  19  21  1   
 34  19  34  1   
 35  19  35  1   
 36  20  22  1   
 37  20  36  1   
 38  20  37  1   
 39  21  22  1   
 40  21  38  1   
 41  21  39  1   
 42  22  40  1   
 43  22  41  1   
@<TRIPOS>SUBSTRUCTURE
  1 ****  10 GROUP 4 **** **** 0

# MOE 2024.06 (io_trps.svl 2023.06)
