@<TRIPOS>MOLECULE
NONAME
48 51 1 0 0 
SMALL
USER_CHARGES


@<TRIPOS>ATOM
  1 O        2.1700    -0.6910     3.4060 O.2   1 <1>  -0.5700 
  2 C        2.3900    -1.3180     2.3800 C.2   1 <1>   0.5650 
  3 N        3.0720    -0.7720     1.2590 N.pl3 1 <1>   0.5610 
  4 C        1.9390    -2.6660     2.2670 C.2   1 <1>  -0.1360 
  5 N        3.6150     0.4740     1.0550 N.2   1 <1>  -0.7070 
  6 C        3.2690    -1.5440     0.1370 C.2   1 <1>  -0.0680 
  7 C        2.1330    -3.4200     1.1500 C.2   1 <1>  -0.0380 
  8 C        4.1200     0.4400    -0.1350 C.2   1 <1>   0.1080 
  9 N        2.8080    -2.8720     0.0740 N.pl3 1 <1>  -0.5840 
 10 C        3.9400    -0.7880    -0.7610 C.2   1 <1>  -0.1500 
 11 C        1.6200    -4.8560     1.0490 C.3   1 <1>   0.4810 
 12 C        4.8230     1.6330    -0.7410 C.3   1 <1>  -0.0590 
 13 N        0.1830    -4.8460     0.6390 N.4   1 <1>  -0.9590 
 14 C       -0.0610    -4.2460    -0.7150 C.3   1 <1>   0.3430 
 15 C       -0.3770    -6.2300     0.6020 C.3   1 <1>   0.3430 
 16 C       -0.9400    -5.2470    -1.4810 C.3   1 <1>   0.2000 
 17 C       -0.5460    -6.5900    -0.8770 C.3   1 <1>  -0.0800 
 18 O       -2.2670    -5.0010    -1.1520 O.3   1 <1>  -0.6800 
 19 C        0.7480    -7.1380    -1.5210 C.3   1 <1>   0.0210 
 20 C        1.4480    -8.1520    -0.6400 C.2   1 <1>   0.1080 
 21 N        2.2420    -7.8090     0.3290 N.2   1 <1>  -0.7070 
 22 C        1.3270    -9.5300    -0.7650 C.2   1 <1>  -0.1500 
 23 N        2.6730    -8.9870     0.8410 N.pl3 1 <1>   0.3000 
 24 C        2.1230   -10.0370     0.1990 C.2   1 <1>  -0.3320 
 25 C        2.4030   -11.4890     0.5440 C.3   1 <1>  -0.0600 
 26 H        1.4310    -3.0450     3.1340 H     1 <1>   0.1500 
 27 H        3.1110    -3.4290    -0.7390 H     1 <1>   0.4000 
 28 H        4.2760    -1.0470    -1.7480 H     1 <1>   0.1500 
 29 H        1.7180    -5.3400     2.0070 H     1 <1>   0.0800 
 30 H        2.2120    -5.4080     0.3380 H     1 <1>   0.0800 
 31 H        5.1780     1.4040    -1.7280 H     1 <1>   0.0800 
 32 H        5.6570     1.9100    -0.1220 H     1 <1>   0.0800 
 33 H        4.1410     2.4620    -0.7940 H     1 <1>   0.0800 
 34 H       -0.3550    -4.3020     1.3240 H     1 <1>   0.4500 
 35 H       -0.5460    -3.2860    -0.6460 H     1 <1>   0.0800 
 36 H        0.8750    -4.1290    -1.2340 H     1 <1>   0.0800 
 37 H        0.2380    -6.9370     1.1330 H     1 <1>   0.0800 
 38 H       -1.3540    -6.2220     1.0590 H     1 <1>   0.0800 
 39 H       -0.8250    -5.1790    -2.5500 H     1 <1>   0.0800 
 40 H       -1.3220    -7.3280    -0.9900 H     1 <1>   0.0800 
 41 H       -2.8810    -5.4970    -1.7350 H     1 <1>   0.4000 
 42 H        1.4490    -6.3480    -1.7180 H     1 <1>   0.0800 
 43 H        0.5130    -7.5960    -2.4650 H     1 <1>   0.0800 
 44 H        0.7290   -10.0610    -1.4860 H     1 <1>   0.1500 
 45 H        3.3440    -9.0510     1.6180 H     1 <1>   0.2700 
 46 H        1.8520   -12.1400    -0.1110 H     1 <1>   0.0800 
 47 H        2.1090   -11.6970     1.5580 H     1 <1>   0.0800 
 48 H        3.4520   -11.7040     0.4330 H     1 <1>   0.0800 
@<TRIPOS>BOND
  1   1   2  2   
  2   2   3  1   
  3   2   4  1   
  4   3   5  1   
  5   3   6  1   
  6   4   7  2   
  7   4  26  1   
  8   5   8  2   
  9   6   9  1   
 10   6  10  2   
 11   7   9  1   
 12   7  11  1   
 13   8  10  1   
 14   8  12  1   
 15   9  27  1   
 16  10  28  1   
 17  11  13  1   
 18  11  29  1   
 19  11  30  1   
 20  12  31  1   
 21  12  32  1   
 22  12  33  1   
 23  13  14  1   
 24  13  15  1   
 25  13  34  1   
 26  14  16  1   
 27  14  35  1   
 28  14  36  1   
 29  15  17  1   
 30  15  37  1   
 31  15  38  1   
 32  16  17  1   
 33  16  18  1   
 34  16  39  1   
 35  17  19  1   
 36  17  40  1   
 37  18  41  1   
 38  19  20  1   
 39  19  42  1   
 40  19  43  1   
 41  20  21  2   
 42  20  22  1   
 43  21  23  1   
 44  22  24  2   
 45  22  44  1   
 46  23  24  1   
 47  23  45  1   
 48  24  25  1   
 49  25  46  1   
 50  25  47  1   
 51  25  48  1   
@<TRIPOS>SUBSTRUCTURE
  1 ****  11 GROUP 4 **** **** 0

# MOE 2024.06 (io_trps.svl 2023.06)
