@<TRIPOS>MOLECULE
NONAME
48 50 1 0 0 
SMALL
USER_CHARGES


@<TRIPOS>ATOM
  1 O        0.4810    -0.1030    -1.9610 O.3   1 <1>  -0.0190 
  2 N        0.1190    -1.3090    -2.2750 N.2   1 <1>  -0.4100 
  3 C        1.3060    -0.2700    -0.9580 C.2   1 <1>   0.2980 
  4 C        0.7200    -2.1020    -1.4770 C.2   1 <1>   0.3350 
  5 N        1.5110    -1.4760    -0.6120 N.2   1 <1>  -0.5650 
  6 C        1.9420     0.9490    -0.3140 C.3   1 <1>   0.0200 
  7 C        0.5730    -3.6260    -1.4950 C.3   1 <1>   0.2910 
  8 C        1.0810     1.5510     0.8150 C.3   1 <1>  -0.0800 
  9 N       -0.3920    -4.1480    -0.4950 N.3   1 <1>  -0.8100 
 10 C       -0.2700     2.0730     0.3040 C.3   1 <1>  -0.2400 
 11 C        1.8390     2.6880     1.5120 C.3   1 <1>  -0.2400 
 12 C       -1.7420    -3.5830    -0.6470 C.3   1 <1>   0.1100 
 13 C       -0.5460    -5.6130    -0.5470 C.3   1 <1>   0.1100 
 14 C       -2.6330    -4.5620     0.1050 C.3   1 <1>   0.2000 
 15 C       -2.0360    -5.9070    -0.3070 C.3   1 <1>  -0.0800 
 16 O       -2.4140    -4.3500     1.4550 O.3   1 <1>  -0.6800 
 17 C       -2.2940    -7.0740     0.6640 C.3   1 <1>   0.0210 
 18 C       -1.6890    -8.3650     0.1420 C.2   1 <1>   0.1080 
 19 N       -2.0640    -8.9260    -0.9660 N.2   1 <1>  -0.7070 
 20 C       -0.6820    -9.0820     0.7790 C.2   1 <1>  -0.1500 
 21 N       -1.3010   -10.0320    -1.0620 N.pl3 1 <1>   0.3000 
 22 C       -0.4530   -10.1460    -0.0190 C.2   1 <1>  -0.3320 
 23 C        0.5340   -11.2850     0.1570 C.3   1 <1>  -0.0600 
 24 H        2.8900     0.6470     0.0930 H     1 <1>   0.0800 
 25 H        2.1310     1.6880    -1.0720 H     1 <1>   0.0800 
 26 H        1.5390    -4.0580    -1.3060 H     1 <1>   0.0800 
 27 H        0.2610    -3.9240    -2.4810 H     1 <1>   0.0800 
 28 H        0.8920     0.7770     1.5420 H     1 <1>   0.0800 
 29 H       -0.1280     2.8100    -0.4660 H     1 <1>   0.0800 
 30 H       -0.8240     2.5220     1.1090 H     1 <1>   0.0800 
 31 H       -0.8640     1.2690    -0.0930 H     1 <1>   0.0800 
 32 H        2.0460     3.4880     0.8220 H     1 <1>   0.0800 
 33 H        2.7710     2.3280     1.9120 H     1 <1>   0.0800 
 34 H        1.2560     3.0810     2.3260 H     1 <1>   0.0800 
 35 H       -1.8050    -2.5870    -0.2420 H     1 <1>   0.0800 
 36 H       -2.0230    -3.5660    -1.6870 H     1 <1>   0.0800 
 37 H       -0.2490    -6.0110    -1.5030 H     1 <1>   0.0800 
 38 H        0.0670    -6.0570     0.2200 H     1 <1>   0.0800 
 39 H       -3.6830    -4.4610    -0.1070 H     1 <1>   0.0800 
 40 H       -2.4630    -6.1730    -1.2580 H     1 <1>   0.0800 
 41 H       -1.4490    -4.1890     1.5460 H     1 <1>   0.4000 
 42 H       -3.3530    -7.2140     0.7810 H     1 <1>   0.0800 
 43 H       -1.8780    -6.8580     1.6310 H     1 <1>   0.0800 
 44 H       -0.2080    -8.8190     1.7080 H     1 <1>   0.1500 
 45 H       -1.3870   -10.6880    -1.8480 H     1 <1>   0.2700 
 46 H        1.0940   -11.1510     1.0660 H     1 <1>   0.0800 
 47 H        1.2220   -11.3130    -0.6690 H     1 <1>   0.0800 
 48 H        0.0130   -12.2240     0.2120 H     1 <1>   0.0800 
@<TRIPOS>BOND
  1   1   2  1   
  2   1   3  1   
  3   2   4  2   
  4   3   5  2   
  5   3   6  1   
  6   4   5  1   
  7   4   7  1   
  8   6   8  1   
  9   6  24  1   
 10   6  25  1   
 11   7   9  1   
 12   7  26  1   
 13   7  27  1   
 14   8  10  1   
 15   8  11  1   
 16   8  28  1   
 17   9  12  1   
 18   9  13  1   
 19  10  29  1   
 20  10  30  1   
 21  10  31  1   
 22  11  32  1   
 23  11  33  1   
 24  11  34  1   
 25  12  14  1   
 26  12  35  1   
 27  12  36  1   
 28  13  15  1   
 29  13  37  1   
 30  13  38  1   
 31  14  15  1   
 32  14  16  1   
 33  14  39  1   
 34  15  17  1   
 35  15  40  1   
 36  16  41  1   
 37  17  18  1   
 38  17  42  1   
 39  17  43  1   
 40  18  19  2   
 41  18  20  1   
 42  19  21  1   
 43  20  22  2   
 44  20  44  1   
 45  21  22  1   
 46  21  45  1   
 47  22  23  1   
 48  23  46  1   
 49  23  47  1   
 50  23  48  1   
@<TRIPOS>SUBSTRUCTURE
  1 ****   9 GROUP 4 **** **** 0

# MOE 2024.06 (io_trps.svl 2023.06)
