@<TRIPOS>MOLECULE
NONAME
43 45 1 0 0 
SMALL
USER_CHARGES


@<TRIPOS>ATOM
  1 O        0.8140    -0.4910    -1.5310 O.2   1 <1>  -0.5700 
  2 C        1.6730    -0.9370    -0.8130 C.2   1 <1>   0.5690 
  3 N        2.6760    -0.1840    -0.2700 N.am  1 <1>  -0.4940 
  4 C        1.6450    -2.4190    -0.4860 C.3   1 <1>  -0.0190 
  5 C        2.9190     1.1890    -0.3910 C.2   1 <1>   0.2040 
  6 C        1.5740    -3.2580    -1.7620 C.3   1 <1>   0.1200 
  7 C        0.4440    -2.7730     0.3980 C.3   1 <1>  -0.0170 
  8 O        2.1320     1.9830    -1.0770 O.3   1 <1>  -0.0190 
  9 C        3.9150     1.9420     0.1170 C.2   1 <1>  -0.1810 
 10 O        1.6730    -4.6280    -1.4280 O.3   1 <1>  -0.3630 
 11 C        0.3150    -4.2830     0.5210 C.ar  1 <1>  -0.1430 
 12 N        2.5490     3.2230    -1.0510 N.2   1 <1>  -0.4100 
 13 C        3.6180     3.2260    -0.3400 C.2   1 <1>   0.1080 
 14 C        5.0970     1.5400     0.9840 C.3   1 <1>  -0.0590 
 15 C        0.9340    -5.1310    -0.3970 C.ar  1 <1>   0.0830 
 16 C       -0.4270    -4.8230     1.5590 C.ar  1 <1>  -0.1500 
 17 C        4.4210     4.4850    -0.0590 C.3   1 <1>   0.0210 
 18 C        0.8150    -6.5170    -0.2670 C.ar  1 <1>   0.0830 
 19 C       -0.5510    -6.1940     1.6890 C.ar  1 <1>  -0.1500 
 20 C        4.0040     5.1270     1.2680 C.3   1 <1>  -0.2400 
 21 O        1.4450    -7.3040    -1.1860 O.3   1 <1>  -0.3630 
 22 C        0.0660    -7.0390     0.7840 C.ar  1 <1>  -0.1500 
 23 C        1.3470    -8.7090    -1.1480 C.3   1 <1>   0.0400 
 24 H        3.3470    -0.6820     0.3070 H     1 <1>   0.3700 
 25 H        2.5510    -2.6830     0.0290 H     1 <1>   0.0800 
 26 H        2.3850    -3.0240    -2.4280 H     1 <1>   0.0800 
 27 H        0.6400    -3.1060    -2.2750 H     1 <1>   0.0800 
 28 H       -0.4600    -2.3880    -0.0430 H     1 <1>   0.0800 
 29 H        0.5620    -2.3280     1.3700 H     1 <1>   0.0800 
 30 H        5.0780     0.4860     1.1910 H     1 <1>   0.0800 
 31 H        5.0670     2.0730     1.9170 H     1 <1>   0.0800 
 32 H        6.0180     1.7730     0.4790 H     1 <1>   0.0800 
 33 H       -0.9140    -4.1770     2.2690 H     1 <1>   0.1500 
 34 H        4.2580     5.1850    -0.8600 H     1 <1>   0.0800 
 35 H        5.4690     4.2480    -0.0390 H     1 <1>   0.0800 
 36 H       -1.1300    -6.6050     2.4980 H     1 <1>   0.1500 
 37 H        2.9570     5.3780     1.2380 H     1 <1>   0.0800 
 38 H        4.5690     6.0250     1.4400 H     1 <1>   0.0800 
 39 H        4.1710     4.4490     2.0850 H     1 <1>   0.0800 
 40 H       -0.0480    -8.0980     0.9160 H     1 <1>   0.1500 
 41 H        1.9100    -9.1040    -1.9740 H     1 <1>   0.0800 
 42 H        0.3130    -8.9900    -1.2440 H     1 <1>   0.0800 
 43 H        1.7610    -9.0630    -0.2210 H     1 <1>   0.0800 
@<TRIPOS>BOND
  1   1   2  2   
  2   2   3  am  
  3   2   4  1   
  4   3   5  1   
  5   3  24  1   
  6   4   6  1   
  7   4   7  1   
  8   4  25  1   
  9   5   8  1   
 10   5   9  2   
 11   6  10  1   
 12   6  26  1   
 13   6  27  1   
 14   7  11  1   
 15   7  28  1   
 16   7  29  1   
 17   8  12  1   
 18   9  13  1   
 19   9  14  1   
 20  10  15  1   
 21  11  15  ar  
 22  11  16  ar  
 23  12  13  2   
 24  13  17  1   
 25  14  30  1   
 26  14  31  1   
 27  14  32  1   
 28  15  18  ar  
 29  16  19  ar  
 30  16  33  1   
 31  17  20  1   
 32  17  34  1   
 33  17  35  1   
 34  18  21  1   
 35  18  22  ar  
 36  19  22  ar  
 37  19  36  1   
 38  20  37  1   
 39  20  38  1   
 40  20  39  1   
 41  21  23  1   
 42  22  40  1   
 43  23  41  1   
 44  23  42  1   
 45  23  43  1   
@<TRIPOS>SUBSTRUCTURE
  1 ****   4 GROUP 4 **** **** 0

# MOE 2024.06 (io_trps.svl 2023.06)
