@<TRIPOS>MOLECULE
NONAME
41 43 1 0 0 
SMALL
USER_CHARGES


@<TRIPOS>ATOM
  1 F       -0.3930     0.3020    -0.0270 F     1 <1>  -0.3400 
  2 C       -1.6180    -0.2010    -0.1680 C.3   1 <1>   1.1640 
  3 F       -2.4220     0.6210     0.5000 F     1 <1>  -0.3400 
  4 F       -1.9190    -0.0520    -1.4550 F     1 <1>  -0.3400 
  5 C       -1.7250    -1.6740     0.3120 C.ar  1 <1>   0.1660 
  6 N       -2.8720    -2.3260     0.1810 N.ar  1 <1>  -0.6200 
  7 C       -0.6340    -2.3090     0.8740 C.ar  1 <1>  -0.1500 
  8 C       -2.9150    -3.5840     0.6100 C.ar  1 <1>   0.7200 
  9 C       -0.7800    -3.6130     1.2800 C.ar  1 <1>   0.1600 
 10 N       -1.9080    -4.2600     1.1520 N.ar  1 <1>  -0.6200 
 11 N       -4.1110    -4.2390     0.4770 N.pl3 1 <1>  -0.8380 
 12 C       -5.2960    -3.6730    -0.2150 C.3   1 <1>   0.2090 
 13 C       -4.3190    -5.6790     0.7400 C.3   1 <1>   0.2090 
 14 C       -6.2930    -4.8350    -0.3600 C.3   1 <1>   0.2000 
 15 C       -5.4190    -6.0890    -0.2410 C.3   1 <1>  -0.0800 
 16 O       -7.2190    -4.8310     0.6930 O.3   1 <1>  -0.5600 
 17 C       -6.1720    -7.3640     0.1780 C.3   1 <1>   0.0200 
 18 C       -8.3000    -3.9680     0.5320 C.3   1 <1>   0.0400 
 19 C       -5.3130    -8.6170     0.1050 C.2   1 <1>  -0.0400 
 20 O       -5.8130    -9.7470     0.5300 O.3   1 <1>  -0.0190 
 21 C       -4.0670    -8.8610    -0.3310 C.2   1 <1>  -0.1500 
 22 N       -4.9700   -10.7310     0.4060 N.2   1 <1>  -0.4100 
 23 C       -3.9080   -10.2260    -0.1100 C.2   1 <1>   0.1080 
 24 C       -2.6580   -11.0150    -0.4300 C.3   1 <1>  -0.0590 
 25 H        0.3130    -1.8170     1.0010 H     1 <1>   0.1500 
 26 H        0.0520    -4.1360     1.7220 H     1 <1>   0.1500 
 27 H       -5.7070    -2.8560     0.3500 H     1 <1>   0.0800 
 28 H       -4.9960    -3.3240    -1.1880 H     1 <1>   0.0800 
 29 H       -3.4170    -6.2450     0.5880 H     1 <1>   0.0800 
 30 H       -4.6530    -5.7990     1.7570 H     1 <1>   0.0800 
 31 H       -6.8240    -4.8060    -1.2960 H     1 <1>   0.0800 
 32 H       -4.9570    -6.2540    -1.1970 H     1 <1>   0.0800 
 33 H       -7.0240    -7.5010    -0.4640 H     1 <1>   0.0800 
 34 H       -6.5380    -7.2580     1.1840 H     1 <1>   0.0800 
 35 H       -8.9320    -4.0610     1.3990 H     1 <1>   0.0800 
 36 H       -8.8530    -4.2480    -0.3480 H     1 <1>   0.0800 
 37 H       -7.9480    -2.9550     0.4540 H     1 <1>   0.0800 
 38 H       -3.3340    -8.2020    -0.7560 H     1 <1>   0.1500 
 39 H       -2.4230   -10.9200    -1.4740 H     1 <1>   0.0800 
 40 H       -2.8120   -12.0550    -0.2010 H     1 <1>   0.0800 
 41 H       -1.8360   -10.6470     0.1550 H     1 <1>   0.0800 
@<TRIPOS>BOND
  1   1   2  1   
  2   2   3  1   
  3   2   4  1   
  4   2   5  1   
  5   5   6  ar  
  6   5   7  ar  
  7   6   8  ar  
  8   7   9  ar  
  9   7  25  1   
 10   8  10  ar  
 11   8  11  1   
 12   9  10  ar  
 13   9  26  1   
 14  11  12  1   
 15  11  13  1   
 16  12  14  1   
 17  12  27  1   
 18  12  28  1   
 19  13  15  1   
 20  13  29  1   
 21  13  30  1   
 22  14  15  1   
 23  14  16  1   
 24  14  31  1   
 25  15  17  1   
 26  15  32  1   
 27  16  18  1   
 28  17  19  1   
 29  17  33  1   
 30  17  34  1   
 31  18  35  1   
 32  18  36  1   
 33  18  37  1   
 34  19  20  1   
 35  19  21  2   
 36  20  22  1   
 37  21  23  1   
 38  21  38  1   
 39  22  23  2   
 40  23  24  1   
 41  24  39  1   
 42  24  40  1   
 43  24  41  1   
@<TRIPOS>SUBSTRUCTURE
  1 ****  11 GROUP 4 **** **** 0

# MOE 2024.06 (io_trps.svl 2023.06)
