@<TRIPOS>MOLECULE
NONAME
52 54 1 0 0 
SMALL
USER_CHARGES


@<TRIPOS>ATOM
  1 O        4.1770     2.0380     2.4100 O.co2 1 <1>  -0.9000 
  2 C        4.3380     1.3470     1.3970 C.2   1 <1>   0.9060 
  3 O        5.4860     1.0220     1.0350 O.co2 1 <1>  -0.9000 
  4 C        3.1130     0.8120     0.6200 C.3   1 <1>  -0.1060 
  5 C        3.5910     0.1390    -0.6870 C.3   1 <1>   0.4230 
  6 C        2.1080     1.9520     0.2580 C.3   1 <1>  -0.1600 
  7 C        2.3770    -0.2320     1.4950 C.3   1 <1>  -0.1600 
  8 N        4.4860    -1.0300    -0.3570 N.4   1 <1>  -0.9590 
  9 C        4.2550     1.1640    -1.6640 C.3   1 <1>   0.2090 
 10 C        2.3880     2.7000    -1.0630 C.3   1 <1>   0.2090 
 11 C        3.2690    -1.4510     1.7680 C.3   1 <1>  -0.1600 
 12 C        3.8110    -2.0630     0.4770 C.3   1 <1>   0.3430 
 13 C        5.1990    -1.6460    -1.5100 C.3   1 <1>   0.2630 
 14 N        3.8250     2.5870    -1.4470 N.pl3 1 <1>  -0.8380 
 15 C        4.7430     3.4620    -0.9340 C.ar  1 <1>   0.4100 
 16 N        4.4040     4.0740     0.1930 N.ar  1 <1>  -0.6200 
 17 C        6.0140     3.6040    -1.4760 C.ar  1 <1>  -0.1500 
 18 C        5.3840     4.4880     0.9430 C.ar  1 <1>   0.7710 
 19 C        6.9840     4.2380    -0.7420 C.ar  1 <1>   0.4610 
 20 N        6.6310     4.6570     0.4790 N.ar  1 <1>  -0.1790 
 21 N        5.1170     4.6710     2.2330 N.pl3 1 <1>  -0.9000 
 22 N        8.2610     4.4410    -1.1750 N.pl3 1 <1>  -0.8690 
 23 C        9.4910     4.5510    -0.3270 C.3   1 <1>   0.2090 
 24 C        9.7040     5.9570     0.2670 C.3   1 <1>   0.1200 
 25 O        8.7230     6.2650     1.2140 O.3   1 <1>  -0.6800 
 26 H        2.7170    -0.2410    -1.1860 H     1 <1>   0.0800 
 27 H        2.0980     2.6730     1.0580 H     1 <1>   0.0800 
 28 H        1.1060     1.5690     0.1960 H     1 <1>   0.0800 
 29 H        2.0980     0.2210     2.4330 H     1 <1>   0.0800 
 30 H        1.4750    -0.5600     1.0070 H     1 <1>   0.0800 
 31 H        5.1910    -0.5510     0.2660 H     1 <1>   0.4500 
 32 H        4.0250     0.8860    -2.6770 H     1 <1>   0.0800 
 33 H        5.3210     1.1070    -1.5330 H     1 <1>   0.0800 
 34 H        2.1110     3.7370    -0.9630 H     1 <1>   0.0800 
 35 H        1.7870     2.2830    -1.8540 H     1 <1>   0.0800 
 36 H        2.7050    -2.1940     2.3020 H     1 <1>   0.0800 
 37 H        4.0950    -1.1680     2.4000 H     1 <1>   0.0800 
 38 H        2.9970    -2.4980    -0.0790 H     1 <1>   0.0800 
 39 H        4.5100    -2.8450     0.7260 H     1 <1>   0.0800 
 40 H        4.4930    -2.0660    -2.2070 H     1 <1>   0.0800 
 41 H        5.8520    -2.4300    -1.1630 H     1 <1>   0.0800 
 42 H        5.7990    -0.9090    -2.0180 H     1 <1>   0.0800 
 43 H        6.2290     3.1910    -2.4390 H     1 <1>   0.1500 
 44 H        7.3220     5.1560     1.0360 H     1 <1>   0.4570 
 45 H        5.8260     4.7720     2.9530 H     1 <1>   0.4000 
 46 H        4.4060     3.9770     2.5490 H     1 <1>   0.4000 
 47 H        8.4670     4.2610    -2.1650 H     1 <1>   0.4000 
 48 H        9.4550     3.8260     0.4700 H     1 <1>   0.0800 
 49 H       10.3450     4.3070    -0.9370 H     1 <1>   0.0800 
 50 H        9.6810     6.7010    -0.5110 H     1 <1>   0.0800 
 51 H       10.6610     5.9990     0.7610 H     1 <1>   0.0800 
 52 H        8.9180     7.1420     1.6160 H     1 <1>   0.4000 
@<TRIPOS>BOND
  1   1   2  ar  
  2   2   3  ar  
  3   2   4  1   
  4   4   5  1   
  5   4   6  1   
  6   4   7  1   
  7   5   8  1   
  8   5   9  1   
  9   5  26  1   
 10   6  10  1   
 11   6  27  1   
 12   6  28  1   
 13   7  11  1   
 14   7  29  1   
 15   7  30  1   
 16   8  12  1   
 17   8  13  1   
 18   8  31  1   
 19   9  14  1   
 20   9  32  1   
 21   9  33  1   
 22  10  14  1   
 23  10  34  1   
 24  10  35  1   
 25  11  12  1   
 26  11  36  1   
 27  11  37  1   
 28  12  38  1   
 29  12  39  1   
 30  13  40  1   
 31  13  41  1   
 32  13  42  1   
 33  14  15  1   
 34  15  16  ar  
 35  15  17  ar  
 36  16  18  ar  
 37  17  19  ar  
 38  17  43  1   
 39  18  20  ar  
 40  18  21  1   
 41  19  20  ar  
 42  19  22  1   
 43  20  44  1   
 44  21  45  1   
 45  21  46  1   
 46  22  23  1   
 47  22  47  1   
 48  23  24  1   
 49  23  48  1   
 50  23  49  1   
 51  24  25  1   
 52  24  50  1   
 53  24  51  1   
 54  25  52  1   
@<TRIPOS>SUBSTRUCTURE
  1 ****   3 GROUP 4 **** **** 0

# MOE 2024.06 (io_trps.svl 2023.06)
