@<TRIPOS>MOLECULE
NONAME
40 41 1 0 0 
SMALL
USER_CHARGES


@<TRIPOS>ATOM
  1 O       -0.7660     0.6990    -0.1930 O.2   1 <1>  -0.5760 
  2 C       -1.4230     1.7080    -0.2200 C.2   1 <1>   0.5630 
  3 N       -2.7100     1.8320    -0.6050 N.am  1 <1>  -0.6650 
  4 C       -0.8580     3.0430     0.1680 C.3   1 <1>  -0.1090 
  5 C       -3.1900     3.2200    -0.5710 C.3   1 <1>   0.1310 
  6 C       -3.5690     0.7300    -1.1040 C.3   1 <1>   0.1310 
  7 C       -2.1070     3.9510     0.2420 C.3   1 <1>  -0.0290 
  8 C       -4.1930    -0.0760     0.0500 C.3   1 <1>  -0.0900 
  9 C       -1.8870     5.3870    -0.2120 C.2   1 <1>   0.8490 
 10 C       -5.0120    -1.2420    -0.5180 C.3   1 <1>  -0.2490 
 11 C       -5.0880     0.7770     0.9630 C.3   1 <1>  -0.2490 
 12 O       -2.7680     5.9920    -0.7650 O.2   1 <1>  -0.5760 
 13 N       -0.6900     5.9820     0.0400 N.pl3 1 <1>  -0.7340 
 14 C       -0.3210     7.2230    -0.2860 C.cat 1 <1>   1.0680 
 15 N       -1.0700     8.1210    -0.8960 N.pl3 1 <1>  -0.7050 
 16 N        0.8830     7.7410    -0.0340 N.pl3 1 <1>  -0.7680 
 17 C       -0.3410     9.2740    -1.0530 C.2   1 <1>   0.1910 
 18 C        0.8720     9.0410    -0.5190 C.2   1 <1>   0.1910 
 19 C        2.0800     7.1480     0.6230 C.3   1 <1>   0.2660 
 20 H       -0.1770     3.3420    -0.6080 H     1 <1>   0.0700 
 21 H       -0.3490     2.9700     1.1120 H     1 <1>   0.0700 
 22 H       -4.1540     3.2850    -0.0970 H     1 <1>   0.0700 
 23 H       -3.2550     3.5890    -1.5810 H     1 <1>   0.0700 
 24 H       -2.9620     0.0710    -1.7030 H     1 <1>   0.0700 
 25 H       -4.3420     1.1340    -1.7340 H     1 <1>   0.0700 
 26 H       -2.4470     3.9760     1.2620 H     1 <1>   0.0700 
 27 H       -3.3920    -0.4920     0.6380 H     1 <1>   0.0700 
 28 H       -5.8290    -0.8780    -1.1150 H     1 <1>   0.0700 
 29 H       -5.4100    -1.8420     0.2820 H     1 <1>   0.0700 
 30 H       -4.3890    -1.8700    -1.1300 H     1 <1>   0.0700 
 31 H       -5.8610     1.2590     0.3930 H     1 <1>   0.0700 
 32 H       -4.5040     1.5250     1.4660 H     1 <1>   0.0700 
 33 H       -5.5470     0.1580     1.7130 H     1 <1>   0.0700 
 34 H        0.0030     5.4240     0.5160 H     1 <1>   0.4430 
 35 H       -2.0360     7.9170    -1.1800 H     1 <1>   0.4430 
 36 H       -0.7290    10.1630    -1.5270 H     1 <1>   0.1410 
 37 H        1.7200     9.7060    -0.4520 H     1 <1>   0.1410 
 38 H        1.9110     6.1190     0.8850 H     1 <1>   0.0700 
 39 H        2.3160     7.6990     1.5180 H     1 <1>   0.0700 
 40 H        2.9240     7.1970    -0.0460 H     1 <1>   0.0700 
@<TRIPOS>BOND
  1   1   2  2   
  2   2   3  am  
  3   2   4  1   
  4   3   5  1   
  5   3   6  1   
  6   4   7  1   
  7   4  20  1   
  8   4  21  1   
  9   5   7  1   
 10   5  22  1   
 11   5  23  1   
 12   6   8  1   
 13   6  24  1   
 14   6  25  1   
 15   7   9  1   
 16   7  26  1   
 17   8  10  1   
 18   8  11  1   
 19   8  27  1   
 20   9  12  2   
 21   9  13  1   
 22  10  28  1   
 23  10  29  1   
 24  10  30  1   
 25  11  31  1   
 26  11  32  1   
 27  11  33  1   
 28  13  14  ar  
 29  13  34  1   
 30  14  15  ar  
 31  14  16  ar  
 32  15  17  1   
 33  15  35  1   
 34  16  18  1   
 35  16  19  1   
 36  17  18  2   
 37  17  36  1   
 38  18  37  1   
 39  19  38  1   
 40  19  39  1   
 41  19  40  1   
@<TRIPOS>SUBSTRUCTURE
  1 ****   7 GROUP 4 **** **** 0

# MOE 2024.06 (io_trps.svl 2023.06)
