@<TRIPOS>MOLECULE
NONAME
55 58 1 0 0 
SMALL
USER_CHARGES


@<TRIPOS>ATOM
  1 O       -3.3630    -2.0970    -0.9020 O.2   1 <1>  -0.5700 
  2 C       -2.5060    -2.0290    -0.0550 C.2   1 <1>   0.5690 
  3 N       -2.4720    -2.7790     1.0720 N.am  1 <1>  -0.6600 
  4 C       -1.3500    -1.0710    -0.1160 C.3   1 <1>  -0.0990 
  5 C       -1.2800    -2.4780     1.8930 C.3   1 <1>   0.1400 
  6 C       -3.2520    -4.0260     1.3380 C.3   1 <1>   0.1400 
  7 C       -0.7080    -1.1950     1.2750 C.3   1 <1>  -0.1600 
  8 C       -4.7210    -3.7350     1.7030 C.3   1 <1>   0.3430 
  9 N       -5.4630    -3.1240     0.5620 N.4   1 <1>  -0.9590 
 10 C       -6.5430    -2.1910     1.0190 C.3   1 <1>   0.3430 
 11 C       -5.9710    -4.1310    -0.4110 C.3   1 <1>   0.3430 
 12 C       -7.1640    -1.4220    -0.1580 C.3   1 <1>   0.1430 
 13 C       -6.5650    -3.4200    -1.6300 C.3   1 <1>  -0.1600 
 14 C       -8.3170    -0.6010     0.3650 C.ar  1 <1>   0.1670 
 15 C       -7.6550    -2.4060    -1.2410 C.3   1 <1>  -0.1600 
 16 C       -6.2160    -0.3380    -0.7400 C.3   1 <1>  -0.1600 
 17 N       -9.2490    -1.0580     1.1620 N.ar  1 <1>  -0.6200 
 18 C       -8.2650     0.6860    -0.0740 C.ar  1 <1>  -0.1430 
 19 C       -7.0730     0.9230    -0.9670 C.3   1 <1>  -0.0170 
 20 C      -10.1740    -0.1600     1.5160 C.ar  1 <1>   0.7200 
 21 C       -9.2560     1.5370     0.3440 C.ar  1 <1>   0.1600 
 22 N      -10.2120     1.1230     1.1410 N.ar  1 <1>  -0.6200 
 23 N      -11.1790    -0.6000     2.3540 N.pl3 1 <1>  -0.8380 
 24 C      -11.5730    -2.0320     2.4450 C.3   1 <1>   0.1290 
 25 C      -12.0690     0.3530     3.0740 C.3   1 <1>   0.1290 
 26 H       -1.6870    -0.0700    -0.3150 H     1 <1>   0.0800 
 27 H       -0.6710    -1.3900    -0.8860 H     1 <1>   0.0800 
 28 H       -0.5700    -3.2850     1.8110 H     1 <1>   0.0800 
 29 H       -1.5460    -2.3280     2.9260 H     1 <1>   0.0800 
 30 H       -2.7920    -4.5570     2.1530 H     1 <1>   0.0800 
 31 H       -3.2080    -4.6630     0.4710 H     1 <1>   0.0800 
 32 H       -0.9940    -0.3550     1.8830 H     1 <1>   0.0800 
 33 H        0.3670    -1.2290     1.2210 H     1 <1>   0.0800 
 34 H       -4.7270    -3.0610     2.5440 H     1 <1>   0.0800 
 35 H       -5.2090    -4.6460     2.0060 H     1 <1>   0.0800 
 36 H       -4.7630    -2.5570     0.0360 H     1 <1>   0.4500 
 37 H       -6.1470    -1.4820     1.7270 H     1 <1>   0.0800 
 38 H       -7.3220    -2.7510     1.5110 H     1 <1>   0.0800 
 39 H       -6.7290    -4.7390     0.0560 H     1 <1>   0.0800 
 40 H       -5.1650    -4.7710    -0.7330 H     1 <1>   0.0800 
 41 H       -6.9880    -4.1570    -2.2910 H     1 <1>   0.0800 
 42 H       -5.7730    -2.9310    -2.1710 H     1 <1>   0.0800 
 43 H       -7.9840    -1.8630    -2.1120 H     1 <1>   0.0800 
 44 H       -8.5080    -2.9430    -0.8600 H     1 <1>   0.0800 
 45 H       -5.7310    -0.6450    -1.6500 H     1 <1>   0.0800 
 46 H       -5.4540    -0.0980    -0.0190 H     1 <1>   0.0800 
 47 H       -7.3960     0.9870    -1.9920 H     1 <1>   0.0800 
 48 H       -6.5420     1.8200    -0.6960 H     1 <1>   0.0800 
 49 H       -9.2650     2.5650     0.0260 H     1 <1>   0.1500 
 50 H      -11.2000    -2.5860     1.6010 H     1 <1>   0.0800 
 51 H      -12.6450    -2.1180     2.4560 H     1 <1>   0.0800 
 52 H      -11.1730    -2.4580     3.3480 H     1 <1>   0.0800 
 53 H      -11.5380     1.2600     3.3090 H     1 <1>   0.0800 
 54 H      -12.4140    -0.0850     3.9930 H     1 <1>   0.0800 
 55 H      -12.9140     0.5950     2.4540 H     1 <1>   0.0800 
@<TRIPOS>BOND
  1   1   2  2   
  2   2   3  am  
  3   2   4  1   
  4   3   5  1   
  5   3   6  1   
  6   4   7  1   
  7   4  26  1   
  8   4  27  1   
  9   5   7  1   
 10   5  28  1   
 11   5  29  1   
 12   6   8  1   
 13   6  30  1   
 14   6  31  1   
 15   7  32  1   
 16   7  33  1   
 17   8   9  1   
 18   8  34  1   
 19   8  35  1   
 20   9  10  1   
 21   9  11  1   
 22   9  36  1   
 23  10  12  1   
 24  10  37  1   
 25  10  38  1   
 26  11  13  1   
 27  11  39  1   
 28  11  40  1   
 29  12  14  1   
 30  12  15  1   
 31  12  16  1   
 32  13  15  1   
 33  13  41  1   
 34  13  42  1   
 35  14  17  ar  
 36  14  18  ar  
 37  15  43  1   
 38  15  44  1   
 39  16  19  1   
 40  16  45  1   
 41  16  46  1   
 42  17  20  ar  
 43  18  19  1   
 44  18  21  ar  
 45  19  47  1   
 46  19  48  1   
 47  20  22  ar  
 48  20  23  1   
 49  21  22  ar  
 50  21  49  1   
 51  23  24  1   
 52  23  25  1   
 53  24  50  1   
 54  24  51  1   
 55  24  52  1   
 56  25  53  1   
 57  25  54  1   
 58  25  55  1   
@<TRIPOS>SUBSTRUCTURE
  1 ****  10 GROUP 4 **** **** 0

# MOE 2024.06 (io_trps.svl 2023.06)
