@<TRIPOS>MOLECULE
NONAME
52 54 1 0 0 
SMALL
USER_CHARGES


@<TRIPOS>ATOM
  1 O        2.6160    -0.1240     2.2840 O.2   1 <1>  -0.5700 
  2 C        2.6700    -0.5450     1.1500 C.2   1 <1>   0.5690 
  3 N        2.5860     0.3460     0.0960 N.am  1 <1>  -0.6600 
  4 C        2.8400    -2.0550     0.9380 C.3   1 <1>   0.2370 
  5 C        2.8470    -0.0090    -1.3430 C.3   1 <1>   0.1400 
  6 C        2.0120     1.7040     0.3270 C.3   1 <1>   0.1400 
  7 N        1.6290    -2.5540     0.2450 N.pl3 1 <1>   0.3140 
  8 C        3.1350    -2.8560     2.2310 C.3   1 <1>  -0.1600 
  9 C        3.7480     1.0220    -2.0500 C.3   1 <1>   0.3430 
 10 C        3.1280     2.7160     0.6060 C.3   1 <1>  -0.1600 
 11 N        1.6500    -2.8970    -1.0640 N.2   1 <1>  -0.7070 
 12 C        0.3910    -2.7060     0.7600 C.2   1 <1>  -0.3020 
 13 C        3.3780    -4.3520     1.9750 C.3   1 <1>  -0.2400 
 14 N        4.6460     1.6960    -1.0600 N.4   1 <1>  -0.9590 
 15 C        4.0730     2.9770    -0.5690 C.3   1 <1>   0.3430 
 16 C        0.4370    -3.2750    -1.3310 C.2   1 <1>   0.1390 
 17 C       -0.4000    -3.1730    -0.2280 C.2   1 <1>  -0.1500 
 18 C        6.0570     1.8100    -1.5230 C.3   1 <1>   0.4860 
 19 C        6.9530     2.2050    -0.3540 C.ar  1 <1>  -0.1440 
 20 C        7.1790     1.3250     0.7100 C.ar  1 <1>   0.0730 
 21 C        7.5550     3.4550    -0.3570 C.ar  1 <1>  -0.1500 
 22 C        6.5560     0.0330     0.7320 C.1   1 <1>   0.4840 
 23 C        8.0040     1.7280     1.7530 C.ar  1 <1>  -0.1500 
 24 C        8.3720     3.8400     0.6900 C.ar  1 <1>  -0.1500 
 25 N        5.9340    -0.9130     0.6020 N.1   1 <1>  -0.5570 
 26 C        8.5960     2.9770     1.7450 C.ar  1 <1>  -0.1500 
 27 H        3.6700    -2.2090     0.2780 H     1 <1>   0.0800 
 28 H        1.9120    -0.1040    -1.8690 H     1 <1>   0.0800 
 29 H        3.3420    -0.9600    -1.4070 H     1 <1>   0.0800 
 30 H        1.3490     1.6710     1.1780 H     1 <1>   0.0800 
 31 H        1.4220     2.0080    -0.5220 H     1 <1>   0.0800 
 32 H        2.3260    -2.7320     2.9300 H     1 <1>   0.0800 
 33 H        4.0160    -2.4420     2.6890 H     1 <1>   0.0800 
 34 H        3.1330     1.7530    -2.5470 H     1 <1>   0.0800 
 35 H        4.3250     0.5110    -2.8040 H     1 <1>   0.0800 
 36 H        3.6920     2.3940     1.4640 H     1 <1>   0.0800 
 37 H        2.6700     3.6510     0.8750 H     1 <1>   0.0800 
 38 H        0.1470    -2.4790     1.7830 H     1 <1>   0.1500 
 39 H        2.5000    -4.8210     1.5660 H     1 <1>   0.0800 
 40 H        3.6250    -4.8460     2.8990 H     1 <1>   0.0800 
 41 H        4.1950    -4.4890     1.2870 H     1 <1>   0.0800 
 42 H        4.6200     1.0640    -0.2400 H     1 <1>   0.4500 
 43 H        4.8610     3.6300    -0.2280 H     1 <1>   0.0800 
 44 H        3.5460     3.4770    -1.3650 H     1 <1>   0.0800 
 45 H        0.1210    -3.6250    -2.3000 H     1 <1>   0.1500 
 46 H       -1.4460    -3.4210    -0.1980 H     1 <1>   0.1500 
 47 H        6.1290     2.5460    -2.3070 H     1 <1>   0.0800 
 48 H        6.3900     0.8640    -1.9180 H     1 <1>   0.0800 
 49 H        7.4030     4.1460    -1.1700 H     1 <1>   0.1500 
 50 H        8.1870     1.0640     2.5830 H     1 <1>   0.1500 
 51 H        8.8400     4.8120     0.6860 H     1 <1>   0.1500 
 52 H        9.2350     3.2780     2.5600 H     1 <1>   0.1500 
@<TRIPOS>BOND
  1   1   2  2   
  2   2   3  am  
  3   2   4  1   
  4   3   5  1   
  5   3   6  1   
  6   4   7  1   
  7   4   8  1   
  8   4  27  1   
  9   5   9  1   
 10   5  28  1   
 11   5  29  1   
 12   6  10  1   
 13   6  30  1   
 14   6  31  1   
 15   7  11  1   
 16   7  12  1   
 17   8  13  1   
 18   8  32  1   
 19   8  33  1   
 20   9  14  1   
 21   9  34  1   
 22   9  35  1   
 23  10  15  1   
 24  10  36  1   
 25  10  37  1   
 26  11  16  2   
 27  12  17  2   
 28  12  38  1   
 29  13  39  1   
 30  13  40  1   
 31  13  41  1   
 32  14  15  1   
 33  14  18  1   
 34  14  42  1   
 35  15  43  1   
 36  15  44  1   
 37  16  17  1   
 38  16  45  1   
 39  17  46  1   
 40  18  19  1   
 41  18  47  1   
 42  18  48  1   
 43  19  20  ar  
 44  19  21  ar  
 45  20  22  1   
 46  20  23  ar  
 47  21  24  ar  
 48  21  49  1   
 49  22  25  3   
 50  23  26  ar  
 51  23  50  1   
 52  24  26  ar  
 53  24  51  1   
 54  26  52  1   
@<TRIPOS>SUBSTRUCTURE
  1 ****   3 GROUP 4 **** **** 0

# MOE 2024.06 (io_trps.svl 2023.06)
