@<TRIPOS>MOLECULE
NONAME
43 45 1 0 0 
SMALL
USER_CHARGES


@<TRIPOS>ATOM
  1 O        0.5840     2.1180    -1.9210 O.co2 1 <1>  -0.9000 
  2 C        1.2260     1.5600    -1.0150 C.2   1 <1>   0.9060 
  3 O        1.5230     0.3640    -1.0730 O.co2 1 <1>  -0.9000 
  4 C        1.7130     2.4320     0.2100 C.3   1 <1>   0.3970 
  5 N        1.7910     3.9170    -0.0480 N.4   1 <1>  -0.9590 
  6 C        0.6740     2.3610     1.3400 C.3   1 <1>  -0.1600 
  7 C        3.0950     1.9900     0.7190 C.3   1 <1>  -0.2400 
  8 C        0.3880     4.3840     0.0190 C.3   1 <1>   0.3430 
  9 C        2.3990     4.2330    -1.3660 C.3   1 <1>   0.5240 
 10 C       -0.2270     3.5870     1.1610 C.3   1 <1>  -0.1600 
 11 C        2.6670     5.7210    -1.3910 C.2   1 <1>  -0.1810 
 12 C        1.9420     6.6530    -2.1200 C.2   1 <1>   0.1390 
 13 C        3.6010     6.4490    -0.7420 C.2   1 <1>  -0.3020 
 14 N        2.3750     7.8580    -1.9320 N.2   1 <1>  -0.7070 
 15 N        3.4270     7.7530    -1.0790 N.pl3 1 <1>   0.5930 
 16 C        4.1780     8.8650    -0.6000 C.ar  1 <1>  -0.0230 
 17 C        3.5670    10.1010    -0.4040 C.ar  1 <1>  -0.1500 
 18 C        5.5350     8.7460    -0.3090 C.ar  1 <1>  -0.1500 
 19 C        4.2860    11.1790     0.0790 C.ar  1 <1>  -0.1500 
 20 C        6.2530     9.8250     0.1750 C.ar  1 <1>  -0.1500 
 21 C        5.6320    11.0470     0.3760 C.ar  1 <1>  -0.1440 
 22 C        6.4190    12.2310     0.9050 C.3   1 <1>  -0.0970 
 23 H        2.3370     4.3560     0.6910 H     1 <1>   0.4500 
 24 H        0.1130     1.4430     1.2800 H     1 <1>   0.0800 
 25 H        1.1510     2.3960     2.3040 H     1 <1>   0.0800 
 26 H        3.0340     0.9680     1.0530 H     1 <1>   0.0800 
 27 H        3.4320     2.5950     1.5400 H     1 <1>   0.0800 
 28 H        3.8150     2.0180    -0.0780 H     1 <1>   0.0800 
 29 H        0.3260     5.4480     0.1830 H     1 <1>   0.0800 
 30 H       -0.1180     4.1300    -0.9010 H     1 <1>   0.0800 
 31 H        3.3230     3.6940    -1.4880 H     1 <1>   0.0800 
 32 H        1.7360     3.9610    -2.1720 H     1 <1>   0.0800 
 33 H       -0.2530     4.1790     2.0590 H     1 <1>   0.0800 
 34 H       -1.2320     3.3010     0.9020 H     1 <1>   0.0800 
 35 H        1.1120     6.4200    -2.7690 H     1 <1>   0.1500 
 36 H        4.3740     6.1390    -0.0630 H     1 <1>   0.1500 
 37 H        2.5220    10.2210    -0.6350 H     1 <1>   0.1500 
 38 H        6.0440     7.8120    -0.4650 H     1 <1>   0.1500 
 39 H        3.7910    12.1240     0.2220 H     1 <1>   0.1500 
 40 H        7.3010     9.7130     0.3930 H     1 <1>   0.1500 
 41 H        5.7840    12.8750     1.4860 H     1 <1>   0.0800 
 42 H        6.8260    12.7930     0.0840 H     1 <1>   0.0800 
 43 H        7.2270    11.8970     1.5320 H     1 <1>   0.0800 
@<TRIPOS>BOND
  1   1   2  ar  
  2   2   3  ar  
  3   2   4  1   
  4   4   5  1   
  5   4   6  1   
  6   4   7  1   
  7   5   8  1   
  8   5   9  1   
  9   5  23  1   
 10   6  10  1   
 11   6  24  1   
 12   6  25  1   
 13   7  26  1   
 14   7  27  1   
 15   7  28  1   
 16   8  10  1   
 17   8  29  1   
 18   8  30  1   
 19   9  11  1   
 20   9  31  1   
 21   9  32  1   
 22  10  33  1   
 23  10  34  1   
 24  11  12  1   
 25  11  13  2   
 26  12  14  2   
 27  12  35  1   
 28  13  15  1   
 29  13  36  1   
 30  14  15  1   
 31  15  16  1   
 32  16  17  ar  
 33  16  18  ar  
 34  17  19  ar  
 35  17  37  1   
 36  18  20  ar  
 37  18  38  1   
 38  19  21  ar  
 39  19  39  1   
 40  20  21  ar  
 41  20  40  1   
 42  21  22  1   
 43  22  41  1   
 44  22  42  1   
 45  22  43  1   
@<TRIPOS>SUBSTRUCTURE
  1 ****  13 GROUP 4 **** **** 0

# MOE 2024.06 (io_trps.svl 2023.06)
