@<TRIPOS>MOLECULE
NONAME
40 42 1 0 0 
SMALL
USER_CHARGES


@<TRIPOS>ATOM
  1 CL       0.5160     1.1180    -1.5370 Cl    1 <1>  -0.1770 
  2 C        1.8500     1.5540    -0.5010 C.ar  1 <1>   0.1770 
  3 C        2.0340     2.8790    -0.1610 C.ar  1 <1>  -0.1500 
  4 C        2.7000     0.5660    -0.0430 C.ar  1 <1>  -0.1500 
  5 C        3.0980     3.2500     0.6580 C.ar  1 <1>   0.0860 
  6 C        3.7580     0.9180     0.7770 C.ar  1 <1>  -0.1500 
  7 C        3.3290     4.6340     1.0120 C.2   1 <1>   0.5440 
  8 C        3.9490     2.2460     1.1210 C.ar  1 <1>  -0.1500 
  9 O        3.0730     5.0060     2.1410 O.2   1 <1>  -0.5700 
 10 N        3.8640     5.5460     0.1150 N.am  1 <1>  -0.6600 
 11 C        4.1280     6.9460     0.5820 C.3   1 <1>   0.1400 
 12 C        4.5020     5.1060    -1.1670 C.3   1 <1>   0.1400 
 13 C        5.5990     7.1950     1.0100 C.3   1 <1>   0.4230 
 14 C        6.0010     5.4590    -1.2940 C.3   1 <1>  -0.0800 
 15 N        6.4800     7.6560    -0.1260 N.4   1 <1>  -0.9590 
 16 C        6.2730     6.0090     1.7550 C.3   1 <1>   0.1200 
 17 C        6.9360     4.7940    -0.2580 C.3   1 <1>   0.1200 
 18 C        6.2170     6.9690    -1.4260 C.3   1 <1>   0.3430 
 19 C        6.4250     9.1410    -0.2960 C.3   1 <1>   0.2630 
 20 O        6.4100     4.8100     1.0310 O.3   1 <1>  -0.5600 
 21 H        1.3520     3.6240    -0.5280 H     1 <1>   0.1500 
 22 H        2.5320    -0.4590    -0.3220 H     1 <1>   0.1500 
 23 H        4.4290     0.1620     1.1490 H     1 <1>   0.1500 
 24 H        4.7720     2.5220     1.7610 H     1 <1>   0.1500 
 25 H        3.8340     7.6410    -0.1840 H     1 <1>   0.0800 
 26 H        3.5010     7.1620     1.4300 H     1 <1>   0.0800 
 27 H        4.4080     4.0400    -1.2800 H     1 <1>   0.0800 
 28 H        3.9570     5.5520    -1.9820 H     1 <1>   0.0800 
 29 H        5.5630     8.0010     1.7240 H     1 <1>   0.0800 
 30 H        6.2980     5.0600    -2.2470 H     1 <1>   0.0800 
 31 H        7.4360     7.3990     0.1550 H     1 <1>   0.4500 
 32 H        5.6790     5.7700     2.6220 H     1 <1>   0.0800 
 33 H        7.2490     6.2960     2.1040 H     1 <1>   0.0800 
 34 H        7.9150     5.2410    -0.2430 H     1 <1>   0.0800 
 35 H        7.0540     3.7550    -0.5150 H     1 <1>   0.0800 
 36 H        5.3470     7.4000    -1.8970 H     1 <1>   0.0800 
 37 H        7.0560     7.1400    -2.0810 H     1 <1>   0.0800 
 38 H        5.4330     9.4510    -0.5830 H     1 <1>   0.0800 
 39 H        7.1180     9.4570    -1.0590 H     1 <1>   0.0800 
 40 H        6.6870     9.6340     0.6270 H     1 <1>   0.0800 
@<TRIPOS>BOND
  1   1   2  1   
  2   2   3  ar  
  3   2   4  ar  
  4   3   5  ar  
  5   3  21  1   
  6   4   6  ar  
  7   4  22  1   
  8   5   7  1   
  9   5   8  ar  
 10   6   8  ar  
 11   6  23  1   
 12   7   9  2   
 13   7  10  am  
 14   8  24  1   
 15  10  11  1   
 16  10  12  1   
 17  11  13  1   
 18  11  25  1   
 19  11  26  1   
 20  12  14  1   
 21  12  27  1   
 22  12  28  1   
 23  13  15  1   
 24  13  16  1   
 25  13  29  1   
 26  14  17  1   
 27  14  18  1   
 28  14  30  1   
 29  15  18  1   
 30  15  19  1   
 31  15  31  1   
 32  16  20  1   
 33  16  32  1   
 34  16  33  1   
 35  17  20  1   
 36  17  34  1   
 37  17  35  1   
 38  18  36  1   
 39  18  37  1   
 40  19  38  1   
 41  19  39  1   
 42  19  40  1   
@<TRIPOS>SUBSTRUCTURE
  1 ****  10 GROUP 4 **** **** 0

# MOE 2024.06 (io_trps.svl 2023.06)
