@<TRIPOS>MOLECULE
NONAME
53 55 1 0 0 
SMALL
USER_CHARGES


@<TRIPOS>ATOM
  1 S       -2.0880     0.0600    -2.2860 S.o2  1 <1>   1.2040 
  2 O       -2.2220    -0.9130    -3.3470 O.2   1 <1>  -0.6500 
  3 O       -2.6650     1.3760    -2.4350 O.2   1 <1>  -0.6500 
  4 C       -2.6610    -0.6780    -0.7360 C.ar  1 <1>  -0.0090 
  5 C       -0.3460     0.2740    -1.9790 C.3   1 <1>  -0.1350 
  6 C       -2.5170    -2.0380    -0.4970 C.ar  1 <1>  -0.1500 
  7 C       -3.2340     0.1000     0.2630 C.ar  1 <1>  -0.1500 
  8 C       -2.9230    -2.6350     0.6940 C.ar  1 <1>   0.0860 
  9 C       -3.6430    -0.4620     1.4590 C.ar  1 <1>  -0.1500 
 10 C       -2.7560    -4.0580     0.9050 C.2   1 <1>   0.5440 
 11 C       -3.4850    -1.8180     1.6710 C.ar  1 <1>  -0.1500 
 12 O       -1.6340    -4.4980     1.0600 O.2   1 <1>  -0.5700 
 13 N       -3.8360    -4.9180     0.9120 N.am  1 <1>  -0.6600 
 14 C       -3.6960    -6.3860     1.1940 C.3   1 <1>   0.1400 
 15 C       -5.1920    -4.4860     0.5050 C.3   1 <1>   0.1400 
 16 C       -4.1700    -7.2580    -0.0570 C.3   1 <1>   0.0000 
 17 C       -6.1810    -5.5860     0.8630 C.3   1 <1>  -0.1600 
 18 C       -5.7200    -6.9380     0.2650 C.3   1 <1>   0.2000 
 19 C       -4.6210    -8.1910    -1.2750 C.3   1 <1>   0.1200 
 20 C       -2.6330    -7.5330    -0.4290 C.3   1 <1>  -0.0170 
 21 O       -6.2260    -7.9360     1.0900 O.3   1 <1>  -0.6800 
 22 O       -4.6680    -7.4560    -2.4620 O.3   1 <1>  -0.6800 
 23 C       -1.9660    -8.5890     0.4660 C.ar  1 <1>  -0.1430 
 24 C       -2.6340    -9.7250     0.9050 C.ar  1 <1>  -0.1500 
 25 C       -0.6490    -8.3950     0.8580 C.ar  1 <1>  -0.1500 
 26 C       -1.9970   -10.6470     1.7170 C.ar  1 <1>  -0.1500 
 27 C       -0.0100    -9.3160     1.6700 C.ar  1 <1>  -0.1500 
 28 C       -0.6840   -10.4440     2.1000 C.ar  1 <1>  -0.1500 
 29 H        0.1190    -0.6710    -1.7780 H     1 <1>   0.0800 
 30 H       -0.1910     0.9230    -1.1390 H     1 <1>   0.0800 
 31 H        0.1260     0.7100    -2.8380 H     1 <1>   0.0800 
 32 H       -2.0760    -2.6650    -1.2540 H     1 <1>   0.1500 
 33 H       -3.3630     1.1590     0.1040 H     1 <1>   0.1500 
 34 H       -4.0830     0.1580     2.2230 H     1 <1>   0.1500 
 35 H       -3.7950    -2.2570     2.6040 H     1 <1>   0.1500 
 36 H       -2.7000    -6.5590     1.5660 H     1 <1>   0.0800 
 37 H       -4.2690    -6.6280     2.0720 H     1 <1>   0.0800 
 38 H       -5.4650    -3.5750     1.0090 H     1 <1>   0.0800 
 39 H       -5.2010    -4.3110    -0.5580 H     1 <1>   0.0800 
 40 H       -7.1500    -5.3310     0.4740 H     1 <1>   0.0800 
 41 H       -6.2670    -5.6370     1.9340 H     1 <1>   0.0800 
 42 H       -6.3290    -6.9660    -0.6250 H     1 <1>   0.0800 
 43 H       -5.5760    -8.6800    -1.1630 H     1 <1>   0.0800 
 44 H       -3.9770    -9.0380    -1.4520 H     1 <1>   0.0800 
 45 H       -2.4060    -7.8170    -1.4450 H     1 <1>   0.0800 
 46 H       -2.0570    -6.6210    -0.3900 H     1 <1>   0.0800 
 47 H       -5.7670    -7.9360     1.9520 H     1 <1>   0.4000 
 48 H       -5.2980    -6.7140    -2.4000 H     1 <1>   0.4000 
 49 H       -3.6560    -9.9090     0.6280 H     1 <1>   0.1500 
 50 H       -0.1130    -7.5190     0.5360 H     1 <1>   0.1500 
 51 H       -2.5230   -11.5240     2.0500 H     1 <1>   0.1500 
 52 H        1.0110    -9.1510     1.9670 H     1 <1>   0.1500 
 53 H       -0.1880   -11.1610     2.7310 H     1 <1>   0.1500 
@<TRIPOS>BOND
  1   1   2  2   
  2   1   3  2   
  3   1   4  1   
  4   1   5  1   
  5   4   6  ar  
  6   4   7  ar  
  7   5  29  1   
  8   5  30  1   
  9   5  31  1   
 10   6   8  ar  
 11   6  32  1   
 12   7   9  ar  
 13   7  33  1   
 14   8  10  1   
 15   8  11  ar  
 16   9  11  ar  
 17   9  34  1   
 18  10  12  2   
 19  10  13  am  
 20  11  35  1   
 21  13  14  1   
 22  13  15  1   
 23  14  16  1   
 24  14  36  1   
 25  14  37  1   
 26  15  17  1   
 27  15  38  1   
 28  15  39  1   
 29  16  18  1   
 30  16  19  1   
 31  16  20  1   
 32  17  18  1   
 33  17  40  1   
 34  17  41  1   
 35  18  21  1   
 36  18  42  1   
 37  19  22  1   
 38  19  43  1   
 39  19  44  1   
 40  20  23  1   
 41  20  45  1   
 42  20  46  1   
 43  21  47  1   
 44  22  48  1   
 45  23  24  ar  
 46  23  25  ar  
 47  24  26  ar  
 48  24  49  1   
 49  25  27  ar  
 50  25  50  1   
 51  26  28  ar  
 52  26  51  1   
 53  27  28  ar  
 54  27  52  1   
 55  28  53  1   
@<TRIPOS>SUBSTRUCTURE
  1 ****  13 GROUP 4 **** **** 0

# MOE 2024.06 (io_trps.svl 2023.06)
