@<TRIPOS>MOLECULE
NONAME
47 50 1 0 0 
SMALL
USER_CHARGES


@<TRIPOS>ATOM
  1 S        2.8850    -1.6540    -2.0840 S.3   1 <1>  -0.0800 
  2 C        1.6870    -0.9740    -0.9960 C.2   1 <1>   0.3780 
  3 C        2.2250    -3.2290    -1.8220 C.2   1 <1>  -0.1100 
  4 N        0.8970    -1.8700    -0.5170 N.2   1 <1>  -0.5650 
  5 C        1.6750     0.4380    -0.7380 C.2   1 <1>   0.0400 
  6 C        1.1790    -3.1660    -0.9690 C.2   1 <1>   0.1410 
  7 S        2.8390     1.5060    -1.5330 S.3   1 <1>  -0.0800 
  8 C        0.8780     1.1910     0.0640 C.2   1 <1>  -0.1500 
  9 C        0.4110    -4.3380    -0.5410 C.2   1 <1>   0.7160 
 10 C        2.1900     2.9260    -0.7390 C.2   1 <1>  -0.1100 
 11 C        1.1660     2.5870     0.0650 C.2   1 <1>  -0.1500 
 12 O        0.7910    -5.4450    -0.8920 O.2   1 <1>  -0.5700 
 13 N       -0.7540    -4.2800     0.2080 N.am  1 <1>  -0.6600 
 14 C       -1.3020    -5.5270     0.8340 C.3   1 <1>   0.1400 
 15 C       -1.7540    -3.1810    -0.0210 C.3   1 <1>   0.1400 
 16 C       -2.5480    -5.8900     0.0150 C.3   1 <1>   0.4230 
 17 C       -3.1540    -3.4760     0.5550 C.3   1 <1>  -0.1600 
 18 N       -3.0070    -7.3160     0.0180 N.4   1 <1>  -0.9590 
 19 C       -3.6880    -4.9390     0.4160 C.3   1 <1>  -0.1060 
 20 C       -4.0850    -7.5270    -0.9880 C.3   1 <1>   0.3430 
 21 C       -1.9170    -8.3210    -0.0930 C.3   1 <1>   0.2630 
 22 C       -4.2790    -5.3630     1.7740 C.2   1 <1>   0.9060 
 23 C       -4.7650    -5.0590    -0.6850 C.3   1 <1>  -0.1600 
 24 C       -5.2340    -6.5220    -0.8140 C.3   1 <1>  -0.1600 
 25 O       -5.1840    -4.6880     2.2600 O.co2 1 <1>  -0.9000 
 26 O       -3.8690    -6.3970     2.3250 O.co2 1 <1>  -0.9000 
 27 H        2.6790    -4.0640    -2.3250 H     1 <1>   0.1500 
 28 H        0.0830     0.7870     0.6660 H     1 <1>   0.1500 
 29 H        2.6480     3.8750    -0.9600 H     1 <1>   0.1500 
 30 H        0.5930     3.2720     0.6660 H     1 <1>   0.1500 
 31 H       -0.5680    -6.3090     0.8120 H     1 <1>   0.0800 
 32 H       -1.5540    -5.3370     1.8630 H     1 <1>   0.0800 
 33 H       -1.3940    -2.2730     0.4330 H     1 <1>   0.0800 
 34 H       -1.8390    -3.0060    -1.0810 H     1 <1>   0.0800 
 35 H       -2.2860    -5.6620    -1.0040 H     1 <1>   0.0800 
 36 H       -3.0970    -3.2320     1.6040 H     1 <1>   0.0800 
 37 H       -3.8650    -2.7810     0.1440 H     1 <1>   0.0800 
 38 H       -3.4400    -7.3830     0.9790 H     1 <1>   0.4500 
 39 H       -3.6700    -7.4140    -1.9760 H     1 <1>   0.0800 
 40 H       -4.4740    -8.5270    -0.8980 H     1 <1>   0.0800 
 41 H       -1.3580    -8.1690    -1.0020 H     1 <1>   0.0800 
 42 H       -2.3300    -9.3160    -0.0950 H     1 <1>   0.0800 
 43 H       -1.2480    -8.2360     0.7470 H     1 <1>   0.0800 
 44 H       -5.6100    -4.4390    -0.4300 H     1 <1>   0.0800 
 45 H       -4.3720    -4.7150    -1.6260 H     1 <1>   0.0800 
 46 H       -5.9040    -6.6080    -1.6510 H     1 <1>   0.0800 
 47 H       -5.7970    -6.7950     0.0630 H     1 <1>   0.0800 
@<TRIPOS>BOND
  1   1   2  1   
  2   1   3  1   
  3   2   4  2   
  4   2   5  1   
  5   3   6  2   
  6   3  27  1   
  7   4   6  1   
  8   5   7  1   
  9   5   8  2   
 10   6   9  1   
 11   7  10  1   
 12   8  11  1   
 13   8  28  1   
 14   9  12  2   
 15   9  13  am  
 16  10  11  2   
 17  10  29  1   
 18  11  30  1   
 19  13  14  1   
 20  13  15  1   
 21  14  16  1   
 22  14  31  1   
 23  14  32  1   
 24  15  17  1   
 25  15  33  1   
 26  15  34  1   
 27  16  18  1   
 28  16  19  1   
 29  16  35  1   
 30  17  19  1   
 31  17  36  1   
 32  17  37  1   
 33  18  20  1   
 34  18  21  1   
 35  18  38  1   
 36  19  22  1   
 37  19  23  1   
 38  20  24  1   
 39  20  39  1   
 40  20  40  1   
 41  21  41  1   
 42  21  42  1   
 43  21  43  1   
 44  22  25  ar  
 45  22  26  ar  
 46  23  24  1   
 47  23  44  1   
 48  23  45  1   
 49  24  46  1   
 50  24  47  1   
@<TRIPOS>SUBSTRUCTURE
  1 ****  15 GROUP 4 **** **** 0

# MOE 2024.06 (io_trps.svl 2023.06)
