@<TRIPOS>MOLECULE
NONAME
53 54 1 0 0 
SMALL
USER_CHARGES


@<TRIPOS>ATOM
  1 S        0.9090    -0.3050    -0.9350 S.o2  1 <1>   1.3330 
  2 O        2.2700    -0.7550    -1.1280 O.2   1 <1>  -0.6500 
  3 O       -0.0040    -0.3020    -2.0550 O.2   1 <1>  -0.6500 
  4 N        0.2040    -1.2750     0.2700 N.am  1 <1>  -0.8490 
  5 C        0.9280     1.3350    -0.1930 C.3   1 <1>  -0.0550 
  6 C       -1.2630    -1.2360     0.2680 C.3   1 <1>   0.1160 
  7 C        0.6600    -2.6680     0.1990 C.3   1 <1>   0.1160 
  8 C        2.0520     1.6560     0.8190 C.3   1 <1>  -0.0800 
  9 C        3.4450     1.7060     0.1850 C.3   1 <1>   0.2200 
 10 C        2.2210     0.6980     2.0050 C.3   1 <1>   0.1200 
 11 N        4.0080     3.0630     0.3540 N.am  1 <1>  -0.7300 
 12 C        4.2370     0.6940     1.0100 C.3   1 <1>   0.1200 
 13 O        3.5900     0.6520     2.2400 O.3   1 <1>  -0.5600 
 14 C        3.7740     4.0910    -0.4960 C.2   1 <1>   0.5690 
 15 O        3.0580     3.9700    -1.4590 O.2   1 <1>  -0.5700 
 16 C        4.4270     5.4250    -0.2220 C.3   1 <1>  -0.0990 
 17 C        5.7090     5.5860    -1.0460 C.3   1 <1>  -0.0170 
 18 C        6.3870     6.9130    -0.7230 C.ar  1 <1>  -0.1440 
 19 C        7.3840     7.0380     0.2410 C.ar  1 <1>  -0.1440 
 20 C        5.9790     8.0370    -1.4250 C.ar  1 <1>  -0.1500 
 21 C        7.9510     8.2820     0.4790 C.ar  1 <1>  -0.1500 
 22 C        7.8830     5.8480     1.0500 C.3   1 <1>  -0.0970 
 23 C        6.5490     9.2730    -1.1790 C.ar  1 <1>  -0.1500 
 24 C        7.5400     9.4020    -0.2230 C.ar  1 <1>  -0.1440 
 25 C        8.1740    10.7530     0.0520 C.3   1 <1>  -0.0970 
 26 H        1.0070     2.0540    -0.9870 H     1 <1>   0.0800 
 27 H       -0.0170     1.5070     0.2820 H     1 <1>   0.0800 
 28 H       -1.6490    -1.7880     1.1080 H     1 <1>   0.0800 
 29 H       -1.6510    -1.6660    -0.6420 H     1 <1>   0.0800 
 30 H       -1.6090    -0.2190     0.3420 H     1 <1>   0.0800 
 31 H        0.2020    -3.2520     0.9780 H     1 <1>   0.0800 
 32 H        1.7280    -2.7130     0.3300 H     1 <1>   0.0800 
 33 H        0.4110    -3.0950    -0.7590 H     1 <1>   0.0800 
 34 H        1.8220     2.6220     1.2330 H     1 <1>   0.0800 
 35 H        3.4520     1.4410    -0.8590 H     1 <1>   0.0800 
 36 H        1.9060    -0.3050     1.7850 H     1 <1>   0.0800 
 37 H        1.7240     1.0480     2.8920 H     1 <1>   0.0800 
 38 H        4.5150     3.2090     1.2280 H     1 <1>   0.3700 
 39 H        5.2670     0.9730     1.1470 H     1 <1>   0.0800 
 40 H        4.1770    -0.2870     0.5700 H     1 <1>   0.0800 
 41 H        3.7360     6.2070    -0.4780 H     1 <1>   0.0800 
 42 H        4.6510     5.5120     0.8250 H     1 <1>   0.0800 
 43 H        5.4610     5.5560    -2.0930 H     1 <1>   0.0800 
 44 H        6.3730     4.7620    -0.8600 H     1 <1>   0.0800 
 45 H        5.2090     7.9570    -2.1720 H     1 <1>   0.1500 
 46 H        8.7240     8.3850     1.2190 H     1 <1>   0.1500 
 47 H        8.5780     6.1610     1.8080 H     1 <1>   0.0800 
 48 H        8.3820     5.1500     0.4030 H     1 <1>   0.0800 
 49 H        7.0600     5.3560     1.5340 H     1 <1>   0.0800 
 50 H        6.2180    10.1300    -1.7370 H     1 <1>   0.1500 
 51 H        7.5030    11.5480    -0.2190 H     1 <1>   0.0800 
 52 H        9.0790    10.8520    -0.5200 H     1 <1>   0.0800 
 53 H        8.4100    10.8500     1.0960 H     1 <1>   0.0800 
@<TRIPOS>BOND
  1   1   2  2   
  2   1   3  2   
  3   1   4  am  
  4   1   5  1   
  5   4   6  1   
  6   4   7  1   
  7   5   8  1   
  8   5  26  1   
  9   5  27  1   
 10   6  28  1   
 11   6  29  1   
 12   6  30  1   
 13   7  31  1   
 14   7  32  1   
 15   7  33  1   
 16   8   9  1   
 17   8  10  1   
 18   8  34  1   
 19   9  11  1   
 20   9  12  1   
 21   9  35  1   
 22  10  13  1   
 23  10  36  1   
 24  10  37  1   
 25  11  14  am  
 26  11  38  1   
 27  12  13  1   
 28  12  39  1   
 29  12  40  1   
 30  14  15  2   
 31  14  16  1   
 32  16  17  1   
 33  16  41  1   
 34  16  42  1   
 35  17  18  1   
 36  17  43  1   
 37  17  44  1   
 38  18  19  ar  
 39  18  20  ar  
 40  19  21  ar  
 41  19  22  1   
 42  20  23  ar  
 43  20  45  1   
 44  21  24  ar  
 45  21  46  1   
 46  22  47  1   
 47  22  48  1   
 48  22  49  1   
 49  23  24  ar  
 50  23  50  1   
 51  24  25  1   
 52  25  51  1   
 53  25  52  1   
 54  25  53  1   
@<TRIPOS>SUBSTRUCTURE
  1 ****  11 GROUP 4 **** **** 0

# MOE 2024.06 (io_trps.svl 2023.06)
