@<TRIPOS>MOLECULE
NONAME
44 46 1 0 0 
SMALL
USER_CHARGES


@<TRIPOS>ATOM
  1 O       -0.4040     0.1020     0.2680 O.2   1 <1>  -0.5700 
  2 C       -1.3980     0.7570     0.0160 C.2   1 <1>   0.5440 
  3 N       -2.6110     0.1120    -0.0600 N.am  1 <1>  -0.6600 
  4 C       -1.2780     2.1900    -0.1810 C.ar  1 <1>   0.0860 
  5 C       -3.9350     0.7670     0.0300 C.3   1 <1>   0.1400 
  6 C       -2.7430    -1.3530     0.0950 C.3   1 <1>   0.1400 
  7 C       -1.8820     2.8440    -1.2550 C.ar  1 <1>  -0.1500 
  8 C       -0.5360     2.9720     0.7020 C.ar  1 <1>  -0.1500 
  9 C       -4.8600    -0.2830     0.6590 C.3   1 <1>  -0.0800 
 10 C       -4.2420    -1.6300     0.2420 C.3   1 <1>  -0.0800 
 11 C       -1.7630     4.2120    -1.4270 C.ar  1 <1>  -0.1500 
 12 C       -0.4140     4.3390     0.5330 C.ar  1 <1>  -0.1500 
 13 C       -6.3820    -0.1300     0.3520 C.3   1 <1>   0.2800 
 14 C       -4.8760    -2.1470    -1.0590 C.3   1 <1>  -0.1600 
 15 C       -1.0280     4.9840    -0.5350 C.ar  1 <1>   0.0730 
 16 O       -6.5670     0.5220    -0.8530 O.3   1 <1>  -0.6800 
 17 C       -7.0350    -1.5170     0.2020 C.3   1 <1>  -0.1600 
 18 C       -7.1290     0.6900     1.4270 C.3   1 <1>  -0.1600 
 19 C       -6.3880    -2.3900    -0.8960 C.3   1 <1>  -0.1600 
 20 C       -0.9020     6.4020    -0.7120 C.1   1 <1>   0.4840 
 21 C       -6.6360     2.1340     1.6250 C.3   1 <1>  -0.2400 
 22 N       -0.8030     7.5300    -0.8520 N.1   1 <1>  -0.5570 
 23 H       -3.8890     1.6610     0.6260 H     1 <1>   0.0800 
 24 H       -4.2470     1.0180    -0.9680 H     1 <1>   0.0800 
 25 H       -2.3200    -1.8580    -0.7570 H     1 <1>   0.0800 
 26 H       -2.2160    -1.6600     0.9830 H     1 <1>   0.0800 
 27 H       -2.4460     2.2640    -1.9660 H     1 <1>   0.1500 
 28 H       -0.0470     2.4860     1.5310 H     1 <1>   0.1500 
 29 H       -4.7300    -0.2160     1.7250 H     1 <1>   0.0800 
 30 H       -4.3900    -2.3700     1.0100 H     1 <1>   0.0800 
 31 H       -2.2440     4.6840    -2.2670 H     1 <1>   0.1500 
 32 H        0.1670     4.9100     1.2370 H     1 <1>   0.1500 
 33 H       -4.7220    -1.4130    -1.8330 H     1 <1>   0.0800 
 34 H       -4.3960    -3.0570    -1.3750 H     1 <1>   0.0800 
 35 H       -7.5140     0.5140    -1.0780 H     1 <1>   0.4000 
 36 H       -6.9330    -2.0320     1.1410 H     1 <1>   0.0800 
 37 H       -8.0900    -1.4220     0.0140 H     1 <1>   0.0800 
 38 H       -8.1760     0.7180     1.1780 H     1 <1>   0.0800 
 39 H       -7.0510     0.1760     2.3690 H     1 <1>   0.0800 
 40 H       -6.5630    -3.4250    -0.6600 H     1 <1>   0.0800 
 41 H       -6.8660    -2.1900    -1.8400 H     1 <1>   0.0800 
 42 H       -6.6480     2.6740     0.6940 H     1 <1>   0.0800 
 43 H       -5.6380     2.1480     2.0240 H     1 <1>   0.0800 
 44 H       -7.2780     2.6460     2.3210 H     1 <1>   0.0800 
@<TRIPOS>BOND
  1   1   2  2   
  2   2   3  am  
  3   2   4  1   
  4   3   5  1   
  5   3   6  1   
  6   4   7  ar  
  7   4   8  ar  
  8   5   9  1   
  9   5  23  1   
 10   5  24  1   
 11   6  10  1   
 12   6  25  1   
 13   6  26  1   
 14   7  11  ar  
 15   7  27  1   
 16   8  12  ar  
 17   8  28  1   
 18   9  10  1   
 19   9  13  1   
 20   9  29  1   
 21  10  14  1   
 22  10  30  1   
 23  11  15  ar  
 24  11  31  1   
 25  12  15  ar  
 26  12  32  1   
 27  13  16  1   
 28  13  17  1   
 29  13  18  1   
 30  14  19  1   
 31  14  33  1   
 32  14  34  1   
 33  15  20  1   
 34  16  35  1   
 35  17  19  1   
 36  17  36  1   
 37  17  37  1   
 38  18  21  1   
 39  18  38  1   
 40  18  39  1   
 41  19  40  1   
 42  19  41  1   
 43  20  22  3   
 44  21  42  1   
 45  21  43  1   
 46  21  44  1   
@<TRIPOS>SUBSTRUCTURE
  1 ****   5 GROUP 4 **** **** 0

# MOE 2024.06 (io_trps.svl 2023.06)
