@<TRIPOS>MOLECULE
NONAME
42 44 1 0 0 
SMALL
USER_CHARGES


@<TRIPOS>ATOM
  1 O       -1.0530    -0.0910     1.4940 O.2   1 <1>  -0.5700 
  2 C       -1.9050     0.5030     0.8610 C.2   1 <1>   0.7160 
  3 N       -3.1420    -0.0760     0.6980 N.am  1 <1>  -0.6600 
  4 C       -1.6050     1.7780     0.2660 C.2   1 <1>  -0.0860 
  5 C       -4.0840     0.2900    -0.3940 C.3   1 <1>   0.1400 
  6 C       -3.4830    -1.4190     1.2400 C.3   1 <1>   0.1400 
  7 C       -2.2050     2.9840     0.3550 C.2   1 <1>  -0.0400 
  8 C       -0.5580     2.0630    -0.5940 C.2   1 <1>   0.1080 
  9 C       -5.1890    -0.7660    -0.3340 C.3   1 <1>   0.2000 
 10 C       -4.5080    -2.0010     0.2570 C.3   1 <1>  -0.0800 
 11 O       -1.6150     3.8880    -0.3880 O.3   1 <1>  -0.0190 
 12 C       -3.4030     3.4140     1.1800 C.3   1 <1>  -0.0600 
 13 N       -0.5970     3.2870    -0.9620 N.2   1 <1>  -0.4100 
 14 C        0.5000     1.0780    -1.0480 C.3   1 <1>  -0.0590 
 15 O       -6.1570    -0.3320     0.5590 O.3   1 <1>  -0.6800 
 16 C       -3.8220    -2.8320    -0.8450 C.3   1 <1>   0.0210 
 17 C       -3.1430    -4.0590    -0.2690 C.2   1 <1>   0.1080 
 18 N       -3.8060    -5.0660     0.2060 N.2   1 <1>  -0.7070 
 19 C       -1.7680    -4.2420    -0.1770 C.2   1 <1>  -0.1500 
 20 N       -2.8600    -5.9320     0.6170 N.pl3 1 <1>   0.3000 
 21 C       -1.6170    -5.4540     0.3970 C.2   1 <1>  -0.3320 
 22 C       -0.3420    -6.1950     0.7570 C.3   1 <1>  -0.0600 
 23 H       -4.4830     1.2800    -0.2680 H     1 <1>   0.0800 
 24 H       -3.5700     0.2300    -1.3370 H     1 <1>   0.0800 
 25 H       -2.6090    -2.0400     1.3390 H     1 <1>   0.0800 
 26 H       -3.9300    -1.2990     2.2120 H     1 <1>   0.0800 
 27 H       -5.6640    -0.9390    -1.2850 H     1 <1>   0.0800 
 28 H       -5.2150    -2.6350     0.7640 H     1 <1>   0.0800 
 29 H       -3.7650     2.5990     1.7800 H     1 <1>   0.0800 
 30 H       -4.1910     3.7510     0.5320 H     1 <1>   0.0800 
 31 H       -3.1200     4.2210     1.8310 H     1 <1>   0.0800 
 32 H        0.0370     0.2340    -1.5240 H     1 <1>   0.0800 
 33 H        1.0660     0.7390    -0.2000 H     1 <1>   0.0800 
 34 H        1.1680     1.5500    -1.7450 H     1 <1>   0.0800 
 35 H       -5.7420    -0.1630     1.4280 H     1 <1>   0.4000 
 36 H       -3.0930    -2.2410    -1.3690 H     1 <1>   0.0800 
 37 H       -4.5580    -3.1630    -1.5550 H     1 <1>   0.0800 
 38 H       -1.0100    -3.5490    -0.4970 H     1 <1>   0.1500 
 39 H       -3.0950    -6.8360     1.0430 H     1 <1>   0.2700 
 40 H        0.5160    -5.6050     0.4870 H     1 <1>   0.0800 
 41 H       -0.2940    -7.1310     0.2300 H     1 <1>   0.0800 
 42 H       -0.3080    -6.3840     1.8150 H     1 <1>   0.0800 
@<TRIPOS>BOND
  1   1   2  2   
  2   2   3  am  
  3   2   4  1   
  4   3   5  1   
  5   3   6  1   
  6   4   7  2   
  7   4   8  1   
  8   5   9  1   
  9   5  23  1   
 10   5  24  1   
 11   6  10  1   
 12   6  25  1   
 13   6  26  1   
 14   7  11  1   
 15   7  12  1   
 16   8  13  2   
 17   8  14  1   
 18   9  10  1   
 19   9  15  1   
 20   9  27  1   
 21  10  16  1   
 22  10  28  1   
 23  11  13  1   
 24  12  29  1   
 25  12  30  1   
 26  12  31  1   
 27  14  32  1   
 28  14  33  1   
 29  14  34  1   
 30  15  35  1   
 31  16  17  1   
 32  16  36  1   
 33  16  37  1   
 34  17  18  2   
 35  17  19  1   
 36  18  20  1   
 37  19  21  2   
 38  19  38  1   
 39  20  21  1   
 40  20  39  1   
 41  21  22  1   
 42  22  40  1   
 43  22  41  1   
 44  22  42  1   
@<TRIPOS>SUBSTRUCTURE
  1 ****   3 GROUP 4 **** **** 0

# MOE 2024.06 (io_trps.svl 2023.06)
