@<TRIPOS>MOLECULE
NONAME
44 46 1 0 0 
SMALL
USER_CHARGES


@<TRIPOS>ATOM
  1 S        0.1570     0.2850     1.0490 S.o2  1 <1>   1.5010 
  2 O        0.6000     1.6180     1.3970 O.2   1 <1>  -0.6500 
  3 O        0.0780    -0.7250     2.0820 O.2   1 <1>  -0.6500 
  4 N       -1.3960     0.4390     0.3860 N.am  1 <1>  -0.8490 
  5 C        1.1110    -0.3680    -0.3250 C.2   1 <1>  -0.0630 
  6 C       -1.4620     1.5070    -0.6200 C.3   1 <1>   0.1960 
  7 C       -2.3980     0.6650     1.4310 C.3   1 <1>   0.1960 
  8 C        0.9120    -1.4600    -1.0790 C.2   1 <1>  -0.0400 
  9 C        2.2620     0.1540    -0.8820 C.2   1 <1>   0.1080 
 10 C       -2.8270     1.4840    -1.3070 C.3   1 <1>  -0.1600 
 11 C       -3.8000     0.6160     0.8230 C.3   1 <1>  -0.1600 
 12 O        1.8330    -1.5930    -2.0090 O.3   1 <1>  -0.0190 
 13 C       -0.1810    -2.5090    -1.0050 C.3   1 <1>  -0.0600 
 14 N        2.6520    -0.5770    -1.8590 N.2   1 <1>  -0.4100 
 15 C        2.9990     1.4040    -0.4440 C.3   1 <1>  -0.0590 
 16 C       -3.9550     1.6540    -0.2920 C.3   1 <1>   0.4180 
 17 O       -3.8000     2.9440     0.2480 O.3   1 <1>  -0.5600 
 18 C       -5.3060     1.5240    -0.9900 C.2   1 <1>  -0.2880 
 19 C       -4.9140     3.5220     0.8710 C.3   1 <1>   0.1200 
 20 C       -6.2640     2.4530    -0.9450 C.2   1 <1>  -0.2760 
 21 C       -6.0550     3.7200    -0.1370 C.3   1 <1>  -0.0220 
 22 C       -7.5960     2.3520    -1.6680 C.3   1 <1>  -0.1020 
 23 H       -0.6980     1.3610    -1.3640 H     1 <1>   0.0800 
 24 H       -1.3000     2.4670    -0.1550 H     1 <1>   0.0800 
 25 H       -2.2290     1.6190     1.9060 H     1 <1>   0.0800 
 26 H       -2.3230    -0.1030     2.1840 H     1 <1>   0.0800 
 27 H       -2.9390     0.5490    -1.8240 H     1 <1>   0.0800 
 28 H       -2.8860     2.2720    -2.0350 H     1 <1>   0.0800 
 29 H       -4.5400     0.7720     1.5840 H     1 <1>   0.0800 
 30 H       -3.9620    -0.3660     0.4190 H     1 <1>   0.0800 
 31 H       -0.8560    -2.3040    -0.1950 H     1 <1>   0.0800 
 32 H        0.2570    -3.4790    -0.8510 H     1 <1>   0.0800 
 33 H       -0.7360    -2.5210    -1.9250 H     1 <1>   0.0800 
 34 H        3.2610     1.3330     0.5960 H     1 <1>   0.0800 
 35 H        2.3790     2.2700    -0.5930 H     1 <1>   0.0800 
 36 H        3.9000     1.5220    -1.0180 H     1 <1>   0.0800 
 37 H       -5.4070     0.6030    -1.5350 H     1 <1>   0.1500 
 38 H       -4.6090     4.4690     1.2790 H     1 <1>   0.0800 
 39 H       -5.2300     2.8840     1.6760 H     1 <1>   0.0800 
 40 H       -5.8210     4.5380    -0.7950 H     1 <1>   0.0800 
 41 H       -6.9490     3.9700     0.4050 H     1 <1>   0.0800 
 42 H       -7.7070     3.1750    -2.3520 H     1 <1>   0.0800 
 43 H       -8.4060     2.3740    -0.9620 H     1 <1>   0.0800 
 44 H       -7.6540     1.4350    -2.2260 H     1 <1>   0.0800 
@<TRIPOS>BOND
  1   1   2  2   
  2   1   3  2   
  3   1   4  am  
  4   1   5  1   
  5   4   6  1   
  6   4   7  1   
  7   5   8  2   
  8   5   9  1   
  9   6  10  1   
 10   6  23  1   
 11   6  24  1   
 12   7  11  1   
 13   7  25  1   
 14   7  26  1   
 15   8  12  1   
 16   8  13  1   
 17   9  14  2   
 18   9  15  1   
 19  10  16  1   
 20  10  27  1   
 21  10  28  1   
 22  11  16  1   
 23  11  29  1   
 24  11  30  1   
 25  12  14  1   
 26  13  31  1   
 27  13  32  1   
 28  13  33  1   
 29  15  34  1   
 30  15  35  1   
 31  15  36  1   
 32  16  17  1   
 33  16  18  1   
 34  17  19  1   
 35  18  20  2   
 36  18  37  1   
 37  19  21  1   
 38  19  38  1   
 39  19  39  1   
 40  20  21  1   
 41  20  22  1   
 42  21  40  1   
 43  21  41  1   
 44  22  42  1   
 45  22  43  1   
 46  22  44  1   
@<TRIPOS>SUBSTRUCTURE
  1 ****   6 GROUP 4 **** **** 0

# MOE 2024.06 (io_trps.svl 2023.06)
