@<TRIPOS>MOLECULE
NONAME
75 78 1 0 0 
SMALL
USER_CHARGES


@<TRIPOS>ATOM
  1 O       -0.6810    -2.6810    -0.3870 O.2   1 <1>  -0.5700 
  2 C       -0.6540    -2.7800     0.8150 C.2   1 <1>   0.5690 
  3 N       -1.7130    -2.3980     1.5890 N.am  1 <1>  -0.7300 
  4 C        0.6050    -3.4190     1.4270 C.3   1 <1>   0.4040 
  5 C       -2.9420    -1.7170     1.0900 C.3   1 <1>   0.1400 
  6 N        0.9220    -4.7650     0.8040 N.4   1 <1>  -0.9590 
  7 C       -3.9470    -2.7490     0.5400 C.3   1 <1>  -0.0800 
  8 C        0.5520    -5.8930     1.7030 C.3   1 <1>   0.3430 
  9 C        2.3330    -4.8570     0.3380 C.3   1 <1>   0.3430 
 10 C       -5.4210    -2.3290     0.4670 C.3   1 <1>   0.4230 
 11 C       -3.6630    -3.1870    -0.8960 C.3   1 <1>  -0.1600 
 12 C        0.2290    -7.1580     0.8990 C.3   1 <1>  -0.1600 
 13 C        2.5380    -3.9880    -0.9050 C.3   1 <1>  -0.1600 
 14 N       -6.0190    -3.1150    -0.6590 N.4   1 <1>  -0.9590 
 15 C       -5.6890    -0.8640     0.1150 C.3   1 <1>  -0.1600 
 16 C       -4.9450    -3.8920    -1.3250 C.3   1 <1>   0.5660 
 17 C       -0.9760    -6.9670    -0.0370 C.3   1 <1>  -0.1600 
 18 C        3.9590    -4.1250    -1.4740 C.3   1 <1>  -0.0800 
 19 C       -6.7160    -2.1860    -1.5900 C.3   1 <1>   0.3430 
 20 C       -6.9120    -0.9100    -0.7910 C.3   1 <1>  -0.1600 
 21 C       -4.8940    -5.3380    -0.8240 C.ar  1 <1>  -0.1430 
 22 C       -1.5340    -8.3100    -0.5460 C.3   1 <1>   0.1200 
 23 C        5.0240    -3.6430    -0.4800 C.3   1 <1>  -0.2400 
 24 C        4.0750    -3.3200    -2.7740 C.3   1 <1>  -0.2400 
 25 C       -3.9290    -6.1570    -1.3980 C.ar  1 <1>  -0.1500 
 26 C       -5.6900    -5.8670     0.1920 C.ar  1 <1>  -0.1500 
 27 O       -2.6150    -8.0790    -1.4310 O.3   1 <1>  -0.3620 
 28 C       -3.6970    -7.4350    -0.9290 C.ar  1 <1>   0.0820 
 29 C       -5.5020    -7.1700     0.6260 C.ar  1 <1>  -0.1500 
 30 C       -4.5120    -7.9630     0.0740 C.ar  1 <1>   0.0820 
 31 O       -4.3690    -9.2190     0.5580 O.3   1 <1>  -0.3620 
 32 C       -4.5640   -10.2790    -0.3540 C.3   1 <1>   0.0400 
 33 H       -1.6630    -2.4640     2.6100 H     1 <1>   0.3700 
 34 H        0.4750    -3.5220     2.4900 H     1 <1>   0.0800 
 35 H        1.4240    -2.7410     1.2590 H     1 <1>   0.0800 
 36 H       -3.3840    -1.1740     1.9090 H     1 <1>   0.0800 
 37 H       -2.6740    -1.0060     0.3250 H     1 <1>   0.0800 
 38 H        0.3300    -4.8160    -0.0420 H     1 <1>   0.4500 
 39 H       -3.9140    -3.6110     1.1850 H     1 <1>   0.0800 
 40 H        1.3550    -6.0930     2.3950 H     1 <1>   0.0800 
 41 H       -0.3230    -5.6290     2.2760 H     1 <1>   0.0800 
 42 H        3.0050    -4.5480     1.1220 H     1 <1>   0.0800 
 43 H        2.5660    -5.8780     0.0800 H     1 <1>   0.0800 
 44 H       -5.9250    -2.5690     1.3900 H     1 <1>   0.0800 
 45 H       -2.8070    -3.8310    -0.9620 H     1 <1>   0.0800 
 46 H       -3.4930    -2.3370    -1.5330 H     1 <1>   0.0800 
 47 H        1.0890    -7.4890     0.3430 H     1 <1>   0.0800 
 48 H       -0.0070    -7.9330     1.6080 H     1 <1>   0.0800 
 49 H        1.8360    -4.2920    -1.6620 H     1 <1>   0.0800 
 50 H        2.3570    -2.9530    -0.6760 H     1 <1>   0.0800 
 51 H       -6.6960    -3.7890    -0.2920 H     1 <1>   0.4500 
 52 H       -5.8610    -0.2700     0.9960 H     1 <1>   0.0800 
 53 H       -4.8630    -0.4430    -0.4300 H     1 <1>   0.0800 
 54 H       -5.0560    -3.8840    -2.3980 H     1 <1>   0.0800 
 55 H       -0.6960    -6.3690    -0.8860 H     1 <1>   0.0800 
 56 H       -1.7510    -6.4590     0.5090 H     1 <1>   0.0800 
 57 H        4.1500    -5.1610    -1.7090 H     1 <1>   0.0800 
 58 H       -6.0880    -1.9770    -2.4410 H     1 <1>   0.0800 
 59 H       -7.6560    -2.5910    -1.9310 H     1 <1>   0.0800 
 60 H       -6.9810    -0.0460    -1.4310 H     1 <1>   0.0800 
 61 H       -7.8140    -0.9850    -0.2080 H     1 <1>   0.0800 
 62 H       -1.8810    -8.9240     0.2680 H     1 <1>   0.0800 
 63 H       -0.7830    -8.8530    -1.0940 H     1 <1>   0.0800 
 64 H        4.8500    -2.6180    -0.1990 H     1 <1>   0.0800 
 65 H        6.0000    -3.7020    -0.9310 H     1 <1>   0.0800 
 66 H        5.0420    -4.2500     0.4060 H     1 <1>   0.0800 
 67 H        3.9000    -2.2740    -2.5950 H     1 <1>   0.0800 
 68 H        3.3600    -3.6670    -3.5000 H     1 <1>   0.0800 
 69 H        5.0580    -3.4320    -3.1970 H     1 <1>   0.0800 
 70 H       -3.3040    -5.8040    -2.2010 H     1 <1>   0.1500 
 71 H       -6.4600    -5.3010     0.6820 H     1 <1>   0.1500 
 72 H       -6.1200    -7.5830     1.4040 H     1 <1>   0.1500 
 73 H       -4.5510   -11.2020     0.1960 H     1 <1>   0.0800 
 74 H       -3.7740   -10.2770    -1.0830 H     1 <1>   0.0800 
 75 H       -5.5180   -10.1520    -0.8370 H     1 <1>   0.0800 
@<TRIPOS>BOND
  1   1   2  2   
  2   2   3  am  
  3   2   4  1   
  4   3   5  1   
  5   3  33  1   
  6   4   6  1   
  7   4  34  1   
  8   4  35  1   
  9   5   7  1   
 10   5  36  1   
 11   5  37  1   
 12   6   8  1   
 13   6   9  1   
 14   6  38  1   
 15   7  10  1   
 16   7  11  1   
 17   7  39  1   
 18   8  12  1   
 19   8  40  1   
 20   8  41  1   
 21   9  13  1   
 22   9  42  1   
 23   9  43  1   
 24  10  14  1   
 25  10  15  1   
 26  10  44  1   
 27  11  16  1   
 28  11  45  1   
 29  11  46  1   
 30  12  17  1   
 31  12  47  1   
 32  12  48  1   
 33  13  18  1   
 34  13  49  1   
 35  13  50  1   
 36  14  16  1   
 37  14  19  1   
 38  14  51  1   
 39  15  20  1   
 40  15  52  1   
 41  15  53  1   
 42  16  21  1   
 43  16  54  1   
 44  17  22  1   
 45  17  55  1   
 46  17  56  1   
 47  18  23  1   
 48  18  24  1   
 49  18  57  1   
 50  19  20  1   
 51  19  58  1   
 52  19  59  1   
 53  20  60  1   
 54  20  61  1   
 55  21  25  ar  
 56  21  26  ar  
 57  22  27  1   
 58  22  62  1   
 59  22  63  1   
 60  23  64  1   
 61  23  65  1   
 62  23  66  1   
 63  24  67  1   
 64  24  68  1   
 65  24  69  1   
 66  25  28  ar  
 67  25  70  1   
 68  26  29  ar  
 69  26  71  1   
 70  27  28  1   
 71  28  30  ar  
 72  29  30  ar  
 73  29  72  1   
 74  30  31  1   
 75  31  32  1   
 76  32  73  1   
 77  32  74  1   
 78  32  75  1   
@<TRIPOS>SUBSTRUCTURE
  1 ****  11 GROUP 4 **** **** 0

# MOE 2024.06 (io_trps.svl 2023.06)
