@<TRIPOS>MOLECULE
NONAME
57 60 1 0 0 
SMALL
USER_CHARGES


@<TRIPOS>ATOM
  1 S        0.2530     0.2470    -0.4620 S.3   1 <1>  -0.4600 
  2 C        1.8220    -0.0860    -1.2940 C.3   1 <1>   0.0700 
  3 C        0.7920     1.0700     1.0540 C.3   1 <1>   0.0700 
  4 C        2.6230     1.2190    -1.3910 C.3   1 <1>   0.3430 
  5 C        1.7120     2.2420     0.6850 C.3   1 <1>   0.3430 
  6 N        2.9680     1.8150    -0.0430 N.4   1 <1>  -0.9590 
  7 C        3.9760     2.9310    -0.1510 C.3   1 <1>   0.4230 
  8 C        5.2470     2.4340    -0.8640 C.3   1 <1>  -0.1600 
  9 C        4.3190     3.4760     1.2470 C.3   1 <1>  -0.1600 
 10 C        6.3340     3.5020    -0.8700 C.3   1 <1>   0.2090 
 11 C        5.4330     4.5150     1.1810 C.3   1 <1>   0.2090 
 12 N        6.6030     3.9100     0.5200 N.pl3 1 <1>  -0.8380 
 13 C        7.7540     4.6500     0.6610 C.ar  1 <1>   0.4100 
 14 N        7.7790     5.8190     0.0950 N.ar  1 <1>  -0.6200 
 15 C        8.8270     4.1210     1.3930 C.ar  1 <1>  -0.1500 
 16 C        8.9080     6.5670     0.2220 C.ar  1 <1>   0.3100 
 17 C        9.9760     4.8310     1.5480 C.ar  1 <1>  -0.1430 
 18 C        8.9650     7.8520    -0.3860 C.ar  1 <1>   0.0830 
 19 C       10.0390     6.1100     0.9450 C.ar  1 <1>   0.0000 
 20 C       11.1410     4.2580     2.3430 C.3   1 <1>  -0.0970 
 21 O        7.8630     8.2690    -1.0770 O.3   1 <1>  -0.3620 
 22 C       10.0930     8.6370    -0.2770 C.ar  1 <1>  -0.1500 
 23 C       11.1690     6.9450     1.0300 C.ar  1 <1>  -0.1500 
 24 C        7.7920     9.5200    -1.7240 C.3   1 <1>   0.0400 
 25 C       11.2070     8.1780     0.4390 C.ar  1 <1>   0.0830 
 26 O       12.3480     8.8990     0.5850 O.3   1 <1>  -0.3620 
 27 C       12.4950    10.1830     0.0190 C.3   1 <1>   0.0400 
 28 H        1.5820    -0.4680    -2.2710 H     1 <1>   0.0800 
 29 H        2.3440    -0.8400    -0.7310 H     1 <1>   0.0800 
 30 H        1.2910     0.3420     1.6690 H     1 <1>   0.0800 
 31 H       -0.0960     1.4160     1.5540 H     1 <1>   0.0800 
 32 H        2.0560     1.9320    -1.9680 H     1 <1>   0.0800 
 33 H        3.5210     0.9960    -1.9380 H     1 <1>   0.0800 
 34 H        1.9680     2.7400     1.6030 H     1 <1>   0.0800 
 35 H        1.1590     2.9390     0.0760 H     1 <1>   0.0800 
 36 H        3.4190     1.0800     0.5170 H     1 <1>   0.4500 
 37 H        3.5570     3.7370    -0.7330 H     1 <1>   0.0800 
 38 H        5.0510     2.1990    -1.8920 H     1 <1>   0.0800 
 39 H        5.6400     1.5620    -0.3710 H     1 <1>   0.0800 
 40 H        4.6440     2.6810     1.8940 H     1 <1>   0.0800 
 41 H        3.4760     3.9690     1.6920 H     1 <1>   0.0800 
 42 H        6.0290     4.3610    -1.4460 H     1 <1>   0.0800 
 43 H        7.2380     3.1100    -1.3090 H     1 <1>   0.0800 
 44 H        5.7060     4.8310     2.1750 H     1 <1>   0.0800 
 45 H        5.1170     5.3860     0.6290 H     1 <1>   0.0800 
 46 H        8.6960     3.1450     1.8170 H     1 <1>   0.1500 
 47 H       10.9020     3.2800     2.7200 H     1 <1>   0.0800 
 48 H       11.3670     4.8960     3.1780 H     1 <1>   0.0800 
 49 H       12.0100     4.1750     1.7150 H     1 <1>   0.0800 
 50 H       10.1320     9.6010    -0.7360 H     1 <1>   0.1500 
 51 H       12.0350     6.6170     1.5730 H     1 <1>   0.1500 
 52 H        6.8260     9.5990    -2.1880 H     1 <1>   0.0800 
 53 H        8.5620     9.5690    -2.4730 H     1 <1>   0.0800 
 54 H        7.9110    10.2990    -0.9920 H     1 <1>   0.0800 
 55 H       13.4750    10.5470     0.2700 H     1 <1>   0.0800 
 56 H       11.7460    10.8350     0.4320 H     1 <1>   0.0800 
 57 H       12.3980    10.1060    -1.0490 H     1 <1>   0.0800 
@<TRIPOS>BOND
  1   1   2  1   
  2   1   3  1   
  3   2   4  1   
  4   2  28  1   
  5   2  29  1   
  6   3   5  1   
  7   3  30  1   
  8   3  31  1   
  9   4   6  1   
 10   4  32  1   
 11   4  33  1   
 12   5   6  1   
 13   5  34  1   
 14   5  35  1   
 15   6   7  1   
 16   6  36  1   
 17   7   8  1   
 18   7   9  1   
 19   7  37  1   
 20   8  10  1   
 21   8  38  1   
 22   8  39  1   
 23   9  11  1   
 24   9  40  1   
 25   9  41  1   
 26  10  12  1   
 27  10  42  1   
 28  10  43  1   
 29  11  12  1   
 30  11  44  1   
 31  11  45  1   
 32  12  13  1   
 33  13  14  ar  
 34  13  15  ar  
 35  14  16  ar  
 36  15  17  ar  
 37  15  46  1   
 38  16  18  ar  
 39  16  19  ar  
 40  17  19  ar  
 41  17  20  1   
 42  18  21  1   
 43  18  22  ar  
 44  19  23  ar  
 45  20  47  1   
 46  20  48  1   
 47  20  49  1   
 48  21  24  1   
 49  22  25  ar  
 50  22  50  1   
 51  23  25  ar  
 52  23  51  1   
 53  24  52  1   
 54  24  53  1   
 55  24  54  1   
 56  25  26  1   
 57  26  27  1   
 58  27  55  1   
 59  27  56  1   
 60  27  57  1   
@<TRIPOS>SUBSTRUCTURE
  1 ****  13 GROUP 4 **** **** 0

# MOE 2024.06 (io_trps.svl 2023.06)
