@<TRIPOS>MOLECULE
NONAME
45 47 1 0 0 
SMALL
USER_CHARGES


@<TRIPOS>ATOM
  1 S        0.5730     0.0120    -0.3670 S.o2  1 <1>   1.3330 
  2 O        0.5680    -1.1110    -1.2780 O.2   1 <1>  -0.6500 
  3 O        0.5100    -0.2290     1.0570 O.2   1 <1>  -0.6500 
  4 N       -0.7190     1.0330    -0.7760 N.am  1 <1>  -0.8490 
  5 C        2.0180     1.0060    -0.7290 C.3   1 <1>  -0.0550 
  6 C       -1.0120     2.0440     0.2460 C.3   1 <1>   0.1160 
  7 C       -1.9350     0.2820    -1.0990 C.3   1 <1>   0.1160 
  8 C        3.3420     0.2310    -0.5710 C.3   1 <1>  -0.0800 
  9 C        4.5930     1.0140    -0.9370 C.3   1 <1>   0.2200 
 10 C        3.6430    -0.2470     0.8560 C.3   1 <1>   0.1200 
 11 N        4.5260     2.3940    -0.3980 N.am  1 <1>  -0.7300 
 12 C        5.6420     0.2370    -0.1550 C.3   1 <1>   0.1200 
 13 O        5.0200    -0.0920     1.0490 O.3   1 <1>  -0.5600 
 14 C        4.1900     3.5100    -1.1110 C.2   1 <1>   0.5440 
 15 O        3.8920     3.3620    -2.2800 O.2   1 <1>  -0.5700 
 16 C        4.1700     4.8220    -0.4880 C.ar  1 <1>   0.0860 
 17 C        4.1160     4.9890     0.8900 C.ar  1 <1>  -0.1500 
 18 C        4.1990     5.9860    -1.2880 C.ar  1 <1>  -0.1500 
 19 C        4.0980     6.2620     1.4580 C.ar  1 <1>   0.0000 
 20 C        4.1810     7.2490    -0.7470 C.ar  1 <1>  -0.1500 
 21 C        4.1310     7.3860     0.6400 C.ar  1 <1>  -0.1520 
 22 C        4.0470     6.7390     2.7860 C.2   1 <1>  -0.1500 
 23 N        4.1030     8.5010     1.4340 N.pl3 1 <1>   0.0330 
 24 C        4.0510     8.0930     2.7380 C.2   1 <1>  -0.3020 
 25 H        1.9500     1.3610    -1.7390 H     1 <1>   0.0800 
 26 H        2.0210     1.8620    -0.0840 H     1 <1>   0.0800 
 27 H       -1.7850     2.7070    -0.1020 H     1 <1>   0.0800 
 28 H       -0.1330     2.6310     0.4510 H     1 <1>   0.0800 
 29 H       -1.3370     1.5740     1.1600 H     1 <1>   0.0800 
 30 H       -2.7280     0.9550    -1.3750 H     1 <1>   0.0800 
 31 H       -2.2460    -0.3080    -0.2520 H     1 <1>   0.0800 
 32 H       -1.7490    -0.3780    -1.9300 H     1 <1>   0.0800 
 33 H        3.2990    -0.6400    -1.2030 H     1 <1>   0.0800 
 34 H        4.7900     1.0240    -1.9960 H     1 <1>   0.0800 
 35 H        3.3830    -1.2840     0.9940 H     1 <1>   0.0800 
 36 H        3.1400     0.3530     1.5950 H     1 <1>   0.0800 
 37 H        4.8080     2.4670     0.5820 H     1 <1>   0.3700 
 38 H        6.5320     0.8100     0.0370 H     1 <1>   0.0800 
 39 H        5.8950    -0.6800    -0.6600 H     1 <1>   0.0800 
 40 H        4.0800     4.1450     1.5520 H     1 <1>   0.1500 
 41 H        4.2360     5.8660    -2.3580 H     1 <1>   0.1500 
 42 H        4.2040     8.1230    -1.3750 H     1 <1>   0.1500 
 43 H        4.0130     6.1060     3.6550 H     1 <1>   0.1500 
 44 H        4.1180     9.4700     1.0990 H     1 <1>   0.2700 
 45 H        4.0210     8.7940     3.5540 H     1 <1>   0.1500 
@<TRIPOS>BOND
  1   1   2  2   
  2   1   3  2   
  3   1   4  am  
  4   1   5  1   
  5   4   6  1   
  6   4   7  1   
  7   5   8  1   
  8   5  25  1   
  9   5  26  1   
 10   6  27  1   
 11   6  28  1   
 12   6  29  1   
 13   7  30  1   
 14   7  31  1   
 15   7  32  1   
 16   8   9  1   
 17   8  10  1   
 18   8  33  1   
 19   9  11  1   
 20   9  12  1   
 21   9  34  1   
 22  10  13  1   
 23  10  35  1   
 24  10  36  1   
 25  11  14  am  
 26  11  37  1   
 27  12  13  1   
 28  12  38  1   
 29  12  39  1   
 30  14  15  2   
 31  14  16  1   
 32  16  17  ar  
 33  16  18  ar  
 34  17  19  ar  
 35  17  40  1   
 36  18  20  ar  
 37  18  41  1   
 38  19  21  ar  
 39  19  22  1   
 40  20  21  ar  
 41  20  42  1   
 42  21  23  1   
 43  22  24  2   
 44  22  43  1   
 45  23  24  1   
 46  23  44  1   
 47  24  45  1   
@<TRIPOS>SUBSTRUCTURE
  1 ****  14 GROUP 4 **** **** 0

# MOE 2024.06 (io_trps.svl 2023.06)
