@<TRIPOS>MOLECULE
NONAME
48 49 1 0 0 
SMALL
USER_CHARGES


@<TRIPOS>ATOM
  1 O        1.2720    -0.7020     1.2410 O.2   1 <1>  -0.5700 
  2 C        1.2380    -0.6660     0.0340 C.2   1 <1>   0.5690 
  3 N        1.6540     0.4270    -0.6640 N.am  1 <1>  -0.7300 
  4 C        0.6880    -1.9110    -0.6850 C.3   1 <1>   0.4040 
  5 C        2.1390     1.6860    -0.0220 C.3   1 <1>   0.1400 
  6 N       -0.2350    -2.7270     0.1970 N.4   1 <1>  -0.9590 
  7 C        3.6050     1.5810     0.4220 C.3   1 <1>   0.2000 
  8 C       -0.3640    -4.1370    -0.2890 C.3   1 <1>   0.3430 
  9 C       -1.5480    -2.0310     0.3890 C.3   1 <1>   0.2630 
 10 O        4.0400     2.8320     0.8300 O.3   1 <1>  -0.5600 
 11 C        4.5910     1.1920    -0.6730 C.3   1 <1>  -0.1600 
 12 C       -1.0330    -5.0540     0.7370 C.3   1 <1>   0.0210 
 13 C        5.4310     2.8840     0.8140 C.3   1 <1>   0.1200 
 14 C        5.8820     1.8550    -0.2220 C.3   1 <1>  -0.1600 
 15 C       -0.9870    -6.4660     0.1970 C.2   1 <1>  -0.1810 
 16 C        0.0490    -7.3850     0.3670 C.2   1 <1>   0.1080 
 17 C       -1.9040    -7.1140    -0.5560 C.2   1 <1>  -0.3320 
 18 N       -0.1900    -8.5030    -0.2350 N.2   1 <1>  -0.7070 
 19 C        1.3240    -7.1720     1.1540 C.3   1 <1>  -0.0590 
 20 N       -1.3990    -8.3440    -0.7970 N.pl3 1 <1>   0.3000 
 21 C       -3.2600    -6.6760    -1.0850 C.3   1 <1>  -0.0600 
 22 H        1.6850     0.4470    -1.6880 H     1 <1>   0.3700 
 23 H        1.5320    -2.5130    -0.9740 H     1 <1>   0.0800 
 24 H        0.1700    -1.6050    -1.5770 H     1 <1>   0.0800 
 25 H        1.5350     1.9020     0.8440 H     1 <1>   0.0800 
 26 H        2.0380     2.5000    -0.7190 H     1 <1>   0.0800 
 27 H        0.2390    -2.7220     1.1200 H     1 <1>   0.4500 
 28 H        3.6930     0.9190     1.2680 H     1 <1>   0.0800 
 29 H        0.6150    -4.5360    -0.5000 H     1 <1>   0.0800 
 30 H       -0.9330    -4.1640    -1.2050 H     1 <1>   0.0800 
 31 H       -2.0810    -1.9660    -0.5460 H     1 <1>   0.0800 
 32 H       -1.3870    -1.0330     0.7680 H     1 <1>   0.0800 
 33 H       -2.1570    -2.5650     1.0990 H     1 <1>   0.0800 
 34 H        4.2750     1.6070    -1.6140 H     1 <1>   0.0800 
 35 H        4.6860     0.1250    -0.7640 H     1 <1>   0.0800 
 36 H       -2.0570    -4.7710     0.8930 H     1 <1>   0.0800 
 37 H       -0.5140    -5.0150     1.6770 H     1 <1>   0.0800 
 38 H        5.7880     2.6320     1.7980 H     1 <1>   0.0800 
 39 H        5.7330     3.8840     0.5550 H     1 <1>   0.0800 
 40 H        6.3920     2.3300    -1.0420 H     1 <1>   0.0800 
 41 H        6.5450     1.1460     0.2400 H     1 <1>   0.0800 
 42 H        1.8330    -6.2910     0.8140 H     1 <1>   0.0800 
 43 H        1.9750    -8.0180     1.0220 H     1 <1>   0.0800 
 44 H        1.0940    -7.0790     2.1990 H     1 <1>   0.0800 
 45 H       -1.8490    -9.0950    -1.3350 H     1 <1>   0.2700 
 46 H       -3.4810    -5.6660    -0.7940 H     1 <1>   0.0800 
 47 H       -4.0310    -7.3170    -0.6940 H     1 <1>   0.0800 
 48 H       -3.2760    -6.7340    -2.1590 H     1 <1>   0.0800 
@<TRIPOS>BOND
  1   1   2  2   
  2   2   3  am  
  3   2   4  1   
  4   3   5  1   
  5   3  22  1   
  6   4   6  1   
  7   4  23  1   
  8   4  24  1   
  9   5   7  1   
 10   5  25  1   
 11   5  26  1   
 12   6   8  1   
 13   6   9  1   
 14   6  27  1   
 15   7  10  1   
 16   7  11  1   
 17   7  28  1   
 18   8  12  1   
 19   8  29  1   
 20   8  30  1   
 21   9  31  1   
 22   9  32  1   
 23   9  33  1   
 24  10  13  1   
 25  11  14  1   
 26  11  34  1   
 27  11  35  1   
 28  12  15  1   
 29  12  36  1   
 30  12  37  1   
 31  13  14  1   
 32  13  38  1   
 33  13  39  1   
 34  14  40  1   
 35  14  41  1   
 36  15  16  1   
 37  15  17  2   
 38  16  18  2   
 39  16  19  1   
 40  17  20  1   
 41  17  21  1   
 42  18  20  1   
 43  19  42  1   
 44  19  43  1   
 45  19  44  1   
 46  20  45  1   
 47  21  46  1   
 48  21  47  1   
 49  21  48  1   
@<TRIPOS>SUBSTRUCTURE
  1 ****   4 GROUP 4 **** **** 0

# MOE 2024.06 (io_trps.svl 2023.06)
