@<TRIPOS>MOLECULE
NONAME
48 50 1 0 0 
SMALL
USER_CHARGES


@<TRIPOS>ATOM
  1 O       -1.1780     0.5960    -1.8220 O.2   1 <1>  -0.5700 
  2 C       -2.0280     1.2980    -1.2980 C.2   1 <1>   0.5440 
  3 N       -3.1020     0.6780    -0.7020 N.am  1 <1>  -0.6600 
  4 C       -1.8410     2.7300    -1.2060 C.ar  1 <1>   0.0860 
  5 C       -3.5000    -0.7210    -1.0730 C.3   1 <1>   0.1400 
  6 C       -3.4390     1.0340     0.6980 C.3   1 <1>   0.1400 
  7 C       -0.6440     3.2670    -0.7060 C.ar  1 <1>   0.1170 
  8 C       -2.8620     3.6010    -1.5890 C.ar  1 <1>  -0.1500 
  9 C       -3.2970    -1.7110     0.1000 C.3   1 <1>  -0.0800 
 10 C       -2.5810     0.1820     1.6500 C.3   1 <1>  -0.1600 
 11 N        0.3880     2.4010    -0.3200 N.am  1 <1>  -0.5470 
 12 C       -0.5090     4.6500    -0.6140 C.ar  1 <1>  -0.1500 
 13 C       -2.7140     4.9700    -1.4880 C.ar  1 <1>  -0.1500 
 14 C       -2.2300    -1.2110     1.0920 C.3   1 <1>   0.2000 
 15 C       -2.9560    -3.1150    -0.4160 C.3   1 <1>   0.1200 
 16 C        1.3480     2.4840     0.6610 C.2   1 <1>   0.7150 
 17 C       -1.5310     5.4960    -0.9970 C.ar  1 <1>  -0.1500 
 18 O       -1.0200    -1.1240     0.4270 O.3   1 <1>  -0.6800 
 19 O       -3.9970    -3.5780    -1.2060 O.3   1 <1>  -0.6800 
 20 O        1.4170     3.4900     1.3430 O.2   1 <1>  -0.5700 
 21 C        2.2320     1.3580     0.8610 C.2   1 <1>   0.0550 
 22 O        3.2870     1.4440     1.6680 O.3   1 <1>  -0.2800 
 23 C        2.2010     0.0970     0.3390 C.2   1 <1>  -0.1500 
 24 C        3.9190     0.2940     1.6760 C.2   1 <1>  -0.0400 
 25 C        3.2950    -0.5880     0.8680 C.2   1 <1>  -0.1500 
 26 C        5.1590     0.1510     2.5300 C.3   1 <1>  -0.0600 
 27 H       -4.5330    -0.7290    -1.3750 H     1 <1>   0.0800 
 28 H       -2.9240    -1.0470    -1.9230 H     1 <1>   0.0800 
 29 H       -3.2720     2.0820     0.8860 H     1 <1>   0.0800 
 30 H       -4.4830     0.8310     0.8630 H     1 <1>   0.0800 
 31 H       -3.7810     3.1910    -1.9710 H     1 <1>   0.1500 
 32 H       -4.2220    -1.7820     0.6440 H     1 <1>   0.0800 
 33 H       -3.1350     0.0590     2.5620 H     1 <1>   0.0800 
 34 H       -1.6780     0.7100     1.9050 H     1 <1>   0.0800 
 35 H        0.3460     1.4840    -0.7790 H     1 <1>   0.3700 
 36 H        0.4060     5.0740    -0.2390 H     1 <1>   0.1500 
 37 H       -3.5110     5.6280    -1.7880 H     1 <1>   0.1500 
 38 H       -2.0950    -1.9080     1.9020 H     1 <1>   0.0800 
 39 H       -2.8080    -3.8080     0.3940 H     1 <1>   0.0800 
 40 H       -2.0650    -3.0920    -1.0220 H     1 <1>   0.0800 
 41 H       -1.4070     6.5620    -0.9160 H     1 <1>   0.1500 
 42 H       -1.1510    -0.5830    -0.3910 H     1 <1>   0.4000 
 43 H       -4.7640    -3.8400    -0.6600 H     1 <1>   0.4000 
 44 H        1.4870    -0.3300    -0.3420 H     1 <1>   0.1500 
 45 H        3.5560    -1.6100     0.6580 H     1 <1>   0.1500 
 46 H        5.5640    -0.8390     2.4360 H     1 <1>   0.0800 
 47 H        4.9110     0.3330     3.5600 H     1 <1>   0.0800 
 48 H        5.8980     0.8660     2.2180 H     1 <1>   0.0800 
@<TRIPOS>BOND
  1   1   2  2   
  2   2   3  am  
  3   2   4  1   
  4   3   5  1   
  5   3   6  1   
  6   4   7  ar  
  7   4   8  ar  
  8   5   9  1   
  9   5  27  1   
 10   5  28  1   
 11   6  10  1   
 12   6  29  1   
 13   6  30  1   
 14   7  11  1   
 15   7  12  ar  
 16   8  13  ar  
 17   8  31  1   
 18   9  14  1   
 19   9  15  1   
 20   9  32  1   
 21  10  14  1   
 22  10  33  1   
 23  10  34  1   
 24  11  16  am  
 25  11  35  1   
 26  12  17  ar  
 27  12  36  1   
 28  13  17  ar  
 29  13  37  1   
 30  14  18  1   
 31  14  38  1   
 32  15  19  1   
 33  15  39  1   
 34  15  40  1   
 35  16  20  2   
 36  16  21  1   
 37  17  41  1   
 38  18  42  1   
 39  19  43  1   
 40  21  22  1   
 41  21  23  2   
 42  22  24  1   
 43  23  25  1   
 44  23  44  1   
 45  24  25  2   
 46  24  26  1   
 47  25  45  1   
 48  26  46  1   
 49  26  47  1   
 50  26  48  1   
@<TRIPOS>SUBSTRUCTURE
  1 ****  11 GROUP 4 **** **** 0

# MOE 2024.06 (io_trps.svl 2023.06)
