@<TRIPOS>MOLECULE
NONAME
26 26 1 0 0 
SMALL
USER_CHARGES


@<TRIPOS>ATOM
  1 O        0.2540    -1.4970     2.1940 O.2   1 <1>  -0.5700 
  2 C        0.3910    -1.5010     0.9970 C.2   1 <1>   0.6590 
  3 O        1.4520    -0.9340     0.4280 O.3   1 <1>  -0.4300 
  4 C       -0.6390    -2.1250     0.0360 C.3   1 <1>   0.0610 
  5 C        2.4650    -0.3110     1.1920 C.3   1 <1>   0.0400 
  6 C       -1.6770    -2.9860     0.8020 C.3   1 <1>  -0.1600 
  7 C        0.0690    -3.0580    -0.9790 C.3   1 <1>  -0.1600 
  8 C       -1.3250    -0.9400    -0.6790 C.3   1 <1>   0.1200 
  9 C       -1.0340    -4.2510     1.3850 C.3   1 <1>   0.1200 
 10 C        0.6340    -4.2970    -0.2750 C.3   1 <1>   0.1200 
 11 O       -2.3090    -1.3600    -1.5670 O.3   1 <1>  -0.6800 
 12 O       -0.4080    -4.9640     0.3630 O.3   1 <1>  -0.5600 
 13 H        3.2140     0.0710     0.5220 H     1 <1>   0.0800 
 14 H        2.8970    -1.0400     1.8570 H     1 <1>   0.0800 
 15 H        2.0280     0.4930     1.7590 H     1 <1>   0.0800 
 16 H       -2.4710    -3.2940     0.1440 H     1 <1>   0.0800 
 17 H       -2.1250    -2.4130     1.5950 H     1 <1>   0.0800 
 18 H        0.8630    -2.5400    -1.4860 H     1 <1>   0.0800 
 19 H       -0.6250    -3.3990    -1.7270 H     1 <1>   0.0800 
 20 H       -0.6050    -0.3620    -1.2330 H     1 <1>   0.0800 
 21 H       -1.7980    -0.2950     0.0430 H     1 <1>   0.0800 
 22 H       -1.7860    -4.8890     1.8160 H     1 <1>   0.0800 
 23 H       -0.3040    -4.0190     2.1420 H     1 <1>   0.0800 
 24 H        1.3820    -4.0400     0.4570 H     1 <1>   0.0800 
 25 H        1.0650    -4.9750    -0.9920 H     1 <1>   0.0800 
 26 H       -1.9410    -1.9730    -2.2330 H     1 <1>   0.4000 
@<TRIPOS>BOND
  1   1   2  2   
  2   2   3  1   
  3   2   4  1   
  4   3   5  1   
  5   4   6  1   
  6   4   7  1   
  7   4   8  1   
  8   5  13  1   
  9   5  14  1   
 10   5  15  1   
 11   6   9  1   
 12   6  16  1   
 13   6  17  1   
 14   7  10  1   
 15   7  18  1   
 16   7  19  1   
 17   8  11  1   
 18   8  20  1   
 19   8  21  1   
 20   9  12  1   
 21   9  22  1   
 22   9  23  1   
 23  10  12  1   
 24  10  24  1   
 25  10  25  1   
 26  11  26  1   
@<TRIPOS>SUBSTRUCTURE
  1 ****   4 GROUP 4 **** **** 0

# MOE 2024.06 (io_trps.svl 2023.06)
