@<TRIPOS>MOLECULE
NONAME
51 53 1 0 0 
SMALL
USER_CHARGES


@<TRIPOS>ATOM
  1 O        1.4090     0.0800     0.6300 O.2   1 <1>  -0.5700 
  2 C        2.1560    -0.6720     0.0460 C.2   1 <1>   0.5690 
  3 N        3.3060    -0.2050    -0.5440 N.am  1 <1>  -0.6600 
  4 C        1.7710    -2.1530     0.0120 C.3   1 <1>  -0.0190 
  5 C        4.3880    -1.0280    -1.1840 C.3   1 <1>   0.1400 
  6 C        3.5790     1.2590    -0.5860 C.3   1 <1>   0.1400 
  7 C        0.2360    -2.2890     0.0330 C.3   1 <1>   0.0960 
  8 C        2.4280    -2.9210     1.1790 C.3   1 <1>  -0.2400 
  9 C        5.6580    -1.1220    -0.3200 C.3   1 <1>   0.1400 
 10 C        4.2650     1.7390     0.6990 C.3   1 <1>  -0.1600 
 11 N       -0.1890    -3.6910    -0.1310 N.pl3 1 <1>   0.3140 
 12 N        6.1630     0.2180     0.1120 N.am  1 <1>  -0.6600 
 13 C        5.3830     0.8280     1.2250 C.3   1 <1>   0.1400 
 14 N        0.0210    -4.3850    -1.2420 N.2   1 <1>  -0.7070 
 15 C       -0.8080    -4.4780     0.7530 C.2   1 <1>   0.0360 
 16 C        7.2230     0.8080    -0.5250 C.2   1 <1>   0.5690 
 17 C       -0.4870    -5.5370    -0.9480 C.2   1 <1>   0.3660 
 18 N       -1.0130    -5.6530     0.2780 N.2   1 <1>  -0.5650 
 19 O        7.7360     0.2960    -1.4940 O.2   1 <1>  -0.5700 
 20 C        7.7700     2.1370    -0.0260 C.3   1 <1>  -0.0990 
 21 C        8.9830     2.6440    -0.8180 C.3   1 <1>   0.0210 
 22 C        9.4650     3.9660    -0.2520 C.2   1 <1>  -0.1810 
 23 C        8.8560     5.2080    -0.4050 C.2   1 <1>   0.1390 
 24 C       10.5570     4.2120     0.5020 C.2   1 <1>  -0.3020 
 25 N        9.5040     6.1530     0.2040 N.2   1 <1>  -0.7070 
 26 N       10.5610     5.5340     0.7630 N.pl3 1 <1>   0.3000 
 27 H        2.1000    -2.5690    -0.9210 H     1 <1>   0.0800 
 28 H        4.6520    -0.5880    -2.1310 H     1 <1>   0.0800 
 29 H        4.0480    -2.0240    -1.3920 H     1 <1>   0.0800 
 30 H        2.6550     1.7970    -0.7220 H     1 <1>   0.0800 
 31 H        4.2080     1.4820    -1.4320 H     1 <1>   0.0800 
 32 H       -0.1880    -1.7180    -0.7720 H     1 <1>   0.0800 
 33 H       -0.1590    -1.9120     0.9590 H     1 <1>   0.0800 
 34 H        2.0660    -2.5490     2.1220 H     1 <1>   0.0800 
 35 H        3.4940    -2.7950     1.1540 H     1 <1>   0.0800 
 36 H        2.2160    -3.9740     1.1140 H     1 <1>   0.0800 
 37 H        6.4190    -1.6340    -0.8840 H     1 <1>   0.0800 
 38 H        5.4580    -1.7230     0.5480 H     1 <1>   0.0800 
 39 H        3.5200     1.8400     1.4680 H     1 <1>   0.0800 
 40 H        4.6610     2.7220     0.5250 H     1 <1>   0.0800 
 41 H        4.9370     0.0410     1.8110 H     1 <1>   0.0800 
 42 H        6.0290     1.3820     1.8830 H     1 <1>   0.0800 
 43 H       -1.0880    -4.1490     1.7370 H     1 <1>   0.1500 
 44 H       -0.4980    -6.3710    -1.6320 H     1 <1>   0.1500 
 45 H        8.0590     2.0240     1.0020 H     1 <1>   0.0800 
 46 H        6.9900     2.8720    -0.0830 H     1 <1>   0.0800 
 47 H        8.7220     2.7720    -1.8540 H     1 <1>   0.0800 
 48 H        9.7780     1.9200    -0.7630 H     1 <1>   0.0800 
 49 H        7.9500     5.3790    -0.9630 H     1 <1>   0.1500 
 50 H       11.3140     3.5390     0.8590 H     1 <1>   0.1500 
 51 H       11.2630     6.0430     1.3140 H     1 <1>   0.2700 
@<TRIPOS>BOND
  1   1   2  2   
  2   2   3  am  
  3   2   4  1   
  4   3   5  1   
  5   3   6  1   
  6   4   7  1   
  7   4   8  1   
  8   4  27  1   
  9   5   9  1   
 10   5  28  1   
 11   5  29  1   
 12   6  10  1   
 13   6  30  1   
 14   6  31  1   
 15   7  11  1   
 16   7  32  1   
 17   7  33  1   
 18   8  34  1   
 19   8  35  1   
 20   8  36  1   
 21   9  12  1   
 22   9  37  1   
 23   9  38  1   
 24  10  13  1   
 25  10  39  1   
 26  10  40  1   
 27  11  14  1   
 28  11  15  1   
 29  12  13  1   
 30  12  16  am  
 31  13  41  1   
 32  13  42  1   
 33  14  17  2   
 34  15  18  2   
 35  15  43  1   
 36  16  19  2   
 37  16  20  1   
 38  17  18  1   
 39  17  44  1   
 40  20  21  1   
 41  20  45  1   
 42  20  46  1   
 43  21  22  1   
 44  21  47  1   
 45  21  48  1   
 46  22  23  1   
 47  22  24  2   
 48  23  25  2   
 49  23  49  1   
 50  24  26  1   
 51  24  50  1   
 52  25  26  1   
 53  26  51  1   
@<TRIPOS>SUBSTRUCTURE
  1 ****   3 GROUP 4 **** **** 0

# MOE 2024.06 (io_trps.svl 2023.06)
