@<TRIPOS>MOLECULE
NONAME
37 40 1 0 0 
SMALL
USER_CHARGES


@<TRIPOS>ATOM
  1 O        1.0390     1.9660     2.3760 O.co2 1 <1>  -0.9000 
  2 C        1.0460     1.5870     1.1960 C.2   1 <1>   0.9470 
  3 O        0.0000     1.5760     0.5300 O.co2 1 <1>  -0.9000 
  4 C        2.3870     1.3120     0.5000 C.3   1 <1>  -0.2420 
  5 C        3.2010     0.0510     0.3700 C.3   1 <1>  -0.2420 
  6 C        3.3770     2.4410     0.7620 C.3   1 <1>   0.2050 
  7 C        2.3600     0.5260    -0.7870 C.3   1 <1>  -0.2000 
  8 C        2.9820    -1.3900     0.8480 C.2   1 <1>   0.9470 
  9 C        4.6520     0.4570     0.5760 C.3   1 <1>   0.2050 
 10 N        4.7330     1.9290     0.4450 N.3   1 <1>  -0.8100 
 11 O        3.3380    -1.7150     1.9880 O.co2 1 <1>  -0.9000 
 12 O        2.6150    -2.2470     0.0290 O.co2 1 <1>  -0.9000 
 13 C        5.2020     2.3540    -0.8910 C.3   1 <1>   0.2910 
 14 C        5.5950     3.8320    -0.9650 C.2   1 <1>   0.3350 
 15 N        4.8940     4.7350    -1.5430 N.2   1 <1>  -0.4100 
 16 N        6.7450     4.2870    -0.4400 N.2   1 <1>  -0.5650 
 17 O        5.5780     5.8040    -1.3720 O.3   1 <1>  -0.0190 
 18 C        6.6730     5.5430    -0.7130 C.2   1 <1>   0.4250 
 19 C        7.6190     6.5890    -0.3860 C.ar  1 <1>   0.0530 
 20 C        8.7630     6.3120     0.3660 C.ar  1 <1>  -0.1500 
 21 C        7.4330     7.9090    -0.8030 C.ar  1 <1>  -0.1500 
 22 C        9.6760     7.3000     0.6860 C.ar  1 <1>  -0.1500 
 23 C        8.3430     8.9020    -0.4860 C.ar  1 <1>  -0.1500 
 24 C        9.4680     8.5990     0.2600 C.ar  1 <1>  -0.1500 
 25 H        3.3480     2.6920     1.8090 H     1 <1>   0.0800 
 26 H        3.1240     3.3180     0.1940 H     1 <1>   0.0800 
 27 H        2.8200     0.8930    -1.6800 H     1 <1>   0.1000 
 28 H        1.4640    -0.0310    -1.0070 H     1 <1>   0.1000 
 29 H        5.2990    -0.0550    -0.1140 H     1 <1>   0.0800 
 30 H        4.9410     0.1900     1.5790 H     1 <1>   0.0800 
 31 H        6.0700     1.7770    -1.1540 H     1 <1>   0.0800 
 32 H        4.4470     2.1680    -1.6280 H     1 <1>   0.0800 
 33 H        8.9350     5.3040     0.7050 H     1 <1>   0.1500 
 34 H        6.5650     8.1670    -1.3840 H     1 <1>   0.1500 
 35 H       10.5500     7.0580     1.2670 H     1 <1>   0.1500 
 36 H        8.1770     9.9120    -0.8190 H     1 <1>   0.1500 
 37 H       10.1770     9.3700     0.5070 H     1 <1>   0.1500 
@<TRIPOS>BOND
  1   1   2  ar  
  2   2   3  ar  
  3   2   4  1   
  4   4   5  1   
  5   4   6  1   
  6   4   7  1   
  7   5   7  1   
  8   5   8  1   
  9   5   9  1   
 10   6  10  1   
 11   6  25  1   
 12   6  26  1   
 13   7  27  1   
 14   7  28  1   
 15   8  11  ar  
 16   8  12  ar  
 17   9  10  1   
 18   9  29  1   
 19   9  30  1   
 20  10  13  1   
 21  13  14  1   
 22  13  31  1   
 23  13  32  1   
 24  14  15  2   
 25  14  16  1   
 26  15  17  1   
 27  16  18  2   
 28  17  18  1   
 29  18  19  1   
 30  19  20  ar  
 31  19  21  ar  
 32  20  22  ar  
 33  20  33  1   
 34  21  23  ar  
 35  21  34  1   
 36  22  24  ar  
 37  22  35  1   
 38  23  24  ar  
 39  23  36  1   
 40  24  37  1   
@<TRIPOS>SUBSTRUCTURE
  1 ****  14 GROUP 4 **** **** 0

# MOE 2024.06 (io_trps.svl 2023.06)
