@<TRIPOS>MOLECULE
NONAME
65 67 1 0 0 
SMALL
USER_CHARGES


@<TRIPOS>ATOM
  1 F       -0.9370    -0.1830     0.2350 F     1 <1>  -0.1900 
  2 C       -2.1470     0.2560     0.0060 C.ar  1 <1>   0.1900 
  3 C       -2.7360     1.2560     0.7890 C.ar  1 <1>   0.0830 
  4 C       -2.8190    -0.3200    -1.0560 C.ar  1 <1>  -0.1500 
  5 O       -2.1780     1.9000     1.8540 O.3   1 <1>  -0.3630 
  6 C       -4.0240     1.6480     0.4680 C.ar  1 <1>  -0.1500 
  7 C       -4.1030     0.0970    -1.3500 C.ar  1 <1>  -0.1500 
  8 C       -0.8660     1.6460     2.3070 C.3   1 <1>   0.0400 
  9 C       -4.7360     1.0820    -0.5910 C.ar  1 <1>   0.0530 
 10 C       -6.0770     1.5220    -0.8820 C.2   1 <1>   0.0870 
 11 O       -6.3360     2.8030    -0.9270 O.3   1 <1>  -0.0190 
 12 C       -7.2480     0.8710    -1.1250 C.2   1 <1>  -0.0860 
 13 N       -7.5870     3.0630    -1.1940 N.2   1 <1>  -0.4100 
 14 C       -8.1590     1.9190    -1.3240 C.2   1 <1>   0.3720 
 15 C       -7.5640    -0.5240    -1.1410 C.2   1 <1>   0.7160 
 16 N       -9.5210     1.7740    -1.6490 N.pl3 1 <1>  -0.8210 
 17 O       -6.7120    -1.3870    -1.1630 O.2   1 <1>  -0.5700 
 18 N       -8.8660    -0.9250    -1.1070 N.am  1 <1>  -0.7300 
 19 C      -10.3970     2.7660    -0.9520 C.3   1 <1>   0.1290 
 20 C       -9.7350     1.8560    -3.1240 C.3   1 <1>   0.1290 
 21 C       -9.3580    -2.3190    -1.3620 C.3   1 <1>   0.1400 
 22 C       -9.5630    -3.1630    -0.0590 C.3   1 <1>   0.5030 
 23 N      -10.1120    -2.2360     1.0070 N.4   1 <1>  -0.9590 
 24 C      -10.5460    -4.3260    -0.3290 C.3   1 <1>  -0.1600 
 25 C       -8.2140    -3.7720     0.4110 C.3   1 <1>  -0.1600 
 26 C      -10.1040    -2.7610     2.4090 C.3   1 <1>   0.3430 
 27 C      -11.4550    -1.6610     0.6560 C.3   1 <1>   0.2630 
 28 C       -9.9870    -5.3610    -1.3250 C.3   1 <1>  -0.1600 
 29 C       -7.6220    -4.8020    -0.5680 C.3   1 <1>  -0.1600 
 30 C      -10.3650    -1.6360     3.4070 C.3   1 <1>  -0.2400 
 31 C       -8.6340    -5.9160    -0.8630 C.3   1 <1>  -0.1600 
 32 H       -2.3400    -1.0840    -1.6420 H     1 <1>   0.1500 
 33 H       -4.4870     2.4180     1.0600 H     1 <1>   0.1500 
 34 H       -4.6230    -0.3480    -2.1810 H     1 <1>   0.1500 
 35 H       -0.6700     2.2910     3.1440 H     1 <1>   0.0800 
 36 H       -0.1730     1.8590     1.5120 H     1 <1>   0.0800 
 37 H       -0.7960     0.6180     2.6160 H     1 <1>   0.0800 
 38 H       -9.5160    -0.1450    -1.3110 H     1 <1>   0.3700 
 39 H      -10.1710     2.7790     0.1010 H     1 <1>   0.0800 
 40 H      -11.4320     2.5050    -1.0830 H     1 <1>   0.0800 
 41 H      -10.2310     3.7540    -1.3480 H     1 <1>   0.0800 
 42 H       -9.1250     1.1250    -3.6270 H     1 <1>   0.0800 
 43 H       -9.4640     2.8350    -3.4830 H     1 <1>   0.0800 
 44 H      -10.7680     1.6690    -3.3620 H     1 <1>   0.0800 
 45 H       -8.6780    -2.8140    -2.0320 H     1 <1>   0.0800 
 46 H      -10.2930    -2.2520    -1.8890 H     1 <1>   0.0800 
 47 H       -9.4380    -1.4540     0.9710 H     1 <1>   0.4500 
 48 H      -11.4740    -3.9580    -0.7260 H     1 <1>   0.0800 
 49 H      -10.7570    -4.8380     0.5920 H     1 <1>   0.0800 
 50 H       -8.3470    -4.3130     1.3280 H     1 <1>   0.0800 
 51 H       -7.4910    -2.9980     0.5890 H     1 <1>   0.0800 
 52 H       -9.1390    -3.1770     2.6430 H     1 <1>   0.0800 
 53 H      -10.8430    -3.5370     2.5210 H     1 <1>   0.0800 
 54 H      -12.2170    -2.4210     0.7240 H     1 <1>   0.0800 
 55 H      -11.4490    -1.2640    -0.3440 H     1 <1>   0.0800 
 56 H      -11.7090    -0.8600     1.3300 H     1 <1>   0.0800 
 57 H       -9.8750    -4.9200    -2.3010 H     1 <1>   0.0800 
 58 H      -10.6840    -6.1770    -1.4230 H     1 <1>   0.0800 
 59 H       -6.7380    -5.2370    -0.1320 H     1 <1>   0.0800 
 60 H       -7.3110    -4.3300    -1.4840 H     1 <1>   0.0800 
 61 H       -9.6800    -0.8210     3.2540 H     1 <1>   0.0800 
 62 H      -10.2110    -2.0140     4.4020 H     1 <1>   0.0800 
 63 H      -11.3780    -1.2820     3.3530 H     1 <1>   0.0800 
 64 H       -8.2350    -6.5710    -1.6200 H     1 <1>   0.0800 
 65 H       -8.7790    -6.5070     0.0260 H     1 <1>   0.0800 
@<TRIPOS>BOND
  1   1   2  1   
  2   2   3  ar  
  3   2   4  ar  
  4   3   5  1   
  5   3   6  ar  
  6   4   7  ar  
  7   4  32  1   
  8   5   8  1   
  9   6   9  ar  
 10   6  33  1   
 11   7   9  ar  
 12   7  34  1   
 13   8  35  1   
 14   8  36  1   
 15   8  37  1   
 16   9  10  1   
 17  10  11  1   
 18  10  12  2   
 19  11  13  1   
 20  12  14  1   
 21  12  15  1   
 22  13  14  2   
 23  14  16  1   
 24  15  17  2   
 25  15  18  am  
 26  16  19  1   
 27  16  20  1   
 28  18  21  1   
 29  18  38  1   
 30  19  39  1   
 31  19  40  1   
 32  19  41  1   
 33  20  42  1   
 34  20  43  1   
 35  20  44  1   
 36  21  22  1   
 37  21  45  1   
 38  21  46  1   
 39  22  23  1   
 40  22  24  1   
 41  22  25  1   
 42  23  26  1   
 43  23  27  1   
 44  23  47  1   
 45  24  28  1   
 46  24  48  1   
 47  24  49  1   
 48  25  29  1   
 49  25  50  1   
 50  25  51  1   
 51  26  30  1   
 52  26  52  1   
 53  26  53  1   
 54  27  54  1   
 55  27  55  1   
 56  27  56  1   
 57  28  31  1   
 58  28  57  1   
 59  28  58  1   
 60  29  31  1   
 61  29  59  1   
 62  29  60  1   
 63  30  61  1   
 64  30  62  1   
 65  30  63  1   
 66  31  64  1   
 67  31  65  1   
@<TRIPOS>SUBSTRUCTURE
  1 ****  15 GROUP 4 **** **** 0

# MOE 2024.06 (io_trps.svl 2023.06)
