@<TRIPOS>MOLECULE
NONAME
52 55 1 0 0 
SMALL
USER_CHARGES


@<TRIPOS>ATOM
  1 O       -1.1710     0.7620     2.5920 O.3   1 <1>  -0.5600 
  2 C       -0.0640     0.5230     1.7850 C.3   1 <1>   0.1200 
  3 C       -2.2280     1.2400     1.8100 C.3   1 <1>   0.1200 
  4 C       -0.1170     1.6390     0.7490 C.3   1 <1>   0.2890 
  5 C       -1.6150     1.7190     0.4820 C.3   1 <1>  -0.0800 
  6 N        0.3190     2.9000     1.4100 N.pl3 1 <1>  -0.8690 
  7 C       -2.0320     0.8270    -0.7040 C.3   1 <1>  -0.0170 
  8 C        1.0190     3.9240     0.9050 C.ar  1 <1>   0.4610 
  9 C       -3.5290     0.9060    -0.9600 C.ar  1 <1>  -0.1440 
 10 N        1.3560     4.9350     1.7070 N.ar  1 <1>  -0.1790 
 11 C        1.4300     4.0070    -0.4490 C.ar  1 <1>  -0.1500 
 12 C       -4.3860    -0.1210    -0.6140 C.ar  1 <1>  -0.1500 
 13 C       -4.1100     2.0070    -1.5560 C.ar  1 <1>  -0.1500 
 14 C        2.0800     6.0420     1.3020 C.ar  1 <1>   0.3610 
 15 C        2.1440     5.0650    -0.9230 C.ar  1 <1>  -0.1440 
 16 C       -5.7420     0.0040    -0.8660 C.ar  1 <1>   0.1600 
 17 C       -5.4790     2.0320    -1.7640 C.ar  1 <1>   0.1600 
 18 C        2.4970     6.1320    -0.0390 C.ar  1 <1>   0.0000 
 19 C        2.3970     7.0610     2.2060 C.ar  1 <1>  -0.1500 
 20 C        2.5650     5.1140    -2.3870 C.3   1 <1>  -0.0970 
 21 N       -6.3090     1.0570    -1.4310 N.ar  1 <1>  -0.6200 
 22 C        3.2320     7.2670    -0.4200 C.ar  1 <1>  -0.1500 
 23 C        3.1180     8.1570     1.7990 C.ar  1 <1>  -0.1500 
 24 C        3.5400     8.2630     0.4760 C.ar  1 <1>  -0.1430 
 25 C        4.3370     9.4840     0.0410 C.3   1 <1>  -0.0170 
 26 C        3.4050    10.6600    -0.2560 C.3   1 <1>  -0.2400 
 27 H        0.8320     0.5410     2.3790 H     1 <1>   0.0800 
 28 H       -0.1830    -0.4450     1.3280 H     1 <1>   0.0800 
 29 H       -2.9370     0.4410     1.6770 H     1 <1>   0.0800 
 30 H       -2.6990     2.0480     2.3430 H     1 <1>   0.0800 
 31 H        0.4740     1.4110    -0.1220 H     1 <1>   0.0800 
 32 H       -1.9180     2.7290     0.2710 H     1 <1>   0.0800 
 33 H       -0.0180     2.8670     2.3840 H     1 <1>   0.4000 
 34 H       -1.7540    -0.1960    -0.5200 H     1 <1>   0.0800 
 35 H       -1.5180     1.1460    -1.5950 H     1 <1>   0.0800 
 36 H        1.0730     4.8840     2.6800 H     1 <1>   0.4570 
 37 H        1.1560     3.2050    -1.1070 H     1 <1>   0.1500 
 38 H       -4.0180    -1.0180    -0.1510 H     1 <1>   0.1500 
 39 H       -3.5160     2.8470    -1.8640 H     1 <1>   0.1500 
 40 H       -6.3960    -0.8050    -0.5880 H     1 <1>   0.1500 
 41 H       -5.9160     2.8990    -2.2310 H     1 <1>   0.1500 
 42 H        2.0800     6.9970     3.2320 H     1 <1>   0.1500 
 43 H        2.2240     4.2440    -2.9210 H     1 <1>   0.0800 
 44 H        3.6380     5.1520    -2.4650 H     1 <1>   0.0800 
 45 H        2.1500     5.9830    -2.8660 H     1 <1>   0.0800 
 46 H        3.5630     7.3660    -1.4390 H     1 <1>   0.1500 
 47 H        3.3610     8.9430     2.4960 H     1 <1>   0.1500 
 48 H        5.0320     9.7600     0.8150 H     1 <1>   0.0800 
 49 H        4.9120     9.2550    -0.8410 H     1 <1>   0.0800 
 50 H        2.8430    10.9250     0.6220 H     1 <1>   0.0800 
 51 H        2.7160    10.4010    -1.0410 H     1 <1>   0.0800 
 52 H        3.9770    11.5160    -0.5690 H     1 <1>   0.0800 
@<TRIPOS>BOND
  1   1   2  1   
  2   1   3  1   
  3   2   4  1   
  4   2  27  1   
  5   2  28  1   
  6   3   5  1   
  7   3  29  1   
  8   3  30  1   
  9   4   5  1   
 10   4   6  1   
 11   4  31  1   
 12   5   7  1   
 13   5  32  1   
 14   6   8  1   
 15   6  33  1   
 16   7   9  1   
 17   7  34  1   
 18   7  35  1   
 19   8  10  ar  
 20   8  11  ar  
 21   9  12  ar  
 22   9  13  ar  
 23  10  14  ar  
 24  10  36  1   
 25  11  15  ar  
 26  11  37  1   
 27  12  16  ar  
 28  12  38  1   
 29  13  17  ar  
 30  13  39  1   
 31  14  18  ar  
 32  14  19  ar  
 33  15  18  ar  
 34  15  20  1   
 35  16  21  ar  
 36  16  40  1   
 37  17  21  ar  
 38  17  41  1   
 39  18  22  ar  
 40  19  23  ar  
 41  19  42  1   
 42  20  43  1   
 43  20  44  1   
 44  20  45  1   
 45  22  24  ar  
 46  22  46  1   
 47  23  24  ar  
 48  23  47  1   
 49  24  25  1   
 50  25  26  1   
 51  25  48  1   
 52  25  49  1   
 53  26  50  1   
 54  26  51  1   
 55  26  52  1   
@<TRIPOS>SUBSTRUCTURE
  1 ****   8 GROUP 4 **** **** 0

# MOE 2024.06 (io_trps.svl 2023.06)
