@<TRIPOS>MOLECULE
NONAME
39 40 1 0 0 
SMALL
USER_CHARGES


@<TRIPOS>ATOM
  1 CL       0.2330     0.2250    -0.6270 Cl    1 <1>  -0.1770 
  2 C        1.6520    -0.5660     0.0240 C.ar  1 <1>   0.1770 
  3 C        2.7270     0.2140     0.4470 C.ar  1 <1>   0.0860 
  4 C        1.6710    -1.9560     0.0820 C.ar  1 <1>  -0.1440 
  5 C        3.8360    -0.4810     0.9180 C.ar  1 <1>   0.1900 
  6 C        2.6970     1.6530     0.4050 C.2   1 <1>   0.5440 
  7 C        2.8000    -2.6000     0.5690 C.ar  1 <1>  -0.1500 
  8 C        0.4760    -2.7790    -0.3810 C.3   1 <1>  -0.0960 
  9 F        4.8870     0.1840     1.3130 F     1 <1>  -0.1900 
 10 C        3.8920    -1.8600     0.9880 C.ar  1 <1>  -0.1500 
 11 O        1.9630     2.2730     1.1470 O.2   1 <1>  -0.5700 
 12 N        3.5030     2.3350    -0.4640 N.am  1 <1>  -0.7300 
 13 C        3.5750     3.8060    -0.5880 C.3   1 <1>   0.1400 
 14 C        4.9620     4.2730    -0.1480 C.3   1 <1>  -0.1600 
 15 C        5.0880     5.8020    -0.2430 C.3   1 <1>  -0.1600 
 16 C        6.4560     6.3090     0.2470 C.3   1 <1>  -0.0800 
 17 C        6.5630     7.8380     0.2080 C.3   1 <1>   0.1200 
 18 C        7.6200     5.8460    -0.6230 C.3   1 <1>  -0.1600 
 19 O        7.5980     8.1410    -0.6720 O.3   1 <1>  -0.5600 
 20 C        8.4920     7.0840    -0.7260 C.3   1 <1>   0.1200 
 21 H        2.8360    -3.6760     0.6240 H     1 <1>   0.1500 
 22 H       -0.3980    -2.5080     0.1840 H     1 <1>   0.0800 
 23 H        0.6530    -3.8310    -0.2480 H     1 <1>   0.0800 
 24 H        0.2840    -2.5950    -1.4230 H     1 <1>   0.0800 
 25 H        4.7750    -2.3450     1.3660 H     1 <1>   0.1500 
 26 H        4.1680     1.8160    -1.0380 H     1 <1>   0.3700 
 27 H        2.8200     4.2670     0.0290 H     1 <1>   0.0800 
 28 H        3.3920     4.0860    -1.6110 H     1 <1>   0.0800 
 29 H        5.7050     3.8070    -0.7700 H     1 <1>   0.0800 
 30 H        5.1230     3.9670     0.8720 H     1 <1>   0.0800 
 31 H        4.3170     6.2510     0.3600 H     1 <1>   0.0800 
 32 H        4.9330     6.1170    -1.2620 H     1 <1>   0.0800 
 33 H        6.6090     5.9910     1.2650 H     1 <1>   0.0800 
 34 H        6.8220     8.2330     1.1750 H     1 <1>   0.0800 
 35 H        5.6650     8.3100    -0.1510 H     1 <1>   0.0800 
 36 H        7.2880     5.5810    -1.6120 H     1 <1>   0.0800 
 37 H        8.1530     5.0170    -0.1940 H     1 <1>   0.0800 
 38 H        9.0440     7.1320    -1.6480 H     1 <1>   0.0800 
 39 H        9.1590     7.1670     0.1160 H     1 <1>   0.0800 
@<TRIPOS>BOND
  1   1   2  1   
  2   2   3  ar  
  3   2   4  ar  
  4   3   5  ar  
  5   3   6  1   
  6   4   7  ar  
  7   4   8  1   
  8   5   9  1   
  9   5  10  ar  
 10   6  11  2   
 11   6  12  am  
 12   7  10  ar  
 13   7  21  1   
 14   8  22  1   
 15   8  23  1   
 16   8  24  1   
 17  10  25  1   
 18  12  13  1   
 19  12  26  1   
 20  13  14  1   
 21  13  27  1   
 22  13  28  1   
 23  14  15  1   
 24  14  29  1   
 25  14  30  1   
 26  15  16  1   
 27  15  31  1   
 28  15  32  1   
 29  16  17  1   
 30  16  18  1   
 31  16  33  1   
 32  17  19  1   
 33  17  34  1   
 34  17  35  1   
 35  18  20  1   
 36  18  36  1   
 37  18  37  1   
 38  19  20  1   
 39  20  38  1   
 40  20  39  1   
@<TRIPOS>SUBSTRUCTURE
  1 ****  12 GROUP 4 **** **** 0

# MOE 2024.06 (io_trps.svl 2023.06)
