@<TRIPOS>MOLECULE
NONAME
39 40 1 0 0 
SMALL
USER_CHARGES


@<TRIPOS>ATOM
  1 O       -2.6370     1.2120    -1.3590 O.2   1 <1>  -0.5700 
  2 C       -2.1190     0.9210    -0.3090 C.2   1 <1>   0.5690 
  3 N       -2.0130    -0.3660     0.0990 N.am  1 <1>  -0.7300 
  4 C       -1.5810     2.0140     0.5830 C.3   1 <1>  -0.0990 
  5 C       -2.5090    -1.5320    -0.6650 C.3   1 <1>   0.2200 
  6 C       -0.6220     2.9120    -0.1920 C.3   1 <1>   0.1200 
  7 C       -3.8400    -1.9760    -0.0850 C.3   1 <1>  -0.0800 
  8 C       -1.6280    -2.7440    -0.3850 C.3   1 <1>   0.1200 
  9 O       -0.0850     3.8310     0.7020 O.3   1 <1>  -0.5600 
 10 C       -3.4050    -2.8760     1.0770 C.3   1 <1>   0.1200 
 11 C       -4.6850    -2.7310    -1.1270 C.3   1 <1>  -0.0160 
 12 O       -2.0970    -3.2950     0.8090 O.3   1 <1>  -0.5600 
 13 C        0.7780     4.7480     0.1110 C.3   1 <1>   0.0400 
 14 C       -6.0360    -3.1380    -0.5570 C.ar  1 <1>  -0.1440 
 15 C       -7.0450    -2.2170    -0.3630 C.ar  1 <1>  -0.1500 
 16 C       -6.3240    -4.4410    -0.2070 C.ar  1 <1>  -0.1500 
 17 C       -8.2580    -2.6310     0.1620 C.ar  1 <1>   0.1600 
 18 C       -7.5710    -4.7510     0.3110 C.ar  1 <1>   0.1600 
 19 N       -8.5450    -3.8760     0.5060 N.ar  1 <1>  -0.6200 
 20 H       -1.6120    -0.5960     1.0110 H     1 <1>   0.3700 
 21 H       -2.4060     2.6010     0.9420 H     1 <1>   0.0800 
 22 H       -1.0660     1.5830     1.4200 H     1 <1>   0.0800 
 23 H       -2.5580    -1.2960    -1.7150 H     1 <1>   0.0800 
 24 H       -1.1470     3.4410    -0.9700 H     1 <1>   0.0800 
 25 H        0.1800     2.3330    -0.6180 H     1 <1>   0.0800 
 26 H       -4.4070    -1.1340     0.2720 H     1 <1>   0.0800 
 27 H       -0.5880    -2.4880    -0.2830 H     1 <1>   0.0800 
 28 H       -1.7460    -3.4850    -1.1550 H     1 <1>   0.0800 
 29 H       -4.0310    -3.7420     1.1990 H     1 <1>   0.0800 
 30 H       -3.3840    -2.3210     1.9990 H     1 <1>   0.0800 
 31 H       -4.1610    -3.6050    -1.4730 H     1 <1>   0.0800 
 32 H       -4.8520    -2.0950    -1.9790 H     1 <1>   0.0800 
 33 H        1.1400     5.4090     0.8790 H     1 <1>   0.0800 
 34 H        0.2410     5.3140    -0.6310 H     1 <1>   0.0800 
 35 H        1.6040     4.2230    -0.3360 H     1 <1>   0.0800 
 36 H       -6.9000    -1.1820    -0.6160 H     1 <1>   0.1500 
 37 H       -5.5940    -5.2200    -0.3290 H     1 <1>   0.1500 
 38 H       -9.0340    -1.8980     0.3060 H     1 <1>   0.1500 
 39 H       -7.7790    -5.7720     0.5800 H     1 <1>   0.1500 
@<TRIPOS>BOND
  1   1   2  2   
  2   2   3  am  
  3   2   4  1   
  4   3   5  1   
  5   3  20  1   
  6   4   6  1   
  7   4  21  1   
  8   4  22  1   
  9   5   7  1   
 10   5   8  1   
 11   5  23  1   
 12   6   9  1   
 13   6  24  1   
 14   6  25  1   
 15   7  10  1   
 16   7  11  1   
 17   7  26  1   
 18   8  12  1   
 19   8  27  1   
 20   8  28  1   
 21   9  13  1   
 22  10  12  1   
 23  10  29  1   
 24  10  30  1   
 25  11  14  1   
 26  11  31  1   
 27  11  32  1   
 28  13  33  1   
 29  13  34  1   
 30  13  35  1   
 31  14  15  ar  
 32  14  16  ar  
 33  15  17  ar  
 34  15  36  1   
 35  16  18  ar  
 36  16  37  1   
 37  17  19  ar  
 38  17  38  1   
 39  18  19  ar  
 40  18  39  1   
@<TRIPOS>SUBSTRUCTURE
  1 ****   7 GROUP 4 **** **** 0

# MOE 2024.06 (io_trps.svl 2023.06)
