@<TRIPOS>MOLECULE
NONAME
61 64 1 0 0 
SMALL
USER_CHARGES


@<TRIPOS>ATOM
  1 O        0.2170    -0.3840    -0.6140 O.3   1 <1>  -0.5600 
  2 C        1.6120    -0.4430    -0.7960 C.3   1 <1>   0.2000 
  3 C       -0.3220     0.8980    -0.5130 C.3   1 <1>   0.1200 
  4 C        2.3640     0.3290     0.3240 C.3   1 <1>   0.5660 
  5 C        2.0410    -1.9190    -0.8060 C.3   1 <1>   0.1200 
  6 C        0.2730     1.6190     0.7080 C.3   1 <1>   0.3430 
  7 N        1.7680     1.6720     0.6410 N.4   1 <1>  -0.9590 
  8 C        3.8230     0.5410    -0.0530 C.ar  1 <1>  -0.1430 
  9 O        2.0120    -2.4360     0.4880 O.3   1 <1>  -0.6800 
 10 C        2.3630     2.2560     1.8680 C.3   1 <1>   0.4870 
 11 C        4.8110    -0.0350     0.7300 C.ar  1 <1>  -0.1500 
 12 C        4.1960     1.3090    -1.1470 C.ar  1 <1>  -0.1500 
 13 C        3.1580     3.4700     1.4370 C.ar  1 <1>  -0.1430 
 14 C        6.1550     0.1630     0.4600 C.ar  1 <1>   0.0830 
 15 C        5.5330     1.5120    -1.4340 C.ar  1 <1>  -0.1500 
 16 C        4.5440     3.4240     1.4430 C.ar  1 <1>  -0.1500 
 17 C        2.5190     4.6280     1.0200 C.ar  1 <1>  -0.1500 
 18 O        6.9920    -0.4490     1.3440 O.3   1 <1>  -0.3620 
 19 C        6.5300     0.9580    -0.6360 C.ar  1 <1>   0.0830 
 20 C        5.3200     4.5010     1.0210 C.ar  1 <1>   0.0530 
 21 C        3.2670     5.7130     0.6010 C.ar  1 <1>  -0.1500 
 22 C        8.3400    -0.7350     1.0390 C.3   1 <1>   0.0400 
 23 O        7.8460     1.1950    -0.9020 O.3   1 <1>  -0.3630 
 24 C        6.7640     4.4240     1.0220 C.2   1 <1>   0.0870 
 25 C        4.6470     5.6460     0.6000 C.ar  1 <1>  -0.1500 
 26 C        8.2590     2.2620    -1.7310 C.3   1 <1>   0.0400 
 27 O        7.4830     5.3790     0.4450 O.3   1 <1>  -0.2800 
 28 C        7.6160     3.4950     1.5340 C.2   1 <1>  -0.1500 
 29 C        8.7590     5.0930     0.5800 C.2   1 <1>  -0.0400 
 30 C        8.9110     3.9320     1.2490 C.2   1 <1>  -0.1500 
 31 C        9.7840     6.0450     0.0050 C.3   1 <1>  -0.0600 
 32 H        1.8270    -0.0150    -1.7590 H     1 <1>   0.0800 
 33 H       -0.1260     1.4360    -1.4250 H     1 <1>   0.0800 
 34 H       -1.3880     0.7940    -0.3980 H     1 <1>   0.0800 
 35 H        2.3240    -0.2810     1.2110 H     1 <1>   0.0800 
 36 H        3.0480    -2.0190    -1.1770 H     1 <1>   0.0800 
 37 H        1.3770    -2.4960    -1.4270 H     1 <1>   0.0800 
 38 H       -0.0350     1.0860     1.5940 H     1 <1>   0.0800 
 39 H       -0.1290     2.6170     0.7640 H     1 <1>   0.0800 
 40 H        2.0660     2.2980    -0.1160 H     1 <1>   0.4500 
 41 H        2.0740    -3.4150     0.4700 H     1 <1>   0.4000 
 42 H        1.5950     2.5550     2.5630 H     1 <1>   0.0800 
 43 H        3.0110     1.5460     2.3560 H     1 <1>   0.0800 
 44 H        4.5560    -0.6540     1.5730 H     1 <1>   0.1500 
 45 H        3.4640     1.7650    -1.7910 H     1 <1>   0.1500 
 46 H        5.7810     2.1130    -2.2890 H     1 <1>   0.1500 
 47 H        5.0520     2.5360     1.7730 H     1 <1>   0.1500 
 48 H        1.4450     4.7070     1.0190 H     1 <1>   0.1500 
 49 H        2.7790     6.6180     0.2780 H     1 <1>   0.1500 
 50 H        8.7110    -1.4280     1.7720 H     1 <1>   0.0800 
 51 H        8.9080     0.1770     1.0810 H     1 <1>   0.0800 
 52 H        8.3930    -1.1740     0.0580 H     1 <1>   0.0800 
 53 H        5.2190     6.4970     0.2710 H     1 <1>   0.1500 
 54 H        9.3240     2.3700    -1.6310 H     1 <1>   0.0800 
 55 H        7.7720     3.1670    -1.4130 H     1 <1>   0.0800 
 56 H        8.0120     2.0280    -2.7510 H     1 <1>   0.0800 
 57 H        7.3810     2.5870     2.0580 H     1 <1>   0.1500 
 58 H        9.8170     3.4220     1.5220 H     1 <1>   0.1500 
 59 H       10.7770     5.6800     0.1910 H     1 <1>   0.0800 
 60 H        9.6750     7.0120     0.4610 H     1 <1>   0.0800 
 61 H        9.6370     6.1410    -1.0550 H     1 <1>   0.0800 
@<TRIPOS>BOND
  1   1   2  1   
  2   1   3  1   
  3   2   4  1   
  4   2   5  1   
  5   2  32  1   
  6   3   6  1   
  7   3  33  1   
  8   3  34  1   
  9   4   7  1   
 10   4   8  1   
 11   4  35  1   
 12   5   9  1   
 13   5  36  1   
 14   5  37  1   
 15   6   7  1   
 16   6  38  1   
 17   6  39  1   
 18   7  10  1   
 19   7  40  1   
 20   8  11  ar  
 21   8  12  ar  
 22   9  41  1   
 23  10  13  1   
 24  10  42  1   
 25  10  43  1   
 26  11  14  ar  
 27  11  44  1   
 28  12  15  ar  
 29  12  45  1   
 30  13  16  ar  
 31  13  17  ar  
 32  14  18  1   
 33  14  19  ar  
 34  15  19  ar  
 35  15  46  1   
 36  16  20  ar  
 37  16  47  1   
 38  17  21  ar  
 39  17  48  1   
 40  18  22  1   
 41  19  23  1   
 42  20  24  1   
 43  20  25  ar  
 44  21  25  ar  
 45  21  49  1   
 46  22  50  1   
 47  22  51  1   
 48  22  52  1   
 49  23  26  1   
 50  24  27  1   
 51  24  28  2   
 52  25  53  1   
 53  26  54  1   
 54  26  55  1   
 55  26  56  1   
 56  27  29  1   
 57  28  30  1   
 58  28  57  1   
 59  29  30  2   
 60  29  31  1   
 61  30  58  1   
 62  31  59  1   
 63  31  60  1   
 64  31  61  1   
@<TRIPOS>SUBSTRUCTURE
  1 ****  12 GROUP 4 **** **** 0

# MOE 2024.06 (io_trps.svl 2023.06)
