@<TRIPOS>MOLECULE
NONAME
35 38 1 0 0 
SMALL
USER_CHARGES


@<TRIPOS>ATOM
  1 O       -0.7650     0.2160    -1.1710 O.2   1 <1>  -0.5700 
  2 C       -1.7310     0.8430    -0.7640 C.2   1 <1>   0.5440 
  3 N       -2.8660     0.1590    -0.4150 N.am  1 <1>  -0.6600 
  4 C       -1.6350     2.2840    -0.6320 C.ar  1 <1>   0.0860 
  5 C       -3.9070     0.6760     0.5220 C.3   1 <1>   0.2350 
  6 C       -2.9640    -1.3260    -0.4970 C.3   1 <1>   0.2350 
  7 C       -0.5050     2.8630    -0.0290 C.ar  1 <1>  -0.1520 
  8 C       -2.6090     3.1650    -1.0810 C.ar  1 <1>  -0.1500 
  9 C       -4.9450    -0.4240     0.6240 C.3   1 <1>  -0.2420 
 10 C       -4.3580    -1.6680     0.0000 C.3   1 <1>  -0.2420 
 11 N        0.6100     2.2480     0.4710 N.pl3 1 <1>   0.0330 
 12 C       -0.3690     4.2350     0.1450 C.ar  1 <1>   0.0000 
 13 C       -2.4890     4.5480    -0.9180 C.ar  1 <1>  -0.1500 
 14 C       -5.8360    -0.2000     1.8490 C.2   1 <1>   0.9470 
 15 C       -5.5650    -1.0110    -0.6190 C.3   1 <1>  -0.2000 
 16 C       -4.4430    -3.1400     0.4120 C.2   1 <1>   0.9470 
 17 C        1.4400     3.2130     0.9690 C.2   1 <1>  -0.3020 
 18 C       -1.3790     5.0870    -0.3050 C.ar  1 <1>  -0.1500 
 19 C        0.8730     4.4300     0.7880 C.2   1 <1>  -0.1500 
 20 O       -7.0590    -0.0710     1.6980 O.co2 1 <1>  -0.9000 
 21 O       -5.3010     0.0290     2.9420 O.co2 1 <1>  -0.9000 
 22 O       -5.2320    -3.8910    -0.1790 O.co2 1 <1>  -0.9000 
 23 O       -3.6140    -3.5890     1.2140 O.co2 1 <1>  -0.9000 
 24 H       -3.4610     0.8560     1.4850 H     1 <1>   0.0800 
 25 H       -4.3640     1.5760     0.1590 H     1 <1>   0.0800 
 26 H       -2.8210    -1.6660    -1.5070 H     1 <1>   0.0800 
 27 H       -2.2200    -1.7690     0.1440 H     1 <1>   0.0800 
 28 H       -3.4830     2.7700    -1.5700 H     1 <1>   0.1500 
 29 H        0.7660     1.2320     0.4210 H     1 <1>   0.2700 
 30 H       -3.2750     5.1900    -1.2760 H     1 <1>   0.1500 
 31 H       -5.4660    -0.4990    -1.5570 H     1 <1>   0.1000 
 32 H       -6.5130    -1.5140    -0.5200 H     1 <1>   0.1000 
 33 H        2.3870     2.9700     1.4190 H     1 <1>   0.1500 
 34 H       -1.2740     6.1470    -0.1690 H     1 <1>   0.1500 
 35 H        1.2630     5.3940     1.0640 H     1 <1>   0.1500 
@<TRIPOS>BOND
  1   1   2  2   
  2   2   3  am  
  3   2   4  1   
  4   3   5  1   
  5   3   6  1   
  6   4   7  ar  
  7   4   8  ar  
  8   5   9  1   
  9   5  24  1   
 10   5  25  1   
 11   6  10  1   
 12   6  26  1   
 13   6  27  1   
 14   7  11  1   
 15   7  12  ar  
 16   8  13  ar  
 17   8  28  1   
 18   9  10  1   
 19   9  14  1   
 20   9  15  1   
 21  10  15  1   
 22  10  16  1   
 23  11  17  1   
 24  11  29  1   
 25  12  18  ar  
 26  12  19  1   
 27  13  18  ar  
 28  13  30  1   
 29  14  20  ar  
 30  14  21  ar  
 31  15  31  1   
 32  15  32  1   
 33  16  22  ar  
 34  16  23  ar  
 35  17  19  2   
 36  17  33  1   
 37  18  34  1   
 38  19  35  1   
@<TRIPOS>SUBSTRUCTURE
  1 ****   3 GROUP 4 **** **** 0

# MOE 2024.06 (io_trps.svl 2023.06)
