@<TRIPOS>MOLECULE
NONAME
54 58 1 0 0 
SMALL
USER_CHARGES


@<TRIPOS>ATOM
  1 O       -0.1390     0.6200     1.3370 O.2   1 <1>  -0.5700 
  2 C       -0.5320     1.5680     0.6840 C.2   1 <1>   0.5440 
  3 N       -1.8680     1.6380     0.3440 N.am  1 <1>  -0.6600 
  4 C        0.4170     2.5970     0.3040 C.ar  1 <1>   0.0860 
  5 C       -2.5290     2.8650    -0.2020 C.3   1 <1>   0.1400 
  6 C       -2.7990     0.5110     0.6710 C.3   1 <1>   0.1400 
  7 C        0.6370     2.9530    -1.0100 C.ar  1 <1>  -0.1500 
  8 C        1.1590     3.2680     1.2940 C.ar  1 <1>  -0.1500 
  9 C       -3.5560     3.4370     0.8010 C.3   1 <1>   0.1440 
 10 C       -4.2620     0.9760     0.7800 C.3   1 <1>  -0.1600 
 11 C        1.5450     3.9640    -1.3750 C.ar  1 <1>   0.0000 
 12 C        2.0490     4.2560     0.9680 C.ar  1 <1>  -0.1500 
 13 C       -4.4480     4.3930     0.0280 C.ar  1 <1>   0.1660 
 14 C       -4.3570     2.3180     1.5220 C.3   1 <1>  -0.1600 
 15 C       -2.8740     4.3860     1.8220 C.3   1 <1>  -0.1600 
 16 C        2.2660     4.6380    -0.3650 C.ar  1 <1>   0.3100 
 17 C        1.7740     4.3430    -2.7090 C.ar  1 <1>  -0.1500 
 18 N       -5.4010     4.0400    -0.8000 N.ar  1 <1>  -0.6200 
 19 C       -4.1250     5.6920     0.2770 C.ar  1 <1>  -0.1440 
 20 C       -2.9790     5.8110     1.2500 C.3   1 <1>  -0.0170 
 21 N        3.1510     5.6310    -0.6300 N.ar  1 <1>  -0.6200 
 22 C        2.6730     5.3380    -2.9500 C.ar  1 <1>  -0.1500 
 23 C       -6.0540     5.0500    -1.3810 C.ar  1 <1>   0.7200 
 24 C       -4.8480     6.6630    -0.3680 C.ar  1 <1>   0.1600 
 25 C        3.3340     5.9490    -1.8750 C.ar  1 <1>   0.1600 
 26 N       -5.8150     6.3530    -1.1990 N.ar  1 <1>  -0.6200 
 27 N       -7.0680     4.7140    -2.2560 N.pl3 1 <1>  -0.8380 
 28 C       -7.6610     3.3480    -2.2930 C.3   1 <1>   0.1290 
 29 C       -7.6820     5.7110    -3.1760 C.3   1 <1>   0.1290 
 30 H       -3.0370     2.5940    -1.1120 H     1 <1>   0.0800 
 31 H       -1.8150     3.6270    -0.4510 H     1 <1>   0.0800 
 32 H       -2.5050     0.0790     1.6130 H     1 <1>   0.0800 
 33 H       -2.7100    -0.2520    -0.0830 H     1 <1>   0.0800 
 34 H        0.1000     2.4410    -1.7890 H     1 <1>   0.1500 
 35 H        1.0100     2.9790     2.3210 H     1 <1>   0.1500 
 36 H       -4.8320     0.2270     1.3010 H     1 <1>   0.0800 
 37 H       -4.6850     1.0740    -0.2050 H     1 <1>   0.0800 
 38 H        2.6140     4.7670     1.7260 H     1 <1>   0.1500 
 39 H       -5.3880     2.6100     1.6260 H     1 <1>   0.0800 
 40 H       -3.9600     2.1670     2.5100 H     1 <1>   0.0800 
 41 H       -1.8560     4.1050     2.0250 H     1 <1>   0.0800 
 42 H       -3.4210     4.3680     2.7490 H     1 <1>   0.0800 
 43 H        1.2450     3.8490    -3.5050 H     1 <1>   0.1500 
 44 H       -2.0800     6.0780     0.7220 H     1 <1>   0.0800 
 45 H       -3.1820     6.5340     2.0210 H     1 <1>   0.0800 
 46 H        2.8900     5.6680    -3.9500 H     1 <1>   0.1500 
 47 H       -4.6320     7.7040    -0.2030 H     1 <1>   0.1500 
 48 H        4.0380     6.7320    -2.0990 H     1 <1>   0.1500 
 49 H       -7.5640     2.8670    -1.3360 H     1 <1>   0.0800 
 50 H       -7.1540     2.7570    -3.0350 H     1 <1>   0.0800 
 51 H       -8.7080     3.4060    -2.5370 H     1 <1>   0.0800 
 52 H       -6.9640     6.4670    -3.4460 H     1 <1>   0.0800 
 53 H       -8.5180     6.1820    -2.6890 H     1 <1>   0.0800 
 54 H       -8.0180     5.2280    -4.0760 H     1 <1>   0.0800 
@<TRIPOS>BOND
  1   1   2  2   
  2   2   3  am  
  3   2   4  1   
  4   3   5  1   
  5   3   6  1   
  6   4   7  ar  
  7   4   8  ar  
  8   5   9  1   
  9   5  30  1   
 10   5  31  1   
 11   6  10  1   
 12   6  32  1   
 13   6  33  1   
 14   7  11  ar  
 15   7  34  1   
 16   8  12  ar  
 17   8  35  1   
 18   9  13  1   
 19   9  14  1   
 20   9  15  1   
 21  10  14  1   
 22  10  36  1   
 23  10  37  1   
 24  11  16  ar  
 25  11  17  ar  
 26  12  16  ar  
 27  12  38  1   
 28  13  18  ar  
 29  13  19  ar  
 30  14  39  1   
 31  14  40  1   
 32  15  20  1   
 33  15  41  1   
 34  15  42  1   
 35  16  21  ar  
 36  17  22  ar  
 37  17  43  1   
 38  18  23  ar  
 39  19  20  1   
 40  19  24  ar  
 41  20  44  1   
 42  20  45  1   
 43  21  25  ar  
 44  22  25  ar  
 45  22  46  1   
 46  23  26  ar  
 47  23  27  1   
 48  24  26  ar  
 49  24  47  1   
 50  25  48  1   
 51  27  28  1   
 52  27  29  1   
 53  28  49  1   
 54  28  50  1   
 55  28  51  1   
 56  29  52  1   
 57  29  53  1   
 58  29  54  1   
@<TRIPOS>SUBSTRUCTURE
  1 ****   5 GROUP 4 **** **** 0

# MOE 2024.06 (io_trps.svl 2023.06)
