@<TRIPOS>MOLECULE
NONAME
49 50 1 0 0 
SMALL
USER_CHARGES


@<TRIPOS>ATOM
  1 S        0.7770     0.3230    -1.5600 S.o2  1 <1>   1.3330 
  2 O        1.0540    -1.0700    -1.8280 O.2   1 <1>  -0.6500 
  3 O        0.0720     1.1140    -2.5440 O.2   1 <1>  -0.6500 
  4 N       -0.1190     0.4050    -0.1190 N.am  1 <1>  -0.8490 
  5 C        2.3260     1.1280    -1.1450 C.3   1 <1>  -0.0550 
  6 C       -0.7720     1.7030     0.0860 C.3   1 <1>   0.1160 
  7 C       -1.1150    -0.6680    -0.0280 C.3   1 <1>   0.1160 
  8 C        3.2180     0.3230    -0.1740 C.3   1 <1>  -0.0800 
  9 C        4.5920     0.9230     0.0790 C.3   1 <1>   0.2200 
 10 C        2.6600     0.1550     1.2450 C.3   1 <1>   0.1200 
 11 N        4.4920     2.3860     0.2920 N.am  1 <1>  -0.7300 
 12 C        4.9450     0.2600     1.4020 C.3   1 <1>   0.1200 
 13 O        3.7490     0.2320     2.1200 O.3   1 <1>  -0.5600 
 14 C        4.7700     3.3450    -0.6390 C.2   1 <1>   0.5440 
 15 O        5.1190     2.9810    -1.7440 O.2   1 <1>  -0.5700 
 16 C        4.6300     4.7560    -0.3190 C.ar  1 <1>   0.0860 
 17 C        3.7860     5.1980     0.6990 C.ar  1 <1>  -0.1500 
 18 C        5.3350     5.7260    -1.0260 C.ar  1 <1>  -0.1500 
 19 C        3.6540     6.5400     1.0070 C.ar  1 <1>   0.0820 
 20 C        5.2190     7.0740    -0.7340 C.ar  1 <1>   0.0820 
 21 O        2.8030     6.8430     2.0180 O.3   1 <1>  -0.3630 
 22 C        4.3750     7.4880     0.2900 C.ar  1 <1>  -0.1500 
 23 O        5.9590     7.9230    -1.4900 O.3   1 <1>  -0.3620 
 24 C        2.5850     8.1760     2.4250 C.3   1 <1>   0.0400 
 25 C        5.9090     9.3200    -1.3010 C.3   1 <1>   0.0400 
 26 H        2.8800     1.2780    -2.0520 H     1 <1>   0.0800 
 27 H        2.1210     2.0970    -0.7360 H     1 <1>   0.0800 
 28 H       -1.2500     1.7290     1.0510 H     1 <1>   0.0800 
 29 H       -1.5140     1.8770    -0.6770 H     1 <1>   0.0800 
 30 H       -0.0460     2.4970     0.0460 H     1 <1>   0.0800 
 31 H       -1.6580    -0.5960     0.8990 H     1 <1>   0.0800 
 32 H       -0.6270    -1.6280    -0.0580 H     1 <1>   0.0800 
 33 H       -1.8070    -0.6060    -0.8520 H     1 <1>   0.0800 
 34 H        3.3610    -0.6620    -0.5840 H     1 <1>   0.0800 
 35 H        5.3010     0.6950    -0.7000 H     1 <1>   0.0800 
 36 H        2.1710    -0.7960     1.3730 H     1 <1>   0.0800 
 37 H        1.9820     0.9490     1.5040 H     1 <1>   0.0800 
 38 H        4.2340     2.6460     1.2460 H     1 <1>   0.3700 
 39 H        5.6930     0.7990     1.9550 H     1 <1>   0.0800 
 40 H        5.2620    -0.7570     1.2480 H     1 <1>   0.0800 
 41 H        3.2070     4.4950     1.2680 H     1 <1>   0.1500 
 42 H        5.9900     5.4240    -1.8250 H     1 <1>   0.1500 
 43 H        4.2810     8.5280     0.5230 H     1 <1>   0.1500 
 44 H        1.8770     8.1660     3.2350 H     1 <1>   0.0800 
 45 H        2.1830     8.7340     1.5970 H     1 <1>   0.0800 
 46 H        3.5160     8.5970     2.7600 H     1 <1>   0.0800 
 47 H        6.5690     9.7760    -2.0170 H     1 <1>   0.0800 
 48 H        6.2390     9.5500    -0.3040 H     1 <1>   0.0800 
 49 H        4.9020     9.6590    -1.4660 H     1 <1>   0.0800 
@<TRIPOS>BOND
  1   1   2  2   
  2   1   3  2   
  3   1   4  am  
  4   1   5  1   
  5   4   6  1   
  6   4   7  1   
  7   5   8  1   
  8   5  26  1   
  9   5  27  1   
 10   6  28  1   
 11   6  29  1   
 12   6  30  1   
 13   7  31  1   
 14   7  32  1   
 15   7  33  1   
 16   8   9  1   
 17   8  10  1   
 18   8  34  1   
 19   9  11  1   
 20   9  12  1   
 21   9  35  1   
 22  10  13  1   
 23  10  36  1   
 24  10  37  1   
 25  11  14  am  
 26  11  38  1   
 27  12  13  1   
 28  12  39  1   
 29  12  40  1   
 30  14  15  2   
 31  14  16  1   
 32  16  17  ar  
 33  16  18  ar  
 34  17  19  ar  
 35  17  41  1   
 36  18  20  ar  
 37  18  42  1   
 38  19  21  1   
 39  19  22  ar  
 40  20  22  ar  
 41  20  23  1   
 42  21  24  1   
 43  22  43  1   
 44  23  25  1   
 45  24  44  1   
 46  24  45  1   
 47  24  46  1   
 48  25  47  1   
 49  25  48  1   
 50  25  49  1   
@<TRIPOS>SUBSTRUCTURE
  1 ****  11 GROUP 4 **** **** 0

# MOE 2024.06 (io_trps.svl 2023.06)
