@<TRIPOS>MOLECULE
NONAME
57 59 1 0 0 
SMALL
USER_CHARGES


@<TRIPOS>ATOM
  1 O       -2.4920     1.3090    -1.4330 O.2   1 <1>  -0.5700 
  2 C       -3.2960     0.7630    -0.6980 C.2   1 <1>   0.5410 
  3 C       -3.5150    -0.6360    -0.7180 C.2   1 <1>  -0.1360 
  4 C       -4.0820     1.4950     0.2310 C.2   1 <1>  -0.1360 
  5 C       -4.4310    -1.2350     0.0960 C.2   1 <1>   0.0910 
  6 C       -4.9730     0.8610     1.0260 C.2   1 <1>  -0.0620 
  7 O       -5.1340    -0.4640     0.9530 O.3   1 <1>  -0.1530 
  8 C       -4.6850    -2.6640     0.1310 C.2   1 <1>   0.6160 
  9 C       -5.8580     1.5370     2.0540 C.3   1 <1>  -0.1020 
 10 O       -3.7840    -3.4200    -0.1870 O.2   1 <1>  -0.5700 
 11 N       -5.8970    -3.2230     0.4950 N.am  1 <1>  -0.6600 
 12 C       -5.9470    -4.6470     0.9510 C.3   1 <1>   0.1400 
 13 C       -7.1930    -2.4880     0.4190 C.3   1 <1>   0.1400 
 14 C       -6.1400    -5.6180    -0.2240 C.3   1 <1>   0.1400 
 15 C       -8.3330    -3.2980    -0.2130 C.3   1 <1>  -0.1600 
 16 N       -7.5220    -5.5600    -0.8040 N.am  1 <1>  -0.6600 
 17 C       -7.9010    -4.2260    -1.3540 C.3   1 <1>   0.1400 
 18 C       -8.3450    -6.6690    -0.7810 C.2   1 <1>   0.5690 
 19 O       -7.9870    -7.6920    -0.2390 O.2   1 <1>  -0.5700 
 20 C       -9.7280    -6.6650    -1.4560 C.3   1 <1>   0.2370 
 21 N      -10.6820    -5.7880    -0.7270 N.pl3 1 <1>   0.0480 
 22 C      -10.3550    -8.0550    -1.6910 C.3   1 <1>  -0.2400 
 23 C      -11.0690    -5.7480     0.5800 C.2   1 <1>   0.0070 
 24 C      -11.3560    -4.7750    -1.3110 C.2   1 <1>  -0.3020 
 25 N      -11.8970    -4.7820     0.8350 N.2   1 <1>  -0.5650 
 26 C      -10.5990    -6.7280     1.6610 C.3   1 <1>   0.1000 
 27 C      -12.0830    -4.1760    -0.3470 C.2   1 <1>   0.0770 
 28 C      -11.7910    -7.2760     2.4560 C.3   1 <1>  -0.2400 
 29 C       -9.6050    -6.0500     2.6070 C.3   1 <1>  -0.2400 
 30 H       -2.9160    -1.2030    -1.4060 H     1 <1>   0.1500 
 31 H       -3.9190     2.5560     0.2570 H     1 <1>   0.1500 
 32 H       -5.6560     1.1360     3.0310 H     1 <1>   0.0800 
 33 H       -6.8930     1.3670     1.8170 H     1 <1>   0.0800 
 34 H       -5.6780     2.5970     2.0720 H     1 <1>   0.0800 
 35 H       -6.7290    -4.7800     1.6760 H     1 <1>   0.0800 
 36 H       -5.0170    -4.8870     1.4360 H     1 <1>   0.0800 
 37 H       -7.0570    -1.6030    -0.1780 H     1 <1>   0.0800 
 38 H       -7.4800    -2.1740     1.4090 H     1 <1>   0.0800 
 39 H       -5.9280    -6.6120     0.1300 H     1 <1>   0.0800 
 40 H       -5.4170    -5.3970    -0.9900 H     1 <1>   0.0800 
 41 H       -9.0510    -2.5960    -0.5970 H     1 <1>   0.0800 
 42 H       -8.8450    -3.8600     0.5470 H     1 <1>   0.0800 
 43 H       -7.0670    -3.8010    -1.8890 H     1 <1>   0.0800 
 44 H       -8.7080    -4.3240    -2.0550 H     1 <1>   0.0800 
 45 H       -9.5840    -6.2380    -2.4290 H     1 <1>   0.0800 
 46 H      -10.5300    -8.5660    -0.7620 H     1 <1>   0.0800 
 47 H       -9.6860    -8.6570    -2.2790 H     1 <1>   0.0800 
 48 H      -11.2850    -7.9590    -2.2220 H     1 <1>   0.0800 
 49 H      -11.2900    -4.5340    -2.3560 H     1 <1>   0.1500 
 50 H      -10.1080    -7.5680     1.2100 H     1 <1>   0.0800 
 51 H      -12.7450    -3.3310    -0.4410 H     1 <1>   0.1500 
 52 H      -12.2930    -6.4790     2.9740 H     1 <1>   0.0800 
 53 H      -11.4620    -8.0050     3.1740 H     1 <1>   0.0800 
 54 H      -12.4920    -7.7410     1.7870 H     1 <1>   0.0800 
 55 H      -10.0570    -5.1880     3.0650 H     1 <1>   0.0800 
 56 H       -8.7390    -5.7350     2.0570 H     1 <1>   0.0800 
 57 H       -9.2910    -6.7330     3.3750 H     1 <1>   0.0800 
@<TRIPOS>BOND
  1   1   2  2   
  2   2   3  1   
  3   2   4  1   
  4   3   5  2   
  5   3  30  1   
  6   4   6  2   
  7   4  31  1   
  8   5   7  1   
  9   5   8  1   
 10   6   7  1   
 11   6   9  1   
 12   8  10  2   
 13   8  11  am  
 14   9  32  1   
 15   9  33  1   
 16   9  34  1   
 17  11  12  1   
 18  11  13  1   
 19  12  14  1   
 20  12  35  1   
 21  12  36  1   
 22  13  15  1   
 23  13  37  1   
 24  13  38  1   
 25  14  16  1   
 26  14  39  1   
 27  14  40  1   
 28  15  17  1   
 29  15  41  1   
 30  15  42  1   
 31  16  17  1   
 32  16  18  am  
 33  17  43  1   
 34  17  44  1   
 35  18  19  2   
 36  18  20  1   
 37  20  21  1   
 38  20  22  1   
 39  20  45  1   
 40  21  23  1   
 41  21  24  1   
 42  22  46  1   
 43  22  47  1   
 44  22  48  1   
 45  23  25  2   
 46  23  26  1   
 47  24  27  2   
 48  24  49  1   
 49  25  27  1   
 50  26  28  1   
 51  26  29  1   
 52  26  50  1   
 53  27  51  1   
 54  28  52  1   
 55  28  53  1   
 56  28  54  1   
 57  29  55  1   
 58  29  56  1   
 59  29  57  1   
@<TRIPOS>SUBSTRUCTURE
  1 ****  15 GROUP 4 **** **** 0

# MOE 2024.06 (io_trps.svl 2023.06)
