@<TRIPOS>MOLECULE
NONAME
49 51 1 0 0 
SMALL
USER_CHARGES


@<TRIPOS>ATOM
  1 O        1.1160     0.5520    -2.7170 O.2   1 <1>  -0.5700 
  2 C        1.4010    -0.2630    -1.8740 C.2   1 <1>   0.5690 
  3 N        2.1550     0.1040    -0.7800 N.am  1 <1>  -0.6600 
  4 C        0.9240    -1.6940    -2.1090 C.3   1 <1>   0.0440 
  5 C        2.7370    -0.8230     0.2440 C.3   1 <1>   0.1400 
  6 C        2.3560     1.5480    -0.4750 C.3   1 <1>   0.1400 
  7 C        0.1260    -2.2780    -0.9480 C.ar  1 <1>  -0.1440 
  8 C        4.2710    -0.9530     0.1370 C.3   1 <1>   0.3430 
  9 C        3.6230     2.0690    -1.1570 C.3   1 <1>  -0.1600 
 10 C        0.4400    -3.5310    -0.4450 C.ar  1 <1>  -0.1500 
 11 C       -0.9130    -1.5600    -0.3750 C.ar  1 <1>  -0.1500 
 12 N        4.9910     0.3570     0.0120 N.4   1 <1>  -0.9590 
 13 C        4.7500     1.0450    -1.2870 C.3   1 <1>   0.3430 
 14 C       -0.2510    -4.0570     0.6340 C.ar  1 <1>   0.0820 
 15 C       -1.6160    -2.0820     0.6970 C.ar  1 <1>  -0.1500 
 16 C        6.4360     0.2800     0.3430 C.3   1 <1>   0.5230 
 17 O        0.1470    -5.2770     1.0710 O.3   1 <1>  -0.3620 
 18 C       -1.2870    -3.3260     1.2060 C.ar  1 <1>  -0.1500 
 19 C        6.7690     1.5320     1.1460 C.2   1 <1>   0.0060 
 20 C       -0.5570    -5.9530     2.0900 C.3   1 <1>   0.0400 
 21 N        5.8590     2.2990     1.6690 N.2   1 <1>  -0.5650 
 22 N        8.0330     1.9530     1.3910 N.pl3 1 <1>   0.0330 
 23 C        6.5640     3.2670     2.2840 C.2   1 <1>   0.0770 
 24 C        7.8900     3.0710     2.1240 C.2   1 <1>  -0.3020 
 25 H        1.7800    -2.3050    -2.3220 H     1 <1>   0.0800 
 26 H        0.2990    -1.7060    -2.9840 H     1 <1>   0.0800 
 27 H        2.3200    -1.8050     0.1550 H     1 <1>   0.0800 
 28 H        2.4760    -0.4700     1.2270 H     1 <1>   0.0800 
 29 H        2.4280     1.6870     0.5900 H     1 <1>   0.0800 
 30 H        1.5050     2.1180    -0.8120 H     1 <1>   0.0800 
 31 H        4.5020    -1.5700    -0.7160 H     1 <1>   0.0800 
 32 H        4.6190    -1.4720     1.0150 H     1 <1>   0.0800 
 33 H        3.9780     2.9370    -0.6300 H     1 <1>   0.0800 
 34 H        3.3580     2.3960    -2.1470 H     1 <1>   0.0800 
 35 H        1.2260    -4.1220    -0.8790 H     1 <1>   0.1500 
 36 H       -1.1810    -0.5900    -0.7600 H     1 <1>   0.1500 
 37 H        4.6530     1.0130     0.7420 H     1 <1>   0.4500 
 38 H        5.6410     1.5580    -1.6120 H     1 <1>   0.0800 
 39 H        4.4840     0.3200    -2.0400 H     1 <1>   0.0800 
 40 H       -2.4220    -1.5180     1.1340 H     1 <1>   0.1500 
 41 H        7.0310     0.2280    -0.5540 H     1 <1>   0.0800 
 42 H        6.6350    -0.5860     0.9520 H     1 <1>   0.0800 
 43 H       -1.8450    -3.7060     2.0410 H     1 <1>   0.1500 
 44 H       -0.0920    -6.9110     2.2390 H     1 <1>   0.0800 
 45 H       -1.5780    -6.0870     1.7790 H     1 <1>   0.0800 
 46 H       -0.5010    -5.3750     2.9960 H     1 <1>   0.0800 
 47 H        8.9240     1.5350     1.1020 H     1 <1>   0.2700 
 48 H        6.0780     4.0680     2.8210 H     1 <1>   0.1500 
 49 H        8.7170     3.6570     2.4870 H     1 <1>   0.1500 
@<TRIPOS>BOND
  1   1   2  2   
  2   2   3  am  
  3   2   4  1   
  4   3   5  1   
  5   3   6  1   
  6   4   7  1   
  7   4  25  1   
  8   4  26  1   
  9   5   8  1   
 10   5  27  1   
 11   5  28  1   
 12   6   9  1   
 13   6  29  1   
 14   6  30  1   
 15   7  10  ar  
 16   7  11  ar  
 17   8  12  1   
 18   8  31  1   
 19   8  32  1   
 20   9  13  1   
 21   9  33  1   
 22   9  34  1   
 23  10  14  ar  
 24  10  35  1   
 25  11  15  ar  
 26  11  36  1   
 27  12  13  1   
 28  12  16  1   
 29  12  37  1   
 30  13  38  1   
 31  13  39  1   
 32  14  17  1   
 33  14  18  ar  
 34  15  18  ar  
 35  15  40  1   
 36  16  19  1   
 37  16  41  1   
 38  16  42  1   
 39  17  20  1   
 40  18  43  1   
 41  19  21  2   
 42  19  22  1   
 43  20  44  1   
 44  20  45  1   
 45  20  46  1   
 46  21  23  1   
 47  22  24  1   
 48  22  47  1   
 49  23  24  2   
 50  23  48  1   
 51  24  49  1   
@<TRIPOS>SUBSTRUCTURE
  1 ****   5 GROUP 4 **** **** 0

# MOE 2024.06 (io_trps.svl 2023.06)
