@<TRIPOS>MOLECULE
NONAME
42 44 1 0 0 
SMALL
USER_CHARGES


@<TRIPOS>ATOM
  1 F       -1.8630    -0.2170    -1.3900 F     1 <1>  -0.1900 
  2 C       -2.2470     0.6480    -0.4850 C.ar  1 <1>   0.1900 
  3 C       -2.1200     2.0000    -0.7530 C.ar  1 <1>   0.1900 
  4 C       -2.7680     0.1910     0.7220 C.ar  1 <1>   0.0860 
  5 F       -1.6350     2.3850    -1.9080 F     1 <1>  -0.1900 
  6 C       -2.4960     2.9620     0.1730 C.ar  1 <1>  -0.1440 
  7 C       -2.9270    -1.2140     1.0270 C.2   1 <1>   0.5440 
  8 C       -3.1330     1.1660     1.6530 C.ar  1 <1>  -0.1500 
  9 C       -3.0040     2.5220     1.3880 C.ar  1 <1>  -0.1500 
 10 C       -2.3550     4.4480    -0.1210 C.3   1 <1>  -0.0960 
 11 O       -2.3920    -1.6730     2.0170 O.2   1 <1>  -0.5700 
 12 N       -3.7030    -2.0500     0.2600 N.am  1 <1>  -0.6600 
 13 C       -4.6240    -1.6420    -0.8310 C.3   1 <1>   0.1400 
 14 C       -3.8490    -3.4990     0.5440 C.3   1 <1>   0.1400 
 15 C       -5.6610    -2.7620    -0.8810 C.3   1 <1>   0.2000 
 16 C       -4.8610    -4.0100    -0.4900 C.3   1 <1>  -0.0800 
 17 O       -6.6190    -2.5030     0.0880 O.3   1 <1>  -0.6800 
 18 C       -5.7100    -5.1990     0.0010 C.3   1 <1>   0.0200 
 19 C       -4.8940    -6.4590     0.2340 C.2   1 <1>  -0.0400 
 20 O       -5.4840    -7.4980     0.7640 O.3   1 <1>  -0.0190 
 21 C       -3.6130    -6.7920     0.0050 C.2   1 <1>  -0.1500 
 22 N       -4.6690    -8.5030     0.9050 N.2   1 <1>  -0.4100 
 23 C       -3.5340    -8.1060     0.4570 C.2   1 <1>   0.1080 
 24 C       -2.2850    -8.9590     0.4290 C.3   1 <1>  -0.0590 
 25 H       -3.5220     0.8470     2.6060 H     1 <1>   0.1500 
 26 H       -3.3010     3.2360     2.1380 H     1 <1>   0.1500 
 27 H       -2.7070     5.0420     0.7040 H     1 <1>   0.0800 
 28 H       -2.9260     4.7060    -0.9960 H     1 <1>   0.0800 
 29 H       -1.3230     4.6910    -0.3000 H     1 <1>   0.0800 
 30 H       -5.0790    -0.6840    -0.6460 H     1 <1>   0.0800 
 31 H       -4.0780    -1.6120    -1.7580 H     1 <1>   0.0800 
 32 H       -2.8980    -3.9940     0.4560 H     1 <1>   0.0800 
 33 H       -4.2210    -3.6250     1.5480 H     1 <1>   0.0800 
 34 H       -6.1510    -2.8460    -1.8360 H     1 <1>   0.0800 
 35 H       -4.3100    -4.3230    -1.3590 H     1 <1>   0.0800 
 36 H       -6.1660    -2.2990     0.9310 H     1 <1>   0.4000 
 37 H       -6.4710    -5.4170    -0.7270 H     1 <1>   0.0800 
 38 H       -6.2060    -4.9420     0.9210 H     1 <1>   0.0800 
 39 H       -2.8080    -6.2240    -0.4210 H     1 <1>   0.1500 
 40 H       -1.5090    -8.4890     1.0030 H     1 <1>   0.0800 
 41 H       -1.9520    -9.0850    -0.5850 H     1 <1>   0.0800 
 42 H       -2.4930    -9.9270     0.8500 H     1 <1>   0.0800 
@<TRIPOS>BOND
  1   1   2  1   
  2   2   3  ar  
  3   2   4  ar  
  4   3   5  1   
  5   3   6  ar  
  6   4   7  1   
  7   4   8  ar  
  8   6   9  ar  
  9   6  10  1   
 10   7  11  2   
 11   7  12  am  
 12   8   9  ar  
 13   8  25  1   
 14   9  26  1   
 15  10  27  1   
 16  10  28  1   
 17  10  29  1   
 18  12  13  1   
 19  12  14  1   
 20  13  15  1   
 21  13  30  1   
 22  13  31  1   
 23  14  16  1   
 24  14  32  1   
 25  14  33  1   
 26  15  16  1   
 27  15  17  1   
 28  15  34  1   
 29  16  18  1   
 30  16  35  1   
 31  17  36  1   
 32  18  19  1   
 33  18  37  1   
 34  18  38  1   
 35  19  20  1   
 36  19  21  2   
 37  20  22  1   
 38  21  23  1   
 39  21  39  1   
 40  22  23  2   
 41  23  24  1   
 42  24  40  1   
 43  24  41  1   
 44  24  42  1   
@<TRIPOS>SUBSTRUCTURE
  1 ****  12 GROUP 4 **** **** 0

# MOE 2024.06 (io_trps.svl 2023.06)
