@<TRIPOS>MOLECULE
NONAME
54 56 1 0 0 
SMALL
USER_CHARGES


@<TRIPOS>ATOM
  1 O        0.6570    -0.2460    -0.8670 O.2   1 <1>  -0.5700 
  2 C        1.6840    -0.6930    -0.4100 C.2   1 <1>   0.5690 
  3 N        2.7100     0.1460    -0.0350 N.am  1 <1>  -0.6600 
  4 C        1.7530    -2.2290    -0.2680 C.3   1 <1>   0.4040 
  5 C        4.1200    -0.2570     0.2940 C.3   1 <1>   0.1400 
  6 C        2.4190     1.5910     0.2020 C.3   1 <1>   0.1400 
  7 N        0.3900    -2.8720    -0.1510 N.4   1 <1>  -0.9590 
  8 C        5.1660     0.2620    -0.7240 C.3   1 <1>   0.3430 
  9 C        2.6380     2.4170    -1.0690 C.3   1 <1>  -0.1600 
 10 C       -0.2540    -2.5890     1.1580 C.3   1 <1>   0.3430 
 11 C        0.3890    -4.3270    -0.4510 C.3   1 <1>   0.3430 
 12 N        5.0160     1.7150    -1.0700 N.4   1 <1>  -0.9590 
 13 C        3.8350     2.0030    -1.9240 C.3   1 <1>   0.3430 
 14 C       -1.7010    -2.1470     0.9450 C.3   1 <1>  -0.1600 
 15 C       -0.9660    -4.7710    -1.0080 C.3   1 <1>  -0.1600 
 16 C        6.2890     2.2910    -1.5850 C.3   1 <1>   0.5230 
 17 C       -2.5110    -2.9330    -0.1020 C.3   1 <1>  -0.1600 
 18 C       -2.1990    -4.4370    -0.1470 C.3   1 <1>  -0.1600 
 19 C        7.1720     2.5730    -0.3740 C.2   1 <1>   0.0060 
 20 N        6.7480     2.4790     0.8520 N.2   1 <1>  -0.5650 
 21 N        8.4690     2.9560    -0.4650 N.pl3 1 <1>   0.0330 
 22 C        7.8210     2.8160     1.5940 C.2   1 <1>   0.0770 
 23 C        8.8770     3.1070     0.8060 C.2   1 <1>  -0.3020 
 24 H        2.3450    -2.4780     0.5950 H     1 <1>   0.0800 
 25 H        2.2500    -2.6120    -1.1420 H     1 <1>   0.0800 
 26 H        4.2040    -1.3270     0.3480 H     1 <1>   0.0800 
 27 H        4.3760     0.1240     1.2690 H     1 <1>   0.0800 
 28 H        3.0490     1.9620     0.9940 H     1 <1>   0.0800 
 29 H        1.3990     1.7130     0.5320 H     1 <1>   0.0800 
 30 H       -0.2050    -2.3920    -0.8490 H     1 <1>   0.4500 
 31 H        5.1070    -0.3280    -1.6230 H     1 <1>   0.0800 
 32 H        6.1440     0.1010    -0.2960 H     1 <1>   0.0800 
 33 H        2.7350     3.4530    -0.7960 H     1 <1>   0.0800 
 34 H        1.7530     2.3450    -1.6770 H     1 <1>   0.0800 
 35 H        0.2730    -1.8070     1.6800 H     1 <1>   0.0800 
 36 H       -0.2360    -3.4750     1.7720 H     1 <1>   0.0800 
 37 H        0.6160    -4.8870     0.4430 H     1 <1>   0.0800 
 38 H        1.1460    -4.5520    -1.1850 H     1 <1>   0.0800 
 39 H        4.9260     2.2140    -0.1660 H     1 <1>   0.4500 
 40 H        4.0540     2.7960    -2.6200 H     1 <1>   0.0800 
 41 H        3.5770     1.1230    -2.4920 H     1 <1>   0.0800 
 42 H       -1.7130    -1.1030     0.6810 H     1 <1>   0.0800 
 43 H       -2.2010    -2.2260     1.8950 H     1 <1>   0.0800 
 44 H       -0.9280    -5.8400    -1.1300 H     1 <1>   0.0800 
 45 H       -1.0940    -4.3590    -1.9940 H     1 <1>   0.0800 
 46 H        6.0960     3.2190    -2.0970 H     1 <1>   0.0800 
 47 H        6.7720     1.6060    -2.2620 H     1 <1>   0.0800 
 48 H       -2.3630    -2.5040    -1.0790 H     1 <1>   0.0800 
 49 H       -3.5560    -2.8060     0.1280 H     1 <1>   0.0800 
 50 H       -2.0960    -4.8360     0.8480 H     1 <1>   0.0800 
 51 H       -3.0470    -4.9320    -0.5930 H     1 <1>   0.0800 
 52 H        9.0430     3.1130    -1.3020 H     1 <1>   0.2700 
 53 H        7.7830     2.8340     2.6730 H     1 <1>   0.1500 
 54 H        9.8730     3.4100     1.0810 H     1 <1>   0.1500 
@<TRIPOS>BOND
  1   1   2  2   
  2   2   3  am  
  3   2   4  1   
  4   3   5  1   
  5   3   6  1   
  6   4   7  1   
  7   4  24  1   
  8   4  25  1   
  9   5   8  1   
 10   5  26  1   
 11   5  27  1   
 12   6   9  1   
 13   6  28  1   
 14   6  29  1   
 15   7  10  1   
 16   7  11  1   
 17   7  30  1   
 18   8  12  1   
 19   8  31  1   
 20   8  32  1   
 21   9  13  1   
 22   9  33  1   
 23   9  34  1   
 24  10  14  1   
 25  10  35  1   
 26  10  36  1   
 27  11  15  1   
 28  11  37  1   
 29  11  38  1   
 30  12  13  1   
 31  12  16  1   
 32  12  39  1   
 33  13  40  1   
 34  13  41  1   
 35  14  17  1   
 36  14  42  1   
 37  14  43  1   
 38  15  18  1   
 39  15  44  1   
 40  15  45  1   
 41  16  19  1   
 42  16  46  1   
 43  16  47  1   
 44  17  18  1   
 45  17  48  1   
 46  17  49  1   
 47  18  50  1   
 48  18  51  1   
 49  19  20  2   
 50  19  21  1   
 51  20  22  1   
 52  21  23  1   
 53  21  52  1   
 54  22  23  2   
 55  22  53  1   
 56  23  54  1   
@<TRIPOS>SUBSTRUCTURE
  1 ****   3 GROUP 4 **** **** 0

# MOE 2024.06 (io_trps.svl 2023.06)
