@<TRIPOS>MOLECULE
NONAME
57 59 1 0 0 
SMALL
USER_CHARGES


@<TRIPOS>ATOM
  1 F       -0.8490     2.1830    -0.1250 F     1 <1>  -0.1900 
  2 C       -2.1480     2.0470    -0.0420 C.ar  1 <1>   0.1900 
  3 C       -2.8820     2.5660     1.0310 C.ar  1 <1>   0.0830 
  4 C       -2.7610     1.3620    -1.0730 C.ar  1 <1>  -0.1500 
  5 O       -2.3960     3.2580     2.1020 O.3   1 <1>  -0.3630 
  6 C       -4.2530     2.3660     1.0280 C.ar  1 <1>  -0.1500 
  7 C       -4.1310     1.1800    -1.0450 C.ar  1 <1>  -0.1500 
  8 C       -1.0290     3.5660     2.2620 C.3   1 <1>   0.0400 
  9 C       -4.9050     1.6720     0.0080 C.ar  1 <1>   0.0530 
 10 C       -6.3310     1.4800     0.0550 C.2   1 <1>   0.0870 
 11 O       -7.1150     2.4630     0.4180 O.3   1 <1>  -0.0190 
 12 C       -7.1290     0.4070    -0.1850 C.2   1 <1>  -0.0860 
 13 N       -8.3790     2.1280     0.4300 N.2   1 <1>  -0.4100 
 14 C       -8.4180     0.8950     0.0610 C.2   1 <1>   0.3720 
 15 C       -6.8000    -0.9310    -0.5590 C.2   1 <1>   0.7160 
 16 N       -9.6050     0.1530    -0.0580 N.pl3 1 <1>  -0.8210 
 17 O       -6.2890    -1.1420    -1.6440 O.2   1 <1>  -0.5700 
 18 N       -7.0440    -1.9990     0.2750 N.am  1 <1>  -0.6600 
 19 C       -9.9230    -0.3410    -1.4290 C.3   1 <1>   0.1290 
 20 C      -10.8000     0.7050     0.6360 C.3   1 <1>   0.1290 
 21 C       -7.1690    -3.3820    -0.2880 C.3   1 <1>   0.3210 
 22 C       -7.5480    -1.8290     1.6680 C.3   1 <1>   0.0600 
 23 C       -8.6290    -3.8010    -0.4540 C.2   1 <1>   0.3350 
 24 N       -9.3030    -3.7020    -1.5320 N.2   1 <1>  -0.4100 
 25 N       -9.3260    -4.3160     0.5550 N.2   1 <1>  -0.5650 
 26 O      -10.4990    -4.1390    -1.2790 O.3   1 <1>  -0.0190 
 27 C      -10.4500    -4.4840    -0.0160 C.2   1 <1>   0.2980 
 28 C      -11.6960    -5.0440     0.6430 C.3   1 <1>   0.0200 
 29 C      -12.5660    -3.9550     1.3020 C.3   1 <1>  -0.0800 
 30 C      -13.7450    -4.5950     2.0480 C.3   1 <1>  -0.2400 
 31 C      -13.0960    -2.9370     0.2820 C.3   1 <1>  -0.2400 
 32 H       -2.1720     0.9770    -1.8860 H     1 <1>   0.1500 
 33 H       -4.8300     2.7610     1.8450 H     1 <1>   0.1500 
 34 H       -4.6070     0.6550    -1.8550 H     1 <1>   0.1500 
 35 H       -0.9160     4.1200     3.1760 H     1 <1>   0.0800 
 36 H       -0.7050     4.1660     1.4300 H     1 <1>   0.0800 
 37 H       -0.4680     2.6500     2.3200 H     1 <1>   0.0800 
 38 H       -9.0310    -0.6410    -1.9480 H     1 <1>   0.0800 
 39 H      -10.4060     0.4350    -1.9970 H     1 <1>   0.0800 
 40 H      -10.5770    -1.1920    -1.3650 H     1 <1>   0.0800 
 41 H      -10.5390     0.9900     1.6410 H     1 <1>   0.0800 
 42 H      -11.5760    -0.0390     0.6790 H     1 <1>   0.0800 
 43 H      -11.1630     1.5720     0.1110 H     1 <1>   0.0800 
 44 H       -6.6790    -4.0760     0.3680 H     1 <1>   0.0800 
 45 H       -6.6860    -3.4450    -1.2460 H     1 <1>   0.0800 
 46 H       -7.1690    -0.9200     2.1000 H     1 <1>   0.0800 
 47 H       -7.2340    -2.6570     2.2790 H     1 <1>   0.0800 
 48 H       -8.6250    -1.7890     1.6600 H     1 <1>   0.0800 
 49 H      -11.3830    -5.7450     1.3960 H     1 <1>   0.0800 
 50 H      -12.2690    -5.5850    -0.0890 H     1 <1>   0.0800 
 51 H      -11.9580    -3.4290     2.0200 H     1 <1>   0.0800 
 52 H      -14.3840    -5.1280     1.3660 H     1 <1>   0.0800 
 53 H      -14.3280    -3.8380     2.5420 H     1 <1>   0.0800 
 54 H      -13.3890    -5.2820     2.7950 H     1 <1>   0.0800 
 55 H      -13.6680    -3.4280    -0.4860 H     1 <1>   0.0800 
 56 H      -12.2840    -2.4050    -0.1810 H     1 <1>   0.0800 
 57 H      -13.7270    -2.2150     0.7690 H     1 <1>   0.0800 
@<TRIPOS>BOND
  1   1   2  1   
  2   2   3  ar  
  3   2   4  ar  
  4   3   5  1   
  5   3   6  ar  
  6   4   7  ar  
  7   4  32  1   
  8   5   8  1   
  9   6   9  ar  
 10   6  33  1   
 11   7   9  ar  
 12   7  34  1   
 13   8  35  1   
 14   8  36  1   
 15   8  37  1   
 16   9  10  1   
 17  10  11  1   
 18  10  12  2   
 19  11  13  1   
 20  12  14  1   
 21  12  15  1   
 22  13  14  2   
 23  14  16  1   
 24  15  17  2   
 25  15  18  am  
 26  16  19  1   
 27  16  20  1   
 28  18  21  1   
 29  18  22  1   
 30  19  38  1   
 31  19  39  1   
 32  19  40  1   
 33  20  41  1   
 34  20  42  1   
 35  20  43  1   
 36  21  23  1   
 37  21  44  1   
 38  21  45  1   
 39  22  46  1   
 40  22  47  1   
 41  22  48  1   
 42  23  24  2   
 43  23  25  1   
 44  24  26  1   
 45  25  27  2   
 46  26  27  1   
 47  27  28  1   
 48  28  29  1   
 49  28  49  1   
 50  28  50  1   
 51  29  30  1   
 52  29  31  1   
 53  29  51  1   
 54  30  52  1   
 55  30  53  1   
 56  30  54  1   
 57  31  55  1   
 58  31  56  1   
 59  31  57  1   
@<TRIPOS>SUBSTRUCTURE
  1 ****  15 GROUP 4 **** **** 0

# MOE 2024.06 (io_trps.svl 2023.06)
