@<TRIPOS>MOLECULE
NONAME
41 43 1 0 0 
SMALL
USER_CHARGES


@<TRIPOS>ATOM
  1 CL      -1.7560    -0.9120    -1.4300 Cl    1 <1>  -0.1230 
  2 C       -2.0000     0.5520    -0.4900 C.2   1 <1>   0.1230 
  3 C       -2.9610     0.7390     0.5090 C.2   1 <1>   0.2030 
  4 C       -1.3070     1.6980    -0.6160 C.2   1 <1>  -0.3320 
  5 N       -2.8620     1.9800     0.9720 N.2   1 <1>  -0.7070 
  6 C       -3.8890    -0.2960     0.9430 C.2   1 <1>   0.7160 
  7 N       -1.8490     2.5420     0.2870 N.pl3 1 <1>   0.3000 
  8 C       -0.1560     2.0560    -1.5400 C.3   1 <1>  -0.0600 
  9 O       -3.4760    -1.4300     1.1340 O.2   1 <1>  -0.5700 
 10 N       -5.2420    -0.0650     1.1560 N.am  1 <1>  -0.6600 
 11 C       -6.0920    -1.0930     1.8230 C.3   1 <1>   0.1400 
 12 C       -5.9500     1.1490     0.6780 C.3   1 <1>   0.1400 
 13 C       -6.7610    -2.0050     0.7870 C.3   1 <1>   0.1400 
 14 C       -6.9710     0.8030    -0.4090 C.3   1 <1>  -0.1600 
 15 N       -7.9960    -1.4420     0.1400 N.am  1 <1>  -0.6600 
 16 C       -8.1940     0.0430     0.1150 C.3   1 <1>   0.1400 
 17 C       -8.9860    -2.2850    -0.3540 C.2   1 <1>   0.5440 
 18 O      -10.0940    -1.8070    -0.5400 O.2   1 <1>  -0.5700 
 19 C       -8.7940    -3.7120    -0.6280 C.ar  1 <1>   0.3960 
 20 N       -7.6130    -4.1960    -1.0560 N.ar  1 <1>  -0.6200 
 21 C       -9.8870    -4.5690    -0.4370 C.ar  1 <1>   0.1600 
 22 C       -7.6160    -5.5000    -1.2560 C.ar  1 <1>   0.1600 
 23 N       -9.8900    -5.8790    -0.6280 N.ar  1 <1>  -0.6200 
 24 C       -8.7180    -6.3170    -1.0480 C.ar  1 <1>   0.1600 
 25 H       -1.5450     3.5100     0.4560 H     1 <1>   0.2700 
 26 H        0.0960     1.2170    -2.1650 H     1 <1>   0.0800 
 27 H        0.7140     2.3250    -0.9670 H     1 <1>   0.0800 
 28 H       -0.4270     2.8820    -2.1740 H     1 <1>   0.0800 
 29 H       -6.8300    -0.6270     2.4510 H     1 <1>   0.0800 
 30 H       -5.4720    -1.7000     2.4590 H     1 <1>   0.0800 
 31 H       -5.2540     1.8550     0.2660 H     1 <1>   0.0800 
 32 H       -6.4370     1.6260     1.5110 H     1 <1>   0.0800 
 33 H       -7.0280    -2.9180     1.2890 H     1 <1>   0.0800 
 34 H       -6.0410    -2.2540     0.0260 H     1 <1>   0.0800 
 35 H       -6.5060     0.2640    -1.2160 H     1 <1>   0.0800 
 36 H       -7.3250     1.7340    -0.8120 H     1 <1>   0.0800 
 37 H       -9.0190     0.2780    -0.5360 H     1 <1>   0.0800 
 38 H       -8.4620     0.3870     1.0990 H     1 <1>   0.0800 
 39 H      -10.8120    -4.1300    -0.1030 H     1 <1>   0.1500 
 40 H       -6.7010    -5.9480    -1.6030 H     1 <1>   0.1500 
 41 H       -8.6240    -7.3730    -1.2360 H     1 <1>   0.1500 
@<TRIPOS>BOND
  1   1   2  1   
  2   2   3  1   
  3   2   4  2   
  4   3   5  2   
  5   3   6  1   
  6   4   7  1   
  7   4   8  1   
  8   5   7  1   
  9   6   9  2   
 10   6  10  am  
 11   7  25  1   
 12   8  26  1   
 13   8  27  1   
 14   8  28  1   
 15  10  11  1   
 16  10  12  1   
 17  11  13  1   
 18  11  29  1   
 19  11  30  1   
 20  12  14  1   
 21  12  31  1   
 22  12  32  1   
 23  13  15  1   
 24  13  33  1   
 25  13  34  1   
 26  14  16  1   
 27  14  35  1   
 28  14  36  1   
 29  15  16  1   
 30  15  17  am  
 31  16  37  1   
 32  16  38  1   
 33  17  18  2   
 34  17  19  1   
 35  19  20  ar  
 36  19  21  ar  
 37  20  22  ar  
 38  21  23  ar  
 39  21  39  1   
 40  22  24  ar  
 41  22  40  1   
 42  23  24  ar  
 43  24  41  1   
@<TRIPOS>SUBSTRUCTURE
  1 ****  13 GROUP 4 **** **** 0

# MOE 2024.06 (io_trps.svl 2023.06)
