@<TRIPOS>MOLECULE
NONAME
57 60 1 0 0 
SMALL
USER_CHARGES


@<TRIPOS>ATOM
  1 O        0.2730    -0.3440    -0.7690 O.2   1 <1>  -0.5700 
  2 C        1.3140     0.2890    -0.7000 C.2   1 <1>   0.5440 
  3 N        1.3090     1.4840    -0.0180 N.am  1 <1>  -0.6600 
  4 C        2.5150    -0.2170    -1.3180 C.ar  1 <1>   0.0860 
  5 C        2.5200     2.1490     0.5130 C.3   1 <1>   0.1400 
  6 C        0.0880     2.0210     0.6250 C.3   1 <1>   0.1400 
  7 C        2.9920    -1.5060    -1.0170 C.ar  1 <1>   0.4100 
  8 C        3.2390     0.5490    -2.2230 C.ar  1 <1>  -0.1500 
  9 C        2.0340     2.9230     1.7320 C.3   1 <1>  -0.1600 
 10 C        0.5660     3.2180     1.4390 C.3   1 <1>  -0.1600 
 11 N        4.1060    -2.0230    -1.5340 N.ar  1 <1>  -0.6200 
 12 N        2.2950    -2.3060    -0.1420 N.pl3 1 <1>  -0.8690 
 13 C        4.3860     0.0110    -2.7590 C.ar  1 <1>  -0.1500 
 14 C        4.7700    -1.2640    -2.3820 C.ar  1 <1>   0.1600 
 15 C        2.4860    -3.7540     0.0140 C.3   1 <1>   0.2890 
 16 C        1.6590    -4.4770    -1.0500 C.3   1 <1>  -0.1600 
 17 C        2.0470    -4.1520     1.4210 C.3   1 <1>  -0.1600 
 18 C        1.7250    -5.9890    -0.8460 C.3   1 <1>   0.1400 
 19 C        2.1000    -5.6710     1.5970 C.3   1 <1>   0.1400 
 20 N        1.2760    -6.3180     0.5370 N.am  1 <1>  -0.6600 
 21 C        0.1950    -7.1060     0.8660 C.2   1 <1>   0.5690 
 22 O       -0.0560    -7.3660     2.0210 O.2   1 <1>  -0.5700 
 23 C       -0.7260    -7.6840    -0.2200 C.3   1 <1>  -0.0190 
 24 C       -2.1180    -8.1220     0.2510 C.3   1 <1>  -0.1600 
 25 C       -0.1780    -8.9540    -0.8790 C.3   1 <1>  -0.1600 
 26 C       -2.6330    -9.0350    -0.8620 C.3   1 <1>  -0.1600 
 27 C       -1.3880    -9.6440    -1.5170 C.3   1 <1>  -0.1600 
 28 H        2.9040     2.8270    -0.2300 H     1 <1>   0.0800 
 29 H        3.2770     1.4300     0.7800 H     1 <1>   0.0800 
 30 H       -0.3310     1.2670     1.2700 H     1 <1>   0.0800 
 31 H       -0.6390     2.3040    -0.1170 H     1 <1>   0.0800 
 32 H        2.9020     1.5340    -2.4930 H     1 <1>   0.1500 
 33 H        2.6100     3.8170     1.8960 H     1 <1>   0.0800 
 34 H        2.1130     2.2910     2.6000 H     1 <1>   0.0800 
 35 H       -0.0140     3.3480     2.3350 H     1 <1>   0.0800 
 36 H        0.4830     4.1050     0.8360 H     1 <1>   0.0800 
 37 H        1.3220    -2.0060     0.0140 H     1 <1>   0.4000 
 38 H        4.9790     0.5670    -3.4630 H     1 <1>   0.1500 
 39 H        5.6710    -1.6770    -2.8040 H     1 <1>   0.1500 
 40 H        3.5280    -4.0030    -0.1090 H     1 <1>   0.0800 
 41 H        2.0460    -4.2320    -2.0230 H     1 <1>   0.0800 
 42 H        0.6330    -4.1590    -0.9990 H     1 <1>   0.0800 
 43 H        1.0410    -3.8200     1.6040 H     1 <1>   0.0800 
 44 H        2.6960    -3.6880     2.1410 H     1 <1>   0.0800 
 45 H        2.7400    -6.3280    -0.9710 H     1 <1>   0.0800 
 46 H        1.1250    -6.4780    -1.5890 H     1 <1>   0.0800 
 47 H        1.7410    -5.9290     2.5790 H     1 <1>   0.0800 
 48 H        3.1160    -6.0180     1.5150 H     1 <1>   0.0800 
 49 H       -0.8820    -6.9350    -0.9740 H     1 <1>   0.0800 
 50 H       -2.7670    -7.2820     0.4250 H     1 <1>   0.0800 
 51 H       -2.0340    -8.6940     1.1600 H     1 <1>   0.0800 
 52 H        0.2310    -9.5940    -0.1140 H     1 <1>   0.0800 
 53 H        0.5900    -8.7420    -1.6010 H     1 <1>   0.0800 
 54 H       -3.1700    -8.4490    -1.5890 H     1 <1>   0.0800 
 55 H       -3.2900    -9.7930    -0.4710 H     1 <1>   0.0800 
 56 H       -1.3440   -10.7070    -1.3500 H     1 <1>   0.0800 
 57 H       -1.4070    -9.4610    -2.5780 H     1 <1>   0.0800 
@<TRIPOS>BOND
  1   1   2  2   
  2   2   3  am  
  3   2   4  1   
  4   3   5  1   
  5   3   6  1   
  6   4   7  ar  
  7   4   8  ar  
  8   5   9  1   
  9   5  28  1   
 10   5  29  1   
 11   6  10  1   
 12   6  30  1   
 13   6  31  1   
 14   7  11  ar  
 15   7  12  1   
 16   8  13  ar  
 17   8  32  1   
 18   9  10  1   
 19   9  33  1   
 20   9  34  1   
 21  10  35  1   
 22  10  36  1   
 23  11  14  ar  
 24  12  15  1   
 25  12  37  1   
 26  13  14  ar  
 27  13  38  1   
 28  14  39  1   
 29  15  16  1   
 30  15  17  1   
 31  15  40  1   
 32  16  18  1   
 33  16  41  1   
 34  16  42  1   
 35  17  19  1   
 36  17  43  1   
 37  17  44  1   
 38  18  20  1   
 39  18  45  1   
 40  18  46  1   
 41  19  20  1   
 42  19  47  1   
 43  19  48  1   
 44  20  21  am  
 45  21  22  2   
 46  21  23  1   
 47  23  24  1   
 48  23  25  1   
 49  23  49  1   
 50  24  26  1   
 51  24  50  1   
 52  24  51  1   
 53  25  27  1   
 54  25  52  1   
 55  25  53  1   
 56  26  27  1   
 57  26  54  1   
 58  26  55  1   
 59  27  56  1   
 60  27  57  1   
@<TRIPOS>SUBSTRUCTURE
  1 ****  12 GROUP 4 **** **** 0

# MOE 2024.06 (io_trps.svl 2023.06)
