@<TRIPOS>MOLECULE
NONAME
40 40 1 0 0 
SMALL
USER_CHARGES


@<TRIPOS>ATOM
  1 O       -0.1610    -0.3330     0.7560 O.2   1 <1>  -0.5700 
  2 C       -1.2260    -0.9200     0.7510 C.2   1 <1>   0.7800 
  3 O       -2.3460    -0.2990     0.3690 O.3   1 <1>  -0.4300 
  4 N       -1.3350    -2.2340     1.1330 N.am  1 <1>  -0.6600 
  5 C       -2.4820     1.0360    -0.0680 C.3   1 <1>   0.2800 
  6 C       -2.6190    -2.9830     1.1390 C.3   1 <1>   0.1400 
  7 C       -0.1570    -3.0140     1.5910 C.3   1 <1>   0.1400 
  8 C       -3.9710     1.2040    -0.3760 C.3   1 <1>  -0.2400 
  9 C       -1.6730     1.2590    -1.3520 C.3   1 <1>  -0.2400 
 10 C       -2.0860     2.0060     1.0510 C.3   1 <1>  -0.2400 
 11 C       -2.4810    -4.2440     0.2810 C.3   1 <1>  -0.1600 
 12 C       -0.0080    -4.2810     0.7410 C.3   1 <1>  -0.1600 
 13 C       -1.2990    -5.1220     0.7290 C.3   1 <1>  -0.0800 
 14 C       -1.1870    -6.3550    -0.1880 C.3   1 <1>  -0.1600 
 15 C       -0.1330    -7.3630     0.2820 C.3   1 <1>   0.0860 
 16 N       -0.2060    -8.5550    -0.5510 N.2   1 <1>  -0.5640 
 17 N        0.8110    -8.8930    -1.1990 N.1   1 <1>   0.6880 
 18 N        1.8220    -9.2080    -1.8300 N.1   1 <1>  -0.3700 
 19 H       -3.4230    -2.3770     0.7580 H     1 <1>   0.0800 
 20 H       -2.8580    -3.2540     2.1530 H     1 <1>   0.0800 
 21 H       -0.2970    -3.2800     2.6250 H     1 <1>   0.0800 
 22 H        0.7420    -2.4250     1.5180 H     1 <1>   0.0800 
 23 H       -4.2720     0.5130    -1.1430 H     1 <1>   0.0800 
 24 H       -4.1710     2.2020    -0.7210 H     1 <1>   0.0800 
 25 H       -4.5560     1.0250     0.5070 H     1 <1>   0.0800 
 26 H       -1.9250     0.5160    -2.0860 H     1 <1>   0.0800 
 27 H       -0.6180     1.2200    -1.1560 H     1 <1>   0.0800 
 28 H       -1.8910     2.2300    -1.7580 H     1 <1>   0.0800 
 29 H       -2.6200     1.7720     1.9540 H     1 <1>   0.0800 
 30 H       -2.3240     3.0140     0.7650 H     1 <1>   0.0800 
 31 H       -1.0300     1.9650     1.2450 H     1 <1>   0.0800 
 32 H       -2.3500    -3.9460    -0.7450 H     1 <1>   0.0800 
 33 H       -3.3970    -4.8060     0.3430 H     1 <1>   0.0800 
 34 H        0.8090    -4.8540     1.1380 H     1 <1>   0.0800 
 35 H        0.2510    -3.9900    -0.2620 H     1 <1>   0.0800 
 36 H       -1.4970    -5.4600     1.7330 H     1 <1>   0.0800 
 37 H       -0.9530    -6.0380    -1.1900 H     1 <1>   0.0800 
 38 H       -2.1410    -6.8540    -0.2110 H     1 <1>   0.0800 
 39 H       -0.3290    -7.6450     1.3030 H     1 <1>   0.0800 
 40 H        0.8510    -6.9280     0.2300 H     1 <1>   0.0800 
@<TRIPOS>BOND
  1   1   2  2   
  2   2   3  1   
  3   2   4  am  
  4   3   5  1   
  5   4   6  1   
  6   4   7  1   
  7   5   8  1   
  8   5   9  1   
  9   5  10  1   
 10   6  11  1   
 11   6  19  1   
 12   6  20  1   
 13   7  12  1   
 14   7  21  1   
 15   7  22  1   
 16   8  23  1   
 17   8  24  1   
 18   8  25  1   
 19   9  26  1   
 20   9  27  1   
 21   9  28  1   
 22  10  29  1   
 23  10  30  1   
 24  10  31  1   
 25  11  13  1   
 26  11  32  1   
 27  11  33  1   
 28  12  13  1   
 29  12  34  1   
 30  12  35  1   
 31  13  14  1   
 32  13  36  1   
 33  14  15  1   
 34  14  37  1   
 35  14  38  1   
 36  15  16  1   
 37  15  39  1   
 38  15  40  1   
 39  16  17  2   
 40  17  18  3   
@<TRIPOS>SUBSTRUCTURE
  1 ****   4 GROUP 4 **** **** 0

# MOE 2024.06 (io_trps.svl 2023.06)
