@<TRIPOS>MOLECULE
NONAME
41 43 1 0 0 
SMALL
USER_CHARGES


@<TRIPOS>ATOM
  1 O        2.7270     0.6860     2.1760 O.3   1 <1>  -0.6800 
  2 C        1.8370    -0.2480     1.6610 C.3   1 <1>   0.2000 
  3 C        2.4820    -1.6240     1.7660 C.3   1 <1>  -0.0800 
  4 C        1.7340    -0.0220     0.1480 C.3   1 <1>   0.3430 
  5 C        3.4800    -1.6120     0.6020 C.3   1 <1>   0.3430 
  6 C        1.4370    -2.7590     1.6770 C.3   1 <1>  -0.0170 
  7 N        2.8910    -0.7540    -0.4760 N.4   1 <1>  -0.9590 
  8 C        2.1060    -4.0860     1.3320 C.ar  1 <1>  -0.1440 
  9 C        3.9400     0.1890    -0.9860 C.3   1 <1>   0.3430 
 10 C        2.1860    -4.5960     0.0110 C.ar  1 <1>   0.0000 
 11 C        2.6890    -4.8140     2.3280 C.ar  1 <1>  -0.1500 
 12 C        3.4780     0.9820    -2.2180 C.3   1 <1>   0.1200 
 13 C        2.9240    -5.7900    -0.1820 C.ar  1 <1>   0.3100 
 14 C        1.5910    -3.9990    -1.1270 C.ar  1 <1>  -0.1500 
 15 C        3.3680    -6.0010     2.0290 C.ar  1 <1>   0.1600 
 16 O        4.5470     1.7400    -2.6600 O.3   1 <1>  -0.6800 
 17 N        3.5030    -6.4750     0.8330 N.ar  1 <1>  -0.6200 
 18 C        3.0730    -6.2960    -1.4830 C.ar  1 <1>  -0.1500 
 19 C        1.7500    -4.5230    -2.3810 C.ar  1 <1>  -0.1500 
 20 C        2.5070    -5.6820    -2.5650 C.ar  1 <1>  -0.1500 
 21 H        2.7090     0.6990     3.1570 H     1 <1>   0.4000 
 22 H        0.8930    -0.1500     2.1700 H     1 <1>   0.0800 
 23 H        3.0160    -1.7380     2.6940 H     1 <1>   0.0800 
 24 H        1.7490     1.0320    -0.0750 H     1 <1>   0.0800 
 25 H        0.8100    -0.4450    -0.2080 H     1 <1>   0.0800 
 26 H        3.7040    -2.6030     0.2440 H     1 <1>   0.0800 
 27 H        4.3960    -1.1630     0.9520 H     1 <1>   0.0800 
 28 H        0.6580    -2.5320     0.9760 H     1 <1>   0.0800 
 29 H        0.9520    -2.8550     2.6340 H     1 <1>   0.0800 
 30 H        2.5760    -1.3620    -1.2430 H     1 <1>   0.4500 
 31 H        4.2110     0.8820    -0.2060 H     1 <1>   0.0800 
 32 H        4.8190    -0.3710    -1.2610 H     1 <1>   0.0800 
 33 H        2.6550    -4.5030     3.3560 H     1 <1>   0.1500 
 34 H        2.6740     1.6540    -1.9730 H     1 <1>   0.0800 
 35 H        3.1890     0.3210    -3.0170 H     1 <1>   0.0800 
 36 H        0.9810    -3.1260    -1.0200 H     1 <1>   0.1500 
 37 H        3.8120    -6.5500     2.8440 H     1 <1>   0.1500 
 38 H        4.3120     2.2850    -3.4420 H     1 <1>   0.4000 
 39 H        3.6500    -7.1960    -1.5990 H     1 <1>   0.1500 
 40 H        1.2910    -4.0670    -3.2420 H     1 <1>   0.1500 
 41 H        2.6290    -6.0860    -3.5560 H     1 <1>   0.1500 
@<TRIPOS>BOND
  1   1   2  1   
  2   1  21  1   
  3   2   3  1   
  4   2   4  1   
  5   2  22  1   
  6   3   5  1   
  7   3   6  1   
  8   3  23  1   
  9   4   7  1   
 10   4  24  1   
 11   4  25  1   
 12   5   7  1   
 13   5  26  1   
 14   5  27  1   
 15   6   8  1   
 16   6  28  1   
 17   6  29  1   
 18   7   9  1   
 19   7  30  1   
 20   8  10  ar  
 21   8  11  ar  
 22   9  12  1   
 23   9  31  1   
 24   9  32  1   
 25  10  13  ar  
 26  10  14  ar  
 27  11  15  ar  
 28  11  33  1   
 29  12  16  1   
 30  12  34  1   
 31  12  35  1   
 32  13  17  ar  
 33  13  18  ar  
 34  14  19  ar  
 35  14  36  1   
 36  15  17  ar  
 37  15  37  1   
 38  16  38  1   
 39  18  20  ar  
 40  18  39  1   
 41  19  20  ar  
 42  19  40  1   
 43  20  41  1   
@<TRIPOS>SUBSTRUCTURE
  1 ****   5 GROUP 4 **** **** 0

# MOE 2024.06 (io_trps.svl 2023.06)
