@<TRIPOS>MOLECULE
NONAME
49 51 1 0 0 
SMALL
USER_CHARGES


@<TRIPOS>ATOM
  1 O       -0.0170     1.3020     1.3970 O.2   1 <1>  -0.5700 
  2 C        0.0360     2.3600     0.8120 C.2   1 <1>   0.5690 
  3 N       -1.0700     3.1620     0.6790 N.am  1 <1>  -0.6600 
  4 C        1.3710     2.7920     0.2120 C.3   1 <1>  -0.0990 
  5 C       -2.3970     2.7470     1.2250 C.3   1 <1>   0.1400 
  6 C       -1.1340     4.4460    -0.0720 C.3   1 <1>   0.1400 
  7 C        2.5300     1.8070     0.4570 C.3   1 <1>  -0.1600 
  8 C       -3.4010     2.5170     0.0810 C.3   1 <1>   0.0000 
  9 C       -2.1020     4.3010    -1.2510 C.3   1 <1>  -0.1600 
 10 C        3.8460     2.2970    -0.1630 C.3   1 <1>   0.0210 
 11 C       -4.7670     2.0890     0.6480 C.3   1 <1>   0.2000 
 12 C       -3.4860     3.7980    -0.7970 C.3   1 <1>  -0.1600 
 13 C       -3.0350     1.2900    -0.7740 C.3   1 <1>  -0.1600 
 14 C        4.9940     1.3310     0.0800 C.2   1 <1>  -0.1810 
 15 O       -5.5130     3.1820     1.0950 O.3   1 <1>  -0.5600 
 16 C       -5.4720     1.3530    -0.4940 C.3   1 <1>  -0.1600 
 17 C       -4.3520     0.7960    -1.3840 C.3   1 <1>  -0.1600 
 18 C        6.3050     1.5110    -0.3550 C.2   1 <1>   0.1390 
 19 C        5.0150     0.1490     0.7330 C.2   1 <1>  -0.3020 
 20 C       -6.6160     2.8610     1.8810 C.3   1 <1>   0.0400 
 21 N        7.0810     0.5300    -0.0080 N.2   1 <1>  -0.7070 
 22 N        6.2780    -0.3140     0.6670 N.pl3 1 <1>   0.3000 
 23 H        1.2340     2.9120    -0.8470 H     1 <1>   0.0800 
 24 H        1.6310     3.7450     0.6340 H     1 <1>   0.0800 
 25 H       -2.3010     1.8520     1.8150 H     1 <1>   0.0800 
 26 H       -2.7660     3.5240     1.8720 H     1 <1>   0.0800 
 27 H       -1.4880     5.2170     0.5920 H     1 <1>   0.0800 
 28 H       -0.1660     4.7420    -0.4340 H     1 <1>   0.0800 
 29 H        2.6640     1.6770     1.5170 H     1 <1>   0.0800 
 30 H        2.2740     0.8490     0.0360 H     1 <1>   0.0800 
 31 H       -2.2140     5.2550    -1.7340 H     1 <1>   0.0800 
 32 H       -1.6780     3.6260    -1.9720 H     1 <1>   0.0800 
 33 H        4.1060     3.2530     0.2570 H     1 <1>   0.0800 
 34 H        3.7190     2.4200    -1.2250 H     1 <1>   0.0800 
 35 H       -4.6090     1.4120     1.4720 H     1 <1>   0.0800 
 36 H       -4.1090     3.6270    -1.6570 H     1 <1>   0.0800 
 37 H       -3.9460     4.5850    -0.2240 H     1 <1>   0.0800 
 38 H       -2.2980     1.5000    -1.5270 H     1 <1>   0.0800 
 39 H       -2.6400     0.5180    -0.1340 H     1 <1>   0.0800 
 40 H       -6.0920     0.5610    -0.1140 H     1 <1>   0.0800 
 41 H       -6.0710     2.0440    -1.0610 H     1 <1>   0.0800 
 42 H       -4.3750    -0.2790    -1.4200 H     1 <1>   0.0800 
 43 H       -4.4610     1.1800    -2.3840 H     1 <1>   0.0800 
 44 H        6.6490     2.3630    -0.9170 H     1 <1>   0.1500 
 45 H        4.2220    -0.3800     1.2290 H     1 <1>   0.1500 
 46 H       -7.0880     3.7780     2.1830 H     1 <1>   0.0800 
 47 H       -6.2870     2.3190     2.7520 H     1 <1>   0.0800 
 48 H       -7.3080     2.2710     1.3060 H     1 <1>   0.0800 
 49 H        6.6220    -1.1940     1.0690 H     1 <1>   0.2700 
@<TRIPOS>BOND
  1   1   2  2   
  2   2   3  am  
  3   2   4  1   
  4   3   5  1   
  5   3   6  1   
  6   4   7  1   
  7   4  23  1   
  8   4  24  1   
  9   5   8  1   
 10   5  25  1   
 11   5  26  1   
 12   6   9  1   
 13   6  27  1   
 14   6  28  1   
 15   7  10  1   
 16   7  29  1   
 17   7  30  1   
 18   8  11  1   
 19   8  12  1   
 20   8  13  1   
 21   9  12  1   
 22   9  31  1   
 23   9  32  1   
 24  10  14  1   
 25  10  33  1   
 26  10  34  1   
 27  11  15  1   
 28  11  16  1   
 29  11  35  1   
 30  12  36  1   
 31  12  37  1   
 32  13  17  1   
 33  13  38  1   
 34  13  39  1   
 35  14  18  1   
 36  14  19  2   
 37  15  20  1   
 38  16  17  1   
 39  16  40  1   
 40  16  41  1   
 41  17  42  1   
 42  17  43  1   
 43  18  21  2   
 44  18  44  1   
 45  19  22  1   
 46  19  45  1   
 47  20  46  1   
 48  20  47  1   
 49  20  48  1   
 50  21  22  1   
 51  22  49  1   
@<TRIPOS>SUBSTRUCTURE
  1 ****   2 GROUP 4 **** **** 0

# MOE 2024.06 (io_trps.svl 2023.06)
