@<TRIPOS>MOLECULE
NONAME
51 52 1 0 0 
SMALL
USER_CHARGES


@<TRIPOS>ATOM
  1 O       -1.8340     1.2750     2.6730 O.2   1 <1>  -0.5700 
  2 C       -2.3050     1.4740     1.5690 C.2   1 <1>   0.5440 
  3 N       -2.9080     0.4340     0.8910 N.am  1 <1>  -0.6600 
  4 C       -2.2110     2.8040     1.0020 C.ar  1 <1>   0.0860 
  5 C       -3.1520    -0.8860     1.5400 C.3   1 <1>   0.1400 
  6 C       -3.1850     0.4500    -0.5740 C.3   1 <1>   0.1400 
  7 C       -1.0010     3.4430     0.8160 C.ar  1 <1>  -0.1500 
  8 C       -3.3280     3.5300     0.6100 C.ar  1 <1>  -0.1500 
  9 C       -2.2980    -1.9610     0.8610 C.3   1 <1>  -0.1600 
 10 C       -2.3350    -0.6160    -1.2720 C.3   1 <1>  -0.1600 
 11 C       -0.9430     4.7090     0.2540 C.ar  1 <1>   0.4100 
 12 C       -3.1760     4.7860     0.0610 C.ar  1 <1>   0.1600 
 13 C       -2.5440    -2.0060    -0.6530 C.3   1 <1>  -0.1600 
 14 N       -2.0160     5.3870    -0.1320 N.ar  1 <1>  -0.6200 
 15 N        0.2800     5.3060     0.0710 N.pl3 1 <1>  -0.8690 
 16 C        0.4000     6.7710    -0.1660 C.3   1 <1>   0.2090 
 17 C        1.8750     7.2350    -0.2710 C.3   1 <1>   0.2800 
 18 O        2.5660     6.7710     0.8440 O.3   1 <1>  -0.6800 
 19 C        1.9410     8.7800    -0.2300 C.3   1 <1>  -0.0220 
 20 C        2.5290     6.6230    -1.5370 C.3   1 <1>  -0.0220 
 21 C        3.3200     9.3600     0.0740 C.2   1 <1>  -0.2880 
 22 C        4.0340     6.8210    -1.6790 C.2   1 <1>  -0.2880 
 23 C        3.6680     9.9260     1.2330 C.2   1 <1>  -0.3000 
 24 C        4.6310     7.4410    -2.7010 C.2   1 <1>  -0.3000 
 25 H       -4.1950    -1.1340     1.4460 H     1 <1>   0.0800 
 26 H       -2.9160    -0.8460     2.5900 H     1 <1>   0.0800 
 27 H       -2.9600     1.4110    -1.0020 H     1 <1>   0.0800 
 28 H       -4.2300     0.2470    -0.7340 H     1 <1>   0.0800 
 29 H       -0.0930     2.9520     1.1070 H     1 <1>   0.1500 
 30 H       -4.3070     3.1070     0.7390 H     1 <1>   0.1500 
 31 H       -2.5230    -2.9190     1.2940 H     1 <1>   0.0800 
 32 H       -1.2610    -1.7490     1.0570 H     1 <1>   0.0800 
 33 H       -1.2980    -0.3380    -1.1930 H     1 <1>   0.0800 
 34 H       -2.5870    -0.6450    -2.3170 H     1 <1>   0.0800 
 35 H       -4.0560     5.3310    -0.2380 H     1 <1>   0.1500 
 36 H       -3.5520    -2.3330    -0.8420 H     1 <1>   0.0800 
 37 H       -1.8730    -2.7130    -1.1100 H     1 <1>   0.0800 
 38 H        1.0290     4.9950     0.7010 H     1 <1>   0.4000 
 39 H       -0.0830     7.2880     0.6460 H     1 <1>   0.0800 
 40 H       -0.1230     7.0260    -1.0710 H     1 <1>   0.0800 
 41 H        3.3700     7.3230     0.9370 H     1 <1>   0.4000 
 42 H        1.2610     9.1280     0.5280 H     1 <1>   0.0800 
 43 H        1.5890     9.1790    -1.1650 H     1 <1>   0.0800 
 44 H        2.0380     7.0270    -2.4030 H     1 <1>   0.0800 
 45 H        2.3390     5.5640    -1.5480 H     1 <1>   0.0800 
 46 H        4.0080     9.2770    -0.7510 H     1 <1>   0.1500 
 47 H        4.5900     6.3910    -0.8620 H     1 <1>   0.1500 
 48 H        4.6440    10.3350     1.4310 H     1 <1>   0.1500 
 49 H        3.0120    10.0300     2.0800 H     1 <1>   0.1500 
 50 H        5.6970     7.5640    -2.7870 H     1 <1>   0.1500 
 51 H        4.1110     7.8750    -3.5380 H     1 <1>   0.1500 
@<TRIPOS>BOND
  1   1   2  2   
  2   2   3  am  
  3   2   4  1   
  4   3   5  1   
  5   3   6  1   
  6   4   7  ar  
  7   4   8  ar  
  8   5   9  1   
  9   5  25  1   
 10   5  26  1   
 11   6  10  1   
 12   6  27  1   
 13   6  28  1   
 14   7  11  ar  
 15   7  29  1   
 16   8  12  ar  
 17   8  30  1   
 18   9  13  1   
 19   9  31  1   
 20   9  32  1   
 21  10  13  1   
 22  10  33  1   
 23  10  34  1   
 24  11  14  ar  
 25  11  15  1   
 26  12  14  ar  
 27  12  35  1   
 28  13  36  1   
 29  13  37  1   
 30  15  16  1   
 31  15  38  1   
 32  16  17  1   
 33  16  39  1   
 34  16  40  1   
 35  17  18  1   
 36  17  19  1   
 37  17  20  1   
 38  18  41  1   
 39  19  21  1   
 40  19  42  1   
 41  19  43  1   
 42  20  22  1   
 43  20  44  1   
 44  20  45  1   
 45  21  23  2   
 46  21  46  1   
 47  22  24  2   
 48  22  47  1   
 49  23  48  1   
 50  23  49  1   
 51  24  50  1   
 52  24  51  1   
@<TRIPOS>SUBSTRUCTURE
  1 ****  11 GROUP 4 **** **** 0

# MOE 2024.06 (io_trps.svl 2023.06)
