@<TRIPOS>MOLECULE
NONAME
59 62 1 0 0 
SMALL
USER_CHARGES


@<TRIPOS>ATOM
  1 O        0.2540    -1.1560    -2.1300 O.2   1 <1>  -0.5700 
  2 C        0.7140    -1.8170    -1.2290 C.2   1 <1>   0.5690 
  3 N        1.7660    -1.3960    -0.4630 N.am  1 <1>  -0.6600 
  4 C        0.0580    -3.1420    -0.9030 C.3   1 <1>  -0.0990 
  5 C        2.3370    -2.2810     0.5980 C.3   1 <1>   0.1400 
  6 C        2.4240    -0.0830    -0.7090 C.3   1 <1>   0.1400 
  7 C        0.9590    -4.3580    -1.1500 C.3   1 <1>   0.1200 
  8 C        2.9850    -3.5860     0.0520 C.3   1 <1>   0.2800 
  9 C        1.8180     1.0030     0.1890 C.3   1 <1>   0.0000 
 10 O        2.3310    -4.0760    -1.0960 O.3   1 <1>  -0.5600 
 11 C        2.9930    -4.6760     1.1460 C.3   1 <1>  -0.1600 
 12 C        4.4210    -3.2960    -0.4450 C.3   1 <1>  -0.1600 
 13 C        2.5610     2.3630     0.1320 C.3   1 <1>   0.0000 
 14 C        2.2050     0.9440     1.6910 C.3   1 <1>   0.0000 
 15 C        4.1190    -5.6820     0.9260 C.3   1 <1>   0.1400 
 16 C        5.4990    -3.5710     0.6070 C.3   1 <1>   0.1400 
 17 C        2.2710     2.4920     1.6500 C.3   1 <1>   0.0000 
 18 N        5.4380    -4.9920     1.0740 N.am  1 <1>  -0.6600 
 19 C        6.5240    -5.7060     1.5310 C.2   1 <1>   0.5690 
 20 O        6.4290    -6.8860     1.7790 O.2   1 <1>  -0.5700 
 21 C        7.8870    -5.0550     1.7820 C.3   1 <1>   0.2010 
 22 N        8.9220    -5.5290     0.8290 N.am  1 <1>  -0.4200 
 23 C        9.9080    -6.4180     1.1500 C.2   1 <1>   0.6900 
 24 C        8.9090    -5.3210    -0.5150 C.2   1 <1>   0.5690 
 25 O       10.1720    -6.7670     2.2820 O.2   1 <1>  -0.5700 
 26 N       10.5780    -6.8320     0.0370 N.am  1 <1>  -0.6600 
 27 O        8.1850    -4.5640    -1.1120 O.2   1 <1>  -0.5700 
 28 C        9.9840    -6.1810    -1.1590 C.3   1 <1>   0.2010 
 29 C       11.6490    -7.8530    -0.0400 C.3   1 <1>   0.0600 
 30 H       -0.8290    -3.2470    -1.4990 H     1 <1>   0.0800 
 31 H       -0.2650    -3.1320     0.1200 H     1 <1>   0.0800 
 32 H        1.5540    -2.5360     1.2890 H     1 <1>   0.0800 
 33 H        3.0710    -1.7410     1.1670 H     1 <1>   0.0800 
 34 H        2.2830     0.1990    -1.7390 H     1 <1>   0.0800 
 35 H        3.4820    -0.1660    -0.5360 H     1 <1>   0.0800 
 36 H        0.7780    -4.7140    -2.1500 H     1 <1>   0.0800 
 37 H        0.7270    -5.1600    -0.4750 H     1 <1>   0.0800 
 38 H        0.7580     1.1310     0.0400 H     1 <1>   0.0000 
 39 H        2.0520    -5.1870     1.1970 H     1 <1>   0.0800 
 40 H        3.1510    -4.2270     2.1100 H     1 <1>   0.0800 
 41 H        4.5010    -2.2800    -0.7810 H     1 <1>   0.0800 
 42 H        4.6450    -3.9200    -1.2940 H     1 <1>   0.0800 
 43 H        2.0670     3.1050    -0.4700 H     1 <1>   0.0000 
 44 H        3.6130     2.2660    -0.0790 H     1 <1>   0.0000 
 45 H        3.1700     0.5010     1.8670 H     1 <1>   0.0000 
 46 H        1.4290     0.5560     2.3270 H     1 <1>   0.0000 
 47 H        4.0490    -6.1120    -0.0600 H     1 <1>   0.0800 
 48 H        4.0360    -6.4770     1.6480 H     1 <1>   0.0800 
 49 H        5.3600    -2.9170     1.4500 H     1 <1>   0.0800 
 50 H        6.4590    -3.3630     0.1700 H     1 <1>   0.0800 
 51 H        1.3200     2.9550     1.8540 H     1 <1>   0.0000 
 52 H        3.0850     2.9090     2.2160 H     1 <1>   0.0000 
 53 H        8.1900    -5.3070     2.7820 H     1 <1>   0.0800 
 54 H        7.8210    -3.9870     1.7240 H     1 <1>   0.0800 
 55 H       10.7080    -5.5730    -1.6700 H     1 <1>   0.0800 
 56 H        9.5460    -6.9090    -1.8180 H     1 <1>   0.0800 
 57 H       11.8900    -8.2040     0.9490 H     1 <1>   0.0800 
 58 H       12.5310    -7.4250    -0.4830 H     1 <1>   0.0800 
 59 H       11.3160    -8.6870    -0.6330 H     1 <1>   0.0800 
@<TRIPOS>BOND
  1   1   2  2   
  2   2   3  am  
  3   2   4  1   
  4   3   5  1   
  5   3   6  1   
  6   4   7  1   
  7   4  30  1   
  8   4  31  1   
  9   5   8  1   
 10   5  32  1   
 11   5  33  1   
 12   6   9  1   
 13   6  34  1   
 14   6  35  1   
 15   7  10  1   
 16   7  36  1   
 17   7  37  1   
 18   8  10  1   
 19   8  11  1   
 20   8  12  1   
 21   9  13  1   
 22   9  14  1   
 23   9  38  1   
 24  11  15  1   
 25  11  39  1   
 26  11  40  1   
 27  12  16  1   
 28  12  41  1   
 29  12  42  1   
 30  13  17  1   
 31  13  43  1   
 32  13  44  1   
 33  14  17  1   
 34  14  45  1   
 35  14  46  1   
 36  15  18  1   
 37  15  47  1   
 38  15  48  1   
 39  16  18  1   
 40  16  49  1   
 41  16  50  1   
 42  17  51  1   
 43  17  52  1   
 44  18  19  am  
 45  19  20  2   
 46  19  21  1   
 47  21  22  1   
 48  21  53  1   
 49  21  54  1   
 50  22  23  am  
 51  22  24  am  
 52  23  25  2   
 53  23  26  am  
 54  24  27  2   
 55  24  28  1   
 56  26  28  1   
 57  26  29  1   
 58  28  55  1   
 59  28  56  1   
 60  29  57  1   
 61  29  58  1   
 62  29  59  1   
@<TRIPOS>SUBSTRUCTURE
  1 ****  16 GROUP 4 **** **** 0

# MOE 2024.06 (io_trps.svl 2023.06)
