@<TRIPOS>MOLECULE
NONAME
48 50 1 0 0 
SMALL
USER_CHARGES


@<TRIPOS>ATOM
  1 S        0.1560     0.6590    -0.3850 S.3   1 <1>  -0.3320 
  2 C        0.1020    -1.1090    -0.6060 C.ar  1 <1>   0.7220 
  3 C        1.3690     0.9010     1.0010 C.3   1 <1>   0.1310 
  4 N        0.8920    -1.8120     0.1910 N.ar  1 <1>  -0.6200 
  5 N       -0.7210    -1.5240    -1.5530 N.ar  1 <1>  -0.6200 
  6 C        1.6720     2.3780     1.2110 C.2   1 <1>   0.5690 
  7 C        0.8350    -3.1110     0.0110 C.ar  1 <1>   0.1660 
  8 C       -0.7520    -2.8280    -1.7070 C.ar  1 <1>   0.1600 
  9 O        1.2960     2.8710     2.2490 O.2   1 <1>  -0.5700 
 10 N        2.3740     3.1130     0.2820 N.am  1 <1>  -0.6600 
 11 C        0.0140    -3.6740    -0.9410 C.ar  1 <1>  -0.1500 
 12 C        1.7130    -3.9670     0.8990 C.3   1 <1>  -0.0970 
 13 C        2.6270     4.5730     0.4830 C.3   1 <1>   0.1400 
 14 C        2.9210     2.5790    -0.9980 C.3   1 <1>   0.1400 
 15 C        4.1330     4.8660     0.4480 C.3   1 <1>   0.1000 
 16 C        4.4310     2.8350    -1.0530 C.3   1 <1>  -0.1600 
 17 C        4.3630     6.3610     0.6320 C.2   1 <1>   0.2980 
 18 C        4.7600     4.3230    -0.8530 C.3   1 <1>  -0.1600 
 19 O        4.1470     6.8740     1.8170 O.3   1 <1>  -0.0190 
 20 N        4.7450     7.1890    -0.2580 N.2   1 <1>  -0.5650 
 21 N        4.4140     8.1350     1.6690 N.2   1 <1>  -0.4100 
 22 C        4.7630     8.3080     0.4550 C.2   1 <1>   0.3350 
 23 C        5.1660     9.6370    -0.1880 C.3   1 <1>   0.1010 
 24 C        5.7290    10.6390     0.8330 C.3   1 <1>  -0.2400 
 25 C        3.9760    10.2580    -0.9330 C.3   1 <1>  -0.2400 
 26 H        2.2640     0.3620     0.7580 H     1 <1>   0.0800 
 27 H        0.9220     0.4810     1.8830 H     1 <1>   0.0800 
 28 H       -1.4070    -3.2290    -2.4630 H     1 <1>   0.1500 
 29 H       -0.0310    -4.7370    -1.0860 H     1 <1>   0.1500 
 30 H        1.4540    -3.8000     1.9290 H     1 <1>   0.0800 
 31 H        2.7430    -3.6990     0.7530 H     1 <1>   0.0800 
 32 H        1.5900    -5.0110     0.6750 H     1 <1>   0.0800 
 33 H        2.2190     4.9040     1.4230 H     1 <1>   0.0800 
 34 H        2.1330     5.1240    -0.2990 H     1 <1>   0.0800 
 35 H        2.4340     3.0770    -1.8200 H     1 <1>   0.0800 
 36 H        2.7370     1.5250    -1.0980 H     1 <1>   0.0800 
 37 H        4.5870     4.3660     1.2840 H     1 <1>   0.0800 
 38 H        4.8100     2.5080    -2.0050 H     1 <1>   0.0800 
 39 H        4.9130     2.2480    -0.2900 H     1 <1>   0.0800 
 40 H        5.8280     4.4600    -0.8230 H     1 <1>   0.0800 
 41 H        4.3800     4.8810    -1.6920 H     1 <1>   0.0800 
 42 H        5.9400     9.4240    -0.9040 H     1 <1>   0.0800 
 43 H        4.9790    10.8970     1.5590 H     1 <1>   0.0800 
 44 H        6.0580    11.5350     0.3380 H     1 <1>   0.0800 
 45 H        6.5670    10.2040     1.3480 H     1 <1>   0.0800 
 46 H        3.1790    10.4750    -0.2440 H     1 <1>   0.0800 
 47 H        3.6100     9.5710    -1.6750 H     1 <1>   0.0800 
 48 H        4.2720    11.1680    -1.4230 H     1 <1>   0.0800 
@<TRIPOS>BOND
  1   1   2  1   
  2   1   3  1   
  3   2   4  ar  
  4   2   5  ar  
  5   3   6  1   
  6   3  26  1   
  7   3  27  1   
  8   4   7  ar  
  9   5   8  ar  
 10   6   9  2   
 11   6  10  am  
 12   7  11  ar  
 13   7  12  1   
 14   8  11  ar  
 15   8  28  1   
 16  10  13  1   
 17  10  14  1   
 18  11  29  1   
 19  12  30  1   
 20  12  31  1   
 21  12  32  1   
 22  13  15  1   
 23  13  33  1   
 24  13  34  1   
 25  14  16  1   
 26  14  35  1   
 27  14  36  1   
 28  15  17  1   
 29  15  18  1   
 30  15  37  1   
 31  16  18  1   
 32  16  38  1   
 33  16  39  1   
 34  17  19  1   
 35  17  20  2   
 36  18  40  1   
 37  18  41  1   
 38  19  21  1   
 39  20  22  1   
 40  21  22  2   
 41  22  23  1   
 42  23  24  1   
 43  23  25  1   
 44  23  42  1   
 45  24  43  1   
 46  24  44  1   
 47  24  45  1   
 48  25  46  1   
 49  25  47  1   
 50  25  48  1   
@<TRIPOS>SUBSTRUCTURE
  1 ****  10 GROUP 4 **** **** 0

# MOE 2024.06 (io_trps.svl 2023.06)
