@<TRIPOS>MOLECULE
NONAME
56 59 1 0 0 
SMALL
USER_CHARGES


@<TRIPOS>ATOM
  1 CL       2.1220    -4.2780     1.5160 Cl    1 <1>  -0.1770 
  2 C        0.6020    -4.3820     0.6540 C.ar  1 <1>   0.1770 
  3 C       -0.3910    -3.4000     0.8690 C.ar  1 <1>   0.3100 
  4 C        0.4320    -5.4270    -0.2120 C.ar  1 <1>  -0.1500 
  5 N       -0.1570    -2.3660     1.7200 N.ar  1 <1>  -0.6200 
  6 C       -1.6110    -3.5380     0.1670 C.ar  1 <1>   0.0000 
  7 C       -0.7650    -5.5430    -0.9200 C.ar  1 <1>  -0.1500 
  8 C       -1.0840    -1.4770     1.8770 C.ar  1 <1>   0.1670 
  9 C       -2.6270    -2.5760     0.3960 C.ar  1 <1>   0.0860 
 10 C       -1.7560    -4.6180    -0.7350 C.ar  1 <1>  -0.1500 
 11 C       -2.3230    -1.5410     1.2400 C.ar  1 <1>  -0.1500 
 12 C       -0.7780    -0.3260     2.8110 C.3   1 <1>  -0.0960 
 13 C       -3.9340    -2.6690    -0.2170 C.2   1 <1>   0.5440 
 14 O       -4.2860    -1.7920    -0.9830 O.2   1 <1>  -0.5700 
 15 N       -4.7990    -3.7110     0.0610 N.am  1 <1>  -0.6600 
 16 C       -6.0360    -3.8810    -0.7580 C.3   1 <1>   0.2200 
 17 C       -4.5850    -4.6190     1.2310 C.3   1 <1>   0.0600 
 18 C       -7.2770    -3.3390    -0.0570 C.3   1 <1>  -0.1600 
 19 C       -6.3890    -5.3290    -1.1020 C.3   1 <1>  -0.1600 
 20 C       -8.4460    -4.0160    -0.7840 C.3   1 <1>  -0.0800 
 21 C       -7.8790    -5.2680    -1.4650 C.3   1 <1>  -0.0800 
 22 C       -9.5860    -4.5110     0.1160 C.3   1 <1>  -0.1600 
 23 C       -8.7320    -6.4420    -0.9600 C.3   1 <1>  -0.1600 
 24 C      -10.0620    -5.8200    -0.5210 C.3   1 <1>   0.4230 
 25 N      -10.9350    -5.5480    -1.7100 N.4   1 <1>  -0.9590 
 26 C      -12.1810    -4.7950    -1.3550 C.3   1 <1>   0.2630 
 27 C      -11.3270    -6.7980    -2.4380 C.3   1 <1>   0.2630 
 28 H        1.2120    -6.1540    -0.3510 H     1 <1>   0.1500 
 29 H       -0.8920    -6.3620    -1.6100 H     1 <1>   0.1500 
 30 H       -2.6710    -4.7130    -1.2960 H     1 <1>   0.1500 
 31 H       -3.0510    -0.7710     1.4180 H     1 <1>   0.1500 
 32 H       -1.5950     0.3700     2.8570 H     1 <1>   0.0800 
 33 H        0.0990     0.1910     2.4660 H     1 <1>   0.0800 
 34 H       -0.5870    -0.7060     3.7980 H     1 <1>   0.0800 
 35 H       -5.9260    -3.3500    -1.6910 H     1 <1>   0.0800 
 36 H       -5.5190    -4.8310     1.7190 H     1 <1>   0.0800 
 37 H       -3.9300    -4.1640     1.9540 H     1 <1>   0.0800 
 38 H       -4.1440    -5.5420     0.8970 H     1 <1>   0.0800 
 39 H       -7.2600    -3.6110     0.9820 H     1 <1>   0.0800 
 40 H       -7.3230    -2.2670    -0.1420 H     1 <1>   0.0800 
 41 H       -5.7950    -5.6850    -1.9250 H     1 <1>   0.0800 
 42 H       -6.2430    -5.9680    -0.2530 H     1 <1>   0.0800 
 43 H       -8.8280    -3.3500    -1.5410 H     1 <1>   0.0800 
 44 H       -7.9820    -5.1600    -2.5330 H     1 <1>   0.0800 
 45 H      -10.3480    -3.7680     0.2590 H     1 <1>   0.0800 
 46 H       -9.1930    -4.7540     1.0890 H     1 <1>   0.0800 
 47 H       -8.2760    -6.8660    -0.0820 H     1 <1>   0.0800 
 48 H       -8.8150    -7.2290    -1.6850 H     1 <1>   0.0800 
 49 H      -10.5770    -6.4440     0.1920 H     1 <1>   0.0800 
 50 H      -10.3720    -4.9630    -2.3440 H     1 <1>   0.4500 
 51 H      -12.7470    -5.3350    -0.6130 H     1 <1>   0.0800 
 52 H      -12.7980    -4.6620    -2.2290 H     1 <1>   0.0800 
 53 H      -11.9410    -3.8200    -0.9650 H     1 <1>   0.0800 
 54 H      -11.8390    -7.4740    -1.7730 H     1 <1>   0.0800 
 55 H      -10.4600    -7.2960    -2.8380 H     1 <1>   0.0800 
 56 H      -11.9830    -6.5600    -3.2590 H     1 <1>   0.0800 
@<TRIPOS>BOND
  1   1   2  1   
  2   2   3  ar  
  3   2   4  ar  
  4   3   5  ar  
  5   3   6  ar  
  6   4   7  ar  
  7   4  28  1   
  8   5   8  ar  
  9   6   9  ar  
 10   6  10  ar  
 11   7  10  ar  
 12   7  29  1   
 13   8  11  ar  
 14   8  12  1   
 15   9  11  ar  
 16   9  13  1   
 17  10  30  1   
 18  11  31  1   
 19  12  32  1   
 20  12  33  1   
 21  12  34  1   
 22  13  14  2   
 23  13  15  am  
 24  15  16  1   
 25  15  17  1   
 26  16  18  1   
 27  16  19  1   
 28  16  35  1   
 29  17  36  1   
 30  17  37  1   
 31  17  38  1   
 32  18  20  1   
 33  18  39  1   
 34  18  40  1   
 35  19  21  1   
 36  19  41  1   
 37  19  42  1   
 38  20  21  1   
 39  20  22  1   
 40  20  43  1   
 41  21  23  1   
 42  21  44  1   
 43  22  24  1   
 44  22  45  1   
 45  22  46  1   
 46  23  24  1   
 47  23  47  1   
 48  23  48  1   
 49  24  25  1   
 50  24  49  1   
 51  25  26  1   
 52  25  27  1   
 53  25  50  1   
 54  26  51  1   
 55  26  52  1   
 56  26  53  1   
 57  27  54  1   
 58  27  55  1   
 59  27  56  1   
@<TRIPOS>SUBSTRUCTURE
  1 ****  15 GROUP 4 **** **** 0

# MOE 2024.06 (io_trps.svl 2023.06)
