@<TRIPOS>MOLECULE
NONAME
51 54 1 0 0 
SMALL
USER_CHARGES


@<TRIPOS>ATOM
  1 O       -1.2020     0.8120    -2.0980 O.2   1 <1>  -0.5700 
  2 C       -1.2770     1.4610    -1.0680 C.2   1 <1>   0.7160 
  3 N       -2.0730     0.9790    -0.0450 N.am  1 <1>  -0.6600 
  4 C       -0.5630     2.7160    -0.9580 C.2   1 <1>  -0.0860 
  5 C       -2.6080    -0.4110    -0.1090 C.3   1 <1>   0.1400 
  6 C       -2.5510     1.8500     1.0680 C.3   1 <1>   0.1400 
  7 C        0.3080     3.1800     0.0030 C.2   1 <1>  -0.3320 
  8 C       -0.6540     3.7570    -1.9030 C.2   1 <1>  -0.1500 
  9 C       -3.8880    -0.4780    -0.9580 C.3   1 <1>   0.1400 
 10 C       -4.0630     1.7560     1.3230 C.3   1 <1>  -0.1600 
 11 N        0.7180     4.4310    -0.3090 N.pl3 1 <1>   0.0330 
 12 C        0.8160     2.4610     1.2420 C.3   1 <1>  -0.0600 
 13 C        0.1260     4.7810    -1.4790 C.2   1 <1>  -0.3020 
 14 N       -5.0610     0.1320    -0.2530 N.am  1 <1>  -0.6600 
 15 C       -4.9130     1.5830     0.0590 C.3   1 <1>   0.1400 
 16 C       -6.1920    -0.5470     0.1520 C.2   1 <1>   0.5690 
 17 O       -7.0110    -0.0040     0.8600 O.2   1 <1>  -0.5700 
 18 C       -6.4320    -2.0100    -0.2560 C.3   1 <1>   0.1240 
 19 C       -7.8680    -2.5030    -0.2190 C.ar  1 <1>  -0.1430 
 20 C       -5.7100    -3.0130     0.6720 C.3   1 <1>  -0.1600 
 21 C       -7.9440    -3.7690     0.3100 C.ar  1 <1>  -0.1430 
 22 C       -9.0120    -1.8550    -0.6500 C.ar  1 <1>  -0.1500 
 23 C       -6.5850    -4.2770     0.7190 C.3   1 <1>  -0.0170 
 24 C       -9.1580    -4.4220     0.4190 C.ar  1 <1>  -0.1500 
 25 C      -10.2340    -2.5000    -0.5450 C.ar  1 <1>  -0.1500 
 26 C      -10.3070    -3.7790    -0.0130 C.ar  1 <1>  -0.1500 
 27 H       -2.7990    -0.7860     0.8810 H     1 <1>   0.0800 
 28 H       -1.8650    -1.0460    -0.5600 H     1 <1>   0.0800 
 29 H       -2.3220     2.8770     0.8380 H     1 <1>   0.0800 
 30 H       -2.0210     1.5940     1.9690 H     1 <1>   0.0800 
 31 H       -1.2500     3.7050    -2.7980 H     1 <1>   0.1500 
 32 H       -4.0740    -1.5080    -1.1880 H     1 <1>   0.0800 
 33 H       -3.7250     0.0320    -1.8920 H     1 <1>   0.0800 
 34 H       -4.3630     2.6670     1.8080 H     1 <1>   0.0800 
 35 H       -4.2760     0.9590     2.0130 H     1 <1>   0.0800 
 36 H        1.3760     5.0100     0.2260 H     1 <1>   0.2700 
 37 H        0.4630     1.4460     1.2620 H     1 <1>   0.0800 
 38 H        0.4770     2.9640     2.1300 H     1 <1>   0.0800 
 39 H        1.8920     2.4410     1.2400 H     1 <1>   0.0800 
 40 H        0.2960     5.7330    -1.9500 H     1 <1>   0.1500 
 41 H       -4.4710     2.1010    -0.7750 H     1 <1>   0.0800 
 42 H       -5.8850     2.0150     0.2270 H     1 <1>   0.0800 
 43 H       -6.1050    -2.1500    -1.2680 H     1 <1>   0.0800 
 44 H       -5.6680    -2.5940     1.6630 H     1 <1>   0.0800 
 45 H       -4.7110    -3.2300     0.3400 H     1 <1>   0.0800 
 46 H       -8.9530    -0.8600    -1.0550 H     1 <1>   0.1500 
 47 H       -6.6050    -4.7080     1.7050 H     1 <1>   0.0800 
 48 H       -6.2460    -5.0070     0.0050 H     1 <1>   0.0800 
 49 H       -9.2100    -5.4120     0.8350 H     1 <1>   0.1500 
 50 H      -11.1300    -2.0040    -0.8740 H     1 <1>   0.1500 
 51 H      -11.2590    -4.2730     0.0660 H     1 <1>   0.1500 
@<TRIPOS>BOND
  1   1   2  2   
  2   2   3  am  
  3   2   4  1   
  4   3   5  1   
  5   3   6  1   
  6   4   7  2   
  7   4   8  1   
  8   5   9  1   
  9   5  27  1   
 10   5  28  1   
 11   6  10  1   
 12   6  29  1   
 13   6  30  1   
 14   7  11  1   
 15   7  12  1   
 16   8  13  2   
 17   8  31  1   
 18   9  14  1   
 19   9  32  1   
 20   9  33  1   
 21  10  15  1   
 22  10  34  1   
 23  10  35  1   
 24  11  13  1   
 25  11  36  1   
 26  12  37  1   
 27  12  38  1   
 28  12  39  1   
 29  13  40  1   
 30  14  15  1   
 31  14  16  am  
 32  15  41  1   
 33  15  42  1   
 34  16  17  2   
 35  16  18  1   
 36  18  19  1   
 37  18  20  1   
 38  18  43  1   
 39  19  21  ar  
 40  19  22  ar  
 41  20  23  1   
 42  20  44  1   
 43  20  45  1   
 44  21  23  1   
 45  21  24  ar  
 46  22  25  ar  
 47  22  46  1   
 48  23  47  1   
 49  23  48  1   
 50  24  26  ar  
 51  24  49  1   
 52  25  26  ar  
 53  25  50  1   
 54  26  51  1   
@<TRIPOS>SUBSTRUCTURE
  1 ****  14 GROUP 4 **** **** 0

# MOE 2024.06 (io_trps.svl 2023.06)
