@<TRIPOS>MOLECULE
NONAME
41 43 1 0 0 
SMALL
USER_CHARGES


@<TRIPOS>ATOM
  1 O        0.0060    -0.5950     0.7870 O.3   1 <1>  -0.5600 
  2 C        0.8810     0.0450    -0.0970 C.3   1 <1>   0.1200 
  3 C       -1.2530     0.0140     0.7670 C.3   1 <1>   0.1200 
  4 C        0.2940     1.4290    -0.3560 C.3   1 <1>   0.2890 
  5 C       -1.1930     1.1250    -0.2840 C.3   1 <1>  -0.0800 
  6 N        0.6980     2.3490     0.7320 N.pl3 1 <1>  -0.8690 
  7 C       -2.1080     2.3270     0.0140 C.3   1 <1>  -0.0170 
  8 C        1.2000     3.5910     0.5690 C.ar  1 <1>   0.7200 
  9 C       -3.5710     1.9100     0.0130 C.ar  1 <1>  -0.1440 
 10 N        1.0020     4.1970    -0.5960 N.ar  1 <1>  -0.6200 
 11 N        1.8380     4.0620     1.6260 N.ar  1 <1>  -0.6200 
 12 C       -4.2840     1.7570    -1.1590 C.ar  1 <1>  -0.1500 
 13 C       -4.2600     1.6610     1.1820 C.ar  1 <1>  -0.1500 
 14 C        1.5030     5.4050    -0.6930 C.ar  1 <1>   0.1600 
 15 C        2.3270     5.2720     1.4960 C.ar  1 <1>   0.1600 
 16 C       -5.6130     1.3670    -1.1060 C.ar  1 <1>   0.1600 
 17 C       -5.5890     1.2760     1.1250 C.ar  1 <1>   0.1600 
 18 C        2.1890     6.0060     0.3390 C.ar  1 <1>  -0.1440 
 19 N       -6.2820     1.1210     0.0080 N.ar  1 <1>  -0.6200 
 20 C        2.7630     7.4080     0.2080 C.3   1 <1>  -0.0170 
 21 C        1.7350     8.4520     0.6480 C.3   1 <1>  -0.2400 
 22 H        1.8660     0.0880     0.3320 H     1 <1>   0.0800 
 23 H        0.9010    -0.5300    -1.0060 H     1 <1>   0.0800 
 24 H       -2.0010    -0.7240     0.5350 H     1 <1>   0.0800 
 25 H       -1.4300     0.4180     1.7490 H     1 <1>   0.0800 
 26 H        0.5900     1.8120    -1.3180 H     1 <1>   0.0800 
 27 H       -1.4900     0.6960    -1.2240 H     1 <1>   0.0800 
 28 H        0.9470     1.9090     1.6170 H     1 <1>   0.4000 
 29 H       -1.9500     3.0880    -0.7310 H     1 <1>   0.0800 
 30 H       -1.8620     2.7600     0.9680 H     1 <1>   0.0800 
 31 H       -3.8190     1.9370    -2.1110 H     1 <1>   0.1500 
 32 H       -3.7760     1.7620     2.1360 H     1 <1>   0.1500 
 33 H        1.3620     5.9320    -1.6210 H     1 <1>   0.1500 
 34 H        2.8510     5.6920     2.3380 H     1 <1>   0.1500 
 35 H       -6.1530     1.2530    -2.0300 H     1 <1>   0.1500 
 36 H       -6.1090     1.0860     2.0480 H     1 <1>   0.1500 
 37 H        3.6490     7.4970     0.8130 H     1 <1>   0.0800 
 38 H        3.0470     7.5910    -0.8150 H     1 <1>   0.0800 
 39 H        1.4560     8.2930     1.6750 H     1 <1>   0.0800 
 40 H        0.8510     8.3880     0.0380 H     1 <1>   0.0800 
 41 H        2.1480     9.4410     0.5530 H     1 <1>   0.0800 
@<TRIPOS>BOND
  1   1   2  1   
  2   1   3  1   
  3   2   4  1   
  4   2  22  1   
  5   2  23  1   
  6   3   5  1   
  7   3  24  1   
  8   3  25  1   
  9   4   5  1   
 10   4   6  1   
 11   4  26  1   
 12   5   7  1   
 13   5  27  1   
 14   6   8  1   
 15   6  28  1   
 16   7   9  1   
 17   7  29  1   
 18   7  30  1   
 19   8  10  ar  
 20   8  11  ar  
 21   9  12  ar  
 22   9  13  ar  
 23  10  14  ar  
 24  11  15  ar  
 25  12  16  ar  
 26  12  31  1   
 27  13  17  ar  
 28  13  32  1   
 29  14  18  ar  
 30  14  33  1   
 31  15  18  ar  
 32  15  34  1   
 33  16  19  ar  
 34  16  35  1   
 35  17  19  ar  
 36  17  36  1   
 37  18  20  1   
 38  20  21  1   
 39  20  37  1   
 40  20  38  1   
 41  21  39  1   
 42  21  40  1   
 43  21  41  1   
@<TRIPOS>SUBSTRUCTURE
  1 ****   7 GROUP 4 **** **** 0

# MOE 2024.06 (io_trps.svl 2023.06)
