@<TRIPOS>MOLECULE
NONAME
41 43 1 0 0 
SMALL
USER_CHARGES


@<TRIPOS>ATOM
  1 O       -0.3960     0.6300    -0.0250 O.2   1 <1>  -0.5700 
  2 C       -0.3010     1.8160     0.1620 C.2   1 <1>   0.5690 
  3 N       -1.3380     2.5200     0.6650 N.am  1 <1>  -0.7300 
  4 C        0.9900     2.5520    -0.2090 C.3   1 <1>   0.1810 
  5 C       -1.3010     3.9830     0.9090 C.3   1 <1>   0.3640 
  6 O        1.0980     3.8230     0.3940 O.3   1 <1>  -0.5600 
  7 C       -2.5850     4.5980     0.3540 C.ar  1 <1>  -0.1440 
  8 C       -0.0540     4.6470     0.2660 C.3   1 <1>   0.2610 
  9 C       -3.2710     5.5470     1.0990 C.ar  1 <1>  -0.1500 
 10 C       -3.0830     4.2350    -0.8920 C.ar  1 <1>  -0.1500 
 11 C        0.2130     6.0510     0.8420 C.2   1 <1>   0.5690 
 12 C       -4.4310     6.1230     0.6110 C.ar  1 <1>  -0.1500 
 13 C       -4.2440     4.8090    -1.3810 C.ar  1 <1>  -0.1500 
 14 O       -0.2840     6.3400     1.9100 O.2   1 <1>  -0.5700 
 15 N        0.9890     6.9630     0.1580 N.am  1 <1>  -0.6600 
 16 C       -4.9190     5.7540    -0.6290 C.ar  1 <1>  -0.1500 
 17 C        1.8000     6.6530    -1.0540 C.3   1 <1>   0.1400 
 18 C        1.2080     8.3410     0.6830 C.3   1 <1>   0.1400 
 19 C        3.2880     6.8200    -0.7290 C.3   1 <1>  -0.1600 
 20 C        2.6890     8.5300     1.0270 C.3   1 <1>  -0.1600 
 21 C        3.5940     8.2180    -0.1740 C.3   1 <1>  -0.1600 
 22 H       -2.2010     2.0320     0.9050 H     1 <1>   0.3700 
 23 H        1.0350     2.6770    -1.2750 H     1 <1>   0.0800 
 24 H        1.8340     1.9670     0.1080 H     1 <1>   0.0800 
 25 H       -1.2690     4.1310     1.9750 H     1 <1>   0.0800 
 26 H       -0.2500     4.7610    -0.7840 H     1 <1>   0.0800 
 27 H       -2.9010     5.8510     2.0650 H     1 <1>   0.1500 
 28 H       -2.5740     3.5000    -1.4920 H     1 <1>   0.1500 
 29 H       -4.9520     6.8590     1.1980 H     1 <1>   0.1500 
 30 H       -4.6230     4.5210    -2.3460 H     1 <1>   0.1500 
 31 H       -5.8210     6.2020    -1.0080 H     1 <1>   0.1500 
 32 H        1.6280     5.6520    -1.4010 H     1 <1>   0.0800 
 33 H        1.5220     7.3320    -1.8430 H     1 <1>   0.0800 
 34 H        0.9120     9.0530    -0.0690 H     1 <1>   0.0800 
 35 H        0.6090     8.5190     1.5600 H     1 <1>   0.0800 
 36 H        3.5670     6.0730    -0.0050 H     1 <1>   0.0800 
 37 H        3.8690     6.6490    -1.6170 H     1 <1>   0.0800 
 38 H        2.8520     9.5430     1.3510 H     1 <1>   0.0800 
 39 H        2.9360     7.8790     1.8480 H     1 <1>   0.0800 
 40 H        3.4290     8.9520    -0.9440 H     1 <1>   0.0800 
 41 H        4.6260     8.2740     0.1250 H     1 <1>   0.0800 
@<TRIPOS>BOND
  1   1   2  2   
  2   2   3  am  
  3   2   4  1   
  4   3   5  1   
  5   3  22  1   
  6   4   6  1   
  7   4  23  1   
  8   4  24  1   
  9   5   7  1   
 10   5   8  1   
 11   5  25  1   
 12   6   8  1   
 13   7   9  ar  
 14   7  10  ar  
 15   8  11  1   
 16   8  26  1   
 17   9  12  ar  
 18   9  27  1   
 19  10  13  ar  
 20  10  28  1   
 21  11  14  2   
 22  11  15  am  
 23  12  16  ar  
 24  12  29  1   
 25  13  16  ar  
 26  13  30  1   
 27  15  17  1   
 28  15  18  1   
 29  16  31  1   
 30  17  19  1   
 31  17  32  1   
 32  17  33  1   
 33  18  20  1   
 34  18  34  1   
 35  18  35  1   
 36  19  21  1   
 37  19  36  1   
 38  19  37  1   
 39  20  21  1   
 40  20  38  1   
 41  20  39  1   
 42  21  40  1   
 43  21  41  1   
@<TRIPOS>SUBSTRUCTURE
  1 ****   8 GROUP 4 **** **** 0

# MOE 2024.06 (io_trps.svl 2023.06)
