@<TRIPOS>MOLECULE
NONAME
56 59 1 0 0 
SMALL
USER_CHARGES


@<TRIPOS>ATOM
  1 O       -0.8890     0.6000    -2.7210 O.2   1 <1>  -0.5700 
  2 C       -1.6090     0.9710    -1.8200 C.2   1 <1>   0.5690 
  3 N       -2.8610     0.4280    -1.6320 N.am  1 <1>  -0.6600 
  4 C       -1.0450     2.0310    -0.8680 C.3   1 <1>   0.1810 
  5 C       -3.3770    -0.6680    -2.4980 C.3   1 <1>   0.1400 
  6 C       -3.8280     0.8530    -0.5850 C.3   1 <1>   0.1400 
  7 O       -1.7680     3.2430    -0.9090 O.3   1 <1>  -0.5600 
  8 C       -3.6940    -1.8890    -1.6300 C.3   1 <1>  -0.1600 
  9 C       -4.1430    -0.3390     0.3200 C.3   1 <1>  -0.1600 
 10 C       -1.4960     4.1460     0.1270 C.3   1 <1>   0.1200 
 11 C       -4.6620    -1.5510    -0.4810 C.3   1 <1>   0.4240 
 12 C       -0.0670     4.7180     0.0650 C.3   1 <1>   0.2000 
 13 O       -5.8340    -1.1270    -1.1450 O.3   1 <1>  -0.5600 
 14 C       -4.9330    -2.7900     0.4230 C.ar  1 <1>  -0.1440 
 15 O        0.8580     3.8050     0.5650 O.3   1 <1>  -0.5600 
 16 C        0.1360     5.9490     0.9380 C.3   1 <1>  -0.1600 
 17 C       -7.0330    -1.1690    -0.4440 C.3   1 <1>   0.1200 
 18 C       -3.9110    -3.4300     1.1390 C.ar  1 <1>   0.0820 
 19 C       -6.2280    -3.2950     0.5380 C.ar  1 <1>  -0.1430 
 20 C        2.0290     4.4660     0.9220 C.3   1 <1>   0.1200 
 21 C        1.6190     5.8950     1.2700 C.3   1 <1>  -0.1600 
 22 C       -7.3770    -2.6280    -0.1890 C.3   1 <1>  -0.0170 
 23 O       -2.6450    -2.9410     1.0610 O.3   1 <1>  -0.3630 
 24 C       -4.1960    -4.5460     1.9240 C.ar  1 <1>  -0.1500 
 25 C       -6.4980    -4.4060     1.3190 C.ar  1 <1>  -0.1500 
 26 C       -1.5310    -3.6080     1.6100 C.3   1 <1>   0.0400 
 27 C       -5.4830    -5.0330     2.0110 C.ar  1 <1>  -0.1500 
 28 H       -0.0290     2.2370    -1.1500 H     1 <1>   0.0800 
 29 H       -1.0590     1.6470     0.1350 H     1 <1>   0.0800 
 30 H       -2.6530    -0.9360    -3.2480 H     1 <1>   0.0800 
 31 H       -4.2660    -0.3290    -3.0010 H     1 <1>   0.0800 
 32 H       -4.7280     1.2020    -1.0630 H     1 <1>   0.0800 
 33 H       -3.4380     1.6590     0.0070 H     1 <1>   0.0800 
 34 H       -2.7640    -2.2630    -1.2520 H     1 <1>   0.0800 
 35 H       -4.1260    -2.6640    -2.2350 H     1 <1>   0.0800 
 36 H       -4.8600    -0.0570     1.0670 H     1 <1>   0.0800 
 37 H       -3.2410    -0.5960     0.8390 H     1 <1>   0.0800 
 38 H       -1.6750     3.6670     1.0740 H     1 <1>   0.0800 
 39 H       -2.1990     4.9520     0.0160 H     1 <1>   0.0800 
 40 H        0.1990     4.9420    -0.9540 H     1 <1>   0.0800 
 41 H       -0.4460     5.8580     1.8380 H     1 <1>   0.0800 
 42 H       -0.1410     6.8510     0.4230 H     1 <1>   0.0800 
 43 H       -7.7880    -0.7030    -1.0520 H     1 <1>   0.0800 
 44 H       -6.9300    -0.6240     0.4770 H     1 <1>   0.0800 
 45 H        2.6970     4.4440     0.0780 H     1 <1>   0.0800 
 46 H        2.4720     3.9520     1.7580 H     1 <1>   0.0800 
 47 H        1.8000     6.1070     2.3090 H     1 <1>   0.0800 
 48 H        2.1800     6.5890     0.6680 H     1 <1>   0.0800 
 49 H       -7.5530    -3.1250    -1.1260 H     1 <1>   0.0800 
 50 H       -8.2750    -2.6810     0.3990 H     1 <1>   0.0800 
 51 H       -3.4310    -5.0510     2.4790 H     1 <1>   0.1500 
 52 H       -7.5020    -4.7890     1.3920 H     1 <1>   0.1500 
 53 H       -0.6480    -3.0550     1.3450 H     1 <1>   0.0800 
 54 H       -1.4790    -4.5990     1.1960 H     1 <1>   0.0800 
 55 H       -1.6340    -3.6390     2.6800 H     1 <1>   0.0800 
 56 H       -5.6970    -5.8970     2.6170 H     1 <1>   0.1500 
@<TRIPOS>BOND
  1   1   2  2   
  2   2   3  am  
  3   2   4  1   
  4   3   5  1   
  5   3   6  1   
  6   4   7  1   
  7   4  28  1   
  8   4  29  1   
  9   5   8  1   
 10   5  30  1   
 11   5  31  1   
 12   6   9  1   
 13   6  32  1   
 14   6  33  1   
 15   7  10  1   
 16   8  11  1   
 17   8  34  1   
 18   8  35  1   
 19   9  11  1   
 20   9  36  1   
 21   9  37  1   
 22  10  12  1   
 23  10  38  1   
 24  10  39  1   
 25  11  13  1   
 26  11  14  1   
 27  12  15  1   
 28  12  16  1   
 29  12  40  1   
 30  13  17  1   
 31  14  18  ar  
 32  14  19  ar  
 33  15  20  1   
 34  16  21  1   
 35  16  41  1   
 36  16  42  1   
 37  17  22  1   
 38  17  43  1   
 39  17  44  1   
 40  18  23  1   
 41  18  24  ar  
 42  19  22  1   
 43  19  25  ar  
 44  20  21  1   
 45  20  45  1   
 46  20  46  1   
 47  21  47  1   
 48  21  48  1   
 49  22  49  1   
 50  22  50  1   
 51  23  26  1   
 52  24  27  ar  
 53  24  51  1   
 54  25  27  ar  
 55  25  52  1   
 56  26  53  1   
 57  26  54  1   
 58  26  55  1   
 59  27  56  1   
@<TRIPOS>SUBSTRUCTURE
  1 ****   9 GROUP 4 **** **** 0

# MOE 2024.06 (io_trps.svl 2023.06)
