@<TRIPOS>MOLECULE
NONAME
39 41 1 0 0 
SMALL
USER_CHARGES


@<TRIPOS>ATOM
  1 O       -0.6020     0.1490     0.5030 O.2   1 <1>  -0.5700 
  2 C       -1.6120     0.8010     0.3130 C.2   1 <1>   0.6160 
  3 N       -2.8130     0.1300     0.2170 N.am  1 <1>  -0.6600 
  4 C       -1.5220     2.2360     0.1830 C.2   1 <1>   0.0140 
  5 C       -4.0370     0.6590    -0.4430 C.3   1 <1>   0.1400 
  6 C       -2.9020    -1.3510     0.3300 C.3   1 <1>   0.1400 
  7 C       -2.3540     3.1070     0.8450 C.2   1 <1>  -0.0410 
  8 C       -0.5150     2.8070    -0.6570 C.2   1 <1>  -0.1500 
  9 C       -5.0670    -0.4570    -0.2850 C.3   1 <1>   0.2000 
 10 C       -4.2240    -1.7350    -0.3460 C.3   1 <1>  -0.0800 
 11 N       -2.2490     4.4650     0.6850 N.am  1 <1>  -0.5390 
 12 C       -0.4170     4.1570    -0.8030 C.2   1 <1>  -0.1360 
 13 O       -5.6380    -0.3370     0.9730 O.3   1 <1>  -0.6800 
 14 C       -4.8880    -2.9920     0.2470 C.3   1 <1>  -0.0170 
 15 C       -1.3060     5.0320    -0.1250 C.2   1 <1>   0.6160 
 16 C       -4.0060    -4.2160     0.0520 C.ar  1 <1>  -0.1430 
 17 O       -1.2740     6.2460    -0.2280 O.2   1 <1>  -0.5700 
 18 C       -4.0080    -4.9310    -1.1290 C.ar  1 <1>  -0.1500 
 19 C       -3.1590    -4.6750     1.0400 C.ar  1 <1>  -0.1500 
 20 C       -3.1840    -6.0360    -1.2620 C.ar  1 <1>   0.1600 
 21 C       -2.3740    -5.7910     0.8050 C.ar  1 <1>   0.1600 
 22 N       -2.3650    -6.4830    -0.3230 N.ar  1 <1>  -0.6200 
 23 H       -4.3850     1.5740     0.0030 H     1 <1>   0.0800 
 24 H       -3.8290     0.8220    -1.4860 H     1 <1>   0.0800 
 25 H       -2.0660    -1.8300    -0.1540 H     1 <1>   0.0800 
 26 H       -2.9080    -1.6200     1.3720 H     1 <1>   0.0800 
 27 H       -3.1120     2.7430     1.5200 H     1 <1>   0.1500 
 28 H        0.1590     2.1330    -1.1600 H     1 <1>   0.1500 
 29 H       -5.8500    -0.4210    -1.0230 H     1 <1>   0.0800 
 30 H       -4.0060    -1.9290    -1.3810 H     1 <1>   0.0800 
 31 H       -2.8480     5.1390     1.1680 H     1 <1>   0.3700 
 32 H        0.3270     4.6190    -1.4250 H     1 <1>   0.1500 
 33 H       -4.9230    -0.2640     1.6360 H     1 <1>   0.4000 
 34 H       -5.8360    -3.1560    -0.2360 H     1 <1>   0.0800 
 35 H       -5.0840    -2.8560     1.2960 H     1 <1>   0.0800 
 36 H       -4.6420    -4.6410    -1.9470 H     1 <1>   0.1500 
 37 H       -3.0990    -4.1770     1.9900 H     1 <1>   0.1500 
 38 H       -3.1980    -6.5810    -2.1900 H     1 <1>   0.1500 
 39 H       -1.7170    -6.1340     1.5870 H     1 <1>   0.1500 
@<TRIPOS>BOND
  1   1   2  2   
  2   2   3  am  
  3   2   4  1   
  4   3   5  1   
  5   3   6  1   
  6   4   7  2   
  7   4   8  1   
  8   5   9  1   
  9   5  23  1   
 10   5  24  1   
 11   6  10  1   
 12   6  25  1   
 13   6  26  1   
 14   7  11  1   
 15   7  27  1   
 16   8  12  2   
 17   8  28  1   
 18   9  10  1   
 19   9  13  1   
 20   9  29  1   
 21  10  14  1   
 22  10  30  1   
 23  11  15  am  
 24  11  31  1   
 25  12  15  1   
 26  12  32  1   
 27  13  33  1   
 28  14  16  1   
 29  14  34  1   
 30  14  35  1   
 31  15  17  2   
 32  16  18  ar  
 33  16  19  ar  
 34  18  20  ar  
 35  18  36  1   
 36  19  21  ar  
 37  19  37  1   
 38  20  22  ar  
 39  20  38  1   
 40  21  22  ar  
 41  21  39  1   
@<TRIPOS>SUBSTRUCTURE
  1 ****   3 GROUP 4 **** **** 0

# MOE 2024.06 (io_trps.svl 2023.06)
