@<TRIPOS>MOLECULE
NONAME
53 55 1 0 0 
SMALL
USER_CHARGES


@<TRIPOS>ATOM
  1 O       -0.7670     0.7470    -2.0600 O.co2 1 <1>  -0.9000 
  2 C       -1.1480     0.8430    -0.8890 C.2   1 <1>   0.9060 
  3 O       -1.8260    -0.0230    -0.3290 O.co2 1 <1>  -0.9000 
  4 C       -0.8100     2.1010    -0.1150 C.3   1 <1>  -0.1060 
  5 C       -2.1370     2.6390     0.4570 C.3   1 <1>   0.2000 
  6 C       -0.3200     3.1080    -1.1600 C.3   1 <1>   0.3430 
  7 C        0.2500     1.7480     0.9780 C.3   1 <1>  -0.0170 
  8 O       -2.5000     1.8700     1.5400 O.3   1 <1>  -0.6800 
  9 C       -2.1030     4.1150     0.8870 C.3   1 <1>  -0.1600 
 10 N       -0.2260     4.5270    -0.6730 N.4   1 <1>  -0.9590 
 11 C        1.7110     1.9570     0.5810 C.ar  1 <1>  -0.1440 
 12 C       -0.7260     4.7490     0.7150 C.3   1 <1>   0.3430 
 13 C        1.1560     5.0220    -0.8290 C.3   1 <1>   0.5230 
 14 C        2.2410     1.3380    -0.5420 C.ar  1 <1>  -0.1500 
 15 C        2.5370     2.7490     1.3660 C.ar  1 <1>  -0.1500 
 16 C        1.1200     6.5360    -0.8380 C.2   1 <1>  -0.3320 
 17 C        3.5640     1.5370    -0.8950 C.ar  1 <1>  -0.1500 
 18 C        3.8640     2.9380     1.0200 C.ar  1 <1>  -0.1500 
 19 N        2.1850     7.3320    -0.5660 N.pl3 1 <1>   0.0480 
 20 C        0.0880     7.3680    -1.1190 C.2   1 <1>   0.0770 
 21 C        4.3770     2.3390    -0.1160 C.ar  1 <1>  -0.1500 
 22 C        1.7020     8.5900    -0.6920 C.2   1 <1>   0.0360 
 23 C        3.5910     7.0300    -0.1750 C.3   1 <1>   0.1760 
 24 N        0.4550     8.6510    -1.0180 N.2   1 <1>  -0.5650 
 25 C        4.2550     6.0370    -1.1380 C.3   1 <1>  -0.2400 
 26 C        3.6430     6.5410     1.2760 C.3   1 <1>  -0.2400 
 27 H       -2.9170     2.5150    -0.2790 H     1 <1>   0.0800 
 28 H       -1.0150     3.0750    -1.9850 H     1 <1>   0.0800 
 29 H        0.6250     2.7760    -1.5570 H     1 <1>   0.0800 
 30 H        0.0530     2.3120     1.8700 H     1 <1>   0.0800 
 31 H        0.1290     0.7170     1.2660 H     1 <1>   0.0800 
 32 H       -2.4980     0.9260     1.2190 H     1 <1>   0.4000 
 33 H       -2.8090     4.6650     0.2930 H     1 <1>   0.0800 
 34 H       -2.4060     4.2130     1.9150 H     1 <1>   0.0800 
 35 H       -0.7950     5.0900    -1.3100 H     1 <1>   0.4500 
 36 H       -0.0420     4.3070     1.4200 H     1 <1>   0.0800 
 37 H       -0.7810     5.8060     0.9250 H     1 <1>   0.0800 
 38 H        1.7660     4.6600    -0.0190 H     1 <1>   0.0800 
 39 H        1.5770     4.6680    -1.7560 H     1 <1>   0.0800 
 40 H        1.6290     0.6880    -1.1490 H     1 <1>   0.1500 
 41 H        2.1580     3.2080     2.2630 H     1 <1>   0.1500 
 42 H        3.9590     1.0530    -1.7720 H     1 <1>   0.1500 
 43 H        4.5050     3.5410     1.6410 H     1 <1>   0.1500 
 44 H       -0.9250     7.1310    -1.3960 H     1 <1>   0.1500 
 45 H        5.4090     2.4810    -0.3860 H     1 <1>   0.1500 
 46 H        2.3180     9.4580    -0.5300 H     1 <1>   0.1500 
 47 H        4.1430     7.9530    -0.2320 H     1 <1>   0.0800 
 48 H        3.8420     5.0510    -1.0460 H     1 <1>   0.0800 
 49 H        5.3060     5.9730    -0.9160 H     1 <1>   0.0800 
 50 H        4.1520     6.3780    -2.1530 H     1 <1>   0.0800 
 51 H        3.0720     5.6420     1.4050 H     1 <1>   0.0800 
 52 H        3.2550     7.3000     1.9330 H     1 <1>   0.0800 
 53 H        4.6610     6.3450     1.5610 H     1 <1>   0.0800 
@<TRIPOS>BOND
  1   1   2  ar  
  2   2   3  ar  
  3   2   4  1   
  4   4   5  1   
  5   4   6  1   
  6   4   7  1   
  7   5   8  1   
  8   5   9  1   
  9   5  27  1   
 10   6  10  1   
 11   6  28  1   
 12   6  29  1   
 13   7  11  1   
 14   7  30  1   
 15   7  31  1   
 16   8  32  1   
 17   9  12  1   
 18   9  33  1   
 19   9  34  1   
 20  10  12  1   
 21  10  13  1   
 22  10  35  1   
 23  11  14  ar  
 24  11  15  ar  
 25  12  36  1   
 26  12  37  1   
 27  13  16  1   
 28  13  38  1   
 29  13  39  1   
 30  14  17  ar  
 31  14  40  1   
 32  15  18  ar  
 33  15  41  1   
 34  16  19  1   
 35  16  20  2   
 36  17  21  ar  
 37  17  42  1   
 38  18  21  ar  
 39  18  43  1   
 40  19  22  1   
 41  19  23  1   
 42  20  24  1   
 43  20  44  1   
 44  21  45  1   
 45  22  24  2   
 46  22  46  1   
 47  23  25  1   
 48  23  26  1   
 49  23  47  1   
 50  25  48  1   
 51  25  49  1   
 52  25  50  1   
 53  26  51  1   
 54  26  52  1   
 55  26  53  1   
@<TRIPOS>SUBSTRUCTURE
  1 ****  13 GROUP 4 **** **** 0

# MOE 2024.06 (io_trps.svl 2023.06)
