@<TRIPOS>MOLECULE
NONAME
44 45 1 0 0 
SMALL
USER_CHARGES


@<TRIPOS>ATOM
  1 CL       0.0830    -3.3160     2.3070 Cl    1 <1>  -0.1770 
  2 C        1.2890    -2.9340     1.0990 C.ar  1 <1>   0.1770 
  3 C        0.9120    -2.5230    -0.1740 C.ar  1 <1>  -0.1440 
  4 C        2.6190    -3.0650     1.4530 C.ar  1 <1>  -0.1500 
  5 C        1.9090    -2.2490    -1.0990 C.ar  1 <1>  -0.1500 
  6 C       -0.5530    -2.3750    -0.5830 C.3   1 <1>   0.0450 
  7 C        3.6030    -2.7850     0.5200 C.ar  1 <1>  -0.1500 
  8 C        3.2450    -2.3780    -0.7540 C.ar  1 <1>  -0.1500 
  9 C       -1.1310    -3.6780    -1.1050 C.2   1 <1>   0.5690 
 10 O       -1.6040    -3.7110    -2.2150 O.2   1 <1>  -0.5700 
 11 N       -1.1030    -4.7740    -0.3080 N.am  1 <1>  -0.7300 
 12 C       -1.5820    -6.1200    -0.6850 C.3   1 <1>   0.2200 
 13 C       -2.6260    -6.5760     0.3200 C.3   1 <1>  -0.0800 
 14 C       -0.4630    -7.1400    -0.4790 C.3   1 <1>   0.1200 
 15 C       -1.7440    -7.1270     1.4420 C.3   1 <1>   0.1200 
 16 C       -3.5340    -7.6660    -0.2840 C.3   1 <1>  -0.0550 
 17 O       -0.6010    -7.6360     0.8220 O.3   1 <1>  -0.5600 
 18 S       -4.9630    -8.0540     0.7270 S.o2  1 <1>   1.3330 
 19 O       -5.7840    -6.8670     0.7980 O.2   1 <1>  -0.6500 
 20 O       -4.5440    -8.7050     1.9480 O.2   1 <1>  -0.6500 
 21 N       -5.7790    -9.2060    -0.2160 N.am  1 <1>  -0.8490 
 22 C       -7.2270    -9.1860     0.0120 C.3   1 <1>   0.1160 
 23 C       -5.2660   -10.5700    -0.0410 C.3   1 <1>   0.1160 
 24 H        2.8800    -3.3840     2.4460 H     1 <1>   0.1500 
 25 H        1.6520    -1.9370    -2.0970 H     1 <1>   0.1500 
 26 H       -0.6380    -1.6310    -1.3530 H     1 <1>   0.0800 
 27 H       -1.1480    -2.0400     0.2450 H     1 <1>   0.0800 
 28 H        4.6420    -2.8830     0.7840 H     1 <1>   0.1500 
 29 H        4.0090    -2.1630    -1.4820 H     1 <1>   0.1500 
 30 H       -0.6440    -4.7180     0.6060 H     1 <1>   0.3700 
 31 H       -1.9410    -6.1160    -1.7010 H     1 <1>   0.0800 
 32 H       -3.2340    -5.7530     0.6550 H     1 <1>   0.0800 
 33 H        0.5150    -6.7060    -0.5970 H     1 <1>   0.0800 
 34 H       -0.5770    -7.9690    -1.1540 H     1 <1>   0.0800 
 35 H       -2.2060    -7.9080     2.0200 H     1 <1>   0.0800 
 36 H       -1.4300    -6.3360     2.1020 H     1 <1>   0.0800 
 37 H       -2.9620    -8.5570    -0.4540 H     1 <1>   0.0800 
 38 H       -3.8920    -7.3220    -1.2360 H     1 <1>   0.0800 
 39 H       -7.7140    -9.9170    -0.6110 H     1 <1>   0.0800 
 40 H       -7.6260    -8.2160    -0.2360 H     1 <1>   0.0800 
 41 H       -7.4470    -9.3960     1.0450 H     1 <1>   0.0800 
 42 H       -5.7540   -11.2400    -0.7280 H     1 <1>   0.0800 
 43 H       -5.4420   -10.9120     0.9670 H     1 <1>   0.0800 
 44 H       -4.2070   -10.5970    -0.2330 H     1 <1>   0.0800 
@<TRIPOS>BOND
  1   1   2  1   
  2   2   3  ar  
  3   2   4  ar  
  4   3   5  ar  
  5   3   6  1   
  6   4   7  ar  
  7   4  24  1   
  8   5   8  ar  
  9   5  25  1   
 10   6   9  1   
 11   6  26  1   
 12   6  27  1   
 13   7   8  ar  
 14   7  28  1   
 15   8  29  1   
 16   9  10  2   
 17   9  11  am  
 18  11  12  1   
 19  11  30  1   
 20  12  13  1   
 21  12  14  1   
 22  12  31  1   
 23  13  15  1   
 24  13  16  1   
 25  13  32  1   
 26  14  17  1   
 27  14  33  1   
 28  14  34  1   
 29  15  17  1   
 30  15  35  1   
 31  15  36  1   
 32  16  18  1   
 33  16  37  1   
 34  16  38  1   
 35  18  19  2   
 36  18  20  2   
 37  18  21  am  
 38  21  22  1   
 39  21  23  1   
 40  22  39  1   
 41  22  40  1   
 42  22  41  1   
 43  23  42  1   
 44  23  43  1   
 45  23  44  1   
@<TRIPOS>SUBSTRUCTURE
  1 ****  12 GROUP 4 **** **** 0

# MOE 2024.06 (io_trps.svl 2023.06)
