@<TRIPOS>MOLECULE
NONAME
45 47 1 0 0 
SMALL
USER_CHARGES


@<TRIPOS>ATOM
  1 O        0.7730     0.4660     1.2900 O.3   1 <1>  -0.0190 
  2 N        1.5450    -0.5180     0.9330 N.2   1 <1>  -0.4100 
  3 C        0.8560     1.4780     0.4670 C.2   1 <1>  -0.0400 
  4 C        2.1350    -0.1370    -0.1410 C.2   1 <1>   0.1080 
  5 C        1.7310     1.1470    -0.4970 C.2   1 <1>  -0.1500 
  6 C        0.0160     2.7140     0.7430 C.3   1 <1>   0.0200 
  7 C        3.1320    -0.9770    -0.9080 C.3   1 <1>  -0.0590 
  8 C        0.4200     3.9190    -0.1270 C.3   1 <1>  -0.0800 
  9 C       -0.4620     5.1570     0.0350 C.3   1 <1>   0.2000 
 10 C        1.8330     4.4390     0.1570 C.3   1 <1>   0.2090 
 11 O       -0.6700     5.4060     1.3830 O.3   1 <1>  -0.6800 
 12 C        0.4110     6.2780    -0.5250 C.3   1 <1>   0.2090 
 13 N        1.8080     5.9080    -0.1420 N.pl3 1 <1>  -0.8380 
 14 C        2.8490     6.7360     0.1350 C.ar  1 <1>   0.4100 
 15 N        3.7710     6.2050     0.9510 N.ar  1 <1>  -0.6200 
 16 C        3.0110     8.0620    -0.3450 C.ar  1 <1>  -0.1440 
 17 C        4.7540     6.9380     1.3610 C.ar  1 <1>   0.5280 
 18 C        4.0550     8.8100     0.1440 C.ar  1 <1>   0.2180 
 19 C        2.0870     8.6400    -1.4230 C.3   1 <1>  -0.0970 
 20 N        4.9120     8.2210     1.0000 N.ar  1 <1>  -0.1790 
 21 C        5.7710     6.3190     2.2970 C.3   1 <1>  -0.0970 
 22 C        4.3410    10.2650    -0.2140 C.3   1 <1>  -0.0970 
 23 H        2.0670     1.6970    -1.3550 H     1 <1>   0.1500 
 24 H       -1.0170     2.4710     0.5670 H     1 <1>   0.0800 
 25 H        0.1160     2.9630     1.7850 H     1 <1>   0.0800 
 26 H        4.0540    -0.4380    -1.0220 H     1 <1>   0.0800 
 27 H        2.7360    -1.2170    -1.8780 H     1 <1>   0.0800 
 28 H        3.3260    -1.8910    -0.3760 H     1 <1>   0.0800 
 29 H        0.3790     3.6240    -1.1600 H     1 <1>   0.0800 
 30 H       -1.4180     5.0740    -0.4540 H     1 <1>   0.0800 
 31 H        2.5670     3.9430    -0.4560 H     1 <1>   0.0800 
 32 H        2.0810     4.2860     1.1940 H     1 <1>   0.0800 
 33 H        0.1910     5.6330     1.7910 H     1 <1>   0.4000 
 34 H        0.1130     7.2290    -0.1200 H     1 <1>   0.0800 
 35 H        0.3250     6.2890    -1.5980 H     1 <1>   0.0800 
 36 H        2.5550     9.4290    -1.9820 H     1 <1>   0.0800 
 37 H        1.1850     9.0260    -0.9820 H     1 <1>   0.0800 
 38 H        1.8360     7.8810    -2.1420 H     1 <1>   0.0800 
 39 H        5.7060     8.7410     1.3730 H     1 <1>   0.4570 
 40 H        5.5090     5.2950     2.5000 H     1 <1>   0.0800 
 41 H        5.7940     6.8490     3.2320 H     1 <1>   0.0800 
 42 H        6.7490     6.3320     1.8510 H     1 <1>   0.0800 
 43 H        3.4310    10.7990    -0.4210 H     1 <1>   0.0800 
 44 H        4.9750    10.3140    -1.0820 H     1 <1>   0.0800 
 45 H        4.8270    10.7750     0.5990 H     1 <1>   0.0800 
@<TRIPOS>BOND
  1   1   2  1   
  2   1   3  1   
  3   2   4  2   
  4   3   5  2   
  5   3   6  1   
  6   4   5  1   
  7   4   7  1   
  8   5  23  1   
  9   6   8  1   
 10   6  24  1   
 11   6  25  1   
 12   7  26  1   
 13   7  27  1   
 14   7  28  1   
 15   8   9  1   
 16   8  10  1   
 17   8  29  1   
 18   9  11  1   
 19   9  12  1   
 20   9  30  1   
 21  10  13  1   
 22  10  31  1   
 23  10  32  1   
 24  11  33  1   
 25  12  13  1   
 26  12  34  1   
 27  12  35  1   
 28  13  14  1   
 29  14  15  ar  
 30  14  16  ar  
 31  15  17  ar  
 32  16  18  ar  
 33  16  19  1   
 34  17  20  ar  
 35  17  21  1   
 36  18  20  ar  
 37  18  22  1   
 38  19  36  1   
 39  19  37  1   
 40  19  38  1   
 41  20  39  1   
 42  21  40  1   
 43  21  41  1   
 44  21  42  1   
 45  22  43  1   
 46  22  44  1   
 47  22  45  1   
@<TRIPOS>SUBSTRUCTURE
  1 ****  10 GROUP 4 **** **** 0

# MOE 2024.06 (io_trps.svl 2023.06)
