@<TRIPOS>MOLECULE
NONAME
48 50 1 0 0 
SMALL
USER_CHARGES


@<TRIPOS>ATOM
  1 S        1.8470     1.5920    -0.0840 S.o2  1 <1>   1.3330 
  2 O        2.8170     2.2280     0.7750 O.2   1 <1>  -0.6500 
  3 O        1.6390     2.0590    -1.4370 O.2   1 <1>  -0.6500 
  4 N        2.2610    -0.0530    -0.1720 N.am  1 <1>  -0.8490 
  5 C        0.2430     1.5320     0.7260 C.3   1 <1>  -0.0550 
  6 C        3.1270    -0.3420    -1.3190 C.3   1 <1>   0.1160 
  7 C        2.8830    -0.5620     1.0550 C.3   1 <1>   0.1160 
  8 C       -0.4750     2.8740     1.0070 C.3   1 <1>  -0.0800 
  9 C       -0.7000     3.7380    -0.2420 C.3   1 <1>   0.2000 
 10 C        0.2930     3.7790     1.9800 C.3   1 <1>   0.1400 
 11 O       -1.8830     4.4350    -0.0540 O.3   1 <1>  -0.6800 
 12 C        0.4470     4.7510    -0.2560 C.3   1 <1>   0.1400 
 13 N        0.8740     4.8630     1.1580 N.am  1 <1>  -0.6600 
 14 C        1.8940     5.6520     1.6190 C.2   1 <1>   0.6300 
 15 O        2.2210     5.6230     2.7850 O.2   1 <1>  -0.5700 
 16 C        2.6290     6.6050     0.6650 C.3   1 <1>   0.0320 
 17 C        3.5320     5.8710    -0.3230 C.ar  1 <1>  -0.0320 
 18 C        1.9760     7.9130     0.3000 C.3   1 <1>  -0.2000 
 19 C        3.1660     7.9050     1.2020 C.3   1 <1>  -0.2000 
 20 C        3.3520     5.9710    -1.6960 C.ar  1 <1>  -0.1500 
 21 C        4.5510     5.0670     0.1640 C.ar  1 <1>  -0.1500 
 22 C        4.1790     5.2810    -2.5650 C.ar  1 <1>  -0.1500 
 23 C        5.3790     4.3750    -0.7020 C.ar  1 <1>  -0.1500 
 24 C        5.1940     4.4820    -2.0690 C.ar  1 <1>  -0.1500 
 25 H       -0.4080     0.9340     0.1190 H     1 <1>   0.0800 
 26 H        0.3540     1.0170     1.6600 H     1 <1>   0.0800 
 27 H        3.3710    -1.3900    -1.3500 H     1 <1>   0.0800 
 28 H        4.0360     0.2330    -1.2550 H     1 <1>   0.0800 
 29 H        2.6220    -0.0890    -2.2360 H     1 <1>   0.0800 
 30 H        3.0390    -1.6250     0.9770 H     1 <1>   0.0800 
 31 H        2.2470    -0.3740     1.9030 H     1 <1>   0.0800 
 32 H        3.8330    -0.0800     1.2250 H     1 <1>   0.0800 
 33 H       -1.4230     2.6180     1.4480 H     1 <1>   0.0800 
 34 H       -0.7810     3.1770    -1.1580 H     1 <1>   0.0800 
 35 H        1.0710     3.2500     2.5060 H     1 <1>   0.0800 
 36 H       -0.3780     4.2150     2.6990 H     1 <1>   0.0800 
 37 H       -1.7640     5.0660     0.6840 H     1 <1>   0.4000 
 38 H        0.1340     5.7010    -0.6530 H     1 <1>   0.0800 
 39 H        1.2670     4.3810    -0.8430 H     1 <1>   0.0800 
 40 H        2.1000     8.3320    -0.6810 H     1 <1>   0.1000 
 41 H        1.0140     8.1410     0.7270 H     1 <1>   0.1000 
 42 H        3.0350     8.1160     2.2490 H     1 <1>   0.1000 
 43 H        4.1110     8.2550     0.8260 H     1 <1>   0.1000 
 44 H        2.5650     6.5810    -2.0980 H     1 <1>   0.1500 
 45 H        4.6940     4.9710     1.2270 H     1 <1>   0.1500 
 46 H        4.0310     5.3620    -3.6280 H     1 <1>   0.1500 
 47 H        6.1600     3.7500    -0.3090 H     1 <1>   0.1500 
 48 H        5.8350     3.9430    -2.7430 H     1 <1>   0.1500 
@<TRIPOS>BOND
  1   1   2  2   
  2   1   3  2   
  3   1   4  am  
  4   1   5  1   
  5   4   6  1   
  6   4   7  1   
  7   5   8  1   
  8   5  25  1   
  9   5  26  1   
 10   6  27  1   
 11   6  28  1   
 12   6  29  1   
 13   7  30  1   
 14   7  31  1   
 15   7  32  1   
 16   8   9  1   
 17   8  10  1   
 18   8  33  1   
 19   9  11  1   
 20   9  12  1   
 21   9  34  1   
 22  10  13  1   
 23  10  35  1   
 24  10  36  1   
 25  11  37  1   
 26  12  13  1   
 27  12  38  1   
 28  12  39  1   
 29  13  14  am  
 30  14  15  2   
 31  14  16  1   
 32  16  17  1   
 33  16  18  1   
 34  16  19  1   
 35  17  20  ar  
 36  17  21  ar  
 37  18  19  1   
 38  18  40  1   
 39  18  41  1   
 40  19  42  1   
 41  19  43  1   
 42  20  22  ar  
 43  20  44  1   
 44  21  23  ar  
 45  21  45  1   
 46  22  24  ar  
 47  22  46  1   
 48  23  24  ar  
 49  23  47  1   
 50  24  48  1   
@<TRIPOS>SUBSTRUCTURE
  1 ****  13 GROUP 4 **** **** 0

# MOE 2024.06 (io_trps.svl 2023.06)
