@<TRIPOS>MOLECULE
NONAME
55 57 1 0 0 
SMALL
USER_CHARGES


@<TRIPOS>ATOM
  1 O       -1.4870     0.2840     1.5620 O.2   1 <1>  -0.5700 
  2 C       -1.8420     0.9380     0.5980 C.2   1 <1>   0.5440 
  3 N       -2.5130     0.2770    -0.4090 N.am  1 <1>  -0.6600 
  4 C       -1.6310     2.3750     0.5660 C.ar  1 <1>   0.0860 
  5 C       -2.5860    -1.2040    -0.4080 C.3   1 <1>   0.1400 
  6 C       -3.6490     0.9070    -1.1260 C.3   1 <1>   0.1400 
  7 C       -0.9290     3.0240    -0.4570 C.ar  1 <1>  -0.1440 
  8 C       -2.1610     3.1590     1.5880 C.ar  1 <1>  -0.1500 
  9 C       -3.8400    -1.6170     0.3910 C.3   1 <1>   0.4230 
 10 C       -4.9400     0.5590    -0.3660 C.3   1 <1>  -0.1600 
 11 C       -0.8090     4.4030    -0.4480 C.ar  1 <1>  -0.1500 
 12 C       -0.2760     2.2400    -1.5890 C.3   1 <1>  -0.0960 
 13 C       -2.0380     4.5380     1.6010 C.ar  1 <1>  -0.1430 
 14 N       -3.9490    -3.1060     0.6710 N.4   1 <1>  -0.9590 
 15 C       -5.1630    -0.9670    -0.1260 C.3   1 <1>   0.0000 
 16 C       -1.3580     5.1680     0.5670 C.ar  1 <1>  -0.1430 
 17 C       -2.6480     5.3270     2.7510 C.3   1 <1>  -0.0970 
 18 C       -5.2930    -3.5210     1.1850 C.3   1 <1>   0.3430 
 19 C       -3.5470    -3.9690    -0.4860 C.3   1 <1>   0.2630 
 20 C       -6.2330    -1.1360     0.9930 C.3   1 <1>  -0.1600 
 21 C       -5.7420    -1.6080    -1.4220 C.3   1 <1>   0.1200 
 22 C       -1.1950     6.6810     0.5280 C.3   1 <1>  -0.0970 
 23 C       -6.0000    -2.3660     1.9000 C.3   1 <1>  -0.1600 
 24 O       -4.7890    -1.7670    -2.4140 O.3   1 <1>  -0.6800 
 25 H       -2.6130    -1.5530    -1.4230 H     1 <1>   0.0800 
 26 H       -1.7050    -1.6060     0.0610 H     1 <1>   0.0800 
 27 H       -3.5260     1.9760    -1.1690 H     1 <1>   0.0800 
 28 H       -3.6860     0.5390    -2.1370 H     1 <1>   0.0800 
 29 H       -2.6790     2.6620     2.3880 H     1 <1>   0.1500 
 30 H       -3.6800    -1.1570     1.3520 H     1 <1>   0.0800 
 31 H       -4.8790     1.0750     0.5770 H     1 <1>   0.0800 
 32 H       -5.7780     0.9810    -0.8920 H     1 <1>   0.0800 
 33 H       -0.2730     4.8910    -1.2430 H     1 <1>   0.1500 
 34 H        0.4380     2.8470    -2.1150 H     1 <1>   0.0800 
 35 H       -1.0210     1.9070    -2.2880 H     1 <1>   0.0800 
 36 H        0.2440     1.3830    -1.1980 H     1 <1>   0.0800 
 37 H       -3.2720    -3.2710     1.4300 H     1 <1>   0.4500 
 38 H       -3.1220     4.6730     3.4610 H     1 <1>   0.0800 
 39 H       -3.3870     6.0130     2.3780 H     1 <1>   0.0800 
 40 H       -1.8820     5.8810     3.2640 H     1 <1>   0.0800 
 41 H       -5.9110    -3.8410     0.3630 H     1 <1>   0.0800 
 42 H       -5.1840    -4.3560     1.8590 H     1 <1>   0.0800 
 43 H       -4.1980    -3.7990    -1.3270 H     1 <1>   0.0800 
 44 H       -3.6010    -5.0100    -0.2130 H     1 <1>   0.0800 
 45 H       -2.5350    -3.7500    -0.7870 H     1 <1>   0.0800 
 46 H       -6.2510    -0.2740     1.6380 H     1 <1>   0.0800 
 47 H       -7.2150    -1.1960     0.5540 H     1 <1>   0.0800 
 48 H       -6.5270    -0.9870    -1.8190 H     1 <1>   0.0800 
 49 H       -6.1610    -2.5790    -1.2250 H     1 <1>   0.0800 
 50 H       -0.6560     6.9900    -0.3490 H     1 <1>   0.0800 
 51 H       -0.6500     7.0150     1.3920 H     1 <1>   0.0800 
 52 H       -2.1590     7.1570     0.5150 H     1 <1>   0.0800 
 53 H       -6.9470    -2.7100     2.2780 H     1 <1>   0.0800 
 54 H       -5.4100    -2.0800     2.7550 H     1 <1>   0.0800 
 55 H       -5.2160    -1.8830    -3.2910 H     1 <1>   0.4000 
@<TRIPOS>BOND
  1   1   2  2   
  2   2   3  am  
  3   2   4  1   
  4   3   5  1   
  5   3   6  1   
  6   4   7  ar  
  7   4   8  ar  
  8   5   9  1   
  9   5  25  1   
 10   5  26  1   
 11   6  10  1   
 12   6  27  1   
 13   6  28  1   
 14   7  11  ar  
 15   7  12  1   
 16   8  13  ar  
 17   8  29  1   
 18   9  14  1   
 19   9  15  1   
 20   9  30  1   
 21  10  15  1   
 22  10  31  1   
 23  10  32  1   
 24  11  16  ar  
 25  11  33  1   
 26  12  34  1   
 27  12  35  1   
 28  12  36  1   
 29  13  16  ar  
 30  13  17  1   
 31  14  18  1   
 32  14  19  1   
 33  14  37  1   
 34  15  20  1   
 35  15  21  1   
 36  16  22  1   
 37  17  38  1   
 38  17  39  1   
 39  17  40  1   
 40  18  23  1   
 41  18  41  1   
 42  18  42  1   
 43  19  43  1   
 44  19  44  1   
 45  19  45  1   
 46  20  23  1   
 47  20  46  1   
 48  20  47  1   
 49  21  24  1   
 50  21  48  1   
 51  21  49  1   
 52  22  50  1   
 53  22  51  1   
 54  22  52  1   
 55  23  53  1   
 56  23  54  1   
 57  24  55  1   
@<TRIPOS>SUBSTRUCTURE
  1 ****   3 GROUP 4 **** **** 0

# MOE 2024.06 (io_trps.svl 2023.06)
