@<TRIPOS>MOLECULE
NONAME
21 22 1 0 0 
SMALL
USER_CHARGES


@<TRIPOS>ATOM
  1 O        0.4150     4.5780    -0.2570 O.3   1 <1>  -0.0190 
  2 N        1.6370     4.7700     0.1330 N.2   1 <1>  -0.4100 
  3 C        0.0040     3.3660     0.0020 C.2   1 <1>  -0.0400 
  4 C        2.0320     3.6600     0.6450 C.2   1 <1>   0.1390 
  5 C        1.0180     2.7070     0.5920 C.2   1 <1>  -0.1500 
  6 C       -1.4150     3.0020    -0.3840 C.3   1 <1>   0.6030 
  7 N       -2.3510     3.9680     0.2110 N.4   1 <1>  -0.9060 
  8 C       -1.9020     1.6650     0.1560 C.3   1 <1>  -0.1600 
  9 C       -3.6820     3.3240     0.3430 C.3   1 <1>   0.3430 
 10 C       -3.4210     1.8220     0.2520 C.3   1 <1>  -0.1600 
 11 H        3.0150     3.4990     1.0560 H     1 <1>   0.1500 
 12 H        1.0920     1.6960     0.9550 H     1 <1>   0.1500 
 13 H       -1.5180     3.0150    -1.4580 H     1 <1>   0.0800 
 14 H       -2.3680     4.8320    -0.3430 H     1 <1>   0.4500 
 15 H       -1.9760     4.2100     1.1350 H     1 <1>   0.4500 
 16 H       -1.4930     1.4930     1.1370 H     1 <1>   0.0800 
 17 H       -1.6140     0.8510    -0.4870 H     1 <1>   0.0800 
 18 H       -4.3340     3.6320    -0.4600 H     1 <1>   0.0800 
 19 H       -4.1380     3.5820     1.2870 H     1 <1>   0.0800 
 20 H       -3.8230     1.3030     1.1060 H     1 <1>   0.0800 
 21 H       -3.8980     1.4350    -0.6330 H     1 <1>   0.0800 
@<TRIPOS>BOND
  1   1   2  1   
  2   1   3  1   
  3   2   4  2   
  4   3   5  2   
  5   3   6  1   
  6   4   5  1   
  7   4  11  1   
  8   5  12  1   
  9   6   7  1   
 10   6   8  1   
 11   6  13  1   
 12   7   9  1   
 13   7  14  1   
 14   7  15  1   
 15   8  10  1   
 16   8  16  1   
 17   8  17  1   
 18   9  10  1   
 19   9  18  1   
 20   9  19  1   
 21  10  20  1   
 22  10  21  1   
@<TRIPOS>SUBSTRUCTURE
  1 ****   3 GROUP 4 **** **** 0

# MOE 2024.06 (io_trps.svl 2023.06)
