@<TRIPOS>MOLECULE
NONAME
46 48 1 0 0 
SMALL
USER_CHARGES


@<TRIPOS>ATOM
  1 F        1.2530     2.1340     1.4460 F     1 <1>  -0.1900 
  2 C        2.1220     1.4570     0.7370 C.ar  1 <1>   0.1900 
  3 C        2.2600     0.0780     0.9520 C.ar  1 <1>   0.0860 
  4 C        2.8190     2.1820    -0.2040 C.ar  1 <1>  -0.1500 
  5 C        3.1810    -0.5830     0.0660 C.ar  1 <1>  -0.1710 
  6 C        1.4620    -0.5210     2.0030 C.2   1 <1>   0.5440 
  7 C        3.7230     1.5210    -1.0260 C.ar  1 <1>  -0.1500 
  8 O        3.4220    -1.8160     0.0600 O.3   1 <1>  -0.8290 
  9 C        3.8910     0.1690    -0.8870 C.ar  1 <1>  -0.1500 
 10 O        1.5040    -0.1040     3.1540 O.2   1 <1>  -0.5700 
 11 N        0.5250    -1.5150     1.7750 N.am  1 <1>  -0.6600 
 12 C        0.9990    -2.6270     0.9490 C.3   1 <1>   0.1400 
 13 C       -0.9010    -1.1280     1.6460 C.3   1 <1>   0.1400 
 14 C        0.0740    -3.8330     0.8740 C.3   1 <1>   0.4230 
 15 C       -1.8110    -2.3690     1.5860 C.3   1 <1>  -0.1600 
 16 N        0.6540    -4.9420     0.0010 N.4   1 <1>  -0.9590 
 17 C       -1.3750    -3.4140     0.5190 C.3   1 <1>   0.0000 
 18 C       -0.3660    -5.8380    -0.6160 C.3   1 <1>   0.3430 
 19 C        1.6610    -4.4670    -1.0230 C.3   1 <1>   0.2630 
 20 C       -2.2910    -4.6690     0.6170 C.3   1 <1>  -0.1600 
 21 C       -1.4370    -2.7780    -0.9010 C.3   1 <1>   0.1200 
 22 C       -1.5690    -6.0000     0.3140 C.3   1 <1>  -0.1600 
 23 O       -2.7070    -2.2970    -1.1850 O.3   1 <1>  -0.6800 
 24 H        2.6620     3.2390    -0.3020 H     1 <1>   0.1500 
 25 H        4.2820     2.0690    -1.7630 H     1 <1>   0.1500 
 26 H        4.5830    -0.3690    -1.5080 H     1 <1>   0.1500 
 27 H        1.1460    -2.2350    -0.0390 H     1 <1>   0.0800 
 28 H        1.9340    -2.9610     1.3640 H     1 <1>   0.0800 
 29 H       -1.1720    -0.5160     2.4920 H     1 <1>   0.0800 
 30 H       -1.0240    -0.5300     0.7590 H     1 <1>   0.0800 
 31 H        0.0270    -4.2200     1.8780 H     1 <1>   0.0800 
 32 H       -1.8040    -2.8170     2.5650 H     1 <1>   0.0800 
 33 H       -2.8190    -2.0420     1.4000 H     1 <1>   0.0800 
 34 H        1.2010    -5.5110     0.6620 H     1 <1>   0.4500 
 35 H       -0.7010    -5.4200    -1.5510 H     1 <1>   0.0800 
 36 H        0.0720    -6.8020    -0.8220 H     1 <1>   0.0800 
 37 H        1.1990    -3.7900    -1.7220 H     1 <1>   0.0800 
 38 H        2.0720    -5.3010    -1.5670 H     1 <1>   0.0800 
 39 H        2.4780    -3.9430    -0.5450 H     1 <1>   0.0800 
 40 H       -2.7020    -4.7470     1.6100 H     1 <1>   0.0800 
 41 H       -3.1330    -4.5660    -0.0440 H     1 <1>   0.0800 
 42 H       -1.1800    -3.4830    -1.6680 H     1 <1>   0.0800 
 43 H       -0.7660    -1.9400    -0.9860 H     1 <1>   0.0800 
 44 H       -2.2690    -6.6870    -0.1300 H     1 <1>   0.0800 
 45 H       -1.2330    -6.4480     1.2340 H     1 <1>   0.0800 
 46 H       -3.3760    -3.0080    -1.1830 H     1 <1>   0.4000 
@<TRIPOS>BOND
  1   1   2  1   
  2   2   3  ar  
  3   2   4  ar  
  4   3   5  ar  
  5   3   6  1   
  6   4   7  ar  
  7   4  24  1   
  8   5   8  1   
  9   5   9  ar  
 10   6  10  2   
 11   6  11  am  
 12   7   9  ar  
 13   7  25  1   
 14   9  26  1   
 15  11  12  1   
 16  11  13  1   
 17  12  14  1   
 18  12  27  1   
 19  12  28  1   
 20  13  15  1   
 21  13  29  1   
 22  13  30  1   
 23  14  16  1   
 24  14  17  1   
 25  14  31  1   
 26  15  17  1   
 27  15  32  1   
 28  15  33  1   
 29  16  18  1   
 30  16  19  1   
 31  16  34  1   
 32  17  20  1   
 33  17  21  1   
 34  18  22  1   
 35  18  35  1   
 36  18  36  1   
 37  19  37  1   
 38  19  38  1   
 39  19  39  1   
 40  20  22  1   
 41  20  40  1   
 42  20  41  1   
 43  21  23  1   
 44  21  42  1   
 45  21  43  1   
 46  22  44  1   
 47  22  45  1   
 48  23  46  1   
@<TRIPOS>SUBSTRUCTURE
  1 ****  12 GROUP 4 **** **** 0

# MOE 2024.06 (io_trps.svl 2023.06)
