@<TRIPOS>MOLECULE
NONAME
51 54 1 0 0 
SMALL
USER_CHARGES


@<TRIPOS>ATOM
  1 CL      -1.7400    -0.0030    -2.3750 Cl    1 <1>  -0.1770 
  2 C       -2.4370    -1.0070    -1.1160 C.ar  1 <1>   0.1770 
  3 C       -2.9110    -0.4350     0.0720 C.ar  1 <1>   0.1000 
  4 C       -2.4840    -2.3650    -1.3470 C.ar  1 <1>  -0.1500 
  5 N       -2.8690     0.9410     0.3140 N.pl3 1 <1>  -0.8380 
  6 C       -3.4410    -1.3150     1.0130 C.ar  1 <1>  -0.1500 
  7 C       -3.0070    -3.2460    -0.4000 C.ar  1 <1>   0.0860 
  8 C       -3.6350     1.8720    -0.5480 C.3   1 <1>   0.2090 
  9 C       -2.6240     1.5460     1.6470 C.3   1 <1>   0.2090 
 10 C       -3.4880    -2.6770     0.7840 C.ar  1 <1>  -0.1500 
 11 C       -3.0480    -4.6740    -0.6550 C.2   1 <1>   0.5440 
 12 C       -4.0970     2.9800     0.3900 C.3   1 <1>  -0.1600 
 13 C       -3.0480     3.0010     1.4960 C.3   1 <1>  -0.1600 
 14 O       -2.9260    -5.1130    -1.7820 O.2   1 <1>  -0.5700 
 15 N       -3.2340    -5.5720     0.3580 N.am  1 <1>  -0.7300 
 16 C       -3.2820    -7.0450     0.2040 C.3   1 <1>   0.2200 
 17 C       -4.7130    -7.5610     0.2750 C.3   1 <1>  -0.0800 
 18 C       -2.6950    -7.6850     1.4540 C.3   1 <1>   0.1200 
 19 C       -4.9610    -7.6850     1.7830 C.3   1 <1>   0.1200 
 20 C       -5.7670    -6.7280    -0.4770 C.3   1 <1>  -0.0170 
 21 O       -3.7110    -7.6080     2.4070 O.3   1 <1>  -0.5600 
 22 C       -7.1360    -7.3850    -0.3980 C.ar  1 <1>  -0.1430 
 23 C       -8.0990    -6.9700     0.5000 C.ar  1 <1>  -0.1500 
 24 C       -7.4850    -8.4340    -1.2240 C.ar  1 <1>  -0.1500 
 25 C       -9.3270    -7.6110     0.5310 C.ar  1 <1>   0.1600 
 26 C       -8.7420    -9.0050    -1.1120 C.ar  1 <1>   0.1600 
 27 N       -9.6700    -8.6210    -0.2520 N.ar  1 <1>  -0.6200 
 28 H       -2.1050    -2.7500    -2.2780 H     1 <1>   0.1500 
 29 H       -3.8330    -0.9270     1.9330 H     1 <1>   0.1500 
 30 H       -2.9770     2.2730    -1.3000 H     1 <1>   0.0800 
 31 H       -4.4650     1.3750    -1.0210 H     1 <1>   0.0800 
 32 H       -3.2300     1.0670     2.3940 H     1 <1>   0.0800 
 33 H       -1.5840     1.4630     1.9140 H     1 <1>   0.0800 
 34 H       -3.9150    -3.3080     1.5420 H     1 <1>   0.1500 
 35 H       -4.1800     3.9230    -0.1190 H     1 <1>   0.0800 
 36 H       -5.0560     2.7120     0.7970 H     1 <1>   0.0800 
 37 H       -3.4270     3.4060     2.4170 H     1 <1>   0.0800 
 38 H       -2.1970     3.5800     1.1810 H     1 <1>   0.0800 
 39 H       -3.3130    -5.2610     1.3280 H     1 <1>   0.3700 
 40 H       -2.7700    -7.3540    -0.6930 H     1 <1>   0.0800 
 41 H       -4.7220    -8.5570    -0.1330 H     1 <1>   0.0800 
 42 H       -1.8170    -7.1760     1.8120 H     1 <1>   0.0800 
 43 H       -2.4760    -8.7250     1.2860 H     1 <1>   0.0800 
 44 H       -5.4220    -8.6250     2.0360 H     1 <1>   0.0800 
 45 H       -5.5610    -6.8740     2.1570 H     1 <1>   0.0800 
 46 H       -5.4760    -6.6310    -1.5090 H     1 <1>   0.0800 
 47 H       -5.8270    -5.7350    -0.0670 H     1 <1>   0.0800 
 48 H       -7.9090    -6.1560     1.1740 H     1 <1>   0.1500 
 49 H       -6.7930    -8.8100    -1.9550 H     1 <1>   0.1500 
 50 H      -10.0660    -7.2750     1.2380 H     1 <1>   0.1500 
 51 H       -8.9960    -9.8230    -1.7650 H     1 <1>   0.1500 
@<TRIPOS>BOND
  1   1   2  1   
  2   2   3  ar  
  3   2   4  ar  
  4   3   5  1   
  5   3   6  ar  
  6   4   7  ar  
  7   4  28  1   
  8   5   8  1   
  9   5   9  1   
 10   6  10  ar  
 11   6  29  1   
 12   7  10  ar  
 13   7  11  1   
 14   8  12  1   
 15   8  30  1   
 16   8  31  1   
 17   9  13  1   
 18   9  32  1   
 19   9  33  1   
 20  10  34  1   
 21  11  14  2   
 22  11  15  am  
 23  12  13  1   
 24  12  35  1   
 25  12  36  1   
 26  13  37  1   
 27  13  38  1   
 28  15  16  1   
 29  15  39  1   
 30  16  17  1   
 31  16  18  1   
 32  16  40  1   
 33  17  19  1   
 34  17  20  1   
 35  17  41  1   
 36  18  21  1   
 37  18  42  1   
 38  18  43  1   
 39  19  21  1   
 40  19  44  1   
 41  19  45  1   
 42  20  22  1   
 43  20  46  1   
 44  20  47  1   
 45  22  23  ar  
 46  22  24  ar  
 47  23  25  ar  
 48  23  48  1   
 49  24  26  ar  
 50  24  49  1   
 51  25  27  ar  
 52  25  50  1   
 53  26  27  ar  
 54  26  51  1   
@<TRIPOS>SUBSTRUCTURE
  1 ****   7 GROUP 4 **** **** 0

# MOE 2024.06 (io_trps.svl 2023.06)
