@<TRIPOS>MOLECULE
NONAME
55 58 1 0 0 
SMALL
USER_CHARGES


@<TRIPOS>ATOM
  1 O        0.0490    -0.1830    -0.6900 O.2   1 <1>  -0.5700 
  2 C       -0.8880     0.5270    -0.4080 C.2   1 <1>   0.5690 
  3 N       -2.1410    -0.0190    -0.2480 N.am  1 <1>  -0.6600 
  4 C       -0.6020     2.0530    -0.2440 C.3   1 <1>   0.3410 
  5 C       -3.4440     0.6840    -0.0850 C.3   1 <1>   0.1400 
  6 C       -2.3710    -1.4800    -0.4010 C.3   1 <1>   0.1400 
  7 O       -1.3390     2.6040     0.8130 O.3   1 <1>  -0.6800 
  8 C        0.8780     2.3350     0.0900 C.3   1 <1>  -0.1600 
  9 C       -0.9840     2.8290    -1.5210 C.3   1 <1>  -0.1600 
 10 C       -4.5100    -0.3920    -0.2900 C.3   1 <1>   0.2000 
 11 C       -3.8200    -1.7150     0.0290 C.3   1 <1>  -0.0800 
 12 C        1.1980     3.8240     0.2710 C.3   1 <1>   0.3430 
 13 C       -0.2520     4.1650    -1.6950 C.3   1 <1>   0.3430 
 14 O       -5.5940    -0.2010     0.5510 O.3   1 <1>  -0.6800 
 15 C       -4.4870    -2.9180    -0.6580 C.3   1 <1>  -0.0170 
 16 N        0.1570     4.6850    -0.3670 N.4   1 <1>  -0.9590 
 17 C       -3.7660    -4.2130    -0.3230 C.ar  1 <1>   0.1670 
 18 C        0.5550     6.1230    -0.4020 C.3   1 <1>   0.2630 
 19 N       -2.7230    -4.5150    -1.0330 N.ar  1 <1>  -0.6200 
 20 C       -4.2440    -5.0060     0.7320 C.ar  1 <1>  -0.1500 
 21 C       -2.0590    -5.6590    -0.7290 C.ar  1 <1>   0.3100 
 22 C       -3.6000    -6.1620     1.0570 C.ar  1 <1>  -0.1500 
 23 C       -2.4630    -6.5200     0.3140 C.ar  1 <1>   0.0000 
 24 C       -0.9200    -6.0010    -1.4750 C.ar  1 <1>  -0.1500 
 25 C       -1.7160    -7.6880     0.5660 C.ar  1 <1>  -0.1500 
 26 C       -0.2060    -7.1400    -1.2140 C.ar  1 <1>  -0.1500 
 27 C       -0.6100    -7.9930    -0.1810 C.ar  1 <1>  -0.1500 
 28 H       -3.5110     1.0920     0.9080 H     1 <1>   0.0800 
 29 H       -3.5560     1.4620    -0.8170 H     1 <1>   0.0800 
 30 H       -2.2290    -1.7520    -1.4340 H     1 <1>   0.0800 
 31 H       -1.6830    -2.0480     0.2040 H     1 <1>   0.0800 
 32 H       -1.4180     1.9300     1.5230 H     1 <1>   0.4000 
 33 H        1.1700     1.7910     0.9710 H     1 <1>   0.0800 
 34 H        1.4910     1.9590    -0.7110 H     1 <1>   0.0800 
 35 H       -0.7480     2.2240    -2.3800 H     1 <1>   0.0800 
 36 H       -2.0450     2.9950    -1.5460 H     1 <1>   0.0800 
 37 H       -4.8610    -0.3690    -1.3080 H     1 <1>   0.0800 
 38 H       -3.8130    -1.8720     1.0940 H     1 <1>   0.0800 
 39 H        2.1670     4.0330    -0.1520 H     1 <1>   0.0800 
 40 H        1.2380     4.0480     1.3250 H     1 <1>   0.0800 
 41 H       -0.9010     4.8680    -2.1930 H     1 <1>   0.0800 
 42 H        0.6250     4.0210    -2.3070 H     1 <1>   0.0800 
 43 H       -5.3330    -0.3160     1.4850 H     1 <1>   0.4000 
 44 H       -4.4780    -2.7830    -1.7260 H     1 <1>   0.0800 
 45 H       -5.5150    -2.9860    -0.3500 H     1 <1>   0.0800 
 46 H       -0.6800     4.5680     0.2360 H     1 <1>   0.4500 
 47 H        1.4260     6.2550    -1.0230 H     1 <1>   0.0800 
 48 H        0.7830     6.4720     0.5920 H     1 <1>   0.0800 
 49 H       -0.2480     6.7220    -0.7990 H     1 <1>   0.0800 
 50 H       -5.1170    -4.6920     1.2750 H     1 <1>   0.1500 
 51 H       -3.9370    -6.7960     1.8570 H     1 <1>   0.1500 
 52 H       -0.6250    -5.3320    -2.2620 H     1 <1>   0.1500 
 53 H       -2.0310    -8.3390     1.3620 H     1 <1>   0.1500 
 54 H        0.6660    -7.3900    -1.7930 H     1 <1>   0.1500 
 55 H       -0.0400    -8.8850     0.0140 H     1 <1>   0.1500 
@<TRIPOS>BOND
  1   1   2  2   
  2   2   3  am  
  3   2   4  1   
  4   3   5  1   
  5   3   6  1   
  6   4   7  1   
  7   4   8  1   
  8   4   9  1   
  9   5  10  1   
 10   5  28  1   
 11   5  29  1   
 12   6  11  1   
 13   6  30  1   
 14   6  31  1   
 15   7  32  1   
 16   8  12  1   
 17   8  33  1   
 18   8  34  1   
 19   9  13  1   
 20   9  35  1   
 21   9  36  1   
 22  10  11  1   
 23  10  14  1   
 24  10  37  1   
 25  11  15  1   
 26  11  38  1   
 27  12  16  1   
 28  12  39  1   
 29  12  40  1   
 30  13  16  1   
 31  13  41  1   
 32  13  42  1   
 33  14  43  1   
 34  15  17  1   
 35  15  44  1   
 36  15  45  1   
 37  16  18  1   
 38  16  46  1   
 39  17  19  ar  
 40  17  20  ar  
 41  18  47  1   
 42  18  48  1   
 43  18  49  1   
 44  19  21  ar  
 45  20  22  ar  
 46  20  50  1   
 47  21  23  ar  
 48  21  24  ar  
 49  22  23  ar  
 50  22  51  1   
 51  23  25  ar  
 52  24  26  ar  
 53  24  52  1   
 54  25  27  ar  
 55  25  53  1   
 56  26  27  ar  
 57  26  54  1   
 58  27  55  1   
@<TRIPOS>SUBSTRUCTURE
  1 ****   6 GROUP 4 **** **** 0

# MOE 2024.06 (io_trps.svl 2023.06)
