@<TRIPOS>MOLECULE
NONAME
54 57 1 0 0 
SMALL
USER_CHARGES


@<TRIPOS>ATOM
  1 F        0.6200     0.2450     1.0850 F     1 <1>  -0.1900 
  2 C        1.5240    -0.6250     0.7260 C.ar  1 <1>   0.1900 
  3 C        1.3330    -1.9530     1.0550 C.ar  1 <1>  -0.1500 
  4 C        2.6320    -0.1900     0.0300 C.ar  1 <1>  -0.1500 
  5 C        2.2860    -2.8880     0.6730 C.ar  1 <1>  -0.1440 
  6 C        3.5830    -1.1220    -0.3440 C.ar  1 <1>  -0.1500 
  7 C        3.4300    -2.4720    -0.0240 C.ar  1 <1>  -0.0230 
  8 C        2.0510    -4.3500     1.0280 C.3   1 <1>   0.4870 
  9 N        4.4440    -3.3940    -0.4180 N.pl3 1 <1>   0.5930 
 10 N        1.6920    -5.1040    -0.2000 N.4   1 <1>  -0.9590 
 11 N        4.2020    -4.4130    -1.2870 N.2   1 <1>  -0.7070 
 12 C        5.7150    -3.4800     0.0550 C.2   1 <1>  -0.3320 
 13 C        0.4000    -4.6410    -0.7920 C.3   1 <1>   0.3430 
 14 C        1.5570    -6.5620     0.0780 C.3   1 <1>   0.3430 
 15 C        5.3130    -5.0740    -1.3620 C.2   1 <1>   0.1080 
 16 C        6.2960    -4.5420    -0.5390 C.2   1 <1>  -0.1500 
 17 C        6.3290    -2.5270     1.0710 C.3   1 <1>  -0.0600 
 18 C       -0.6430    -5.6580    -0.3250 C.3   1 <1>   0.2000 
 19 C        0.1470    -6.9650    -0.3660 C.3   1 <1>  -0.0800 
 20 C        5.4960    -6.2830    -2.2520 C.3   1 <1>  -0.0590 
 21 O       -0.9910    -5.3560     0.9910 O.3   1 <1>  -0.6800 
 22 C       -0.4230    -8.1420     0.4470 C.3   1 <1>  -0.0170 
 23 C        0.5390    -9.3180     0.4010 C.ar  1 <1>  -0.1440 
 24 C        0.6960   -10.0840    -0.7370 C.ar  1 <1>  -0.1500 
 25 C        1.3110    -9.6740     1.4890 C.ar  1 <1>  -0.1500 
 26 C        1.6080   -11.1270    -0.7390 C.ar  1 <1>   0.1600 
 27 C        2.1940   -10.7370     1.3830 C.ar  1 <1>   0.1600 
 28 N        2.3670   -11.4620     0.2910 N.ar  1 <1>  -0.6200 
 29 H        0.4460    -2.2310     1.6000 H     1 <1>   0.1500 
 30 H        2.7430     0.8530    -0.2110 H     1 <1>   0.1500 
 31 H        4.4530    -0.7970    -0.8920 H     1 <1>   0.1500 
 32 H        1.2560    -4.4310     1.7520 H     1 <1>   0.0800 
 33 H        2.9500    -4.7610     1.4580 H     1 <1>   0.0800 
 34 H        2.4750    -4.9410    -0.8700 H     1 <1>   0.4500 
 35 H        0.1390    -3.6410    -0.4890 H     1 <1>   0.0800 
 36 H        0.4710    -4.6750    -1.8670 H     1 <1>   0.0800 
 37 H        2.3040    -7.1320    -0.4520 H     1 <1>   0.0800 
 38 H        1.6640    -6.7460     1.1350 H     1 <1>   0.0800 
 39 H        7.2980    -4.9190    -0.4220 H     1 <1>   0.1500 
 40 H        7.3280    -2.8420     1.3190 H     1 <1>   0.0800 
 41 H        5.7440    -2.5080     1.9730 H     1 <1>   0.0800 
 42 H        6.3800    -1.5310     0.6690 H     1 <1>   0.0800 
 43 H       -1.5300    -5.6550    -0.9370 H     1 <1>   0.0800 
 44 H        0.2180    -7.2750    -1.3940 H     1 <1>   0.0800 
 45 H        6.5290    -6.5790    -2.2730 H     1 <1>   0.0800 
 46 H        5.1850    -6.0460    -3.2530 H     1 <1>   0.0800 
 47 H        4.9060    -7.1020    -1.8850 H     1 <1>   0.0800 
 48 H       -1.8270    -5.8010     1.2460 H     1 <1>   0.4000 
 49 H       -1.3740    -8.4430     0.0420 H     1 <1>   0.0800 
 50 H       -0.5800    -7.8570     1.4740 H     1 <1>   0.0800 
 51 H        0.1210    -9.8890    -1.6230 H     1 <1>   0.1500 
 52 H        1.2390    -9.1460     2.4220 H     1 <1>   0.1500 
 53 H        1.7190   -11.7170    -1.6330 H     1 <1>   0.1500 
 54 H        2.7890   -11.0050     2.2400 H     1 <1>   0.1500 
@<TRIPOS>BOND
  1   1   2  1   
  2   2   3  ar  
  3   2   4  ar  
  4   3   5  ar  
  5   3  29  1   
  6   4   6  ar  
  7   4  30  1   
  8   5   7  ar  
  9   5   8  1   
 10   6   7  ar  
 11   6  31  1   
 12   7   9  1   
 13   8  10  1   
 14   8  32  1   
 15   8  33  1   
 16   9  11  1   
 17   9  12  1   
 18  10  13  1   
 19  10  14  1   
 20  10  34  1   
 21  11  15  2   
 22  12  16  2   
 23  12  17  1   
 24  13  18  1   
 25  13  35  1   
 26  13  36  1   
 27  14  19  1   
 28  14  37  1   
 29  14  38  1   
 30  15  16  1   
 31  15  20  1   
 32  16  39  1   
 33  17  40  1   
 34  17  41  1   
 35  17  42  1   
 36  18  19  1   
 37  18  21  1   
 38  18  43  1   
 39  19  22  1   
 40  19  44  1   
 41  20  45  1   
 42  20  46  1   
 43  20  47  1   
 44  21  48  1   
 45  22  23  1   
 46  22  49  1   
 47  22  50  1   
 48  23  24  ar  
 49  23  25  ar  
 50  24  26  ar  
 51  24  51  1   
 52  25  27  ar  
 53  25  52  1   
 54  26  28  ar  
 55  26  53  1   
 56  27  28  ar  
 57  27  54  1   
@<TRIPOS>SUBSTRUCTURE
  1 ****  10 GROUP 4 **** **** 0

# MOE 2024.06 (io_trps.svl 2023.06)
