@<TRIPOS>MOLECULE
Untitled Document
63 67 1 0 0 
SMALL
USER_CHARGES


@<TRIPOS>ATOM
  1 O        0.3230    -0.7550     2.3680 O.2   1 <1>  -0.5700 
  2 C        0.5700    -1.1430     1.2460 C.2   1 <1>   0.7150 
  3 N       -0.4510    -1.3860     0.3780 N.am  1 <1>  -0.7300 
  4 C        1.9260    -1.3330     0.8090 C.2   1 <1>  -0.2370 
  5 C       -1.8770    -1.2180     0.6950 C.3   1 <1>   0.2200 
  6 N        2.2910    -2.2530    -0.1450 N.pl3 1 <1>   0.0330 
  7 C        3.0620    -0.7020     1.2280 C.2   1 <1>  -0.1500 
  8 C       -2.6520    -2.4270     0.1650 C.3   1 <1>  -0.1600 
  9 C       -2.3810     0.0780     0.0570 C.3   1 <1>  -0.1600 
 10 C        3.6450    -2.1920    -0.3370 C.ar  1 <1>  -0.1520 
 11 C        4.1580    -1.2210     0.5160 C.ar  1 <1>   0.0000 
 12 C       -4.1630    -2.2610     0.3860 C.3   1 <1>  -0.1600 
 13 C       -3.8900     0.2520     0.2810 C.3   1 <1>  -0.1600 
 14 C        4.4830    -2.9140    -1.1910 C.ar  1 <1>  -0.1500 
 15 C        5.5330    -0.9600     0.5180 C.ar  1 <1>  -0.1500 
 16 C       -4.6900    -0.9550    -0.2450 C.3   1 <1>  -0.0800 
 17 C        5.8320    -2.6470    -1.1790 C.ar  1 <1>  -0.1500 
 18 C        6.3570    -1.6690    -0.3240 C.ar  1 <1>  -0.1500 
 19 C       -6.1890    -0.7410     0.0350 C.3   1 <1>  -0.1600 
 20 C       -7.0580    -1.8360    -0.5870 C.3   1 <1>   0.3430 
 21 N       -8.4920    -1.6120    -0.2570 N.4   1 <1>  -0.9590 
 22 C       -9.2920    -2.8480    -0.4880 C.3   1 <1>   0.4870 
 23 C       -9.1010    -0.4720    -1.0100 C.3   1 <1>   0.3430 
 24 C      -10.7450    -2.6180    -0.0950 C.ar  1 <1>  -0.1430 
 25 C      -10.4640    -0.1140    -0.4100 C.3   1 <1>  -0.0170 
 26 C      -11.2970    -1.3430    -0.0720 C.ar  1 <1>  -0.1430 
 27 C      -11.5370    -3.7090     0.2350 C.ar  1 <1>  -0.1500 
 28 C      -12.6270    -1.1780     0.2790 C.ar  1 <1>  -0.1500 
 29 C      -12.8730    -3.5550     0.5900 C.ar  1 <1>   0.0730 
 30 C      -13.4050    -2.2730     0.6060 C.ar  1 <1>  -0.1500 
 31 C      -13.6790    -4.6930     0.9290 C.1   1 <1>   0.4840 
 32 N      -14.3020    -5.6090     1.1970 N.1   1 <1>  -0.5570 
 33 H       -0.2310    -1.4210    -0.6140 H     1 <1>   0.3700 
 34 H       -2.0070    -1.1600     1.7650 H     1 <1>   0.0800 
 35 H        1.6690    -2.9360    -0.5870 H     1 <1>   0.2700 
 36 H        3.1340     0.0650     1.9780 H     1 <1>   0.1500 
 37 H       -2.3130    -3.3120     0.6760 H     1 <1>   0.0800 
 38 H       -2.4590    -2.5460    -0.8860 H     1 <1>   0.0800 
 39 H       -2.1780     0.0670    -0.9990 H     1 <1>   0.0800 
 40 H       -1.8600     0.9110     0.4960 H     1 <1>   0.0800 
 41 H       -4.3570    -2.2550     1.4460 H     1 <1>   0.0800 
 42 H       -4.6590    -3.1170    -0.0360 H     1 <1>   0.0800 
 43 H       -4.2120     1.1520    -0.2140 H     1 <1>   0.0800 
 44 H       -4.0710     0.3760     1.3360 H     1 <1>   0.0800 
 45 H        4.0730    -3.6640    -1.8430 H     1 <1>   0.1500 
 46 H        5.9200    -0.2080     1.1810 H     1 <1>   0.1500 
 47 H       -4.5410    -1.0080    -1.3120 H     1 <1>   0.0800 
 48 H        6.5000    -3.1870    -1.8260 H     1 <1>   0.1500 
 49 H        7.4160    -1.4790    -0.3340 H     1 <1>   0.1500 
 50 H       -6.4690     0.2150    -0.3700 H     1 <1>   0.0800 
 51 H       -6.3440    -0.7180     1.1000 H     1 <1>   0.0800 
 52 H       -6.7460    -2.7900    -0.1930 H     1 <1>   0.0800 
 53 H       -6.9200    -1.8530    -1.6570 H     1 <1>   0.0800 
 54 H       -8.5750    -1.4030     0.7470 H     1 <1>   0.4500 
 55 H       -8.8900    -3.6590     0.0970 H     1 <1>   0.0800 
 56 H       -9.2480    -3.1250    -1.5290 H     1 <1>   0.0800 
 57 H       -9.2310    -0.7520    -2.0430 H     1 <1>   0.0800 
 58 H       -8.4620     0.3940    -0.9730 H     1 <1>   0.0800 
 59 H      -10.9980     0.5070    -1.1080 H     1 <1>   0.0800 
 60 H      -10.3130     0.4640     0.4850 H     1 <1>   0.0800 
 61 H      -11.1250    -4.7050     0.2200 H     1 <1>   0.1500 
 62 H      -13.0680    -0.1950     0.3040 H     1 <1>   0.1500 
 63 H      -14.4380    -2.1280     0.8770 H     1 <1>   0.1500 
@<TRIPOS>BOND
  1   1   2  2   
  2   2   3  am  
  3   2   4  1   
  4   3   5  1   
  5   3  33  1   
  6   4   6  1   
  7   4   7  2   
  8   5   8  1   
  9   5   9  1   
 10   5  34  1   
 11   6  10  1   
 12   6  35  1   
 13   7  11  1   
 14   7  36  1   
 15   8  12  1   
 16   8  37  1   
 17   8  38  1   
 18   9  13  1   
 19   9  39  1   
 20   9  40  1   
 21  10  11  ar  
 22  10  14  ar  
 23  11  15  ar  
 24  12  16  1   
 25  12  41  1   
 26  12  42  1   
 27  13  16  1   
 28  13  43  1   
 29  13  44  1   
 30  14  17  ar  
 31  14  45  1   
 32  15  18  ar  
 33  15  46  1   
 34  16  19  1   
 35  16  47  1   
 36  17  18  ar  
 37  17  48  1   
 38  18  49  1   
 39  19  20  1   
 40  19  50  1   
 41  19  51  1   
 42  20  21  1   
 43  20  52  1   
 44  20  53  1   
 45  21  22  1   
 46  21  23  1   
 47  21  54  1   
 48  22  24  1   
 49  22  55  1   
 50  22  56  1   
 51  23  25  1   
 52  23  57  1   
 53  23  58  1   
 54  24  26  ar  
 55  24  27  ar  
 56  25  26  1   
 57  25  59  1   
 58  25  60  1   
 59  26  28  ar  
 60  27  29  ar  
 61  27  61  1   
 62  28  30  ar  
 63  28  62  1   
 64  29  30  ar  
 65  29  31  1   
 66  30  63  1   
 67  31  32  3   
@<TRIPOS>SUBSTRUCTURE
  1 ****  12 GROUP 4 **** **** 0

# MOE 2024.06 (io_trps.svl 2023.06)
