@<TRIPOS>MOLECULE
NONAME
53 56 1 0 0 
SMALL
USER_CHARGES


@<TRIPOS>ATOM
  1 O       -0.7890     3.9330     2.1050 O.2   1 <1>  -0.5700 
  2 C       -0.5990     3.6770     0.9280 C.2   1 <1>   0.5440 
  3 N       -1.6870     3.6120     0.0810 N.am  1 <1>  -0.6600 
  4 C        0.7420     3.4370     0.4610 C.ar  1 <1>   0.0860 
  5 C       -3.0660     3.8680     0.6180 C.3   1 <1>   0.1400 
  6 C       -1.5930     3.0570    -1.3050 C.3   1 <1>   0.1400 
  7 C        1.4730     2.3380     0.9450 C.ar  1 <1>   0.4100 
  8 C        1.3450     4.2630    -0.4770 C.ar  1 <1>  -0.1500 
  9 C       -4.0750     4.2170    -0.4910 C.3   1 <1>   0.1440 
 10 C       -2.8490     2.2540    -1.6550 C.3   1 <1>  -0.1600 
 11 N        2.7030     2.0310     0.5330 N.ar  1 <1>  -0.6200 
 12 N        0.9220     1.5080     1.8960 N.pl3 1 <1>  -0.8690 
 13 C        2.6190     3.9500    -0.8920 C.ar  1 <1>  -0.1500 
 14 C       -5.4160     4.4880     0.1710 C.ar  1 <1>   0.1670 
 15 C       -4.1500     3.0730    -1.5380 C.3   1 <1>  -0.1600 
 16 C       -3.7410     5.5960    -1.1330 C.3   1 <1>  -0.1600 
 17 C        3.2430     2.8340    -0.3620 C.ar  1 <1>   0.1600 
 18 C        1.6820     0.4590     2.6200 C.3   1 <1>   0.1290 
 19 N       -6.1990     3.5770     0.6930 N.ar  1 <1>  -0.6200 
 20 C       -5.7110     5.8170     0.1920 C.ar  1 <1>  -0.1430 
 21 C       -4.6270     6.6470    -0.4420 C.3   1 <1>  -0.0170 
 22 C       -7.3250     4.0370     1.2430 C.ar  1 <1>   0.7200 
 23 C       -6.8930     6.1980     0.7750 C.ar  1 <1>   0.1600 
 24 N       -7.7090     5.3160     1.3010 N.ar  1 <1>  -0.6200 
 25 N       -8.1710     3.1000     1.8050 N.pl3 1 <1>  -0.8380 
 26 C       -7.7240     1.7100     2.0970 C.3   1 <1>   0.1290 
 27 C       -9.5710     3.4280     2.1870 C.3   1 <1>   0.1290 
 28 H       -3.0310     4.6710     1.3350 H     1 <1>   0.0800 
 29 H       -3.4030     2.9860     1.1360 H     1 <1>   0.0800 
 30 H       -0.7360     2.4100    -1.3880 H     1 <1>   0.0800 
 31 H       -1.4750     3.8680    -2.0020 H     1 <1>   0.0800 
 32 H        0.8240     5.1220    -0.8620 H     1 <1>   0.1500 
 33 H       -2.9000     1.4130    -0.9850 H     1 <1>   0.0800 
 34 H       -2.7600     1.8610    -2.6520 H     1 <1>   0.0800 
 35 H        0.1470     1.9300     2.4290 H     1 <1>   0.4000 
 36 H        3.1300     4.5590    -1.6160 H     1 <1>   0.1500 
 37 H       -4.4210     3.4680    -2.5010 H     1 <1>   0.0800 
 38 H       -4.9330     2.3880    -1.2640 H     1 <1>   0.0800 
 39 H       -3.9940     5.5890    -2.1780 H     1 <1>   0.0800 
 40 H       -2.7000     5.8500    -1.0430 H     1 <1>   0.0800 
 41 H        4.2390     2.5920    -0.6930 H     1 <1>   0.1500 
 42 H        2.2260    -0.1510     1.9190 H     1 <1>   0.0800 
 43 H        1.0040    -0.1660     3.1750 H     1 <1>   0.0800 
 44 H        2.3790     0.9200     3.2980 H     1 <1>   0.0800 
 45 H       -5.0280     7.3540    -1.1480 H     1 <1>   0.0800 
 46 H       -4.0740     7.1640     0.3230 H     1 <1>   0.0800 
 47 H       -7.1710     7.2370     0.8150 H     1 <1>   0.1500 
 48 H       -6.6710     1.6920     2.3190 H     1 <1>   0.0800 
 49 H       -7.9120     1.0860     1.2410 H     1 <1>   0.0800 
 50 H       -8.2560     1.3200     2.9470 H     1 <1>   0.0800 
 51 H       -9.9620     4.2060     1.5540 H     1 <1>   0.0800 
 52 H       -9.5950     3.7640     3.2090 H     1 <1>   0.0800 
 53 H      -10.1970     2.5600     2.0810 H     1 <1>   0.0800 
@<TRIPOS>BOND
  1   1   2  2   
  2   2   3  am  
  3   2   4  1   
  4   3   5  1   
  5   3   6  1   
  6   4   7  ar  
  7   4   8  ar  
  8   5   9  1   
  9   5  28  1   
 10   5  29  1   
 11   6  10  1   
 12   6  30  1   
 13   6  31  1   
 14   7  11  ar  
 15   7  12  1   
 16   8  13  ar  
 17   8  32  1   
 18   9  14  1   
 19   9  15  1   
 20   9  16  1   
 21  10  15  1   
 22  10  33  1   
 23  10  34  1   
 24  11  17  ar  
 25  12  18  1   
 26  12  35  1   
 27  13  17  ar  
 28  13  36  1   
 29  14  19  ar  
 30  14  20  ar  
 31  15  37  1   
 32  15  38  1   
 33  16  21  1   
 34  16  39  1   
 35  16  40  1   
 36  17  41  1   
 37  18  42  1   
 38  18  43  1   
 39  18  44  1   
 40  19  22  ar  
 41  20  21  1   
 42  20  23  ar  
 43  21  45  1   
 44  21  46  1   
 45  22  24  ar  
 46  22  25  1   
 47  23  24  ar  
 48  23  47  1   
 49  25  26  1   
 50  25  27  1   
 51  26  48  1   
 52  26  49  1   
 53  26  50  1   
 54  27  51  1   
 55  27  52  1   
 56  27  53  1   
@<TRIPOS>SUBSTRUCTURE
  1 ****   5 GROUP 4 **** **** 0

# MOE 2024.06 (io_trps.svl 2023.06)
