@<TRIPOS>MOLECULE
NONAME
53 56 1 0 0 
SMALL
USER_CHARGES


@<TRIPOS>ATOM
  1 O        0.3390     0.2390    -0.9430 O.2   1 <1>  -0.5700 
  2 C        1.1370    -0.6260    -0.6350 C.2   1 <1>   0.5440 
  3 N        2.3100    -0.2650    -0.0040 N.am  1 <1>  -0.6600 
  4 C        0.8290    -2.0060    -0.9520 C.ar  1 <1>   0.0860 
  5 C        2.4830     1.0840     0.6030 C.3   1 <1>   0.1400 
  6 C        3.5510    -1.0870    -0.0210 C.3   1 <1>   0.1400 
  7 C        0.9460    -3.0350    -0.0360 C.ar  1 <1>  -0.1500 
  8 C        0.3770    -2.3880    -2.2070 C.ar  1 <1>  -0.1500 
  9 C        3.0020     0.9360     2.0380 C.3   1 <1>  -0.1600 
 10 C        4.0740    -1.2620     1.4090 C.3   1 <1>  -0.1600 
 11 C        0.6500    -4.3430    -0.3870 C.ar  1 <1>   0.4100 
 12 C        0.1030    -3.7140    -2.4700 C.ar  1 <1>   0.1600 
 13 C        4.2850     0.0940     2.0980 C.3   1 <1>  -0.1600 
 14 N        0.2320    -4.6960    -1.5950 N.ar  1 <1>  -0.6200 
 15 N        0.7880    -5.3360     0.5540 N.pl3 1 <1>  -0.8690 
 16 C        0.3060    -6.7230     0.3310 C.3   1 <1>   0.2890 
 17 C       -1.1900    -6.7930     0.5910 C.3   1 <1>  -0.0800 
 18 C        0.8600    -7.6460     1.4140 C.3   1 <1>   0.1200 
 19 C       -1.2390    -6.9860     2.1070 C.3   1 <1>   0.1200 
 20 C       -1.8380    -7.9620    -0.1720 C.3   1 <1>  -0.0170 
 21 O       -0.0580    -7.6370     2.4720 O.3   1 <1>  -0.5600 
 22 C       -3.3380    -8.0230     0.0720 C.ar  1 <1>  -0.1430 
 23 C       -4.2030    -7.1160    -0.5060 C.ar  1 <1>  -0.1500 
 24 C       -3.9120    -8.9840     0.8800 C.ar  1 <1>  -0.1500 
 25 C       -5.5620    -7.2090    -0.2530 C.ar  1 <1>   0.1600 
 26 C       -5.2850    -8.9890     1.0680 C.ar  1 <1>   0.1600 
 27 N       -6.1240    -8.1240     0.5220 N.ar  1 <1>  -0.6200 
 28 H        3.1830     1.6480     0.0110 H     1 <1>   0.0800 
 29 H        1.5480     1.6180     0.6140 H     1 <1>   0.0800 
 30 H        3.3770    -2.0490    -0.4700 H     1 <1>   0.0800 
 31 H        4.2930    -0.5790    -0.6140 H     1 <1>   0.0800 
 32 H        1.2730    -2.8200     0.9630 H     1 <1>   0.1500 
 33 H        0.2440    -1.6400    -2.9690 H     1 <1>   0.1500 
 34 H        3.1910     1.9120     2.4480 H     1 <1>   0.0800 
 35 H        2.2360     0.4740     2.6350 H     1 <1>   0.0800 
 36 H        3.3690    -1.8490     1.9710 H     1 <1>   0.0800 
 37 H        5.0030    -1.8030     1.3840 H     1 <1>   0.0800 
 38 H       -0.2430    -3.9840    -3.4530 H     1 <1>   0.1500 
 39 H        4.5730    -0.0590     3.1240 H     1 <1>   0.0800 
 40 H        5.0820     0.6240     1.6040 H     1 <1>   0.0800 
 41 H        0.7400    -5.0540     1.5350 H     1 <1>   0.4000 
 42 H        0.5850    -7.0560    -0.6550 H     1 <1>   0.0800 
 43 H       -1.6790    -5.8790     0.3020 H     1 <1>   0.0800 
 44 H        1.8240    -7.3270     1.7690 H     1 <1>   0.0800 
 45 H        0.9230    -8.6560     1.0510 H     1 <1>   0.0800 
 46 H       -2.0800    -7.5690     2.4360 H     1 <1>   0.0800 
 47 H       -1.2500    -6.0330     2.6070 H     1 <1>   0.0800 
 48 H       -1.3870    -8.8950     0.1190 H     1 <1>   0.0800 
 49 H       -1.6680    -7.8340    -1.2270 H     1 <1>   0.0800 
 50 H       -3.8330    -6.3390    -1.1490 H     1 <1>   0.1500 
 51 H       -3.3070    -9.7270     1.3660 H     1 <1>   0.1500 
 52 H       -6.2220    -6.4930    -0.7120 H     1 <1>   0.1500 
 53 H       -5.7140    -9.7450     1.7020 H     1 <1>   0.1500 
@<TRIPOS>BOND
  1   1   2  2   
  2   2   3  am  
  3   2   4  1   
  4   3   5  1   
  5   3   6  1   
  6   4   7  ar  
  7   4   8  ar  
  8   5   9  1   
  9   5  28  1   
 10   5  29  1   
 11   6  10  1   
 12   6  30  1   
 13   6  31  1   
 14   7  11  ar  
 15   7  32  1   
 16   8  12  ar  
 17   8  33  1   
 18   9  13  1   
 19   9  34  1   
 20   9  35  1   
 21  10  13  1   
 22  10  36  1   
 23  10  37  1   
 24  11  14  ar  
 25  11  15  1   
 26  12  14  ar  
 27  12  38  1   
 28  13  39  1   
 29  13  40  1   
 30  15  16  1   
 31  15  41  1   
 32  16  17  1   
 33  16  18  1   
 34  16  42  1   
 35  17  19  1   
 36  17  20  1   
 37  17  43  1   
 38  18  21  1   
 39  18  44  1   
 40  18  45  1   
 41  19  21  1   
 42  19  46  1   
 43  19  47  1   
 44  20  22  1   
 45  20  48  1   
 46  20  49  1   
 47  22  23  ar  
 48  22  24  ar  
 49  23  25  ar  
 50  23  50  1   
 51  24  26  ar  
 52  24  51  1   
 53  25  27  ar  
 54  25  52  1   
 55  26  27  ar  
 56  26  53  1   
@<TRIPOS>SUBSTRUCTURE
  1 ****  11 GROUP 4 **** **** 0

# MOE 2024.06 (io_trps.svl 2023.06)
