@<TRIPOS>MOLECULE
NONAME
59 62 1 0 0 
SMALL
USER_CHARGES


@<TRIPOS>ATOM
  1 O       -3.3260     1.8530    -3.3090 O.2   1 <1>  -0.5700 
  2 C       -2.6330     1.9670    -2.3260 C.2   1 <1>   0.5690 
  3 N       -2.3130     0.9080    -1.5440 N.am  1 <1>  -0.7300 
  4 C       -2.0850     3.3430    -1.9330 C.3   1 <1>   0.1710 
  5 C       -2.6830    -0.5030    -1.7770 C.3   1 <1>   0.2200 
  6 N       -0.8770     3.2950    -1.0550 N.3   1 <1>  -0.8100 
  7 C       -3.3330    -1.0590    -0.5230 C.3   1 <1>  -0.0800 
  8 C       -1.4210    -1.3550    -1.8870 C.3   1 <1>   0.1200 
  9 C       -0.6180     4.6230    -0.4510 C.3   1 <1>   0.1100 
 10 C        0.3210     2.8660    -1.8220 C.3   1 <1>   0.1100 
 11 C       -2.1120    -1.4510     0.3130 C.3   1 <1>   0.1200 
 12 C       -4.2340    -2.2680    -0.8410 C.3   1 <1>  -0.0160 
 13 O       -1.0850    -1.7490    -0.5880 O.3   1 <1>  -0.5600 
 14 C        0.6330     4.6210     0.4500 C.3   1 <1>   0.2090 
 15 C        1.5900     2.8270    -0.9490 C.3   1 <1>   0.2090 
 16 C       -4.9000    -2.8090     0.4150 C.ar  1 <1>  -0.1440 
 17 N        1.8310     4.1480    -0.3010 N.pl3 1 <1>  -0.8380 
 18 C       -5.9660    -2.1630     1.0060 C.ar  1 <1>  -0.1500 
 19 C       -4.4750    -3.9700     1.0280 C.ar  1 <1>  -0.1500 
 20 C        3.0530     4.3010     0.3420 C.ar  1 <1>   0.1000 
 21 C       -6.5360    -2.6900     2.1530 C.ar  1 <1>   0.1600 
 22 C       -5.1150    -4.4130     2.1740 C.ar  1 <1>   0.1600 
 23 C        3.3800     3.5680     1.4780 C.ar  1 <1>  -0.1500 
 24 C        3.9770     5.2080    -0.1560 C.ar  1 <1>  -0.1500 
 25 N       -6.1340    -3.7990     2.7520 N.ar  1 <1>  -0.6200 
 26 C        4.6030     3.7340     2.1070 C.ar  1 <1>  -0.1440 
 27 C        5.2010     5.3810     0.4640 C.ar  1 <1>  -0.1500 
 28 C        5.5130     4.6450     1.5940 C.ar  1 <1>  -0.1500 
 29 C        4.9560     2.9320     3.3460 C.3   1 <1>  -0.0970 
 30 H       -1.6540     1.0950    -0.7800 H     1 <1>   0.3700 
 31 H       -2.8760     3.8560    -1.4170 H     1 <1>   0.0800 
 32 H       -1.8650     3.8960    -2.8290 H     1 <1>   0.0800 
 33 H       -3.3060    -0.5840    -2.6520 H     1 <1>   0.0800 
 34 H       -3.9210    -0.3100    -0.0230 H     1 <1>   0.0800 
 35 H       -0.5990    -0.8180    -2.3260 H     1 <1>   0.0800 
 36 H       -1.6170    -2.2470    -2.4550 H     1 <1>   0.0800 
 37 H       -0.4780     5.3570    -1.2260 H     1 <1>   0.0800 
 38 H       -1.4660     4.9170     0.1420 H     1 <1>   0.0800 
 39 H        0.1600     1.8860    -2.2340 H     1 <1>   0.0800 
 40 H        0.4940     3.5460    -2.6390 H     1 <1>   0.0800 
 41 H       -2.2830    -2.3010     0.9480 H     1 <1>   0.0800 
 42 H       -1.7830    -0.6190     0.9120 H     1 <1>   0.0800 
 43 H       -3.6590    -3.0490    -1.3090 H     1 <1>   0.0800 
 44 H       -5.0000    -1.9700    -1.5350 H     1 <1>   0.0800 
 45 H        0.4600     3.9790     1.2960 H     1 <1>   0.0800 
 46 H        0.8160     5.6170     0.8140 H     1 <1>   0.0800 
 47 H        2.4390     2.5740    -1.5590 H     1 <1>   0.0800 
 48 H        1.4790     2.0670    -0.1950 H     1 <1>   0.0800 
 49 H       -6.3590    -1.2550     0.5870 H     1 <1>   0.1500 
 50 H       -3.6510    -4.5340     0.6290 H     1 <1>   0.1500 
 51 H       -7.3670    -2.1720     2.6010 H     1 <1>   0.1500 
 52 H       -4.7690    -5.3200     2.6400 H     1 <1>   0.1500 
 53 H        2.6650     2.8670     1.8610 H     1 <1>   0.1500 
 54 H        3.7220     5.7720    -1.0330 H     1 <1>   0.1500 
 55 H        5.9090     6.0870     0.0680 H     1 <1>   0.1500 
 56 H        6.4670     4.7830     2.0720 H     1 <1>   0.1500 
 57 H        5.2800     3.5920     4.1310 H     1 <1>   0.0800 
 58 H        5.7500     2.2440     3.1190 H     1 <1>   0.0800 
 59 H        4.1070     2.3750     3.6970 H     1 <1>   0.0800 
@<TRIPOS>BOND
  1   1   2  2   
  2   2   3  am  
  3   2   4  1   
  4   3   5  1   
  5   3  30  1   
  6   4   6  1   
  7   4  31  1   
  8   4  32  1   
  9   5   7  1   
 10   5   8  1   
 11   5  33  1   
 12   6   9  1   
 13   6  10  1   
 14   7  11  1   
 15   7  12  1   
 16   7  34  1   
 17   8  13  1   
 18   8  35  1   
 19   8  36  1   
 20   9  14  1   
 21   9  37  1   
 22   9  38  1   
 23  10  15  1   
 24  10  39  1   
 25  10  40  1   
 26  11  13  1   
 27  11  41  1   
 28  11  42  1   
 29  12  16  1   
 30  12  43  1   
 31  12  44  1   
 32  14  17  1   
 33  14  45  1   
 34  14  46  1   
 35  15  17  1   
 36  15  47  1   
 37  15  48  1   
 38  16  18  ar  
 39  16  19  ar  
 40  17  20  1   
 41  18  21  ar  
 42  18  49  1   
 43  19  22  ar  
 44  19  50  1   
 45  20  23  ar  
 46  20  24  ar  
 47  21  25  ar  
 48  21  51  1   
 49  22  25  ar  
 50  22  52  1   
 51  23  26  ar  
 52  23  53  1   
 53  24  27  ar  
 54  24  54  1   
 55  26  28  ar  
 56  26  29  1   
 57  27  28  ar  
 58  27  55  1   
 59  28  56  1   
 60  29  57  1   
 61  29  58  1   
 62  29  59  1   
@<TRIPOS>SUBSTRUCTURE
  1 ****   3 GROUP 4 **** **** 0

# MOE 2024.06 (io_trps.svl 2023.06)
