@<TRIPOS>MOLECULE
NONAME
43 45 1 0 0 
SMALL
USER_CHARGES


@<TRIPOS>ATOM
  1 O       -0.2130     0.2110     0.4700 O.co2 1 <1>  -0.9000 
  2 C        0.8510    -0.3670     0.1640 C.2   1 <1>   0.9790 
  3 O        1.8650     0.3520     0.0220 O.co2 1 <1>  -0.9000 
  4 C        0.9530    -1.8260    -0.0300 C.ar  1 <1>   0.1310 
  5 N       -0.0900    -2.6570     0.0820 N.ar  1 <1>  -0.6200 
  6 C        2.1850    -2.3770    -0.3470 C.ar  1 <1>  -0.1500 
  7 C        0.1050    -3.9570    -0.1180 C.ar  1 <1>   0.7200 
  8 C        2.2930    -3.7300    -0.5350 C.ar  1 <1>   0.1660 
  9 N        1.2670    -4.5290    -0.4250 N.ar  1 <1>  -0.6200 
 10 N       -0.9970    -4.7870    -0.0020 N.pl3 1 <1>  -0.8380 
 11 C        3.6180    -4.3710    -0.8820 C.3   1 <1>  -0.0970 
 12 C       -1.1490    -5.9420    -0.9570 C.3   1 <1>   0.2090 
 13 C       -2.2800    -4.2150     0.4970 C.3   1 <1>   0.2090 
 14 C       -2.0260    -7.0750    -0.3850 C.3   1 <1>  -0.1060 
 15 C       -3.1800    -5.3040     1.0750 C.3   1 <1>  -0.1600 
 16 C       -2.3760    -8.0550    -1.5040 C.2   1 <1>   0.9060 
 17 C       -3.3560    -6.4360     0.0680 C.3   1 <1>   0.2000 
 18 C       -1.2950    -7.8180     0.7730 C.3   1 <1>  -0.0650 
 19 O       -3.2100    -8.9450    -1.2690 O.co2 1 <1>  -0.9000 
 20 O       -1.8750    -7.9290    -2.6280 O.co2 1 <1>  -0.9000 
 21 O       -4.1800    -7.3910     0.6330 O.3   1 <1>  -0.6800 
 22 C       -0.0040    -8.5400     0.3530 C.3   1 <1>  -0.1950 
 23 C        0.9660    -9.0150     1.3880 C.3   1 <1>  -0.2000 
 24 C        1.3260    -7.8710     0.4860 C.3   1 <1>  -0.2000 
 25 H        3.0400    -1.7340    -0.4430 H     1 <1>   0.1500 
 26 H        4.3970    -3.6340    -0.9450 H     1 <1>   0.0800 
 27 H        3.5330    -4.8750    -1.8270 H     1 <1>   0.0800 
 28 H        3.8740    -5.0910    -0.1260 H     1 <1>   0.0800 
 29 H       -1.6010    -5.5670    -1.8600 H     1 <1>   0.0800 
 30 H       -0.1910    -6.3440    -1.2360 H     1 <1>   0.0800 
 31 H       -2.0880    -3.4850     1.2660 H     1 <1>   0.0800 
 32 H       -2.7770    -3.7180    -0.3190 H     1 <1>   0.0800 
 33 H       -4.1380    -4.8770     1.3040 H     1 <1>   0.0800 
 34 H       -2.7460    -5.6700     1.9860 H     1 <1>   0.0800 
 35 H       -3.8680    -6.0570    -0.8010 H     1 <1>   0.0800 
 36 H       -1.0620    -7.1250     1.5600 H     1 <1>   0.0800 
 37 H       -1.9580    -8.5600     1.1810 H     1 <1>   0.0800 
 38 H       -4.0840    -8.1970     0.0450 H     1 <1>   0.4000 
 39 H       -0.1520    -9.1940    -0.4920 H     1 <1>   0.1000 
 40 H        0.7590    -8.8110     2.4240 H     1 <1>   0.1000 
 41 H        1.4450    -9.9660     1.2400 H     1 <1>   0.1000 
 42 H        2.0330    -8.0090    -0.3130 H     1 <1>   0.1000 
 43 H        1.3560    -6.8750     0.8930 H     1 <1>   0.1000 
@<TRIPOS>BOND
  1   1   2  ar  
  2   2   3  ar  
  3   2   4  1   
  4   4   5  ar  
  5   4   6  ar  
  6   5   7  ar  
  7   6   8  ar  
  8   6  25  1   
  9   7   9  ar  
 10   7  10  1   
 11   8   9  ar  
 12   8  11  1   
 13  10  12  1   
 14  10  13  1   
 15  11  26  1   
 16  11  27  1   
 17  11  28  1   
 18  12  14  1   
 19  12  29  1   
 20  12  30  1   
 21  13  15  1   
 22  13  31  1   
 23  13  32  1   
 24  14  16  1   
 25  14  17  1   
 26  14  18  1   
 27  15  17  1   
 28  15  33  1   
 29  15  34  1   
 30  16  19  ar  
 31  16  20  ar  
 32  17  21  1   
 33  17  35  1   
 34  18  22  1   
 35  18  36  1   
 36  18  37  1   
 37  21  38  1   
 38  22  23  1   
 39  22  24  1   
 40  22  39  1   
 41  23  24  1   
 42  23  40  1   
 43  23  41  1   
 44  24  42  1   
 45  24  43  1   
@<TRIPOS>SUBSTRUCTURE
  1 ****  10 GROUP 4 **** **** 0

# MOE 2024.06 (io_trps.svl 2023.06)
