@<TRIPOS>MOLECULE
NONAME
54 55 1 0 0 
SMALL
USER_CHARGES


@<TRIPOS>ATOM
  1 O        0.2160    -0.4360    -0.1550 O.2   1 <1>  -0.5700 
  2 C        0.5320    -1.4610     0.4220 C.2   1 <1>   0.6900 
  3 N        1.8370    -1.7190     0.7610 N.am  1 <1>  -0.6600 
  4 N       -0.4270    -2.3610     0.7340 N.am  1 <1>  -0.7300 
  5 C        2.9020    -0.6940     0.5780 C.3   1 <1>   0.0600 
  6 C        2.3010    -3.0130     1.3300 C.3   1 <1>   0.0600 
  7 C       -1.8280    -2.3120     0.2370 C.3   1 <1>   0.2010 
  8 C       -2.4560    -3.7040     0.0760 C.2   1 <1>   0.5690 
  9 O       -1.9260    -4.6400     0.6370 O.2   1 <1>  -0.5700 
 10 N       -3.5970    -3.8900    -0.6720 N.am  1 <1>  -0.6600 
 11 C       -4.0830    -5.2770    -0.9260 C.3   1 <1>   0.1400 
 12 C       -4.4230    -2.7840    -1.2390 C.3   1 <1>   0.1400 
 13 C       -4.9650    -5.7590     0.2350 C.3   1 <1>   0.1400 
 14 C       -5.9260    -2.9550    -0.9690 C.3   1 <1>  -0.1600 
 15 N       -6.3070    -5.0850     0.2550 N.am  1 <1>  -0.6600 
 16 C       -6.2660    -3.5940     0.3830 C.3   1 <1>   0.1400 
 17 C       -7.5160    -5.7370     0.1720 C.2   1 <1>   0.5690 
 18 O       -8.5680    -5.1350     0.1330 O.2   1 <1>  -0.5700 
 19 C       -7.6280    -7.2810     0.1390 C.3   1 <1>   0.4840 
 20 N       -8.9710    -7.7840     0.5850 N.4   1 <1>  -0.9590 
 21 C       -7.5010    -7.8500    -1.2700 C.3   1 <1>  -0.1600 
 22 C       -9.2550    -9.0750    -0.0950 C.3   1 <1>   0.3430 
 23 C       -9.1310    -7.8150     2.0680 C.3   1 <1>   0.2630 
 24 C       -8.2240    -9.1940    -1.2140 C.3   1 <1>  -0.1600 
 25 H       -0.1500    -3.2630     1.1210 H     1 <1>   0.3700 
 26 H        3.4460    -0.5670     1.4970 H     1 <1>   0.0800 
 27 H        2.4780     0.2550     0.2990 H     1 <1>   0.0800 
 28 H        3.5780    -1.0100    -0.1970 H     1 <1>   0.0800 
 29 H        3.3330    -3.1800     1.0750 H     1 <1>   0.0800 
 30 H        1.7220    -3.8290     0.9340 H     1 <1>   0.0800 
 31 H        2.2020    -2.9920     2.4010 H     1 <1>   0.0800 
 32 H       -2.4180    -1.7440     0.9320 H     1 <1>   0.0800 
 33 H       -1.8400    -1.8090    -0.7130 H     1 <1>   0.0800 
 34 H       -4.6210    -5.3240    -1.8560 H     1 <1>   0.0800 
 35 H       -3.2320    -5.9320    -1.0110 H     1 <1>   0.0800 
 36 H       -4.1180    -1.8460    -0.8080 H     1 <1>   0.0800 
 37 H       -4.2520    -2.7220    -2.3010 H     1 <1>   0.0800 
 38 H       -4.4540    -5.5700     1.1650 H     1 <1>   0.0800 
 39 H       -5.0760    -6.8230     0.1450 H     1 <1>   0.0800 
 40 H       -6.3830    -3.5190    -1.7630 H     1 <1>   0.0800 
 41 H       -6.3690    -1.9760    -1.0010 H     1 <1>   0.0800 
 42 H       -7.2270    -3.2310     0.7070 H     1 <1>   0.0800 
 43 H       -5.5480    -3.3060     1.1330 H     1 <1>   0.0800 
 44 H       -6.8660    -7.7080     0.7660 H     1 <1>   0.0800 
 45 H       -9.6150    -7.0590     0.2180 H     1 <1>   0.4500 
 46 H       -7.9980    -7.1950    -1.9660 H     1 <1>   0.0800 
 47 H       -6.4730    -7.9530    -1.5690 H     1 <1>   0.0800 
 48 H       -9.1490    -9.9010     0.5900 H     1 <1>   0.0800 
 49 H      -10.2570    -9.0740    -0.4950 H     1 <1>   0.0800 
 50 H       -8.4350    -8.5100     2.5080 H     1 <1>   0.0800 
 51 H      -10.1330    -8.1150     2.3280 H     1 <1>   0.0800 
 52 H       -8.9520    -6.8340     2.4810 H     1 <1>   0.0800 
 53 H       -7.5330    -9.9820    -0.9680 H     1 <1>   0.0800 
 54 H       -8.6940    -9.4370    -2.1520 H     1 <1>   0.0800 
@<TRIPOS>BOND
  1   1   2  2   
  2   2   3  am  
  3   2   4  am  
  4   3   5  1   
  5   3   6  1   
  6   4   7  1   
  7   4  25  1   
  8   5  26  1   
  9   5  27  1   
 10   5  28  1   
 11   6  29  1   
 12   6  30  1   
 13   6  31  1   
 14   7   8  1   
 15   7  32  1   
 16   7  33  1   
 17   8   9  2   
 18   8  10  am  
 19  10  11  1   
 20  10  12  1   
 21  11  13  1   
 22  11  34  1   
 23  11  35  1   
 24  12  14  1   
 25  12  36  1   
 26  12  37  1   
 27  13  15  1   
 28  13  38  1   
 29  13  39  1   
 30  14  16  1   
 31  14  40  1   
 32  14  41  1   
 33  15  16  1   
 34  15  17  am  
 35  16  42  1   
 36  16  43  1   
 37  17  18  2   
 38  17  19  1   
 39  19  20  1   
 40  19  21  1   
 41  19  44  1   
 42  20  22  1   
 43  20  23  1   
 44  20  45  1   
 45  21  24  1   
 46  21  46  1   
 47  21  47  1   
 48  22  24  1   
 49  22  48  1   
 50  22  49  1   
 51  23  50  1   
 52  23  51  1   
 53  23  52  1   
 54  24  53  1   
 55  24  54  1   
@<TRIPOS>SUBSTRUCTURE
  1 ****  10 GROUP 4 **** **** 0

# MOE 2024.06 (io_trps.svl 2023.06)
