@<TRIPOS>MOLECULE
NONAME
55 56 1 0 0 
SMALL
USER_CHARGES


@<TRIPOS>ATOM
  1 O        1.4360     2.1380     1.1170 O.2   1 <1>  -0.5700 
  2 C        0.4410     2.3130     0.4310 C.2   1 <1>   0.5440 
  3 N        0.1930     1.4280    -0.6080 N.am  1 <1>  -0.6600 
  4 C       -0.4280     3.4530     0.7190 C.ar  1 <1>   0.3960 
  5 C        0.9600     0.1580    -0.7500 C.3   1 <1>   0.0600 
  6 C       -0.7170     1.7260    -1.7500 C.3   1 <1>   0.0600 
  7 N        0.1360     4.6650     0.8170 N.ar  1 <1>  -0.6200 
  8 C       -1.7980     3.2650     0.9010 C.ar  1 <1>  -0.1500 
  9 C       -0.6490     5.6740     1.1430 C.ar  1 <1>   0.4100 
 10 C       -2.6220     4.3310     1.2030 C.ar  1 <1>  -0.1500 
 11 N       -0.0100     6.8810     1.3340 N.pl3 1 <1>  -0.8380 
 12 C       -2.0200     5.5590     1.3280 C.ar  1 <1>  -0.1500 
 13 C        0.7130     7.4510     0.1380 C.3   1 <1>   0.2090 
 14 C        0.7750     6.9820     2.6100 C.3   1 <1>   0.2090 
 15 C        2.2560     7.2260     0.1610 C.3   1 <1>   0.4230 
 16 C        2.1860     6.3410     2.5040 C.3   1 <1>   0.3430 
 17 N        2.6030     6.0910     1.0820 N.4   1 <1>  -0.9590 
 18 C        3.0510     8.4940     0.5310 C.3   1 <1>  -0.1600 
 19 C        3.9620     5.4960     0.9510 C.3   1 <1>   0.3430 
 20 C        2.9430     9.5840    -0.5390 C.3   1 <1>   0.1200 
 21 C        4.3040     5.0880    -0.4960 C.3   1 <1>  -0.0800 
 22 O        3.1280     8.9890    -1.7730 O.3   1 <1>  -0.6800 
 23 C        3.2790     4.1120    -1.0990 C.3   1 <1>  -0.2400 
 24 C        5.6930     4.4390    -0.5280 C.3   1 <1>  -0.2400 
 25 H        1.4360    -0.1060     0.1790 H     1 <1>   0.0800 
 26 H        1.7170     0.2740    -1.5060 H     1 <1>   0.0800 
 27 H        0.2970    -0.6420    -1.0300 H     1 <1>   0.0800 
 28 H       -1.0140     2.7600    -1.7500 H     1 <1>   0.0800 
 29 H       -1.5940     1.1060    -1.6860 H     1 <1>   0.0800 
 30 H       -0.2120     1.5210    -2.6780 H     1 <1>   0.0800 
 31 H       -2.2090     2.2750     0.8120 H     1 <1>   0.1500 
 32 H       -3.6820     4.2040     1.3420 H     1 <1>   0.1500 
 33 H       -2.5880     6.4370     1.5750 H     1 <1>   0.1500 
 34 H        0.4860     8.4990     0.0600 H     1 <1>   0.0800 
 35 H        0.3260     6.9890    -0.7550 H     1 <1>   0.0800 
 36 H        0.2310     6.5040     3.4080 H     1 <1>   0.0800 
 37 H        0.8740     8.0200     2.8740 H     1 <1>   0.0800 
 38 H        2.5410     6.9520    -0.8410 H     1 <1>   0.0800 
 39 H        2.1690     5.4000     3.0300 H     1 <1>   0.0800 
 40 H        2.9010     6.9780     2.9950 H     1 <1>   0.0800 
 41 H        1.9240     5.3530     0.7910 H     1 <1>   0.4500 
 42 H        4.0920     8.2510     0.6290 H     1 <1>   0.0800 
 43 H        2.7120     8.9010     1.4650 H     1 <1>   0.0800 
 44 H        4.0200     4.6160     1.5720 H     1 <1>   0.0800 
 45 H        4.7000     6.1980     1.3010 H     1 <1>   0.0800 
 46 H        3.7050    10.3340    -0.4010 H     1 <1>   0.0800 
 47 H        1.9750    10.0580    -0.5340 H     1 <1>   0.0800 
 48 H        4.3540     5.9710    -1.1110 H     1 <1>   0.0800 
 49 H        3.1910     9.6650    -2.4820 H     1 <1>   0.4000 
 50 H        3.2200     3.2140    -0.5100 H     1 <1>   0.0800 
 51 H        3.5720     3.8370    -2.0980 H     1 <1>   0.0800 
 52 H        2.2990     4.5500    -1.1560 H     1 <1>   0.0800 
 53 H        5.7080     3.5360     0.0590 H     1 <1>   0.0800 
 54 H        6.4380     5.1140    -0.1420 H     1 <1>   0.0800 
 55 H        5.9650     4.1880    -1.5400 H     1 <1>   0.0800 
@<TRIPOS>BOND
  1   1   2  2   
  2   2   3  am  
  3   2   4  1   
  4   3   5  1   
  5   3   6  1   
  6   4   7  ar  
  7   4   8  ar  
  8   5  25  1   
  9   5  26  1   
 10   5  27  1   
 11   6  28  1   
 12   6  29  1   
 13   6  30  1   
 14   7   9  ar  
 15   8  10  ar  
 16   8  31  1   
 17   9  11  1   
 18   9  12  ar  
 19  10  12  ar  
 20  10  32  1   
 21  11  13  1   
 22  11  14  1   
 23  12  33  1   
 24  13  15  1   
 25  13  34  1   
 26  13  35  1   
 27  14  16  1   
 28  14  36  1   
 29  14  37  1   
 30  15  17  1   
 31  15  18  1   
 32  15  38  1   
 33  16  17  1   
 34  16  39  1   
 35  16  40  1   
 36  17  19  1   
 37  17  41  1   
 38  18  20  1   
 39  18  42  1   
 40  18  43  1   
 41  19  21  1   
 42  19  44  1   
 43  19  45  1   
 44  20  22  1   
 45  20  46  1   
 46  20  47  1   
 47  21  23  1   
 48  21  24  1   
 49  21  48  1   
 50  22  49  1   
 51  23  50  1   
 52  23  51  1   
 53  23  52  1   
 54  24  53  1   
 55  24  54  1   
 56  24  55  1   
@<TRIPOS>SUBSTRUCTURE
  1 ****   7 GROUP 4 **** **** 0

# MOE 2024.06 (io_trps.svl 2023.06)
