@<TRIPOS>MOLECULE
NONAME
52 54 1 0 0 
SMALL
USER_CHARGES


@<TRIPOS>ATOM
  1 S       -0.0720    -0.3380     0.8250 S.o2  1 <1>   1.3330 
  2 O       -0.3530     0.8850     1.5310 O.2   1 <1>  -0.6500 
  3 O        0.3970    -0.2970    -0.5390 O.2   1 <1>  -0.6500 
  4 N       -1.5180    -1.1830     0.8350 N.am  1 <1>  -0.9140 
  5 C        1.0030    -1.3540     1.8150 C.3   1 <1>  -0.1350 
  6 C       -1.6240    -2.2220    -0.1840 C.3   1 <1>   0.1960 
  7 C       -2.9610    -2.9460    -0.0230 C.3   1 <1>  -0.0990 
  8 C       -3.1360    -4.0750    -1.0250 C.2   1 <1>   0.5690 
  9 O       -2.1930    -4.3630    -1.7250 O.2   1 <1>  -0.5700 
 10 N       -4.3320    -4.7420    -1.1180 N.am  1 <1>  -0.6600 
 11 C       -4.5560    -5.7850    -2.1610 C.3   1 <1>   0.1400 
 12 C       -5.5210    -4.5240    -0.2450 C.3   1 <1>   0.1400 
 13 C       -4.9180    -7.1110    -1.4900 C.3   1 <1>  -0.1600 
 14 C       -5.8850    -5.8380     0.4500 C.3   1 <1>  -0.1600 
 15 C       -6.1320    -6.9730    -0.5600 C.3   1 <1>   0.4240 
 16 O       -7.1990    -6.5860    -1.3960 O.3   1 <1>  -0.5600 
 17 C       -6.4200    -8.3110     0.1570 C.ar  1 <1>  -0.1430 
 18 C       -8.4950    -6.8200    -0.9400 C.3   1 <1>   0.1200 
 19 C       -7.6460    -8.9530     0.0180 C.ar  1 <1>  -0.1430 
 20 C       -5.4530    -8.8990     0.9650 C.ar  1 <1>  -0.1500 
 21 C       -8.7200    -8.3260    -0.8490 C.3   1 <1>  -0.0170 
 22 C       -7.8950   -10.1550     0.6620 C.ar  1 <1>  -0.1500 
 23 C       -5.7000   -10.0970     1.6110 C.ar  1 <1>  -0.1500 
 24 C       -6.9180   -10.7350     1.4650 C.ar  1 <1>   0.0830 
 25 O       -7.0800   -11.9060     2.1290 O.3   1 <1>  -0.3630 
 26 C       -8.2760   -12.6460     2.0310 C.3   1 <1>   0.0400 
 27 H       -2.2070    -0.4610     0.6280 H     1 <1>   0.4200 
 28 H        1.9620    -0.8850     1.9130 H     1 <1>   0.0800 
 29 H        1.1340    -2.3140     1.3570 H     1 <1>   0.0800 
 30 H        0.5830    -1.4890     2.7920 H     1 <1>   0.0800 
 31 H       -0.8160    -2.9270    -0.0720 H     1 <1>   0.0800 
 32 H       -1.5590    -1.7880    -1.1700 H     1 <1>   0.0800 
 33 H       -3.7570    -2.2400    -0.1630 H     1 <1>   0.0800 
 34 H       -3.0180    -3.3610     0.9660 H     1 <1>   0.0800 
 35 H       -3.6760    -5.9180    -2.7670 H     1 <1>   0.0800 
 36 H       -5.3570    -5.4700    -2.8080 H     1 <1>   0.0800 
 37 H       -6.3460    -4.1920    -0.8540 H     1 <1>   0.0800 
 38 H       -5.3320    -3.7710     0.4980 H     1 <1>   0.0800 
 39 H       -4.0620    -7.4500    -0.9390 H     1 <1>   0.0800 
 40 H       -5.1330    -7.8510    -2.2390 H     1 <1>   0.0800 
 41 H       -6.7530    -5.7020     1.0670 H     1 <1>   0.0800 
 42 H       -5.0760    -6.1090     1.1020 H     1 <1>   0.0800 
 43 H       -9.1770    -6.3800    -1.6450 H     1 <1>   0.0800 
 44 H       -8.6250    -6.3500     0.0190 H     1 <1>   0.0800 
 45 H       -4.4940    -8.4320     1.1010 H     1 <1>   0.1500 
 46 H       -8.6850    -8.7530    -1.8350 H     1 <1>   0.0800 
 47 H       -9.6930    -8.5130    -0.4320 H     1 <1>   0.0800 
 48 H       -8.8480   -10.6270     0.5310 H     1 <1>   0.1500 
 49 H       -4.9470   -10.5460     2.2330 H     1 <1>   0.1500 
 50 H       -8.1700   -13.5330     2.6300 H     1 <1>   0.0800 
 51 H       -8.4350   -12.9170     1.0020 H     1 <1>   0.0800 
 52 H       -9.0880   -12.0480     2.4040 H     1 <1>   0.0800 
@<TRIPOS>BOND
  1   1   2  2   
  2   1   3  2   
  3   1   4  am  
  4   1   5  1   
  5   4   6  1   
  6   4  27  1   
  7   5  28  1   
  8   5  29  1   
  9   5  30  1   
 10   6   7  1   
 11   6  31  1   
 12   6  32  1   
 13   7   8  1   
 14   7  33  1   
 15   7  34  1   
 16   8   9  2   
 17   8  10  am  
 18  10  11  1   
 19  10  12  1   
 20  11  13  1   
 21  11  35  1   
 22  11  36  1   
 23  12  14  1   
 24  12  37  1   
 25  12  38  1   
 26  13  15  1   
 27  13  39  1   
 28  13  40  1   
 29  14  15  1   
 30  14  41  1   
 31  14  42  1   
 32  15  16  1   
 33  15  17  1   
 34  16  18  1   
 35  17  19  ar  
 36  17  20  ar  
 37  18  21  1   
 38  18  43  1   
 39  18  44  1   
 40  19  21  1   
 41  19  22  ar  
 42  20  23  ar  
 43  20  45  1   
 44  21  46  1   
 45  21  47  1   
 46  22  24  ar  
 47  22  48  1   
 48  23  24  ar  
 49  23  49  1   
 50  24  25  1   
 51  25  26  1   
 52  26  50  1   
 53  26  51  1   
 54  26  52  1   
@<TRIPOS>SUBSTRUCTURE
  1 ****  14 GROUP 4 **** **** 0

# MOE 2024.06 (io_trps.svl 2023.06)
