@<TRIPOS>MOLECULE
NONAME
46 50 1 0 0 
SMALL
USER_CHARGES


@<TRIPOS>ATOM
  1 S       -1.0450    -0.0400    -1.9540 S.3   1 <1>  -0.0800 
  2 C       -1.7020    -1.1310    -0.7520 C.ar  1 <1>   0.0400 
  3 C       -1.3060     1.3030    -0.8480 C.2   1 <1>   0.2280 
  4 C       -2.0480    -0.3830     0.3580 C.ar  1 <1>   0.2270 
  5 C       -1.8710    -2.4980    -0.8330 C.ar  1 <1>  -0.1500 
  6 N       -1.8160     0.9860     0.2730 N.2   1 <1>  -0.5650 
  7 C       -2.5870    -1.0500     1.4470 C.ar  1 <1>  -0.1500 
  8 C       -2.4250    -3.1750     0.2530 C.ar  1 <1>   0.0860 
  9 C       -2.7660    -2.4220     1.3900 C.ar  1 <1>  -0.1500 
 10 C       -2.6310    -4.6120     0.2050 C.2   1 <1>   0.5440 
 11 O       -1.7930    -5.3210    -0.3180 O.2   1 <1>  -0.5700 
 12 N       -3.7670    -5.2020     0.7140 N.am  1 <1>  -0.6600 
 13 C       -3.8500    -6.6820     0.9360 C.3   1 <1>   0.1400 
 14 C       -5.1140    -4.5560     0.6640 C.3   1 <1>   0.1400 
 15 C       -4.8480    -7.3300    -0.0390 C.3   1 <1>   0.3430 
 16 C       -6.0590    -5.3180    -0.2900 C.3   1 <1>   0.2950 
 17 O       -6.0900    -6.6790     0.0450 O.3   1 <1>  -0.5600 
 18 C       -5.0240    -8.8120     0.2780 C.ar  1 <1>  -0.1440 
 19 C       -7.4840    -4.7420    -0.2230 C.3   1 <1>  -0.1950 
 20 C       -6.0020    -9.2570     1.1580 C.ar  1 <1>  -0.1500 
 21 C       -4.1800    -9.7410    -0.3150 C.ar  1 <1>  -0.1500 
 22 C       -8.4650    -5.1460     0.8360 C.3   1 <1>  -0.2000 
 23 C       -8.6930    -5.5450    -0.5960 C.3   1 <1>  -0.2000 
 24 C       -6.1330   -10.6050     1.4410 C.ar  1 <1>  -0.1500 
 25 C       -4.3100   -11.0900    -0.0330 C.ar  1 <1>  -0.1500 
 26 C       -5.2870   -11.5230     0.8450 C.ar  1 <1>  -0.1500 
 27 H       -1.0170     2.2780    -1.1990 H     1 <1>   0.1500 
 28 H       -1.5770    -3.0360    -1.7180 H     1 <1>   0.1500 
 29 H       -2.8540    -0.4840     2.3220 H     1 <1>   0.1500 
 30 H       -3.1750    -2.9350     2.2440 H     1 <1>   0.1500 
 31 H       -2.8850    -7.1410     0.8120 H     1 <1>   0.0800 
 32 H       -4.1720    -6.8720     1.9440 H     1 <1>   0.0800 
 33 H       -5.5420    -4.5510     1.6520 H     1 <1>   0.0800 
 34 H       -5.0350    -3.5380     0.3300 H     1 <1>   0.0800 
 35 H       -4.4860    -7.2250    -1.0480 H     1 <1>   0.0800 
 36 H       -5.6970    -5.2340    -1.3010 H     1 <1>   0.0800 
 37 H       -7.4990    -3.7080    -0.5210 H     1 <1>   0.1000 
 38 H       -6.6680    -8.5510     1.6240 H     1 <1>   0.1500 
 39 H       -3.4150    -9.4180    -1.0000 H     1 <1>   0.1500 
 40 H       -8.1980    -5.9190     1.5360 H     1 <1>   0.1000 
 41 H       -9.1040    -4.3980     1.2700 H     1 <1>   0.1000 
 42 H       -9.4850    -5.0680    -1.1460 H     1 <1>   0.1000 
 43 H       -8.5740    -6.5830    -0.8600 H     1 <1>   0.1000 
 44 H       -6.8960   -10.9390     2.1230 H     1 <1>   0.1500 
 45 H       -3.6510   -11.8020    -0.4980 H     1 <1>   0.1500 
 46 H       -5.3890   -12.5720     1.0640 H     1 <1>   0.1500 
@<TRIPOS>BOND
  1   1   2  1   
  2   1   3  1   
  3   2   4  ar  
  4   2   5  ar  
  5   3   6  2   
  6   3  27  1   
  7   4   6  1   
  8   4   7  ar  
  9   5   8  ar  
 10   5  28  1   
 11   7   9  ar  
 12   7  29  1   
 13   8   9  ar  
 14   8  10  1   
 15   9  30  1   
 16  10  11  2   
 17  10  12  am  
 18  12  13  1   
 19  12  14  1   
 20  13  15  1   
 21  13  31  1   
 22  13  32  1   
 23  14  16  1   
 24  14  33  1   
 25  14  34  1   
 26  15  17  1   
 27  15  18  1   
 28  15  35  1   
 29  16  17  1   
 30  16  19  1   
 31  16  36  1   
 32  18  20  ar  
 33  18  21  ar  
 34  19  22  1   
 35  19  23  1   
 36  19  37  1   
 37  20  24  ar  
 38  20  38  1   
 39  21  25  ar  
 40  21  39  1   
 41  22  23  1   
 42  22  40  1   
 43  22  41  1   
 44  23  42  1   
 45  23  43  1   
 46  24  26  ar  
 47  24  44  1   
 48  25  26  ar  
 49  25  45  1   
 50  26  46  1   
@<TRIPOS>SUBSTRUCTURE
  1 ****  12 GROUP 4 **** **** 0

# MOE 2024.06 (io_trps.svl 2023.06)
