@<TRIPOS>MOLECULE
NONAME
55 57 1 0 0 
SMALL
USER_CHARGES


@<TRIPOS>ATOM
  1 O        0.4750     1.1800    -1.4800 O.2   1 <1>  -0.5700 
  2 C        0.3660     1.9170    -0.5200 C.2   1 <1>   0.5690 
  3 N       -0.8090     2.6450    -0.3920 N.am  1 <1>  -0.6600 
  4 C        1.5790     1.9500     0.5040 C.3   1 <1>   0.3310 
  5 C       -2.0040     2.3020    -1.2350 C.3   1 <1>   0.1400 
  6 C       -1.0470     3.8330     0.4670 C.3   1 <1>   0.1400 
  7 N        2.7110     2.8420     0.0700 N.3   1 <1>  -0.8100 
  8 C        1.1560     2.2970     1.9490 C.3   1 <1>  -0.2400 
  9 C        2.1650     0.5220     0.5680 C.3   1 <1>  -0.2400 
 10 C       -3.3500     2.4260    -0.3810 C.3   1 <1>   0.0000 
 11 C       -2.0790     4.7600    -0.1840 C.3   1 <1>  -0.1600 
 12 C        3.8310     3.0520     1.0200 C.3   1 <1>   0.1100 
 13 C        2.3190     4.1320    -0.5350 C.3   1 <1>   0.1100 
 14 C       -4.7350     2.5260     0.4160 C.3   1 <1>   0.2000 
 15 C       -3.3510     4.0110    -0.6660 C.3   1 <1>  -0.1600 
 16 C       -3.2720     0.8670    -0.0670 C.3   1 <1>  -0.1600 
 17 C        4.9890     3.8150     0.3530 C.3   1 <1>   0.1200 
 18 C        3.5350     4.8490    -1.1480 C.3   1 <1>   0.1200 
 19 O       -5.7710     2.8270    -0.4900 O.3   1 <1>  -0.5600 
 20 C       -5.1770     1.2750     1.1690 C.3   1 <1>  -0.1600 
 21 C       -3.9180     0.4940     1.2500 C.3   1 <1>  -0.1600 
 22 O        4.5360     5.0230    -0.1860 O.3   1 <1>  -0.5600 
 23 C       -6.8930     3.4470     0.0580 C.3   1 <1>   0.0400 
 24 H       -1.9750     2.9410    -2.1020 H     1 <1>   0.0800 
 25 H       -1.8640     1.3430    -1.7100 H     1 <1>   0.0800 
 26 H       -1.4170     3.5020     1.4220 H     1 <1>   0.0800 
 27 H       -0.1390     4.3820     0.6150 H     1 <1>   0.0800 
 28 H        0.2390     1.7910     2.1890 H     1 <1>   0.0800 
 29 H        1.0210     3.3520     2.0780 H     1 <1>   0.0800 
 30 H        1.8950     1.9760     2.6600 H     1 <1>   0.0800 
 31 H        1.3780    -0.1840     0.7590 H     1 <1>   0.0800 
 32 H        2.9010     0.4090     1.3410 H     1 <1>   0.0800 
 33 H        2.6150     0.2690    -0.3760 H     1 <1>   0.0800 
 34 H       -2.3510     5.5210     0.5260 H     1 <1>   0.0800 
 35 H       -1.6190     5.2560    -1.0210 H     1 <1>   0.0800 
 36 H        3.4960     3.6180     1.8720 H     1 <1>   0.0800 
 37 H        4.2090     2.1090     1.3680 H     1 <1>   0.0800 
 38 H        1.5980     3.9750    -1.3180 H     1 <1>   0.0800 
 39 H        1.8890     4.7740     0.2120 H     1 <1>   0.0800 
 40 H       -4.6760     3.3000     1.1660 H     1 <1>   0.0800 
 41 H       -3.4950     4.1840    -1.7210 H     1 <1>   0.0800 
 42 H       -4.1540     4.6010    -0.2570 H     1 <1>   0.0800 
 43 H       -3.7710     0.3330    -0.8600 H     1 <1>   0.0800 
 44 H       -2.2810     0.4430     0.0340 H     1 <1>   0.0800 
 45 H        5.4210     3.2250    -0.4360 H     1 <1>   0.0800 
 46 H        5.7510     4.0430     1.0750 H     1 <1>   0.0800 
 47 H        3.2530     5.8210    -1.5090 H     1 <1>   0.0800 
 48 H        3.9360     4.2750    -1.9660 H     1 <1>   0.0800 
 49 H       -5.5640     1.5010     2.1460 H     1 <1>   0.0800 
 50 H       -5.9030     0.7210     0.5990 H     1 <1>   0.0800 
 51 H       -3.3100     0.8340     2.0720 H     1 <1>   0.0800 
 52 H       -4.0970    -0.5640     1.3370 H     1 <1>   0.0800 
 53 H       -7.5870     3.6420    -0.7410 H     1 <1>   0.0800 
 54 H       -6.6000     4.3760     0.5160 H     1 <1>   0.0800 
 55 H       -7.3510     2.7950     0.7800 H     1 <1>   0.0800 
@<TRIPOS>BOND
  1   1   2  2   
  2   2   3  am  
  3   2   4  1   
  4   3   5  1   
  5   3   6  1   
  6   4   7  1   
  7   4   8  1   
  8   4   9  1   
  9   5  10  1   
 10   5  24  1   
 11   5  25  1   
 12   6  11  1   
 13   6  26  1   
 14   6  27  1   
 15   7  12  1   
 16   7  13  1   
 17   8  28  1   
 18   8  29  1   
 19   8  30  1   
 20   9  31  1   
 21   9  32  1   
 22   9  33  1   
 23  10  14  1   
 24  10  15  1   
 25  10  16  1   
 26  11  15  1   
 27  11  34  1   
 28  11  35  1   
 29  12  17  1   
 30  12  36  1   
 31  12  37  1   
 32  13  18  1   
 33  13  38  1   
 34  13  39  1   
 35  14  19  1   
 36  14  20  1   
 37  14  40  1   
 38  15  41  1   
 39  15  42  1   
 40  16  21  1   
 41  16  43  1   
 42  16  44  1   
 43  17  22  1   
 44  17  45  1   
 45  17  46  1   
 46  18  22  1   
 47  18  47  1   
 48  18  48  1   
 49  19  23  1   
 50  20  21  1   
 51  20  49  1   
 52  20  50  1   
 53  21  51  1   
 54  21  52  1   
 55  23  53  1   
 56  23  54  1   
 57  23  55  1   
@<TRIPOS>SUBSTRUCTURE
  1 ****   3 GROUP 4 **** **** 0

# MOE 2024.06 (io_trps.svl 2023.06)
