@<TRIPOS>MOLECULE
NONAME
45 47 1 0 0 
SMALL
USER_CHARGES


@<TRIPOS>ATOM
  1 F       -1.6520     0.1920    -0.7990 F     1 <1>  -0.3400 
  2 C       -2.2240    -0.7440    -1.5460 C.3   1 <1>   1.1640 
  3 F       -2.7640    -0.1170    -2.5820 F     1 <1>  -0.3400 
  4 F       -1.2360    -1.4870    -2.0280 F     1 <1>  -0.3400 
  5 C       -3.2680    -1.5600    -0.7620 C.ar  1 <1>  -0.1440 
  6 C       -3.4410    -2.9180    -0.9990 C.ar  1 <1>  -0.1500 
  7 C       -4.0690    -0.9490     0.1960 C.ar  1 <1>  -0.1500 
  8 C       -4.3800    -3.6810    -0.3070 C.ar  1 <1>   0.0860 
  9 C       -5.0210    -1.6690     0.9100 C.ar  1 <1>  -0.1440 
 10 C       -4.5250    -5.1020    -0.5800 C.2   1 <1>   0.5440 
 11 C       -5.1640    -3.0250     0.6420 C.ar  1 <1>  -0.1500 
 12 C       -5.9040    -0.9730     1.9620 C.3   1 <1>   1.1630 
 13 O       -4.2300    -5.5580    -1.6660 O.2   1 <1>  -0.5700 
 14 N       -4.9890    -5.9590     0.3750 N.am  1 <1>  -0.7300 
 15 F       -5.2830     0.0270     2.5740 F     1 <1>  -0.3400 
 16 F       -6.3070    -1.8010     2.9190 F     1 <1>  -0.3400 
 17 F       -7.0010    -0.4610     1.4230 F     1 <1>  -0.3400 
 18 C       -5.1660    -7.4180     0.1970 C.3   1 <1>   0.2200 
 19 C       -6.6430    -7.7170     0.0050 C.3   1 <1>  -0.0800 
 20 C       -4.8780    -8.1250     1.5140 C.3   1 <1>   0.1200 
 21 C       -7.1540    -7.8160     1.4500 C.3   1 <1>   0.1200 
 22 C       -6.8550    -9.0240    -0.7820 C.3   1 <1>  -0.0160 
 23 O       -6.0360    -7.9780     2.2760 O.3   1 <1>  -0.5600 
 24 C       -8.3330    -9.3060    -1.0040 C.ar  1 <1>  -0.1430 
 25 C       -9.0100   -10.2820    -0.3000 C.ar  1 <1>  -0.1500 
 26 C       -9.0740    -8.5960    -1.9270 C.ar  1 <1>  -0.1500 
 27 C      -10.3580   -10.4890    -0.5420 C.ar  1 <1>   0.1600 
 28 C      -10.4180    -8.8820    -2.0920 C.ar  1 <1>   0.1600 
 29 N      -11.0790    -9.8100    -1.4200 N.ar  1 <1>  -0.6200 
 30 H       -2.8390    -3.4170    -1.7430 H     1 <1>   0.1500 
 31 H       -3.9500     0.1080     0.3870 H     1 <1>   0.1500 
 32 H       -5.9100    -3.5920     1.1730 H     1 <1>   0.1500 
 33 H       -5.2130    -5.6310     1.3160 H     1 <1>   0.3700 
 34 H       -4.5460    -7.7800    -0.6070 H     1 <1>   0.0800 
 35 H       -7.1330    -6.9180    -0.5210 H     1 <1>   0.0800 
 36 H       -4.0390    -7.7030     2.0400 H     1 <1>   0.0800 
 37 H       -4.7180    -9.1770     1.3570 H     1 <1>   0.0800 
 38 H       -7.8200    -8.6470     1.6030 H     1 <1>   0.0800 
 39 H       -7.6480    -6.9070     1.7450 H     1 <1>   0.0800 
 40 H       -6.4020    -9.8510    -0.2630 H     1 <1>   0.0800 
 41 H       -6.3750    -8.9420    -1.7420 H     1 <1>   0.0800 
 42 H       -8.5060   -10.8830     0.4340 H     1 <1>   0.1500 
 43 H       -8.6180    -7.8230    -2.5180 H     1 <1>   0.1500 
 44 H      -10.8710   -11.2530     0.0170 H     1 <1>   0.1500 
 45 H      -10.9800    -8.3170    -2.8160 H     1 <1>   0.1500 
@<TRIPOS>BOND
  1   1   2  1   
  2   2   3  1   
  3   2   4  1   
  4   2   5  1   
  5   5   6  ar  
  6   5   7  ar  
  7   6   8  ar  
  8   6  30  1   
  9   7   9  ar  
 10   7  31  1   
 11   8  10  1   
 12   8  11  ar  
 13   9  11  ar  
 14   9  12  1   
 15  10  13  2   
 16  10  14  am  
 17  11  32  1   
 18  12  15  1   
 19  12  16  1   
 20  12  17  1   
 21  14  18  1   
 22  14  33  1   
 23  18  19  1   
 24  18  20  1   
 25  18  34  1   
 26  19  21  1   
 27  19  22  1   
 28  19  35  1   
 29  20  23  1   
 30  20  36  1   
 31  20  37  1   
 32  21  23  1   
 33  21  38  1   
 34  21  39  1   
 35  22  24  1   
 36  22  40  1   
 37  22  41  1   
 38  24  25  ar  
 39  24  26  ar  
 40  25  27  ar  
 41  25  42  1   
 42  26  28  ar  
 43  26  43  1   
 44  27  29  ar  
 45  27  44  1   
 46  28  29  ar  
 47  28  45  1   
@<TRIPOS>SUBSTRUCTURE
  1 ****  10 GROUP 4 **** **** 0

# MOE 2024.06 (io_trps.svl 2023.06)
