@<TRIPOS>MOLECULE
NONAME
44 46 1 0 0 
SMALL
USER_CHARGES


@<TRIPOS>ATOM
  1 S        1.0900    -1.2000     3.0600 S.o2  1 <1>   1.5010 
  2 O        1.9260    -2.3720     3.1840 O.2   1 <1>  -0.6500 
  3 O        0.6420    -0.5040     4.2410 O.2   1 <1>  -0.6500 
  4 N       -0.3160    -1.6820     2.2860 N.am  1 <1>  -0.9140 
  5 C        1.8220    -0.0410     1.8790 C.2   1 <1>  -0.0630 
  6 C       -0.1550    -2.7890     1.3530 C.3   1 <1>   0.2760 
  7 C        3.1400     0.1830     1.7020 C.2   1 <1>  -0.1100 
  8 C        1.0210     0.7670     1.0100 C.2   1 <1>  -0.1500 
  9 C       -1.3460    -2.8460     0.4050 C.3   1 <1>  -0.0800 
 10 C       -0.3360    -4.1190     2.0830 C.3   1 <1>   0.1200 
 11 S        3.4260     1.3710     0.4510 S.3   1 <1>  -0.0800 
 12 C        1.6990     1.5780     0.1590 C.2   1 <1>  -0.0450 
 13 C       -2.3940    -3.6210     1.2130 C.3   1 <1>   0.1200 
 14 C       -1.8460    -1.4950    -0.1430 C.3   1 <1>  -0.0160 
 15 O       -1.7130    -4.2370     2.2680 O.3   1 <1>  -0.5600 
 16 C        1.2370     2.4900    -0.8560 C.2   1 <1>   0.7150 
 17 C       -2.9850    -1.7010    -1.1270 C.ar  1 <1>  -0.1440 
 18 O        0.0520     2.5630    -1.1150 O.2   1 <1>  -0.5700 
 19 N        2.1200     3.2730    -1.5450 N.am  1 <1>  -0.7300 
 20 C       -4.3070    -1.5710    -0.7540 C.ar  1 <1>  -0.1500 
 21 C       -2.7530    -2.0300    -2.4470 C.ar  1 <1>  -0.1500 
 22 C        1.7760     4.2540    -2.6060 C.3   1 <1>   0.0600 
 23 C       -5.3060    -1.7810    -1.6900 C.ar  1 <1>   0.1600 
 24 C       -3.8240    -2.2180    -3.3040 C.ar  1 <1>   0.1600 
 25 N       -5.0950    -2.1060    -2.9550 N.ar  1 <1>  -0.6200 
 26 H       -0.9150    -2.0350     3.0350 H     1 <1>   0.4200 
 27 H        0.7800    -2.7250     0.8210 H     1 <1>   0.0800 
 28 H        4.0000    -0.2430     2.1910 H     1 <1>   0.1500 
 29 H       -0.0540     0.7180     1.0480 H     1 <1>   0.1500 
 30 H       -1.0710    -3.4630    -0.4330 H     1 <1>   0.0800 
 31 H        0.1620    -4.1640     3.0360 H     1 <1>   0.0800 
 32 H       -0.0130    -4.9410     1.4680 H     1 <1>   0.0800 
 33 H       -2.8810    -4.3760     0.6200 H     1 <1>   0.0800 
 34 H       -3.1310    -2.9650     1.6430 H     1 <1>   0.0800 
 35 H       -1.0380    -0.9850    -0.6390 H     1 <1>   0.0800 
 36 H       -2.1830    -0.8620     0.6600 H     1 <1>   0.0800 
 37 H        3.1080     3.1990    -1.2990 H     1 <1>   0.3700 
 38 H       -4.5720    -1.3070     0.2540 H     1 <1>   0.1500 
 39 H       -1.7510    -2.1410    -2.8180 H     1 <1>   0.1500 
 40 H        0.7160     4.2460    -2.8000 H     1 <1>   0.0800 
 41 H        2.2950     4.0050    -3.5150 H     1 <1>   0.0800 
 42 H        2.0620     5.2440    -2.2940 H     1 <1>   0.0800 
 43 H       -6.3330    -1.6770    -1.3820 H     1 <1>   0.1500 
 44 H       -3.6250    -2.4730    -4.3310 H     1 <1>   0.1500 
@<TRIPOS>BOND
  1   1   2  2   
  2   1   3  2   
  3   1   4  am  
  4   1   5  1   
  5   4   6  1   
  6   4  26  1   
  7   5   7  2   
  8   5   8  1   
  9   6   9  1   
 10   6  10  1   
 11   6  27  1   
 12   7  11  1   
 13   7  28  1   
 14   8  12  2   
 15   8  29  1   
 16   9  13  1   
 17   9  14  1   
 18   9  30  1   
 19  10  15  1   
 20  10  31  1   
 21  10  32  1   
 22  11  12  1   
 23  12  16  1   
 24  13  15  1   
 25  13  33  1   
 26  13  34  1   
 27  14  17  1   
 28  14  35  1   
 29  14  36  1   
 30  16  18  2   
 31  16  19  am  
 32  17  20  ar  
 33  17  21  ar  
 34  19  22  1   
 35  19  37  1   
 36  20  23  ar  
 37  20  38  1   
 38  21  24  ar  
 39  21  39  1   
 40  22  40  1   
 41  22  41  1   
 42  22  42  1   
 43  23  25  ar  
 44  23  43  1   
 45  24  25  ar  
 46  24  44  1   
@<TRIPOS>SUBSTRUCTURE
  1 ****  14 GROUP 4 **** **** 0

# MOE 2024.06 (io_trps.svl 2023.06)
