@<TRIPOS>MOLECULE
NONAME
51 54 1 0 0 
SMALL
USER_CHARGES


@<TRIPOS>ATOM
  1 O        1.4950     0.0530    -2.3340 O.2   1 <1>  -0.5700 
  2 C        2.0250    -0.7200    -1.5580 C.2   1 <1>   0.4690 
  3 C        3.0830    -0.3250    -0.6710 C.ar  1 <1>   0.0860 
  4 C        1.6030    -2.0700    -1.4890 C.2   1 <1>  -0.1360 
  5 C        3.6130    -1.2860     0.1980 C.ar  1 <1>   0.0830 
  6 C        3.6140     0.9660    -0.6240 C.ar  1 <1>  -0.1500 
  7 C        2.1480    -2.9620    -0.6190 C.2   1 <1>   0.0910 
  8 O        3.1370    -2.5500     0.1990 O.3   1 <1>  -0.1590 
  9 C        4.6380    -0.9620     1.0760 C.ar  1 <1>  -0.1500 
 10 C        4.6320     1.2870     0.2510 C.ar  1 <1>  -0.1500 
 11 C        1.7590    -4.3520    -0.4820 C.2   1 <1>   0.6160 
 12 C        5.1470     0.3210     1.1040 C.ar  1 <1>  -0.1500 
 13 O        2.5180    -5.1810    -0.0050 O.2   1 <1>  -0.5700 
 14 N        0.5070    -4.7940    -0.8510 N.am  1 <1>  -0.6600 
 15 C        0.2860    -6.2350    -1.0960 C.3   1 <1>   0.1400 
 16 C       -0.7190    -4.1460    -0.3170 C.3   1 <1>   0.1400 
 17 C       -0.1690    -6.8050     0.2600 C.3   1 <1>   0.4230 
 18 C       -1.2890    -4.9600     0.8750 C.3   1 <1>  -0.1600 
 19 N        0.3720    -8.1770     0.5870 N.4   1 <1>  -0.9590 
 20 C       -1.7220    -6.4800     0.4940 C.3   1 <1>   0.0000 
 21 C        0.0090    -9.1840    -0.4250 C.3   1 <1>   0.3430 
 22 C        1.8550    -8.1230     0.8120 C.3   1 <1>   0.2630 
 23 C       -2.2030    -7.9600     0.0490 C.3   1 <1>  -0.1600 
 24 C       -3.2500    -6.1170     0.8070 C.3   1 <1>   0.1200 
 25 C       -1.3970    -8.8750    -0.9060 C.3   1 <1>  -0.1600 
 26 O       -3.7840    -5.4190    -0.2750 O.3   1 <1>  -0.6800 
 27 H        0.8230    -2.3480    -2.1740 H     1 <1>   0.1500 
 28 H        3.2160     1.7170    -1.2870 H     1 <1>   0.1500 
 29 H        5.0320    -1.7180     1.7330 H     1 <1>   0.1500 
 30 H        5.0310     2.2870     0.2740 H     1 <1>   0.1500 
 31 H        5.9420     0.5750     1.7850 H     1 <1>   0.1500 
 32 H       -0.4740    -6.3530    -1.8480 H     1 <1>   0.0800 
 33 H        1.1980    -6.6900    -1.4390 H     1 <1>   0.0800 
 34 H       -0.4990    -3.1430     0.0080 H     1 <1>   0.0800 
 35 H       -1.4580    -4.0830    -1.1000 H     1 <1>   0.0800 
 36 H        0.3950    -6.2140     0.9580 H     1 <1>   0.0800 
 37 H       -0.6010    -4.9250     1.7060 H     1 <1>   0.0800 
 38 H       -2.0450    -4.2760     1.2260 H     1 <1>   0.0800 
 39 H       -0.0780    -8.4530     1.4690 H     1 <1>   0.4500 
 40 H        0.6930    -9.1520    -1.2590 H     1 <1>   0.0800 
 41 H        0.0460   -10.1700     0.0120 H     1 <1>   0.0800 
 42 H        2.3650    -7.8330    -0.0930 H     1 <1>   0.0800 
 43 H        2.2250    -9.0850     1.1260 H     1 <1>   0.0800 
 44 H        2.0920    -7.3960     1.5720 H     1 <1>   0.0800 
 45 H       -2.3980    -8.5330     0.9430 H     1 <1>   0.0800 
 46 H       -3.1300    -7.9310    -0.5100 H     1 <1>   0.0800 
 47 H       -3.3960    -5.5360     1.7030 H     1 <1>   0.0800 
 48 H       -3.9210    -6.9400     1.0060 H     1 <1>   0.0800 
 49 H       -1.3450    -8.4250    -1.8820 H     1 <1>   0.0800 
 50 H       -1.9200    -9.8070    -1.0380 H     1 <1>   0.0800 
 51 H       -4.7260    -5.1990    -0.1240 H     1 <1>   0.4000 
@<TRIPOS>BOND
  1   1   2  2   
  2   2   3  1   
  3   2   4  1   
  4   3   5  ar  
  5   3   6  ar  
  6   4   7  2   
  7   4  27  1   
  8   5   8  1   
  9   5   9  ar  
 10   6  10  ar  
 11   6  28  1   
 12   7   8  1   
 13   7  11  1   
 14   9  12  ar  
 15   9  29  1   
 16  10  12  ar  
 17  10  30  1   
 18  11  13  2   
 19  11  14  am  
 20  12  31  1   
 21  14  15  1   
 22  14  16  1   
 23  15  17  1   
 24  15  32  1   
 25  15  33  1   
 26  16  18  1   
 27  16  34  1   
 28  16  35  1   
 29  17  19  1   
 30  17  20  1   
 31  17  36  1   
 32  18  20  1   
 33  18  37  1   
 34  18  38  1   
 35  19  21  1   
 36  19  22  1   
 37  19  39  1   
 38  20  23  1   
 39  20  24  1   
 40  21  25  1   
 41  21  40  1   
 42  21  41  1   
 43  22  42  1   
 44  22  43  1   
 45  22  44  1   
 46  23  25  1   
 47  23  45  1   
 48  23  46  1   
 49  24  26  1   
 50  24  47  1   
 51  24  48  1   
 52  25  49  1   
 53  25  50  1   
 54  26  51  1   
@<TRIPOS>SUBSTRUCTURE
  1 ****  11 GROUP 4 **** **** 0

# MOE 2024.06 (io_trps.svl 2023.06)
