@<TRIPOS>MOLECULE
NONAME
46 48 1 0 0 
SMALL
USER_CHARGES


@<TRIPOS>ATOM
  1 S        0.2790    -0.0950     0.9830 S.o2  1 <1>   1.3330 
  2 O        1.4270     0.4290     1.6910 O.2   1 <1>  -0.6500 
  3 O       -0.4690    -1.2100     1.5080 O.2   1 <1>  -0.6500 
  4 N        0.7910    -0.4770    -0.5890 N.am  1 <1>  -0.8490 
  5 C       -0.8160     1.3030     0.7180 C.3   1 <1>  -0.0550 
  6 C       -0.2130    -1.2400    -1.3450 C.3   1 <1>   0.1160 
  7 C        2.0440    -1.2450    -0.5740 C.3   1 <1>   0.1160 
  8 C       -0.1490     2.4660    -0.0580 C.3   1 <1>  -0.0800 
  9 C       -1.0270     3.6960    -0.2730 C.3   1 <1>   0.2000 
 10 C        1.1310     3.0120     0.5920 C.3   1 <1>   0.3430 
 11 O       -1.7430     3.9810     0.8850 O.3   1 <1>  -0.6800 
 12 C       -0.0120     4.8080    -0.5450 C.3   1 <1>   0.3430 
 13 N        1.1790     4.4790     0.3050 N.4   1 <1>  -0.9590 
 14 C        2.4750     4.9050    -0.2920 C.3   1 <1>   0.5230 
 15 C        2.5680     6.4140    -0.2300 C.2   1 <1>  -0.1400 
 16 S        1.7870     7.3270    -1.5260 S.3   1 <1>  -0.0800 
 17 C        3.1630     7.2460     0.6450 C.2   1 <1>  -0.1500 
 18 C        2.2910     8.8680    -0.8210 C.ar  1 <1>   0.0400 
 19 C        3.0190     8.6430     0.3380 C.ar  1 <1>   0.0000 
 20 C        2.0220    10.1300    -1.3160 C.ar  1 <1>  -0.1500 
 21 C        3.4990     9.7500     1.0320 C.ar  1 <1>  -0.1500 
 22 C        2.5080    11.2170    -0.6110 C.ar  1 <1>  -0.1500 
 23 C        3.2420    11.0250     0.5560 C.ar  1 <1>  -0.1500 
 24 H       -1.6820     0.9740     0.1760 H     1 <1>   0.0800 
 25 H       -1.1560     1.6480     1.6750 H     1 <1>   0.0800 
 26 H        0.1310    -1.4110    -2.3510 H     1 <1>   0.0800 
 27 H       -1.1410    -0.6970    -1.3940 H     1 <1>   0.0800 
 28 H       -0.3980    -2.1930    -0.8750 H     1 <1>   0.0800 
 29 H        2.3580    -1.4700    -1.5790 H     1 <1>   0.0800 
 30 H        1.9130    -2.1670    -0.0310 H     1 <1>   0.0800 
 31 H        2.8250    -0.6770    -0.0980 H     1 <1>   0.0800 
 32 H        0.1300     2.0980    -1.0310 H     1 <1>   0.0800 
 33 H       -1.7320     3.5790    -1.0800 H     1 <1>   0.0800 
 34 H        1.9940     2.4980     0.1980 H     1 <1>   0.0800 
 35 H        1.1000     2.8510     1.6580 H     1 <1>   0.0800 
 36 H       -1.1790     4.1160     1.6700 H     1 <1>   0.4000 
 37 H       -0.4200     5.7800    -0.3190 H     1 <1>   0.0800 
 38 H        0.2670     4.7770    -1.5850 H     1 <1>   0.0800 
 39 H        1.0890     5.0010     1.1870 H     1 <1>   0.4500 
 40 H        3.2890     4.4860     0.2780 H     1 <1>   0.0800 
 41 H        2.5610     4.5660    -1.3110 H     1 <1>   0.0800 
 42 H        3.7190     6.9590     1.5200 H     1 <1>   0.1500 
 43 H        1.4550    10.2580    -2.2210 H     1 <1>   0.1500 
 44 H        4.0680     9.6120     1.9340 H     1 <1>   0.1500 
 45 H        2.3200    12.2170    -0.9650 H     1 <1>   0.1500 
 46 H        3.6140    11.8810     1.0920 H     1 <1>   0.1500 
@<TRIPOS>BOND
  1   1   2  2   
  2   1   3  2   
  3   1   4  am  
  4   1   5  1   
  5   4   6  1   
  6   4   7  1   
  7   5   8  1   
  8   5  24  1   
  9   5  25  1   
 10   6  26  1   
 11   6  27  1   
 12   6  28  1   
 13   7  29  1   
 14   7  30  1   
 15   7  31  1   
 16   8   9  1   
 17   8  10  1   
 18   8  32  1   
 19   9  11  1   
 20   9  12  1   
 21   9  33  1   
 22  10  13  1   
 23  10  34  1   
 24  10  35  1   
 25  11  36  1   
 26  12  13  1   
 27  12  37  1   
 28  12  38  1   
 29  13  14  1   
 30  13  39  1   
 31  14  15  1   
 32  14  40  1   
 33  14  41  1   
 34  15  16  1   
 35  15  17  2   
 36  16  18  1   
 37  17  19  1   
 38  17  42  1   
 39  18  19  ar  
 40  18  20  ar  
 41  19  21  ar  
 42  20  22  ar  
 43  20  43  1   
 44  21  23  ar  
 45  21  44  1   
 46  22  23  ar  
 47  22  45  1   
 48  23  46  1   
@<TRIPOS>SUBSTRUCTURE
  1 ****  13 GROUP 4 **** **** 0

# MOE 2024.06 (io_trps.svl 2023.06)
