@<TRIPOS>MOLECULE
NONAME
57 60 1 0 0 
SMALL
USER_CHARGES


@<TRIPOS>ATOM
  1 O       -0.9920     1.1310     2.0970 O.3   1 <1>  -0.5600 
  2 C       -0.0400     0.9780     1.1010 C.3   1 <1>   0.1200 
  3 C       -2.2530     1.2110     1.4980 C.3   1 <1>   0.1200 
  4 C       -0.4940     2.0050     0.0700 C.3   1 <1>   0.4230 
  5 C       -2.0000     1.7430     0.0730 C.3   1 <1>  -0.0800 
  6 N       -0.2660     3.3670     0.6410 N.4   1 <1>  -0.9060 
  7 C       -2.4090     0.7200    -1.0070 C.3   1 <1>  -0.0170 
  8 C        1.1350     3.8450     0.6850 C.3   1 <1>   0.4230 
  9 C       -3.9100     0.4790    -0.9850 C.ar  1 <1>  -0.1440 
 10 C        1.2130     5.0480     1.6240 C.3   1 <1>  -0.1600 
 11 C        1.6140     4.2340    -0.7160 C.3   1 <1>  -0.1600 
 12 C       -4.8020     1.3830    -1.5270 C.ar  1 <1>  -0.1500 
 13 C       -4.4610    -0.6570    -0.4250 C.ar  1 <1>  -0.1500 
 14 C        2.6250     5.6340     1.6510 C.3   1 <1>   0.3430 
 15 C        3.0200     4.8380    -0.6670 C.3   1 <1>   0.3430 
 16 C       -6.1610     1.1210    -1.4730 C.ar  1 <1>   0.1600 
 17 C       -5.8360    -0.8230    -0.4220 C.ar  1 <1>   0.1600 
 18 N        3.0540     6.0050     0.2680 N.4   1 <1>  -0.9590 
 19 N       -6.6970     0.0430    -0.9280 N.ar  1 <1>  -0.6200 
 20 C        4.4070     6.6470     0.2890 C.3   1 <1>   0.4230 
 21 C        4.4060     7.9500     1.1030 C.3   1 <1>  -0.1600 
 22 C        4.8670     7.0490    -1.1140 C.3   1 <1>  -0.1600 
 23 C        5.0560     9.0300     0.2310 C.3   1 <1>  -0.1600 
 24 C        5.7410     8.2800    -0.9040 C.3   1 <1>  -0.1600 
 25 H        0.9410     1.1550     1.5050 H     1 <1>   0.0800 
 26 H       -0.0990    -0.0300     0.7220 H     1 <1>   0.0800 
 27 H       -2.6890     0.2260     1.5020 H     1 <1>   0.0800 
 28 H       -2.8710     1.8730     2.0810 H     1 <1>   0.0800 
 29 H       -0.0400     1.8810    -0.9000 H     1 <1>   0.0800 
 30 H       -2.5630     2.6440    -0.0950 H     1 <1>   0.0800 
 31 H       -0.8840     4.0460     0.1830 H     1 <1>   0.4500 
 32 H       -0.6130     3.2630     1.6110 H     1 <1>   0.4500 
 33 H       -1.8970    -0.2160    -0.8630 H     1 <1>   0.0800 
 34 H       -2.1400     1.0870    -1.9830 H     1 <1>   0.0800 
 35 H        1.7700     3.0640     1.0740 H     1 <1>   0.0800 
 36 H        0.5240     5.8180     1.3230 H     1 <1>   0.0800 
 37 H        0.9590     4.7420     2.6250 H     1 <1>   0.0800 
 38 H        1.6500     3.3640    -1.3480 H     1 <1>   0.0800 
 39 H        0.9460     4.9490    -1.1640 H     1 <1>   0.0800 
 40 H       -4.4640     2.2880    -1.9960 H     1 <1>   0.1500 
 41 H       -3.8420    -1.4220     0.0090 H     1 <1>   0.1500 
 42 H        3.3140     4.9120     2.0640 H     1 <1>   0.0800 
 43 H        2.6360     6.5030     2.2910 H     1 <1>   0.0800 
 44 H        3.3050     5.1510    -1.6600 H     1 <1>   0.0800 
 45 H        3.7290     4.0930    -0.3400 H     1 <1>   0.0800 
 46 H       -6.8450     1.8350    -1.9010 H     1 <1>   0.1500 
 47 H       -6.2490    -1.7140     0.0200 H     1 <1>   0.1500 
 48 H        2.4290     6.7410    -0.0920 H     1 <1>   0.4500 
 49 H        5.1370     5.9750     0.7130 H     1 <1>   0.0800 
 50 H        3.4220     8.2760     1.3870 H     1 <1>   0.0800 
 51 H        5.0000     7.8100     1.9900 H     1 <1>   0.0800 
 52 H        5.4260     6.2670    -1.5980 H     1 <1>   0.0800 
 53 H        4.0290     7.3360    -1.7270 H     1 <1>   0.0800 
 54 H        4.2950     9.6760    -0.1770 H     1 <1>   0.0800 
 55 H        5.7550     9.6350     0.7860 H     1 <1>   0.0800 
 56 H        6.7300     7.9820    -0.5950 H     1 <1>   0.0800 
 57 H        5.8220     8.8820    -1.7950 H     1 <1>   0.0800 
@<TRIPOS>BOND
  1   1   2  1   
  2   1   3  1   
  3   2   4  1   
  4   2  25  1   
  5   2  26  1   
  6   3   5  1   
  7   3  27  1   
  8   3  28  1   
  9   4   5  1   
 10   4   6  1   
 11   4  29  1   
 12   5   7  1   
 13   5  30  1   
 14   6   8  1   
 15   6  31  1   
 16   6  32  1   
 17   7   9  1   
 18   7  33  1   
 19   7  34  1   
 20   8  10  1   
 21   8  11  1   
 22   8  35  1   
 23   9  12  ar  
 24   9  13  ar  
 25  10  14  1   
 26  10  36  1   
 27  10  37  1   
 28  11  15  1   
 29  11  38  1   
 30  11  39  1   
 31  12  16  ar  
 32  12  40  1   
 33  13  17  ar  
 34  13  41  1   
 35  14  18  1   
 36  14  42  1   
 37  14  43  1   
 38  15  18  1   
 39  15  44  1   
 40  15  45  1   
 41  16  19  ar  
 42  16  46  1   
 43  17  19  ar  
 44  17  47  1   
 45  18  20  1   
 46  18  48  1   
 47  20  21  1   
 48  20  22  1   
 49  20  49  1   
 50  21  23  1   
 51  21  50  1   
 52  21  51  1   
 53  22  24  1   
 54  22  52  1   
 55  22  53  1   
 56  23  24  1   
 57  23  54  1   
 58  23  55  1   
 59  24  56  1   
 60  24  57  1   
@<TRIPOS>SUBSTRUCTURE
  1 ****   6 GROUP 4 **** **** 0

# MOE 2024.06 (io_trps.svl 2023.06)
