@<TRIPOS>MOLECULE
NONAME
53 55 1 0 0 
SMALL
USER_CHARGES


@<TRIPOS>ATOM
  1 O       -1.3620     0.2030    -2.7130 O.2   1 <1>  -0.5700 
  2 C       -1.9830     0.9860    -2.0320 C.2   1 <1>   0.5690 
  3 N       -3.2130     0.6380    -1.5170 N.am  1 <1>  -0.6600 
  4 C       -1.3490     2.3490    -1.7670 C.3   1 <1>   0.1810 
  5 C       -3.7560    -0.7320    -1.7400 C.3   1 <1>   0.1400 
  6 C       -3.9200     1.3950    -0.4460 C.3   1 <1>   0.1400 
  7 O       -1.0280     2.4990    -0.3920 O.3   1 <1>  -0.3620 
  8 C       -3.5690    -1.5330    -0.4380 C.3   1 <1>   0.4230 
  9 C       -3.8240     0.5940     0.8650 C.3   1 <1>  -0.1600 
 10 C       -0.5570     3.6750     0.1010 C.ar  1 <1>   0.0820 
 11 N       -3.7200    -3.0370    -0.5890 N.4   1 <1>  -0.9590 
 12 C       -4.3340    -0.8720     0.7540 C.3   1 <1>   0.0000 
 13 C       -0.3670     3.7700     1.4780 C.ar  1 <1>  -0.1440 
 14 C       -0.2690     4.7710    -0.7110 C.ar  1 <1>  -0.1500 
 15 C       -3.9860    -3.7370     0.7080 C.3   1 <1>   0.3430 
 16 C       -4.7360    -3.4690    -1.6000 C.3   1 <1>   0.2630 
 17 C       -3.9910    -1.6070     2.0840 C.3   1 <1>  -0.1600 
 18 C       -5.8780    -0.7890     0.5620 C.3   1 <1>   0.1200 
 19 C        0.0960     4.9560     2.0240 C.ar  1 <1>  -0.1500 
 20 C       -0.6590     2.5910     2.3940 C.3   1 <1>  -0.0970 
 21 C        0.1930     5.9490    -0.1530 C.ar  1 <1>  -0.1500 
 22 C       -3.3470    -2.9910     1.8790 C.3   1 <1>  -0.1600 
 23 O       -6.4760    -2.0380     0.5100 O.3   1 <1>  -0.6800 
 24 C        0.3740     6.0430     1.2140 C.ar  1 <1>  -0.1500 
 25 H       -2.0360     3.1250    -2.0480 H     1 <1>   0.0800 
 26 H       -0.4400     2.4400    -2.3350 H     1 <1>   0.0800 
 27 H       -4.7930    -0.6650    -2.0130 H     1 <1>   0.0800 
 28 H       -3.2270    -1.2150    -2.5430 H     1 <1>   0.0800 
 29 H       -3.4900     2.3710    -0.3040 H     1 <1>   0.0800 
 30 H       -4.9470     1.5420    -0.7330 H     1 <1>   0.0800 
 31 H       -2.5300    -1.3870    -0.1930 H     1 <1>   0.0800 
 32 H       -2.7880     0.5960     1.1590 H     1 <1>   0.0800 
 33 H       -4.3650     1.1190     1.6340 H     1 <1>   0.0800 
 34 H       -2.8020    -3.3660    -0.9180 H     1 <1>   0.4500 
 35 H       -0.3910     4.7330    -1.7760 H     1 <1>   0.1500 
 36 H       -5.0480    -3.7940     0.8810 H     1 <1>   0.0800 
 37 H       -3.6050    -4.7440     0.6640 H     1 <1>   0.0800 
 38 H       -5.7130    -3.1040    -1.3350 H     1 <1>   0.0800 
 39 H       -4.7770    -4.5450    -1.6510 H     1 <1>   0.0800 
 40 H       -4.4810    -3.0930    -2.5780 H     1 <1>   0.0800 
 41 H       -3.3200    -1.0220     2.6910 H     1 <1>   0.0800 
 42 H       -4.8870    -1.7310     2.6690 H     1 <1>   0.0800 
 43 H       -6.1450    -0.2650    -0.3390 H     1 <1>   0.0800 
 44 H       -6.3150    -0.2620     1.3940 H     1 <1>   0.0800 
 45 H        0.2450     5.0440     3.0860 H     1 <1>   0.1500 
 46 H       -0.2560     2.7580     3.3770 H     1 <1>   0.0800 
 47 H       -0.2160     1.6960     1.9960 H     1 <1>   0.0800 
 48 H       -1.7210     2.4520     2.4770 H     1 <1>   0.0800 
 49 H        0.4140     6.7940    -0.7820 H     1 <1>   0.1500 
 50 H       -3.4730    -3.5710     2.7760 H     1 <1>   0.0800 
 51 H       -2.2880    -2.8940     1.7080 H     1 <1>   0.0800 
 52 H       -7.4490    -1.9550     0.6180 H     1 <1>   0.4000 
 53 H        0.7330     6.9590     1.6490 H     1 <1>   0.1500 
@<TRIPOS>BOND
  1   1   2  2   
  2   2   3  am  
  3   2   4  1   
  4   3   5  1   
  5   3   6  1   
  6   4   7  1   
  7   4  25  1   
  8   4  26  1   
  9   5   8  1   
 10   5  27  1   
 11   5  28  1   
 12   6   9  1   
 13   6  29  1   
 14   6  30  1   
 15   7  10  1   
 16   8  11  1   
 17   8  12  1   
 18   8  31  1   
 19   9  12  1   
 20   9  32  1   
 21   9  33  1   
 22  10  13  ar  
 23  10  14  ar  
 24  11  15  1   
 25  11  16  1   
 26  11  34  1   
 27  12  17  1   
 28  12  18  1   
 29  13  19  ar  
 30  13  20  1   
 31  14  21  ar  
 32  14  35  1   
 33  15  22  1   
 34  15  36  1   
 35  15  37  1   
 36  16  38  1   
 37  16  39  1   
 38  16  40  1   
 39  17  22  1   
 40  17  41  1   
 41  17  42  1   
 42  18  23  1   
 43  18  43  1   
 44  18  44  1   
 45  19  24  ar  
 46  19  45  1   
 47  20  46  1   
 48  20  47  1   
 49  20  48  1   
 50  21  24  ar  
 51  21  49  1   
 52  22  50  1   
 53  22  51  1   
 54  23  52  1   
 55  24  53  1   
@<TRIPOS>SUBSTRUCTURE
  1 ****   9 GROUP 4 **** **** 0

# MOE 2024.06 (io_trps.svl 2023.06)
