@<TRIPOS>MOLECULE
NONAME
52 55 1 0 0 
SMALL
USER_CHARGES


@<TRIPOS>ATOM
  1 O        0.0350     0.4560    -0.7840 O.2   1 <1>  -0.5700 
  2 C       -0.4580     1.5310    -0.4850 C.2   1 <1>   0.5440 
  3 N       -1.7980     1.5540    -0.1250 N.am  1 <1>  -0.6600 
  4 C        0.4030     2.7150    -0.4840 C.ar  1 <1>   0.3960 
  5 C       -2.4500     2.6910     0.6030 C.3   1 <1>   0.1400 
  6 C       -2.6850     0.3710    -0.3130 C.3   1 <1>   0.1400 
  7 N        0.0250     3.8470    -1.0730 N.ar  1 <1>  -0.6200 
  8 C        1.6400     2.6400     0.1310 C.ar  1 <1>  -0.1500 
  9 C       -3.7390     3.1500    -0.1060 C.3   1 <1>   0.1440 
 10 C       -3.9730     0.7890    -1.0340 C.3   1 <1>  -0.1600 
 11 C        0.8860     4.8370    -1.0080 C.ar  1 <1>   0.7200 
 12 C        2.4530     3.7470     0.1340 C.ar  1 <1>   0.1660 
 13 C       -4.3700     4.2560     0.7210 C.ar  1 <1>   0.1660 
 14 C       -4.6840     1.9460    -0.3090 C.3   1 <1>  -0.1600 
 15 C       -3.4300     3.8790    -1.4400 C.3   1 <1>  -0.1600 
 16 N        2.0740     4.8630    -0.4400 N.ar  1 <1>  -0.6200 
 17 N        0.5250     5.9620    -1.6260 N.pl3 1 <1>  -0.9000 
 18 C        3.8290     3.7230     0.8010 C.3   1 <1>   0.0630 
 19 N       -5.0350     4.0910     1.8400 N.ar  1 <1>  -0.6200 
 20 C       -4.1490     5.4810     0.1630 C.ar  1 <1>  -0.1440 
 21 C       -3.3480     5.3790    -1.1110 C.3   1 <1>  -0.0170 
 22 C        4.7530     2.6930     0.1390 C.3   1 <1>  -0.2400 
 23 C        3.7160     3.4580     2.3080 C.3   1 <1>  -0.2400 
 24 C       -5.4740     5.2200     2.3770 C.ar  1 <1>   0.7200 
 25 C       -4.6590     6.5810     0.8090 C.ar  1 <1>   0.1600 
 26 N       -5.3370     6.4600     1.9280 N.ar  1 <1>  -0.6200 
 27 N       -6.1700     5.0910     3.5070 N.pl3 1 <1>  -0.9000 
 28 H       -1.7800     3.5240     0.7090 H     1 <1>   0.0800 
 29 H       -2.7040     2.3580     1.5950 H     1 <1>   0.0800 
 30 H       -2.9230    -0.0430     0.6520 H     1 <1>   0.0800 
 31 H       -2.1890    -0.3910    -0.8900 H     1 <1>   0.0800 
 32 H        1.9460     1.7210     0.5920 H     1 <1>   0.1500 
 33 H       -4.6340    -0.0580    -1.0910 H     1 <1>   0.0800 
 34 H       -3.7280     1.0770    -2.0410 H     1 <1>   0.0800 
 35 H       -5.5580     2.2480    -0.8580 H     1 <1>   0.0800 
 36 H       -5.0140     1.5970     0.6540 H     1 <1>   0.0800 
 37 H       -4.2490     3.7340    -2.1230 H     1 <1>   0.0800 
 38 H       -2.5350     3.5190    -1.9130 H     1 <1>   0.0800 
 39 H        1.2920     6.6100    -1.7850 H     1 <1>   0.4000 
 40 H       -0.1180     5.8390    -2.4010 H     1 <1>   0.4000 
 41 H        4.2780     4.6950     0.6720 H     1 <1>   0.0800 
 42 H       -3.7620     5.9830    -1.8990 H     1 <1>   0.0800 
 43 H       -2.3290     5.6700    -0.9200 H     1 <1>   0.0800 
 44 H        4.3770     1.6940     0.2720 H     1 <1>   0.0800 
 45 H        5.7390     2.7490     0.5650 H     1 <1>   0.0800 
 46 H        4.8270     2.8940    -0.9160 H     1 <1>   0.0800 
 47 H        3.3130     2.4800     2.4990 H     1 <1>   0.0800 
 48 H        3.0710     4.1910     2.7590 H     1 <1>   0.0800 
 49 H        4.6850     3.5270     2.7710 H     1 <1>   0.0800 
 50 H       -4.5080     7.5680     0.4050 H     1 <1>   0.1500 
 51 H       -6.7550     5.8870     3.7420 H     1 <1>   0.4000 
 52 H       -6.5610     4.1680     3.6700 H     1 <1>   0.4000 
@<TRIPOS>BOND
  1   1   2  2   
  2   2   3  am  
  3   2   4  1   
  4   3   5  1   
  5   3   6  1   
  6   4   7  ar  
  7   4   8  ar  
  8   5   9  1   
  9   5  28  1   
 10   5  29  1   
 11   6  10  1   
 12   6  30  1   
 13   6  31  1   
 14   7  11  ar  
 15   8  12  ar  
 16   8  32  1   
 17   9  13  1   
 18   9  14  1   
 19   9  15  1   
 20  10  14  1   
 21  10  33  1   
 22  10  34  1   
 23  11  16  ar  
 24  11  17  1   
 25  12  16  ar  
 26  12  18  1   
 27  13  19  ar  
 28  13  20  ar  
 29  14  35  1   
 30  14  36  1   
 31  15  21  1   
 32  15  37  1   
 33  15  38  1   
 34  17  39  1   
 35  17  40  1   
 36  18  22  1   
 37  18  23  1   
 38  18  41  1   
 39  19  24  ar  
 40  20  21  1   
 41  20  25  ar  
 42  21  42  1   
 43  21  43  1   
 44  22  44  1   
 45  22  45  1   
 46  22  46  1   
 47  23  47  1   
 48  23  48  1   
 49  23  49  1   
 50  24  26  ar  
 51  24  27  1   
 52  25  26  ar  
 53  25  50  1   
 54  27  51  1   
 55  27  52  1   
@<TRIPOS>SUBSTRUCTURE
  1 ****   5 GROUP 4 **** **** 0

# MOE 2024.06 (io_trps.svl 2023.06)
