@<TRIPOS>MOLECULE
NONAME
27 27 1 0 0 
SMALL
USER_CHARGES


@<TRIPOS>ATOM
  1 O       -0.1860    -2.0170    -1.9870 O.3   1 <1>  -0.4800 
  2 N        0.9020    -2.4620    -1.4240 N.pl3 1 <1>  -0.8240 
  3 C        1.1240    -2.4020    -0.1360 C.cat 1 <1>   0.6040 
  4 N        0.1620    -1.8100     0.5710 N.pl3 1 <1>  -0.7540 
  5 C        2.3840    -3.0190     0.5170 C.3   1 <1>   0.4480 
  6 N        2.7620    -4.3930    -0.0090 N.4   1 <1>  -0.9590 
  7 C        1.5900    -5.3290    -0.0180 C.3   1 <1>   0.3430 
  8 C        3.9300    -4.9640     0.7250 C.3   1 <1>   0.3430 
  9 C        1.9870    -6.6440    -0.6900 C.3   1 <1>  -0.1600 
 10 C        4.3660    -6.2710     0.0610 C.3   1 <1>  -0.1600 
 11 C        3.2130    -7.2800    -0.0220 C.3   1 <1>  -0.1600 
 12 H        1.5560    -2.8440    -2.1160 H     1 <1>   0.4500 
 13 H        0.0690    -1.5710     1.5560 H     1 <1>   0.4500 
 14 H       -0.5860    -1.4820    -0.0640 H     1 <1>   0.4500 
 15 H        2.2050    -3.0860     1.5760 H     1 <1>   0.0800 
 16 H        3.2030    -2.3380     0.3640 H     1 <1>   0.0800 
 17 H        3.0430    -4.2900    -0.9930 H     1 <1>   0.4500 
 18 H        0.7630    -4.8930    -0.5600 H     1 <1>   0.0800 
 19 H        1.2670    -5.5260     0.9920 H     1 <1>   0.0800 
 20 H        3.6600    -5.1580     1.7510 H     1 <1>   0.0800 
 21 H        4.7540    -4.2680     0.7150 H     1 <1>   0.0800 
 22 H        2.1860    -6.4660    -1.7330 H     1 <1>   0.0800 
 23 H        1.1580    -7.3280    -0.6370 H     1 <1>   0.0800 
 24 H        5.1730    -6.7020     0.6290 H     1 <1>   0.0800 
 25 H        4.7440    -6.0650    -0.9250 H     1 <1>   0.0800 
 26 H        3.5250    -8.1470    -0.5810 H     1 <1>   0.0800 
 27 H        2.9510    -7.6100     0.9700 H     1 <1>   0.0800 
@<TRIPOS>BOND
  1   1   2  1   
  2   2   3  ar  
  3   2  12  1   
  4   3   4  ar  
  5   3   5  1   
  6   4  13  1   
  7   4  14  1   
  8   5   6  1   
  9   5  15  1   
 10   5  16  1   
 11   6   7  1   
 12   6   8  1   
 13   6  17  1   
 14   7   9  1   
 15   7  18  1   
 16   7  19  1   
 17   8  10  1   
 18   8  20  1   
 19   8  21  1   
 20   9  11  1   
 21   9  22  1   
 22   9  23  1   
 23  10  11  1   
 24  10  24  1   
 25  10  25  1   
 26  11  26  1   
 27  11  27  1   
@<TRIPOS>SUBSTRUCTURE
  1 ****   6 GROUP 4 **** **** 0

# MOE 2024.06 (io_trps.svl 2023.06)
