@<TRIPOS>MOLECULE
NONAME
40 42 1 0 0 
SMALL
USER_CHARGES


@<TRIPOS>ATOM
  1 O        0.8150    -0.2440     1.3310 O.2   1 <1>  -0.5700 
  2 C        0.5380    -1.4080     1.1240 C.2   1 <1>   0.5440 
  3 N       -0.5640    -1.8590     1.7590 N.am  1 <1>  -0.8000 
  4 C        1.3510    -2.2410     0.2600 C.ar  1 <1>   0.0860 
  5 C        0.9260    -3.4830    -0.2720 C.ar  1 <1>   0.4100 
  6 C        2.6300    -1.8130    -0.0820 C.ar  1 <1>  -0.1500 
  7 N        1.6810    -4.2450    -1.0670 N.ar  1 <1>  -0.6200 
  8 N       -0.3380    -4.0080    -0.0430 N.pl3 1 <1>  -0.8380 
  9 C        3.4020    -2.6030    -0.9000 C.ar  1 <1>  -0.1500 
 10 C        2.8840    -3.7980    -1.3590 C.ar  1 <1>   0.1600 
 11 C       -1.3160    -3.8250    -1.1610 C.3   1 <1>   0.2090 
 12 C       -0.4250    -5.4250     0.4280 C.3   1 <1>   0.2090 
 13 C       -2.1950    -5.0760    -1.1580 C.3   1 <1>   0.2000 
 14 C       -1.2620    -6.1600    -0.6210 C.3   1 <1>  -0.0800 
 15 O       -3.2450    -4.8820    -0.2680 O.3   1 <1>  -0.6800 
 16 C       -1.9600    -7.4260    -0.0930 C.3   1 <1>   0.0200 
 17 C       -0.9790    -8.5190     0.2960 C.2   1 <1>  -0.0400 
 18 O       -1.4230    -9.5620     0.9450 O.3   1 <1>  -0.0190 
 19 C        0.3410    -8.6850     0.1130 C.2   1 <1>  -0.1500 
 20 N       -0.4740   -10.4130     1.2090 N.2   1 <1>  -0.4100 
 21 C        0.6010    -9.9110     0.7190 C.2   1 <1>   0.1080 
 22 C        1.9600   -10.5710     0.7940 C.3   1 <1>  -0.0590 
 23 H       -1.1470    -1.2190     2.2960 H     1 <1>   0.3700 
 24 H       -0.9370    -2.7790     1.5010 H     1 <1>   0.3700 
 25 H        3.0070    -0.8760     0.2900 H     1 <1>   0.1500 
 26 H        4.3940    -2.2980    -1.1810 H     1 <1>   0.1500 
 27 H        3.4940    -4.4120    -2.0000 H     1 <1>   0.1500 
 28 H       -1.8990    -2.9290    -1.0310 H     1 <1>   0.0800 
 29 H       -0.7840    -3.7650    -2.0960 H     1 <1>   0.0800 
 30 H        0.5490    -5.8710     0.5370 H     1 <1>   0.0800 
 31 H       -0.9180    -5.4440     1.3850 H     1 <1>   0.0800 
 32 H       -2.6040    -5.3050    -2.1270 H     1 <1>   0.0800 
 33 H       -0.6010    -6.4410    -1.4230 H     1 <1>   0.0800 
 34 H       -2.8930    -4.5030     0.5600 H     1 <1>   0.4000 
 35 H       -2.6200    -7.8140    -0.8480 H     1 <1>   0.0800 
 36 H       -2.5590    -7.1840     0.7680 H     1 <1>   0.0800 
 37 H        1.0620    -8.0570    -0.3780 H     1 <1>   0.1500 
 38 H        2.6520    -9.9240     1.3010 H     1 <1>   0.0800 
 39 H        2.3220   -10.7740    -0.1960 H     1 <1>   0.0800 
 40 H        1.8880   -11.4970     1.3360 H     1 <1>   0.0800 
@<TRIPOS>BOND
  1   1   2  2   
  2   2   3  am  
  3   2   4  1   
  4   3  23  1   
  5   3  24  1   
  6   4   5  ar  
  7   4   6  ar  
  8   5   7  ar  
  9   5   8  1   
 10   6   9  ar  
 11   6  25  1   
 12   7  10  ar  
 13   8  11  1   
 14   8  12  1   
 15   9  10  ar  
 16   9  26  1   
 17  10  27  1   
 18  11  13  1   
 19  11  28  1   
 20  11  29  1   
 21  12  14  1   
 22  12  30  1   
 23  12  31  1   
 24  13  14  1   
 25  13  15  1   
 26  13  32  1   
 27  14  16  1   
 28  14  33  1   
 29  15  34  1   
 30  16  17  1   
 31  16  35  1   
 32  16  36  1   
 33  17  18  1   
 34  17  19  2   
 35  18  20  1   
 36  19  21  1   
 37  19  37  1   
 38  20  21  2   
 39  21  22  1   
 40  22  38  1   
 41  22  39  1   
 42  22  40  1   
@<TRIPOS>SUBSTRUCTURE
  1 ****  12 GROUP 4 **** **** 0

# MOE 2024.06 (io_trps.svl 2023.06)
