@<TRIPOS>MOLECULE
NONAME
44 47 1 0 0 
SMALL
USER_CHARGES


@<TRIPOS>ATOM
  1 O       -0.9710    -0.3750    -0.7320 O.2   1 <1>  -0.5700 
  2 C       -1.2670    -1.5220    -0.5240 C.2   1 <1>   0.4230 
  3 C       -2.3110    -2.0260     0.3110 C.ar  1 <1>   0.0860 
  4 C       -0.5360    -2.6820    -1.1650 C.3   1 <1>  -0.0990 
  5 C       -2.3450    -3.4050     0.2740 C.ar  1 <1>  -0.1440 
  6 C       -3.2260    -1.3360     1.0960 C.ar  1 <1>  -0.1500 
  7 C       -1.2520    -3.9430    -0.6360 C.3   1 <1>  -0.0160 
  8 C       -3.2770    -4.1460     0.9960 C.ar  1 <1>   0.0860 
  9 C       -4.1590    -2.0430     1.8340 C.ar  1 <1>  -0.1500 
 10 C       -3.3170    -5.5960     0.9350 C.2   1 <1>   0.5440 
 11 C       -4.1790    -3.4280     1.7850 C.ar  1 <1>  -0.1500 
 12 O       -2.3290    -6.2430     1.2240 O.2   1 <1>  -0.5700 
 13 N       -4.4510    -6.2620     0.5370 N.am  1 <1>  -0.6600 
 14 C       -5.6190    -5.6370    -0.1320 C.3   1 <1>   0.1400 
 15 C       -4.5100    -7.7400     0.4250 C.3   1 <1>   0.1400 
 16 C       -6.3520    -6.7980    -0.8050 C.3   1 <1>   0.2000 
 17 C       -5.9380    -8.0480    -0.0320 C.3   1 <1>  -0.0800 
 18 O       -7.7270    -6.6370    -0.7480 O.3   1 <1>  -0.6800 
 19 C       -6.0710    -9.3330    -0.8680 C.3   1 <1>  -0.0170 
 20 C       -5.7010   -10.5690    -0.0650 C.ar  1 <1>   0.1670 
 21 N       -4.4130   -10.8640     0.0060 N.ar  1 <1>  -0.6200 
 22 C       -6.6970   -11.3220     0.5540 C.ar  1 <1>   0.1600 
 23 C       -4.1890   -11.9470     0.7310 C.ar  1 <1>   0.1600 
 24 N       -6.4760   -12.4050     1.2810 N.ar  1 <1>  -0.6200 
 25 C       -5.1870   -12.6920     1.3480 C.ar  1 <1>   0.1600 
 26 H       -0.6090    -2.6120    -2.2350 H     1 <1>   0.0800 
 27 H        0.4970    -2.6690    -0.8700 H     1 <1>   0.0800 
 28 H       -3.1940    -0.2600     1.1200 H     1 <1>   0.1500 
 29 H       -0.5710    -4.5640    -0.0770 H     1 <1>   0.0800 
 30 H       -1.6770    -4.5150    -1.4420 H     1 <1>   0.0800 
 31 H       -4.8660    -1.5140     2.4500 H     1 <1>   0.1500 
 32 H       -4.9010    -3.9690     2.3710 H     1 <1>   0.1500 
 33 H       -6.2430    -5.1690     0.6080 H     1 <1>   0.0800 
 34 H       -5.2970    -4.9140    -0.8610 H     1 <1>   0.0800 
 35 H       -3.7900    -8.0660    -0.3070 H     1 <1>   0.0800 
 36 H       -4.2840    -8.2060     1.3700 H     1 <1>   0.0800 
 37 H       -6.0590    -6.8610    -1.8390 H     1 <1>   0.0800 
 38 H       -6.5400    -8.1360     0.8550 H     1 <1>   0.0800 
 39 H       -8.0310    -6.6080     0.1800 H     1 <1>   0.4000 
 40 H       -5.4360    -9.2760    -1.7350 H     1 <1>   0.0800 
 41 H       -7.0840    -9.4230    -1.2170 H     1 <1>   0.0800 
 42 H       -7.7220   -11.0140     0.4460 H     1 <1>   0.1500 
 43 H       -3.1670   -12.2610     0.8430 H     1 <1>   0.1500 
 44 H       -4.9060   -13.5590     1.9190 H     1 <1>   0.1500 
@<TRIPOS>BOND
  1   1   2  2   
  2   2   3  1   
  3   2   4  1   
  4   3   5  ar  
  5   3   6  ar  
  6   4   7  1   
  7   4  26  1   
  8   4  27  1   
  9   5   7  1   
 10   5   8  ar  
 11   6   9  ar  
 12   6  28  1   
 13   7  29  1   
 14   7  30  1   
 15   8  10  1   
 16   8  11  ar  
 17   9  11  ar  
 18   9  31  1   
 19  10  12  2   
 20  10  13  am  
 21  11  32  1   
 22  13  14  1   
 23  13  15  1   
 24  14  16  1   
 25  14  33  1   
 26  14  34  1   
 27  15  17  1   
 28  15  35  1   
 29  15  36  1   
 30  16  17  1   
 31  16  18  1   
 32  16  37  1   
 33  17  19  1   
 34  17  38  1   
 35  18  39  1   
 36  19  20  1   
 37  19  40  1   
 38  19  41  1   
 39  20  21  ar  
 40  20  22  ar  
 41  21  23  ar  
 42  22  24  ar  
 43  22  42  1   
 44  23  25  ar  
 45  23  43  1   
 46  24  25  ar  
 47  25  44  1   
@<TRIPOS>SUBSTRUCTURE
  1 ****  13 GROUP 4 **** **** 0

# MOE 2024.06 (io_trps.svl 2023.06)
