@<TRIPOS>MOLECULE
NONAME
45 47 1 0 0 
SMALL
USER_CHARGES


@<TRIPOS>ATOM
  1 O       -0.7000    -0.2090    -3.0200 O.2   1 <1>  -0.5700 
  2 C       -1.2660     0.6170    -2.3420 C.2   1 <1>   0.5690 
  3 N       -2.2110     0.2540    -1.4190 N.am  1 <1>  -0.6600 
  4 C       -0.9010     2.0810    -2.5550 C.3   1 <1>   0.0440 
  5 C       -2.8730     1.1530    -0.4390 C.3   1 <1>   0.1400 
  6 C       -2.5620    -1.1610    -1.1470 C.3   1 <1>   0.1400 
  7 C       -0.2100     2.7100    -1.3480 C.ar  1 <1>  -0.1440 
  8 C       -3.7000     0.2270     0.4550 C.3   1 <1>   0.2000 
  9 C       -3.0890    -1.1620     0.2880 C.3   1 <1>  -0.0800 
 10 C       -0.6630     3.9090    -0.8200 C.ar  1 <1>  -0.1500 
 11 C        0.8790     2.0810    -0.7650 C.ar  1 <1>  -0.1500 
 12 O       -3.6370     0.6140     1.7840 O.3   1 <1>  -0.6800 
 13 C       -4.0910    -2.2890     0.5940 C.3   1 <1>  -0.0170 
 14 C       -0.0400     4.4650     0.2840 C.ar  1 <1>  -0.1500 
 15 C        1.5010     2.6380     0.3380 C.ar  1 <1>  -0.1500 
 16 C       -3.4570    -3.6620     0.4450 C.ar  1 <1>   0.1670 
 17 C        1.0440     3.8330     0.8720 C.ar  1 <1>  -0.1440 
 18 N       -3.4330    -4.1730    -0.7750 N.ar  1 <1>  -0.6200 
 19 C       -2.9350    -4.3130     1.5620 C.ar  1 <1>   0.1600 
 20 C        1.7250     4.4520     2.0800 C.3   1 <1>   0.2630 
 21 C       -2.8570    -5.3630    -0.8040 C.ar  1 <1>   0.1600 
 22 N       -2.3590    -5.5030     1.5350 N.ar  1 <1>  -0.6200 
 23 O        2.3710     5.5950     1.6570 O.3   1 <1>  -0.6800 
 24 C       -2.3370    -6.0060     0.3130 C.ar  1 <1>   0.1600 
 25 H       -0.2430     2.1500    -3.4020 H     1 <1>   0.0800 
 26 H       -1.7970     2.6190    -2.7990 H     1 <1>   0.0800 
 27 H       -2.1260     1.6650     0.1410 H     1 <1>   0.0800 
 28 H       -3.5060     1.8600    -0.9460 H     1 <1>   0.0800 
 29 H       -3.3260    -1.4730    -1.8400 H     1 <1>   0.0800 
 30 H       -1.7040    -1.8040    -1.2550 H     1 <1>   0.0800 
 31 H       -4.7300     0.2430     0.1430 H     1 <1>   0.0800 
 32 H       -2.2350    -1.2580     0.9360 H     1 <1>   0.0800 
 33 H       -1.5010     4.4190    -1.2620 H     1 <1>   0.1500 
 34 H        1.2460     1.1520    -1.1680 H     1 <1>   0.1500 
 35 H       -2.7060     0.6590     2.0790 H     1 <1>   0.4000 
 36 H       -4.9360    -2.2200    -0.0690 H     1 <1>   0.0800 
 37 H       -4.4590    -2.1710     1.5980 H     1 <1>   0.0800 
 38 H       -0.3970     5.3980     0.6850 H     1 <1>   0.1500 
 39 H        2.3450     2.1340     0.7760 H     1 <1>   0.1500 
 40 H       -2.9950    -3.8260     2.5190 H     1 <1>   0.1500 
 41 H        2.4590     3.7860     2.5000 H     1 <1>   0.0800 
 42 H        1.0120     4.7250     2.8380 H     1 <1>   0.0800 
 43 H       -2.7920    -5.8550    -1.7590 H     1 <1>   0.1500 
 44 H        2.6890     5.4500     0.7440 H     1 <1>   0.4000 
 45 H       -1.8860    -6.9750     0.1880 H     1 <1>   0.1500 
@<TRIPOS>BOND
  1   1   2  2   
  2   2   3  am  
  3   2   4  1   
  4   3   5  1   
  5   3   6  1   
  6   4   7  1   
  7   4  25  1   
  8   4  26  1   
  9   5   8  1   
 10   5  27  1   
 11   5  28  1   
 12   6   9  1   
 13   6  29  1   
 14   6  30  1   
 15   7  10  ar  
 16   7  11  ar  
 17   8   9  1   
 18   8  12  1   
 19   8  31  1   
 20   9  13  1   
 21   9  32  1   
 22  10  14  ar  
 23  10  33  1   
 24  11  15  ar  
 25  11  34  1   
 26  12  35  1   
 27  13  16  1   
 28  13  36  1   
 29  13  37  1   
 30  14  17  ar  
 31  14  38  1   
 32  15  17  ar  
 33  15  39  1   
 34  16  18  ar  
 35  16  19  ar  
 36  17  20  1   
 37  18  21  ar  
 38  19  22  ar  
 39  19  40  1   
 40  20  23  1   
 41  20  41  1   
 42  20  42  1   
 43  21  24  ar  
 44  21  43  1   
 45  22  24  ar  
 46  23  44  1   
 47  24  45  1   
@<TRIPOS>SUBSTRUCTURE
  1 ****   3 GROUP 4 **** **** 0

# MOE 2024.06 (io_trps.svl 2023.06)
