@<TRIPOS>MOLECULE
NONAME
46 49 1 0 0 
SMALL
USER_CHARGES


@<TRIPOS>ATOM
  1 O        2.0840    -1.3190    -2.8790 O.2   1 <1>  -0.5700 
  2 C        1.6930    -1.7270    -1.7970 C.2   1 <1>   0.5440 
  3 N        1.4550    -0.7800    -0.8160 N.am  1 <1>  -0.6600 
  4 C        1.5360    -3.1710    -1.6050 C.ar  1 <1>   0.3960 
  5 C        1.7140     0.6630    -1.0190 C.3   1 <1>   0.1400 
  6 C        1.1010    -1.0550     0.5960 C.3   1 <1>   0.1400 
  7 N        0.6000    -3.6720    -0.7780 N.ar  1 <1>  -0.6200 
  8 C        2.3920    -4.0140    -2.3240 C.ar  1 <1>   0.1600 
  9 C        1.8820     1.2260     0.3860 C.3   1 <1>  -0.1600 
 10 C        1.0350     0.3140     1.2670 C.3   1 <1>  -0.1600 
 11 C        0.5870    -4.9850    -0.7270 C.ar  1 <1>   0.4100 
 12 N        2.4010    -5.3400    -2.2730 N.ar  1 <1>  -0.6200 
 13 N       -0.3810    -5.4800     0.1090 N.pl3 1 <1>  -0.8690 
 14 C        1.4770    -5.7930    -1.4520 C.ar  1 <1>   0.1600 
 15 C       -1.2510    -6.6110    -0.3010 C.3   1 <1>   0.2090 
 16 C       -0.9790    -7.8190     0.5930 C.3   1 <1>   0.0960 
 17 N       -1.8040    -8.9510     0.1410 N.pl3 1 <1>   0.0480 
 18 C       -3.1390    -9.1420     0.4080 C.ar  1 <1>  -0.1520 
 19 C       -1.4020    -9.9420    -0.7100 C.2   1 <1>  -0.3020 
 20 C       -3.5680   -10.2690    -0.2870 C.ar  1 <1>   0.0000 
 21 C       -4.0320    -8.4200     1.2080 C.ar  1 <1>  -0.1500 
 22 C       -2.4460   -10.7580    -0.9870 C.2   1 <1>  -0.1500 
 23 C       -4.9000   -10.6840    -0.1890 C.ar  1 <1>  -0.1500 
 24 C       -5.3400    -8.8370     1.2960 C.ar  1 <1>  -0.1500 
 25 C       -5.7740    -9.9700     0.5960 C.ar  1 <1>  -0.1500 
 26 H        0.8620     1.1050    -1.5070 H     1 <1>   0.0800 
 27 H        2.5950     0.8220    -1.6180 H     1 <1>   0.0800 
 28 H        1.8700    -1.6610     1.0440 H     1 <1>   0.0800 
 29 H        0.1520    -1.5590     0.6640 H     1 <1>   0.0800 
 30 H        3.1140    -3.5560    -2.9790 H     1 <1>   0.1500 
 31 H        1.5750     2.2560     0.4430 H     1 <1>   0.0800 
 32 H        2.9170     1.1520     0.6690 H     1 <1>   0.0800 
 33 H        1.3890     0.2780     2.2820 H     1 <1>   0.0800 
 34 H        0.0130     0.6520     1.2650 H     1 <1>   0.0800 
 35 H       -0.9070    -4.7040     0.5240 H     1 <1>   0.4000 
 36 H        1.4030    -6.8570    -1.3310 H     1 <1>   0.1500 
 37 H       -1.0640    -6.8680    -1.3310 H     1 <1>   0.0800 
 38 H       -2.2820    -6.3150    -0.2070 H     1 <1>   0.0800 
 39 H       -1.2260    -7.5920     1.6130 H     1 <1>   0.0800 
 40 H        0.0560    -8.0980     0.5330 H     1 <1>   0.0800 
 41 H       -0.3920   -10.0120    -1.0740 H     1 <1>   0.1500 
 42 H       -3.6970    -7.5540     1.7490 H     1 <1>   0.1500 
 43 H       -2.4640   -11.6280    -1.6180 H     1 <1>   0.1500 
 44 H       -5.2180   -11.5560    -0.7310 H     1 <1>   0.1500 
 45 H       -6.0440    -8.2980     1.9050 H     1 <1>   0.1500 
 46 H       -6.8020   -10.2760     0.6820 H     1 <1>   0.1500 
@<TRIPOS>BOND
  1   1   2  2   
  2   2   3  am  
  3   2   4  1   
  4   3   5  1   
  5   3   6  1   
  6   4   7  ar  
  7   4   8  ar  
  8   5   9  1   
  9   5  26  1   
 10   5  27  1   
 11   6  10  1   
 12   6  28  1   
 13   6  29  1   
 14   7  11  ar  
 15   8  12  ar  
 16   8  30  1   
 17   9  10  1   
 18   9  31  1   
 19   9  32  1   
 20  10  33  1   
 21  10  34  1   
 22  11  13  1   
 23  11  14  ar  
 24  12  14  ar  
 25  13  15  1   
 26  13  35  1   
 27  14  36  1   
 28  15  16  1   
 29  15  37  1   
 30  15  38  1   
 31  16  17  1   
 32  16  39  1   
 33  16  40  1   
 34  17  18  1   
 35  17  19  1   
 36  18  20  ar  
 37  18  21  ar  
 38  19  22  2   
 39  19  41  1   
 40  20  22  1   
 41  20  23  ar  
 42  21  24  ar  
 43  21  42  1   
 44  22  43  1   
 45  23  25  ar  
 46  23  44  1   
 47  24  25  ar  
 48  24  45  1   
 49  25  46  1   
@<TRIPOS>SUBSTRUCTURE
  1 ****  13 GROUP 4 **** **** 0

# MOE 2024.06 (io_trps.svl 2023.06)
