@<TRIPOS>MOLECULE
NONAME
46 49 1 0 0 
SMALL
USER_CHARGES


@<TRIPOS>ATOM
  1 O       -0.5770     0.0250    -0.6890 O.2   1 <1>  -0.5700 
  2 C       -1.5560     0.6130    -0.2890 C.2   1 <1>   0.6300 
  3 N       -2.7410    -0.0370    -0.0680 N.am  1 <1>  -0.6600 
  4 C       -1.4250     2.1010    -0.0210 C.3   1 <1>   0.0000 
  5 C       -3.9470     0.5470     0.5760 C.3   1 <1>   0.1400 
  6 C       -2.8840    -1.5040    -0.1950 C.3   1 <1>   0.1400 
  7 C       -0.9940     2.3060     1.4150 C.2   1 <1>   0.6300 
  8 C       -0.8550     3.0020    -1.0880 C.3   1 <1>  -0.2000 
  9 C       -2.3020     3.1050    -0.7270 C.3   1 <1>  -0.2000 
 10 C       -4.8530    -0.6480     0.8780 C.3   1 <1>   0.2000 
 11 C       -3.9440    -1.8770     0.8450 C.3   1 <1>  -0.0800 
 12 O       -1.8110     2.5560     2.2650 O.2   1 <1>  -0.5700 
 13 N        0.3090     2.2040     1.7370 N.am  1 <1>  -0.8000 
 14 O       -5.4520    -0.5320     2.1220 O.3   1 <1>  -0.6800 
 15 C       -4.7150    -3.1690     0.5180 C.3   1 <1>  -0.0170 
 16 C       -3.8860    -4.4600     0.4620 C.ar  1 <1>  -0.1440 
 17 C       -4.4270    -5.6260    -0.1370 C.ar  1 <1>   0.0000 
 18 C       -2.6260    -4.5610     0.9820 C.ar  1 <1>  -0.1500 
 19 C       -3.6130    -6.7840    -0.1910 C.ar  1 <1>   0.3100 
 20 C       -5.7320    -5.7160    -0.6770 C.ar  1 <1>  -0.1500 
 21 C       -1.9090    -5.7600     0.8840 C.ar  1 <1>   0.1600 
 22 N       -2.3590    -6.8340     0.3220 N.ar  1 <1>  -0.6200 
 23 C       -4.1170    -7.9470    -0.7960 C.ar  1 <1>  -0.1500 
 24 C       -6.1960    -6.8670    -1.2570 C.ar  1 <1>  -0.1500 
 25 C       -5.3790    -7.9970    -1.3220 C.ar  1 <1>  -0.1500 
 26 H       -3.6690     1.0550     1.4830 H     1 <1>   0.0800 
 27 H       -4.4370     1.2300    -0.0960 H     1 <1>   0.0800 
 28 H       -3.2220    -1.7380    -1.1900 H     1 <1>   0.0800 
 29 H       -1.9470    -2.0030    -0.0130 H     1 <1>   0.0800 
 30 H       -0.1970     3.8020    -0.8000 H     1 <1>   0.1000 
 31 H       -0.5830     2.5630    -2.0330 H     1 <1>   0.1000 
 32 H       -3.0290     2.7600    -1.4410 H     1 <1>   0.1000 
 33 H       -2.6440     3.9600    -0.1680 H     1 <1>   0.1000 
 34 H       -5.6290    -0.7130     0.1350 H     1 <1>   0.0800 
 35 H       -3.4560    -1.9690     1.7990 H     1 <1>   0.0800 
 36 H        0.6080     2.3340     2.7030 H     1 <1>   0.3700 
 37 H        1.0190     1.9090     1.0640 H     1 <1>   0.3700 
 38 H       -4.7760    -0.4090     2.8170 H     1 <1>   0.4000 
 39 H       -5.1890    -3.0240    -0.4360 H     1 <1>   0.0800 
 40 H       -5.4920    -3.3020     1.2510 H     1 <1>   0.0800 
 41 H       -2.1340    -3.7490     1.4800 H     1 <1>   0.1500 
 42 H       -6.3870    -4.8670    -0.6330 H     1 <1>   0.1500 
 43 H       -0.9180    -5.7870     1.3040 H     1 <1>   0.1500 
 44 H       -3.4710    -8.8050    -0.8290 H     1 <1>   0.1500 
 45 H       -7.1900    -6.9170    -1.6660 H     1 <1>   0.1500 
 46 H       -5.7520    -8.8960    -1.7820 H     1 <1>   0.1500 
@<TRIPOS>BOND
  1   1   2  2   
  2   2   3  am  
  3   2   4  1   
  4   3   5  1   
  5   3   6  1   
  6   4   7  1   
  7   4   8  1   
  8   4   9  1   
  9   5  10  1   
 10   5  26  1   
 11   5  27  1   
 12   6  11  1   
 13   6  28  1   
 14   6  29  1   
 15   7  12  2   
 16   7  13  am  
 17   8   9  1   
 18   8  30  1   
 19   8  31  1   
 20   9  32  1   
 21   9  33  1   
 22  10  11  1   
 23  10  14  1   
 24  10  34  1   
 25  11  15  1   
 26  11  35  1   
 27  13  36  1   
 28  13  37  1   
 29  14  38  1   
 30  15  16  1   
 31  15  39  1   
 32  15  40  1   
 33  16  17  ar  
 34  16  18  ar  
 35  17  19  ar  
 36  17  20  ar  
 37  18  21  ar  
 38  18  41  1   
 39  19  22  ar  
 40  19  23  ar  
 41  20  24  ar  
 42  20  42  1   
 43  21  22  ar  
 44  21  43  1   
 45  23  25  ar  
 46  23  44  1   
 47  24  25  ar  
 48  24  45  1   
 49  25  46  1   
@<TRIPOS>SUBSTRUCTURE
  1 ****   6 GROUP 4 **** **** 0

# MOE 2024.06 (io_trps.svl 2023.06)
