@<TRIPOS>MOLECULE
NONAME
49 51 1 0 0 
SMALL
USER_CHARGES


@<TRIPOS>ATOM
  1 F       -1.9080    -1.6320    -0.3250 F     1 <1>  -0.1900 
  2 C       -2.2990    -0.3840    -0.2470 C.ar  1 <1>   0.1900 
  3 C       -3.3980     0.0360    -0.9830 C.ar  1 <1>  -0.1440 
  4 C       -1.5960     0.4620     0.5900 C.ar  1 <1>  -0.1500 
  5 C       -3.8000     1.3550    -0.8440 C.ar  1 <1>  -0.1500 
  6 C       -4.1530    -0.9000    -1.9160 C.3   1 <1>   0.2540 
  7 C       -2.0080     1.7790     0.7090 C.ar  1 <1>  -0.1500 
  8 C       -3.1160     2.2280    -0.0080 C.ar  1 <1>   0.0830 
  9 N       -5.4950    -1.2250    -1.4000 N.3   1 <1>  -0.8100 
 10 O       -3.5870     3.4980     0.0550 O.3   1 <1>  -0.3630 
 11 C       -5.4890    -1.8510    -0.0460 C.3   1 <1>   0.1100 
 12 C       -6.2730    -1.9780    -2.4180 C.3   1 <1>   0.1100 
 13 C       -2.9820     4.4680     0.8810 C.3   1 <1>   0.0400 
 14 C       -5.5680    -3.3820    -0.1800 C.3   1 <1>   0.4230 
 15 C       -7.4230    -2.7880    -1.7970 C.3   1 <1>  -0.1600 
 16 N       -5.1590    -4.2100     0.9970 N.4   1 <1>  -0.9590 
 17 C       -6.9810    -3.7620    -0.6590 C.3   1 <1>  -0.1060 
 18 C       -5.0840    -5.6510     0.6310 C.3   1 <1>   0.3430 
 19 C       -3.9540    -3.7290     1.7210 C.3   1 <1>   0.2630 
 20 C       -7.9970    -3.6650     0.4950 C.2   1 <1>   0.9060 
 21 C       -6.8930    -5.2240    -1.1550 C.3   1 <1>  -0.1600 
 22 C       -6.3840    -6.1410    -0.0240 C.3   1 <1>  -0.1600 
 23 O       -7.5950    -3.4880     1.6570 O.co2 1 <1>  -0.9000 
 24 O       -9.1890    -3.8430     0.2480 O.co2 1 <1>  -0.9000 
 25 H       -0.7450     0.0980     1.1370 H     1 <1>   0.1500 
 26 H       -4.6580     1.7160    -1.3840 H     1 <1>   0.1500 
 27 H       -3.5950    -1.8060    -2.0770 H     1 <1>   0.0800 
 28 H       -4.2570    -0.4090    -2.8690 H     1 <1>   0.0800 
 29 H       -1.4610     2.4350     1.3590 H     1 <1>   0.1500 
 30 H       -4.6200    -1.5500     0.5020 H     1 <1>   0.0800 
 31 H       -6.3490    -1.4960     0.4980 H     1 <1>   0.0800 
 32 H       -6.6720    -1.2800    -3.1350 H     1 <1>   0.0800 
 33 H       -5.6260    -2.6580    -2.9460 H     1 <1>   0.0800 
 34 H       -3.5290     5.3870     0.7710 H     1 <1>   0.0800 
 35 H       -1.9630     4.6090     0.5660 H     1 <1>   0.0800 
 36 H       -3.0290     4.1350     1.9020 H     1 <1>   0.0800 
 37 H       -4.8850    -3.6270    -0.9740 H     1 <1>   0.0800 
 38 H       -8.1280    -2.0730    -1.4030 H     1 <1>   0.0800 
 39 H       -7.9470    -3.3280    -2.5650 H     1 <1>   0.0800 
 40 H       -6.0010    -4.0850     1.6220 H     1 <1>   0.4500 
 41 H       -4.2680    -5.7980    -0.0570 H     1 <1>   0.0800 
 42 H       -4.8910    -6.2400     1.5130 H     1 <1>   0.0800 
 43 H       -3.1020    -3.7110     1.0610 H     1 <1>   0.0800 
 44 H       -3.7410    -4.3770     2.5550 H     1 <1>   0.0800 
 45 H       -4.1240    -2.7350     2.1010 H     1 <1>   0.0800 
 46 H       -7.8710    -5.5550    -1.4660 H     1 <1>   0.0800 
 47 H       -6.2350    -5.2870    -2.0040 H     1 <1>   0.0800 
 48 H       -6.2310    -7.1320    -0.4120 H     1 <1>   0.0800 
 49 H       -7.1410    -6.2200     0.7380 H     1 <1>   0.0800 
@<TRIPOS>BOND
  1   1   2  1   
  2   2   3  ar  
  3   2   4  ar  
  4   3   5  ar  
  5   3   6  1   
  6   4   7  ar  
  7   4  25  1   
  8   5   8  ar  
  9   5  26  1   
 10   6   9  1   
 11   6  27  1   
 12   6  28  1   
 13   7   8  ar  
 14   7  29  1   
 15   8  10  1   
 16   9  11  1   
 17   9  12  1   
 18  10  13  1   
 19  11  14  1   
 20  11  30  1   
 21  11  31  1   
 22  12  15  1   
 23  12  32  1   
 24  12  33  1   
 25  13  34  1   
 26  13  35  1   
 27  13  36  1   
 28  14  16  1   
 29  14  17  1   
 30  14  37  1   
 31  15  17  1   
 32  15  38  1   
 33  15  39  1   
 34  16  18  1   
 35  16  19  1   
 36  16  40  1   
 37  17  20  1   
 38  17  21  1   
 39  18  22  1   
 40  18  41  1   
 41  18  42  1   
 42  19  43  1   
 43  19  44  1   
 44  19  45  1   
 45  20  23  ar  
 46  20  24  ar  
 47  21  22  1   
 48  21  46  1   
 49  21  47  1   
 50  22  48  1   
 51  22  49  1   
@<TRIPOS>SUBSTRUCTURE
  1 ****  11 GROUP 4 **** **** 0

# MOE 2024.06 (io_trps.svl 2023.06)
