@<TRIPOS>MOLECULE
NONAME
45 47 1 0 0 
SMALL
USER_CHARGES


@<TRIPOS>ATOM
  1 F        0.1440     1.7450    -1.7140 F     1 <1>  -0.1900 
  2 C        0.2020     2.4610    -0.6190 C.ar  1 <1>   0.1900 
  3 C       -0.9030     2.6010     0.2290 C.ar  1 <1>   0.0820 
  4 C        1.4140     3.0710    -0.3520 C.ar  1 <1>  -0.1500 
  5 O       -2.1400     2.0500     0.0720 O.3   1 <1>  -0.3630 
  6 C       -0.7410     3.3850     1.3620 C.ar  1 <1>  -0.1500 
  7 C        1.5550     3.8470     0.7890 C.ar  1 <1>  -0.1430 
  8 C       -2.4750     1.2080    -1.0080 C.3   1 <1>   0.0400 
  9 C        0.4690     4.0010     1.6400 C.ar  1 <1>  -0.1500 
 10 C        2.8770     4.5280     1.1000 C.3   1 <1>   0.3530 
 11 N        2.8050     5.9090     0.5910 N.pl3 1 <1>  -0.8690 
 12 C        3.9140     6.6680     0.3440 C.ar  1 <1>   0.4100 
 13 N        5.0730     6.2320     0.8230 N.ar  1 <1>  -0.6200 
 14 C        3.7960     7.8480    -0.3860 C.ar  1 <1>  -0.1500 
 15 C        6.1290     6.9850     0.5680 C.ar  1 <1>   0.1600 
 16 C        4.9050     8.6200    -0.6350 C.ar  1 <1>  -0.1500 
 17 C        6.1290     8.1880    -0.1330 C.ar  1 <1>   0.0860 
 18 C        7.3570     8.9190    -0.3250 C.2   1 <1>   0.5440 
 19 O        8.3320     8.3290    -0.7520 O.2   1 <1>  -0.5700 
 20 N        7.4730    10.2620    -0.0340 N.am  1 <1>  -0.6600 
 21 C        8.6700    11.0530    -0.4480 C.3   1 <1>   0.1400 
 22 C        6.5700    11.0170     0.8870 C.3   1 <1>   0.1400 
 23 C        8.2540    12.4510    -0.9340 C.3   1 <1>   0.1200 
 24 C        6.2650    12.4130     0.3160 C.3   1 <1>   0.1200 
 25 O        7.4510    13.0940     0.0170 O.3   1 <1>  -0.5600 
 26 H        2.2350     2.9390    -1.0340 H     1 <1>   0.1500 
 27 H       -1.5750     3.5110     2.0300 H     1 <1>   0.1500 
 28 H       -3.4990     0.9030    -0.8890 H     1 <1>   0.0800 
 29 H       -1.8330     0.3450    -0.9920 H     1 <1>   0.0800 
 30 H       -2.3630     1.7560    -1.9270 H     1 <1>   0.0800 
 31 H        0.5630     4.6060     2.5260 H     1 <1>   0.1500 
 32 H        3.6900     4.0030     0.6260 H     1 <1>   0.0800 
 33 H        3.0540     4.5460     2.1610 H     1 <1>   0.0800 
 34 H        1.9550     6.0930     0.0560 H     1 <1>   0.4000 
 35 H        2.8290     8.1410    -0.7480 H     1 <1>   0.1500 
 36 H        7.0770     6.6310     0.9400 H     1 <1>   0.1500 
 37 H        4.8420     9.5310    -1.2030 H     1 <1>   0.1500 
 38 H        9.1980    10.5480    -1.2380 H     1 <1>   0.0800 
 39 H        9.3390    11.1490     0.3890 H     1 <1>   0.0800 
 40 H        7.0600    11.1320     1.8380 H     1 <1>   0.0800 
 41 H        5.6510    10.4870     1.0540 H     1 <1>   0.0800 
 42 H        7.7060    12.3810    -1.8570 H     1 <1>   0.0800 
 43 H        9.1250    13.0620    -1.0950 H     1 <1>   0.0800 
 44 H        5.7250    12.9990     1.0380 H     1 <1>   0.0800 
 45 H        5.6750    12.3370    -0.5810 H     1 <1>   0.0800 
@<TRIPOS>BOND
  1   1   2  1   
  2   2   3  ar  
  3   2   4  ar  
  4   3   5  1   
  5   3   6  ar  
  6   4   7  ar  
  7   4  26  1   
  8   5   8  1   
  9   6   9  ar  
 10   6  27  1   
 11   7   9  ar  
 12   7  10  1   
 13   8  28  1   
 14   8  29  1   
 15   8  30  1   
 16   9  31  1   
 17  10  11  1   
 18  10  32  1   
 19  10  33  1   
 20  11  12  1   
 21  11  34  1   
 22  12  13  ar  
 23  12  14  ar  
 24  13  15  ar  
 25  14  16  ar  
 26  14  35  1   
 27  15  17  ar  
 28  15  36  1   
 29  16  17  ar  
 30  16  37  1   
 31  17  18  1   
 32  18  19  2   
 33  18  20  am  
 34  20  21  1   
 35  20  22  1   
 36  21  23  1   
 37  21  38  1   
 38  21  39  1   
 39  22  24  1   
 40  22  40  1   
 41  22  41  1   
 42  23  25  1   
 43  23  42  1   
 44  23  43  1   
 45  24  25  1   
 46  24  44  1   
 47  24  45  1   
@<TRIPOS>SUBSTRUCTURE
  1 ****  12 GROUP 4 **** **** 0

# MOE 2024.06 (io_trps.svl 2023.06)
