@<TRIPOS>MOLECULE
NONAME
54 58 1 0 0 
SMALL
USER_CHARGES


@<TRIPOS>ATOM
  1 O        1.9320     0.4700    -2.4790 O.2   1 <1>  -0.5700 
  2 C        2.4620    -0.3050    -1.7250 C.2   1 <1>   0.5690 
  3 N        2.5430    -0.0620    -0.4020 N.am  1 <1>  -0.7300 
  4 C        3.0980    -1.5750    -2.2480 C.3   1 <1>  -0.0990 
  5 C        3.2510    -0.9600     0.5310 C.3   1 <1>   0.1400 
  6 C        2.8740    -2.7740    -1.2980 C.3   1 <1>  -0.0800 
  7 C        2.8810    -2.4210     0.2080 C.3   1 <1>  -0.0800 
  8 C        3.9030    -3.8900    -1.5130 C.3   1 <1>  -0.1600 
  9 C        3.8040    -3.4290     0.9100 C.3   1 <1>  -0.1600 
 10 C        4.2180    -4.4670    -0.1340 C.3   1 <1>   0.2200 
 11 N        5.6400    -4.9210    -0.0160 N.am  1 <1>  -0.6600 
 12 C        6.7670    -4.1640    -0.3140 C.2   1 <1>   0.5440 
 13 C        5.7750    -6.3990     0.1260 C.3   1 <1>   0.0600 
 14 O        7.7350    -4.7270    -0.7890 O.2   1 <1>  -0.5700 
 15 C        6.8510    -2.7400    -0.0650 C.ar  1 <1>   0.0860 
 16 C        6.6890    -1.8030    -1.0740 C.ar  1 <1>  -0.1500 
 17 C        7.1120    -2.2700     1.2400 C.ar  1 <1>  -0.1500 
 18 C        6.6930    -0.4410    -0.7760 C.ar  1 <1>  -0.1520 
 19 C        7.1390    -0.9290     1.5390 C.ar  1 <1>  -0.1500 
 20 N        6.4890     0.6540    -1.5810 N.pl3 1 <1>   0.0330 
 21 C        6.9070     0.0050     0.5250 C.ar  1 <1>   0.0000 
 22 C        6.5610     1.7680    -0.7980 C.2   1 <1>  -0.3320 
 23 C        6.8120     1.4090     0.4800 C.2   1 <1>  -0.1810 
 24 C        6.3720     3.1920    -1.2820 C.3   1 <1>   0.0200 
 25 C        6.9530     2.3940     1.6230 C.3   1 <1>   0.0210 
 26 C        6.8520     4.1800    -0.2020 C.3   1 <1>  -0.1600 
 27 C        6.3910     3.7680     1.2110 C.3   1 <1>  -0.1600 
 28 H        2.2080     0.8400    -0.0600 H     1 <1>   0.3700 
 29 H        2.7050    -1.7980    -3.2220 H     1 <1>   0.0800 
 30 H        4.1460    -1.3690    -2.3510 H     1 <1>   0.0800 
 31 H        4.3100    -0.8080     0.4170 H     1 <1>   0.0800 
 32 H        2.9790    -0.7240     1.5450 H     1 <1>   0.0800 
 33 H        1.8980    -3.1760    -1.5150 H     1 <1>   0.0800 
 34 H        1.8820    -2.5760     0.5800 H     1 <1>   0.0800 
 35 H        4.7890    -3.5070    -1.9750 H     1 <1>   0.0800 
 36 H        3.5020    -4.6550    -2.1540 H     1 <1>   0.0800 
 37 H        3.2780    -3.9150     1.7130 H     1 <1>   0.0800 
 38 H        4.6510    -2.9330     1.3320 H     1 <1>   0.0800 
 39 H        3.5690    -5.3160     0.0010 H     1 <1>   0.0800 
 40 H        5.1520    -6.7510     0.9290 H     1 <1>   0.0800 
 41 H        6.7950    -6.6670     0.3480 H     1 <1>   0.0800 
 42 H        5.4850    -6.8790    -0.7920 H     1 <1>   0.0800 
 43 H        6.5550    -2.1250    -2.0900 H     1 <1>   0.1500 
 44 H        7.2860    -3.0000     2.0100 H     1 <1>   0.1500 
 45 H        7.3330    -0.5790     2.5360 H     1 <1>   0.1500 
 46 H        6.3020     0.6310    -2.5880 H     1 <1>   0.2700 
 47 H        6.9260     3.3550    -2.1900 H     1 <1>   0.0800 
 48 H        5.3280     3.3540    -1.4850 H     1 <1>   0.0800 
 49 H        6.4280     2.0300     2.4880 H     1 <1>   0.0800 
 50 H        7.9960     2.4850     1.8700 H     1 <1>   0.0800 
 51 H        7.9280     4.2130    -0.2170 H     1 <1>   0.0800 
 52 H        6.4880     5.1660    -0.4340 H     1 <1>   0.0800 
 53 H        5.3160     3.7200     1.2230 H     1 <1>   0.0800 
 54 H        6.6980     4.5090     1.9280 H     1 <1>   0.0800 
@<TRIPOS>BOND
  1   1   2  2   
  2   2   3  am  
  3   2   4  1   
  4   3   5  1   
  5   3  28  1   
  6   4   6  1   
  7   4  29  1   
  8   4  30  1   
  9   5   7  1   
 10   5  31  1   
 11   5  32  1   
 12   6   7  1   
 13   6   8  1   
 14   6  33  1   
 15   7   9  1   
 16   7  34  1   
 17   8  10  1   
 18   8  35  1   
 19   8  36  1   
 20   9  10  1   
 21   9  37  1   
 22   9  38  1   
 23  10  11  1   
 24  10  39  1   
 25  11  12  am  
 26  11  13  1   
 27  12  14  2   
 28  12  15  1   
 29  13  40  1   
 30  13  41  1   
 31  13  42  1   
 32  15  16  ar  
 33  15  17  ar  
 34  16  18  ar  
 35  16  43  1   
 36  17  19  ar  
 37  17  44  1   
 38  18  20  1   
 39  18  21  ar  
 40  19  21  ar  
 41  19  45  1   
 42  20  22  1   
 43  20  46  1   
 44  21  23  1   
 45  22  23  2   
 46  22  24  1   
 47  23  25  1   
 48  24  26  1   
 49  24  47  1   
 50  24  48  1   
 51  25  27  1   
 52  25  49  1   
 53  25  50  1   
 54  26  27  1   
 55  26  51  1   
 56  26  52  1   
 57  27  53  1   
 58  27  54  1   
@<TRIPOS>SUBSTRUCTURE
  1 ****  18 GROUP 4 **** **** 0

# MOE 2024.06 (io_trps.svl 2023.06)
