@<TRIPOS>MOLECULE
NONAME
51 53 1 0 0 
SMALL
USER_CHARGES


@<TRIPOS>ATOM
  1 O       -2.1470    -0.1170     0.3160 O.2   1 <1>  -0.5700 
  2 C       -2.7480     0.9440     0.2720 C.2   1 <1>   0.7150 
  3 N       -4.0510     0.9360    -0.1970 N.am  1 <1>  -0.6600 
  4 C       -2.0990     2.1630     0.7090 C.2   1 <1>   0.0550 
  5 C       -4.7790    -0.3640    -0.3370 C.3   1 <1>   0.1400 
  6 C       -4.7280     2.1660    -0.7070 C.3   1 <1>   0.1400 
  7 O       -0.8220     2.3980     0.4200 O.3   1 <1>  -0.2800 
  8 C       -2.5720     3.2210     1.4270 C.2   1 <1>  -0.1500 
  9 C       -4.4680    -1.0200    -1.6890 C.3   1 <1>   0.1400 
 10 C       -5.4570     1.9890    -2.0480 C.3   1 <1>  -0.1600 
 11 C       -0.4700     3.5610     0.9210 C.2   1 <1>  -0.0400 
 12 C       -1.5180     4.1250     1.5620 C.2   1 <1>  -0.1500 
 13 N       -5.1890    -0.3340    -2.8030 N.am  1 <1>  -0.6600 
 14 C       -4.7580     1.0650    -3.0530 C.3   1 <1>   0.1400 
 15 C        0.9590     4.0340     0.7130 C.3   1 <1>   0.3000 
 16 C       -6.2970    -0.8460    -3.4410 C.2   1 <1>   0.5690 
 17 O        1.0490     5.3830     1.0180 O.3   1 <1>  -0.6800 
 18 O       -6.8430    -0.2420    -4.3370 O.2   1 <1>  -0.5700 
 19 C       -6.9170    -2.1760    -3.0320 C.3   1 <1>   0.0440 
 20 C       -7.5470    -2.1100    -1.6370 C.ar  1 <1>  -0.1430 
 21 C       -7.1790    -2.9780    -0.6090 C.ar  1 <1>   0.0830 
 22 C       -8.5120    -1.1430    -1.3980 C.ar  1 <1>  -0.1500 
 23 O       -6.2330    -3.9180    -0.8730 O.3   1 <1>  -0.3620 
 24 C       -7.7790    -2.8550     0.6430 C.ar  1 <1>  -0.1500 
 25 C       -9.1040    -1.0270    -0.1530 C.ar  1 <1>  -0.1500 
 26 C       -5.8140    -4.8510     0.0990 C.3   1 <1>   0.0400 
 27 C       -8.7360    -1.8830     0.8680 C.ar  1 <1>  -0.1500 
 28 H       -5.8400    -0.2190    -0.2280 H     1 <1>   0.0800 
 29 H       -4.4610    -1.0300     0.4460 H     1 <1>   0.0800 
 30 H       -3.9910     2.9380    -0.8460 H     1 <1>   0.0800 
 31 H       -5.4290     2.5120     0.0330 H     1 <1>   0.0800 
 32 H       -3.5590     3.3530     1.8330 H     1 <1>   0.1500 
 33 H       -4.7420    -2.0550    -1.6450 H     1 <1>   0.0800 
 34 H       -3.4080    -0.9870    -1.8710 H     1 <1>   0.0800 
 35 H       -5.5470     2.9630    -2.4950 H     1 <1>   0.0800 
 36 H       -6.4610     1.6410    -1.8770 H     1 <1>   0.0800 
 37 H       -1.5550     5.0650     2.0830 H     1 <1>   0.1500 
 38 H       -3.6870     1.1470    -2.9740 H     1 <1>   0.0800 
 39 H       -5.0370     1.3500    -4.0540 H     1 <1>   0.0800 
 40 H        1.2500     3.9010    -0.3140 H     1 <1>   0.0800 
 41 H        1.6350     3.4920     1.3510 H     1 <1>   0.0800 
 42 H        0.3800     5.8720     0.5040 H     1 <1>   0.4000 
 43 H       -6.1710    -2.9420    -3.1090 H     1 <1>   0.0800 
 44 H       -7.6880    -2.4240    -3.7370 H     1 <1>   0.0800 
 45 H       -8.8070    -0.4710    -2.1870 H     1 <1>   0.1500 
 46 H       -7.5180    -3.5060     1.4550 H     1 <1>   0.1500 
 47 H       -9.8510    -0.2710     0.0180 H     1 <1>   0.1500 
 48 H       -5.0750    -5.4910    -0.3480 H     1 <1>   0.0800 
 49 H       -6.6630    -5.4360     0.4100 H     1 <1>   0.0800 
 50 H       -5.3840    -4.3220     0.9310 H     1 <1>   0.0800 
 51 H       -9.1980    -1.7920     1.8360 H     1 <1>   0.1500 
@<TRIPOS>BOND
  1   1   2  2   
  2   2   3  am  
  3   2   4  1   
  4   3   5  1   
  5   3   6  1   
  6   4   7  1   
  7   4   8  2   
  8   5   9  1   
  9   5  28  1   
 10   5  29  1   
 11   6  10  1   
 12   6  30  1   
 13   6  31  1   
 14   7  11  1   
 15   8  12  1   
 16   8  32  1   
 17   9  13  1   
 18   9  33  1   
 19   9  34  1   
 20  10  14  1   
 21  10  35  1   
 22  10  36  1   
 23  11  12  2   
 24  11  15  1   
 25  12  37  1   
 26  13  14  1   
 27  13  16  am  
 28  14  38  1   
 29  14  39  1   
 30  15  17  1   
 31  15  40  1   
 32  15  41  1   
 33  16  18  2   
 34  16  19  1   
 35  17  42  1   
 36  19  20  1   
 37  19  43  1   
 38  19  44  1   
 39  20  21  ar  
 40  20  22  ar  
 41  21  23  1   
 42  21  24  ar  
 43  22  25  ar  
 44  22  45  1   
 45  23  26  1   
 46  24  27  ar  
 47  24  46  1   
 48  25  27  ar  
 49  25  47  1   
 50  26  48  1   
 51  26  49  1   
 52  26  50  1   
 53  27  51  1   
@<TRIPOS>SUBSTRUCTURE
  1 ****   5 GROUP 4 **** **** 0

# MOE 2024.06 (io_trps.svl 2023.06)
