@<TRIPOS>MOLECULE
NONAME
52 54 1 0 0 
SMALL
USER_CHARGES


@<TRIPOS>ATOM
  1 O        0.8780    -0.6050    -2.3580 O.2   1 <1>  -0.5700 
  2 C        1.4270    -0.8720    -1.3050 C.2   1 <1>   0.5440 
  3 N        2.0530     0.1420    -0.6130 N.am  1 <1>  -0.6600 
  4 C        1.4010    -2.2350    -0.8110 C.ar  1 <1>   0.0860 
  5 C        2.3130     1.4500    -1.2830 C.3   1 <1>   0.3210 
  6 C        2.3480     0.0770     0.8490 C.3   1 <1>   0.0600 
  7 C        0.2110    -2.9520    -0.7400 C.ar  1 <1>  -0.1500 
  8 C        2.5630    -2.8820    -0.3960 C.ar  1 <1>  -0.1500 
  9 C        3.6250     2.0560    -0.8100 C.2   1 <1>  -0.1810 
 10 C        0.1460    -4.2510    -0.2660 C.ar  1 <1>   0.1000 
 11 C        2.5340    -4.1800     0.0810 C.ar  1 <1>  -0.1500 
 12 C        3.8000     3.1410     0.0460 C.2   1 <1>   0.1080 
 13 C        4.8800     1.6670    -1.1220 C.2   1 <1>  -0.3020 
 14 N       -1.1180    -4.8560    -0.2440 N.pl3 1 <1>  -0.8380 
 15 C        1.3340    -4.8790     0.1530 C.ar  1 <1>   0.0830 
 16 N        5.0520     3.4000     0.2520 N.2   1 <1>  -0.7070 
 17 C        2.7050     3.9650     0.6850 C.3   1 <1>  -0.0590 
 18 N        5.7220     2.4910    -0.4720 N.pl3 1 <1>   0.3140 
 19 C       -1.6580    -5.2160     1.0990 C.3   1 <1>   0.2090 
 20 C       -1.3100    -5.9790    -1.2060 C.3   1 <1>   0.2090 
 21 O        1.2700    -6.1620     0.6140 O.3   1 <1>  -0.3630 
 22 C        7.1870     2.4640    -0.5020 C.3   1 <1>   0.0160 
 23 C       -3.1140    -5.7040     0.9840 C.3   1 <1>   0.1200 
 24 C       -2.7810    -6.4360    -1.2190 C.3   1 <1>   0.1200 
 25 C        2.4230    -6.8850     0.9830 C.3   1 <1>   0.0400 
 26 O       -3.2240    -6.7640     0.0710 O.3   1 <1>  -0.5600 
 27 H        1.4950     2.1180    -1.0820 H     1 <1>   0.0800 
 28 H        2.3680     1.3090    -2.3490 H     1 <1>   0.0800 
 29 H        1.8670    -0.7720     1.3030 H     1 <1>   0.0800 
 30 H        1.9900     0.9670     1.3350 H     1 <1>   0.0800 
 31 H        3.4110     0.0020     1.0020 H     1 <1>   0.0800 
 32 H       -0.6980    -2.4820    -1.0690 H     1 <1>   0.1500 
 33 H        3.4990    -2.3540    -0.4530 H     1 <1>   0.1500 
 34 H        3.4600    -4.6270     0.3880 H     1 <1>   0.1500 
 35 H        5.2050     0.8640    -1.7560 H     1 <1>   0.1500 
 36 H        1.8660     3.3470     0.9440 H     1 <1>   0.0800 
 37 H        2.3880     4.7310     0.0020 H     1 <1>   0.0800 
 38 H        3.0800     4.4310     1.5780 H     1 <1>   0.0800 
 39 H       -1.6140    -4.3540     1.7410 H     1 <1>   0.0800 
 40 H       -1.0600    -5.9940     1.5390 H     1 <1>   0.0800 
 41 H       -0.6840    -6.8090    -0.9290 H     1 <1>   0.0800 
 42 H       -1.0240    -5.6560    -2.1910 H     1 <1>   0.0800 
 43 H        7.5210     1.7230    -1.2030 H     1 <1>   0.0800 
 44 H        7.5490     2.2300     0.4810 H     1 <1>   0.0800 
 45 H        7.5450     3.4330    -0.7950 H     1 <1>   0.0800 
 46 H       -3.7490    -4.9000     0.6550 H     1 <1>   0.0800 
 47 H       -3.4630    -6.0540     1.9380 H     1 <1>   0.0800 
 48 H       -2.8910    -7.3090    -1.8360 H     1 <1>   0.0800 
 49 H       -3.4080    -5.6530    -1.6090 H     1 <1>   0.0800 
 50 H        2.1160    -7.8710     1.2810 H     1 <1>   0.0800 
 51 H        2.8990    -6.3860     1.8080 H     1 <1>   0.0800 
 52 H        3.0820    -6.9490     0.1350 H     1 <1>   0.0800 
@<TRIPOS>BOND
  1   1   2  2   
  2   2   3  am  
  3   2   4  1   
  4   3   5  1   
  5   3   6  1   
  6   4   7  ar  
  7   4   8  ar  
  8   5   9  1   
  9   5  27  1   
 10   5  28  1   
 11   6  29  1   
 12   6  30  1   
 13   6  31  1   
 14   7  10  ar  
 15   7  32  1   
 16   8  11  ar  
 17   8  33  1   
 18   9  12  1   
 19   9  13  2   
 20  10  14  1   
 21  10  15  ar  
 22  11  15  ar  
 23  11  34  1   
 24  12  16  2   
 25  12  17  1   
 26  13  18  1   
 27  13  35  1   
 28  14  19  1   
 29  14  20  1   
 30  15  21  1   
 31  16  18  1   
 32  17  36  1   
 33  17  37  1   
 34  17  38  1   
 35  18  22  1   
 36  19  23  1   
 37  19  39  1   
 38  19  40  1   
 39  20  24  1   
 40  20  41  1   
 41  20  42  1   
 42  21  25  1   
 43  22  43  1   
 44  22  44  1   
 45  22  45  1   
 46  23  26  1   
 47  23  46  1   
 48  23  47  1   
 49  24  26  1   
 50  24  48  1   
 51  24  49  1   
 52  25  50  1   
 53  25  51  1   
 54  25  52  1   
@<TRIPOS>SUBSTRUCTURE
  1 ****   4 GROUP 4 **** **** 0

# MOE 2024.06 (io_trps.svl 2023.06)
