@<TRIPOS>MOLECULE
NONAME
51 52 1 0 0 
SMALL
USER_CHARGES


@<TRIPOS>ATOM
  1 S        0.6200    -0.0190    -0.2580 S.o2  1 <1>   1.3330 
  2 O        1.5690     0.1700     0.8170 O.2   1 <1>  -0.6500 
  3 O        1.1030    -0.1300    -1.6140 O.2   1 <1>  -0.6500 
  4 N       -0.3910    -1.3290     0.1010 N.am  1 <1>  -0.8490 
  5 C       -0.4670     1.4020    -0.1830 C.3   1 <1>  -0.0550 
  6 C       -1.1210    -1.8400    -1.0650 C.3   1 <1>   0.1160 
  7 C        0.3290    -2.4290     0.7530 C.3   1 <1>   0.1160 
  8 C        0.2620     2.7170    -0.5470 C.3   1 <1>  -0.0800 
  9 C       -0.5740     3.9880    -0.3980 C.3   1 <1>   0.2000 
 10 C        1.5120     3.0020     0.2930 C.3   1 <1>   0.3430 
 11 O       -1.3060     3.9370     0.7850 O.3   1 <1>  -0.6800 
 12 C        0.4650     5.1100    -0.3040 C.3   1 <1>   0.3430 
 13 N        1.7190     4.4740     0.2150 N.4   1 <1>  -0.9590 
 14 C        2.2460     5.0850     1.4620 C.3   1 <1>   0.4860 
 15 C        2.5670     6.5400     1.1780 C.ar  1 <1>  -0.1430 
 16 C        3.5060     6.8710     0.2050 C.ar  1 <1>   0.0820 
 17 C        1.9170     7.5370     1.8880 C.ar  1 <1>  -0.1500 
 18 O        4.1100     5.8210    -0.4300 O.3   1 <1>  -0.3630 
 19 C        3.7660     8.2220    -0.0830 C.ar  1 <1>   0.0820 
 20 C        2.1900     8.8650     1.6250 C.ar  1 <1>  -0.1500 
 21 C        5.4870     5.8780    -0.7540 C.3   1 <1>   0.0400 
 22 O        4.6360     8.5400    -1.0840 O.3   1 <1>  -0.3630 
 23 C        3.1050     9.2070     0.6460 C.ar  1 <1>  -0.1500 
 24 C        4.9370     9.8770    -1.4260 C.3   1 <1>   0.0400 
 25 H       -1.2860     1.2590    -0.8610 H     1 <1>   0.0800 
 26 H       -0.8760     1.4620     0.8070 H     1 <1>   0.0800 
 27 H       -1.8060    -2.6140    -0.7630 H     1 <1>   0.0800 
 28 H       -0.4360    -2.2440    -1.7930 H     1 <1>   0.0800 
 29 H       -1.6880    -1.0500    -1.5270 H     1 <1>   0.0800 
 30 H       -0.3490    -3.2300     0.9910 H     1 <1>   0.0800 
 31 H        0.7770    -2.0850     1.6710 H     1 <1>   0.0800 
 32 H        1.1070    -2.8040     0.1080 H     1 <1>   0.0800 
 33 H        0.5810     2.6450    -1.5740 H     1 <1>   0.0800 
 34 H       -1.2650     4.1390    -1.2100 H     1 <1>   0.0800 
 35 H        2.3690     2.4600    -0.0780 H     1 <1>   0.0800 
 36 H        1.3320     2.7070     1.3140 H     1 <1>   0.0800 
 37 H       -0.7490     3.7930     1.5730 H     1 <1>   0.4000 
 38 H        0.1160     5.9070     0.3330 H     1 <1>   0.0800 
 39 H        0.6530     5.5080    -1.2880 H     1 <1>   0.0800 
 40 H        2.4710     4.6780    -0.4710 H     1 <1>   0.4500 
 41 H        1.5200     5.0120     2.2540 H     1 <1>   0.0800 
 42 H        3.1480     4.5800     1.7680 H     1 <1>   0.0800 
 43 H        1.1970     7.2980     2.6530 H     1 <1>   0.1500 
 44 H        1.6890     9.6410     2.1810 H     1 <1>   0.1500 
 45 H        5.8630     4.8730    -0.8230 H     1 <1>   0.0800 
 46 H        6.0130     6.4150     0.0170 H     1 <1>   0.0800 
 47 H        5.6030     6.3710    -1.7030 H     1 <1>   0.0800 
 48 H        3.2820    10.2510     0.4670 H     1 <1>   0.1500 
 49 H        5.6450     9.8630    -2.2360 H     1 <1>   0.0800 
 50 H        5.3710    10.3690    -0.5730 H     1 <1>   0.0800 
 51 H        4.0350    10.3700    -1.7410 H     1 <1>   0.0800 
@<TRIPOS>BOND
  1   1   2  2   
  2   1   3  2   
  3   1   4  am  
  4   1   5  1   
  5   4   6  1   
  6   4   7  1   
  7   5   8  1   
  8   5  25  1   
  9   5  26  1   
 10   6  27  1   
 11   6  28  1   
 12   6  29  1   
 13   7  30  1   
 14   7  31  1   
 15   7  32  1   
 16   8   9  1   
 17   8  10  1   
 18   8  33  1   
 19   9  11  1   
 20   9  12  1   
 21   9  34  1   
 22  10  13  1   
 23  10  35  1   
 24  10  36  1   
 25  11  37  1   
 26  12  13  1   
 27  12  38  1   
 28  12  39  1   
 29  13  14  1   
 30  13  40  1   
 31  14  15  1   
 32  14  41  1   
 33  14  42  1   
 34  15  16  ar  
 35  15  17  ar  
 36  16  18  1   
 37  16  19  ar  
 38  17  20  ar  
 39  17  43  1   
 40  18  21  1   
 41  19  22  1   
 42  19  23  ar  
 43  20  23  ar  
 44  20  44  1   
 45  21  45  1   
 46  21  46  1   
 47  21  47  1   
 48  22  24  1   
 49  23  48  1   
 50  24  49  1   
 51  24  50  1   
 52  24  51  1   
@<TRIPOS>SUBSTRUCTURE
  1 ****  13 GROUP 4 **** **** 0

# MOE 2024.06 (io_trps.svl 2023.06)
