@<TRIPOS>MOLECULE
NONAME
49 51 1 0 0 
SMALL
USER_CHARGES


@<TRIPOS>ATOM
  1 O        0.3490    -1.4590     1.8350 O.2   1 <1>  -0.5700 
  2 C        1.1660    -2.2180     1.3540 C.2   1 <1>   0.5440 
  3 N        2.4870    -1.8670     1.3720 N.am  1 <1>  -0.7300 
  4 C        0.7310    -3.4720     0.7650 C.ar  1 <1>   0.0860 
  5 C        3.0280    -0.6160     1.9420 C.3   1 <1>   0.1400 
  6 C       -0.5580    -3.6460     0.2950 C.ar  1 <1>  -0.1500 
  7 C        1.5510    -4.5870     0.6320 C.ar  1 <1>  -0.1500 
  8 C        4.0430    -0.0370     0.9640 C.3   1 <1>  -0.2400 
  9 C       -0.9600    -4.8480    -0.2640 C.ar  1 <1>   0.4100 
 10 C        1.0600    -5.7480     0.0700 C.ar  1 <1>   0.1600 
 11 N       -0.1770    -5.9110    -0.3710 N.ar  1 <1>  -0.6200 
 12 N       -2.2470    -4.9980    -0.7160 N.pl3 1 <1>  -0.8690 
 13 C       -2.5150    -5.6140    -2.0420 C.3   1 <1>   0.3040 
 14 C       -3.5150    -6.7730    -1.8810 C.3   1 <1>  -0.1900 
 15 C       -4.9650    -6.4690    -1.6500 C.3   1 <1>  -0.2000 
 16 C       -4.5040    -6.9810    -2.9880 C.3   1 <1>  -0.2000 
 17 C       -2.8770    -8.0320    -1.2720 C.3   1 <1>   0.4380 
 18 N       -2.4320    -7.7570     0.1080 N.4   1 <1>  -0.9590 
 19 C       -1.5140    -8.7480     0.6900 C.3   1 <1>   0.3430 
 20 C       -3.5010    -7.5080     1.0920 C.3   1 <1>   0.3430 
 21 C       -1.4940    -8.3940     2.1690 C.3   1 <1>  -0.1600 
 22 C       -2.8160    -7.6690     2.4430 C.3   1 <1>  -0.1600 
 23 H        3.1740    -2.4480     0.8930 H     1 <1>   0.3700 
 24 H        3.5000    -0.8290     2.8870 H     1 <1>   0.0800 
 25 H        2.2330     0.0920     2.1100 H     1 <1>   0.0800 
 26 H       -1.2550    -2.8310     0.3650 H     1 <1>   0.1500 
 27 H        2.5690    -4.5520     0.9750 H     1 <1>   0.1500 
 28 H        4.8570    -0.7220     0.8110 H     1 <1>   0.0800 
 29 H        4.4390     0.8800     1.3610 H     1 <1>   0.0800 
 30 H        3.5690     0.1800     0.0230 H     1 <1>   0.0800 
 31 H        1.7250    -6.5920    -0.0190 H     1 <1>   0.1500 
 32 H       -2.8270    -4.1630    -0.5810 H     1 <1>   0.4000 
 33 H       -1.6020    -5.9660    -2.4950 H     1 <1>   0.0800 
 34 H       -2.9290    -4.8610    -2.6910 H     1 <1>   0.0800 
 35 H       -5.2850    -5.4430    -1.5800 H     1 <1>   0.1000 
 36 H       -5.5750    -7.1250    -1.0520 H     1 <1>   0.1000 
 37 H       -4.7980    -7.9770    -3.2740 H     1 <1>   0.1000 
 38 H       -4.5350    -6.3000    -3.8230 H     1 <1>   0.1000 
 39 H       -2.0300    -8.3190    -1.8730 H     1 <1>   0.0800 
 40 H       -3.5870    -8.8430    -1.2740 H     1 <1>   0.0800 
 41 H       -1.9020    -6.8570     0.0300 H     1 <1>   0.4500 
 42 H       -0.5310    -8.6820     0.2500 H     1 <1>   0.0800 
 43 H       -1.9110    -9.7420     0.5560 H     1 <1>   0.0800 
 44 H       -4.2790    -8.2470     0.9850 H     1 <1>   0.0800 
 45 H       -3.9190    -6.5210     0.9700 H     1 <1>   0.0800 
 46 H       -0.6650    -7.7340     2.3620 H     1 <1>   0.0800 
 47 H       -1.3810    -9.2760     2.7740 H     1 <1>   0.0800 
 48 H       -3.4460    -8.2290     3.1130 H     1 <1>   0.0800 
 49 H       -2.6320    -6.7000     2.8760 H     1 <1>   0.0800 
@<TRIPOS>BOND
  1   1   2  2   
  2   2   3  am  
  3   2   4  1   
  4   3   5  1   
  5   3  23  1   
  6   4   6  ar  
  7   4   7  ar  
  8   5   8  1   
  9   5  24  1   
 10   5  25  1   
 11   6   9  ar  
 12   6  26  1   
 13   7  10  ar  
 14   7  27  1   
 15   8  28  1   
 16   8  29  1   
 17   8  30  1   
 18   9  11  ar  
 19   9  12  1   
 20  10  11  ar  
 21  10  31  1   
 22  12  13  1   
 23  12  32  1   
 24  13  14  1   
 25  13  33  1   
 26  13  34  1   
 27  14  15  1   
 28  14  16  1   
 29  14  17  1   
 30  15  16  1   
 31  15  35  1   
 32  15  36  1   
 33  16  37  1   
 34  16  38  1   
 35  17  18  1   
 36  17  39  1   
 37  17  40  1   
 38  18  19  1   
 39  18  20  1   
 40  18  41  1   
 41  19  21  1   
 42  19  42  1   
 43  19  43  1   
 44  20  22  1   
 45  20  44  1   
 46  20  45  1   
 47  21  22  1   
 48  21  46  1   
 49  21  47  1   
 50  22  48  1   
 51  22  49  1   
@<TRIPOS>SUBSTRUCTURE
  1 ****   9 GROUP 4 **** **** 0

# MOE 2024.06 (io_trps.svl 2023.06)
