@<TRIPOS>MOLECULE
NONAME
61 65 1 0 0 
SMALL
USER_CHARGES


@<TRIPOS>ATOM
  1 O        0.8130    -0.8330    -2.0300 O.2   1 <1>  -0.5700 
  2 C        1.4420    -1.1930    -1.0470 C.2   1 <1>   0.5440 
  3 N        0.9620    -2.2880    -0.3390 N.am  1 <1>  -0.6600 
  4 C        2.6700    -0.4700    -0.7000 C.ar  1 <1>   0.3960 
  5 C       -0.4090    -2.8250    -0.5650 C.3   1 <1>   0.1400 
  6 C        1.7530    -3.0130     0.6960 C.3   1 <1>   0.1400 
  7 N        2.9290    -0.1260     0.5770 N.ar  1 <1>  -0.6200 
  8 C        3.5550    -0.1370    -1.7280 C.ar  1 <1>  -0.1500 
  9 C       -0.3360    -4.3110    -0.9240 C.3   1 <1>  -0.1600 
 10 C        1.8200    -4.5040     0.3540 C.3   1 <1>  -0.1600 
 11 C        4.0490     0.5350     0.8070 C.ar  1 <1>   0.1600 
 12 C        4.7220     0.5480    -1.4740 C.ar  1 <1>  -0.1500 
 13 C        0.4190    -5.1130     0.1510 C.3   1 <1>  -0.0190 
 14 C        4.9670     0.8900    -0.1640 C.ar  1 <1>  -0.1500 
 15 C        0.4670    -6.6030    -0.2110 C.2   1 <1>   0.5690 
 16 O        1.4030    -7.0190    -0.8540 O.2   1 <1>  -0.5700 
 17 N       -0.5410    -7.4450     0.1780 N.am  1 <1>  -0.6600 
 18 C       -1.7490    -7.0990     0.9680 C.3   1 <1>   0.1400 
 19 C       -0.5490    -8.8830    -0.1820 C.3   1 <1>   0.1400 
 20 C       -2.5740    -8.3850     1.0070 C.3   1 <1>   0.2000 
 21 C       -1.5840    -9.5210     0.7470 C.3   1 <1>  -0.0800 
 22 O       -3.1920    -8.5550     2.2350 O.3   1 <1>  -0.6800 
 23 C       -2.2710   -10.7680     0.1580 C.3   1 <1>  -0.0170 
 24 C       -1.3750   -11.9820    -0.1180 C.ar  1 <1>  -0.1440 
 25 C       -1.8670   -13.0610    -0.8950 C.ar  1 <1>   0.0000 
 26 C       -0.0990   -12.0980     0.3610 C.ar  1 <1>  -0.1500 
 27 C       -0.9980   -14.1520    -1.1450 C.ar  1 <1>   0.3100 
 28 C       -3.1750   -13.1290    -1.4310 C.ar  1 <1>  -0.1500 
 29 C        0.6740   -13.2260     0.0600 C.ar  1 <1>   0.1600 
 30 N        0.2670   -14.2190    -0.6630 N.ar  1 <1>  -0.6200 
 31 C       -1.4570   -15.2270    -1.9230 C.ar  1 <1>  -0.1500 
 32 C       -3.5930   -14.1930    -2.1840 C.ar  1 <1>  -0.1500 
 33 C       -2.7250   -15.2560    -2.4370 C.ar  1 <1>  -0.1500 
 34 H       -0.9850    -2.6910     0.3340 H     1 <1>   0.0800 
 35 H       -0.9070    -2.2910    -1.3560 H     1 <1>   0.0800 
 36 H        2.7560    -2.6320     0.7540 H     1 <1>   0.0800 
 37 H        1.2850    -2.8700     1.6550 H     1 <1>   0.0800 
 38 H        3.3070    -0.4240    -2.7340 H     1 <1>   0.1500 
 39 H       -1.3330    -4.6940    -1.0380 H     1 <1>   0.0800 
 40 H        0.1640    -4.4150    -1.8720 H     1 <1>   0.0800 
 41 H        2.4030    -4.6220    -0.5430 H     1 <1>   0.0800 
 42 H        2.3310    -5.0270     1.1430 H     1 <1>   0.0800 
 43 H        4.2490     0.8110     1.8290 H     1 <1>   0.1500 
 44 H        5.4080     0.8060    -2.2640 H     1 <1>   0.1500 
 45 H       -0.1060    -5.0090     1.0820 H     1 <1>   0.0800 
 46 H        5.8580     1.4280     0.1050 H     1 <1>   0.1500 
 47 H       -1.4540    -6.8040     1.9600 H     1 <1>   0.0800 
 48 H       -2.3010    -6.3090     0.4890 H     1 <1>   0.0800 
 49 H       -0.8420    -8.9800    -1.2140 H     1 <1>   0.0800 
 50 H        0.4310    -9.3110    -0.0540 H     1 <1>   0.0800 
 51 H       -3.3370    -8.3460     0.2470 H     1 <1>   0.0800 
 52 H       -1.0930    -9.7710     1.6700 H     1 <1>   0.0800 
 53 H       -2.5290    -8.7000     2.9380 H     1 <1>   0.4000 
 54 H       -2.7390   -10.4720    -0.7640 H     1 <1>   0.0800 
 55 H       -3.0520   -11.0790     0.8320 H     1 <1>   0.0800 
 56 H        0.3630   -11.3530     0.9770 H     1 <1>   0.1500 
 57 H       -3.8680   -12.3300    -1.2460 H     1 <1>   0.1500 
 58 H        1.6750   -13.2680     0.4550 H     1 <1>   0.1500 
 59 H       -0.7720   -16.0350    -2.1010 H     1 <1>   0.1500 
 60 H       -4.5910   -14.2270    -2.5860 H     1 <1>   0.1500 
 61 H       -3.0630   -16.0870    -3.0320 H     1 <1>   0.1500 
@<TRIPOS>BOND
  1   1   2  2   
  2   2   3  am  
  3   2   4  1   
  4   3   5  1   
  5   3   6  1   
  6   4   7  ar  
  7   4   8  ar  
  8   5   9  1   
  9   5  34  1   
 10   5  35  1   
 11   6  10  1   
 12   6  36  1   
 13   6  37  1   
 14   7  11  ar  
 15   8  12  ar  
 16   8  38  1   
 17   9  13  1   
 18   9  39  1   
 19   9  40  1   
 20  10  13  1   
 21  10  41  1   
 22  10  42  1   
 23  11  14  ar  
 24  11  43  1   
 25  12  14  ar  
 26  12  44  1   
 27  13  15  1   
 28  13  45  1   
 29  14  46  1   
 30  15  16  2   
 31  15  17  am  
 32  17  18  1   
 33  17  19  1   
 34  18  20  1   
 35  18  47  1   
 36  18  48  1   
 37  19  21  1   
 38  19  49  1   
 39  19  50  1   
 40  20  21  1   
 41  20  22  1   
 42  20  51  1   
 43  21  23  1   
 44  21  52  1   
 45  22  53  1   
 46  23  24  1   
 47  23  54  1   
 48  23  55  1   
 49  24  25  ar  
 50  24  26  ar  
 51  25  27  ar  
 52  25  28  ar  
 53  26  29  ar  
 54  26  56  1   
 55  27  30  ar  
 56  27  31  ar  
 57  28  32  ar  
 58  28  57  1   
 59  29  30  ar  
 60  29  58  1   
 61  31  33  ar  
 62  31  59  1   
 63  32  33  ar  
 64  32  60  1   
 65  33  61  1   
@<TRIPOS>SUBSTRUCTURE
  1 ****  15 GROUP 4 **** **** 0

# MOE 2024.06 (io_trps.svl 2023.06)
