@<TRIPOS>MOLECULE
NONAME
46 48 1 0 0 
SMALL
USER_CHARGES


@<TRIPOS>ATOM
  1 S       -0.2310     0.5170     0.6290 S.o2  1 <1>   1.3330 
  2 O        0.5840     0.4080     1.8170 O.2   1 <1>  -0.6500 
  3 O       -1.1740     1.6040     0.4940 O.2   1 <1>  -0.6500 
  4 N       -1.0630    -0.9410     0.4040 N.am  1 <1>  -0.8490 
  5 C        0.8720     0.5390    -0.7670 C.3   1 <1>  -0.1350 
  6 C       -2.2060    -0.7930    -0.5050 C.3   1 <1>   0.1960 
  7 C       -1.5070    -1.5160     1.6800 C.3   1 <1>   0.1960 
  8 C       -2.7920    -2.1660    -0.8290 C.3   1 <1>  -0.1600 
  9 C       -2.0810    -2.9150     1.4500 C.3   1 <1>  -0.1600 
 10 C       -3.2400    -2.8920     0.4480 C.3   1 <1>   0.4240 
 11 O       -4.2440    -2.1200     1.0630 O.3   1 <1>  -0.5600 
 12 C       -3.7250    -4.3250     0.1410 C.ar  1 <1>  -0.1430 
 13 C       -5.5530    -2.2870     0.6150 C.3   1 <1>   0.1200 
 14 C       -5.0370    -4.7100     0.3820 C.ar  1 <1>  -0.1430 
 15 C       -2.8530    -5.2640    -0.3930 C.ar  1 <1>  -0.1500 
 16 C       -6.0140    -3.7010     0.9550 C.3   1 <1>  -0.0170 
 17 C       -5.4580    -6.0000     0.1000 C.ar  1 <1>  -0.1500 
 18 C       -3.2530    -6.5580    -0.6760 C.ar  1 <1>   0.0830 
 19 C       -4.5820    -6.9400    -0.4380 C.ar  1 <1>   0.0830 
 20 O       -2.2730    -7.3590    -1.1840 O.3   1 <1>  -0.3630 
 21 O       -4.9970    -8.2040    -0.7500 O.3   1 <1>  -0.3630 
 22 C       -2.2400    -8.7390    -0.8970 C.3   1 <1>   0.0400 
 23 C       -6.3530    -8.5870    -0.6840 C.3   1 <1>   0.0400 
 24 H        1.4860     1.4170    -0.7330 H     1 <1>   0.0800 
 25 H        0.3160     0.5420    -1.6830 H     1 <1>   0.0800 
 26 H        1.5050    -0.3260    -0.7470 H     1 <1>   0.0800 
 27 H       -1.8870    -0.3230    -1.4190 H     1 <1>   0.0800 
 28 H       -2.9590    -0.1660    -0.0520 H     1 <1>   0.0800 
 29 H       -2.2440    -0.8760     2.1370 H     1 <1>   0.0800 
 30 H       -0.6720    -1.6020     2.3560 H     1 <1>   0.0800 
 31 H       -2.0380    -2.7440    -1.3290 H     1 <1>   0.0800 
 32 H       -3.6180    -2.0670    -1.5070 H     1 <1>   0.0800 
 33 H       -2.4270    -3.3270     2.3800 H     1 <1>   0.0800 
 34 H       -1.2880    -3.5450     1.0920 H     1 <1>   0.0800 
 35 H       -5.5910    -2.1110    -0.4460 H     1 <1>   0.0800 
 36 H       -6.1680    -1.5600     1.1150 H     1 <1>   0.0800 
 37 H       -1.8310    -5.0050    -0.6000 H     1 <1>   0.1500 
 38 H       -6.9960    -3.8600     0.5490 H     1 <1>   0.0800 
 39 H       -6.0660    -3.8130     2.0230 H     1 <1>   0.0800 
 40 H       -6.4780    -6.2540     0.3070 H     1 <1>   0.1500 
 41 H       -1.2390    -9.0910    -1.0620 H     1 <1>   0.0800 
 42 H       -2.9180    -9.2470    -1.5580 H     1 <1>   0.0800 
 43 H       -2.5210    -8.8920     0.1300 H     1 <1>   0.0800 
 44 H       -6.4310    -9.5980    -1.0410 H     1 <1>   0.0800 
 45 H       -6.9320    -7.9330    -1.3120 H     1 <1>   0.0800 
 46 H       -6.6820    -8.5360     0.3390 H     1 <1>   0.0800 
@<TRIPOS>BOND
  1   1   2  2   
  2   1   3  2   
  3   1   4  am  
  4   1   5  1   
  5   4   6  1   
  6   4   7  1   
  7   5  24  1   
  8   5  25  1   
  9   5  26  1   
 10   6   8  1   
 11   6  27  1   
 12   6  28  1   
 13   7   9  1   
 14   7  29  1   
 15   7  30  1   
 16   8  10  1   
 17   8  31  1   
 18   8  32  1   
 19   9  10  1   
 20   9  33  1   
 21   9  34  1   
 22  10  11  1   
 23  10  12  1   
 24  11  13  1   
 25  12  14  ar  
 26  12  15  ar  
 27  13  16  1   
 28  13  35  1   
 29  13  36  1   
 30  14  16  1   
 31  14  17  ar  
 32  15  18  ar  
 33  15  37  1   
 34  16  38  1   
 35  16  39  1   
 36  17  19  ar  
 37  17  40  1   
 38  18  19  ar  
 39  18  20  1   
 40  19  21  1   
 41  20  22  1   
 42  21  23  1   
 43  22  41  1   
 44  22  42  1   
 45  22  43  1   
 46  23  44  1   
 47  23  45  1   
 48  23  46  1   
@<TRIPOS>SUBSTRUCTURE
  1 ****  10 GROUP 4 **** **** 0

# MOE 2024.06 (io_trps.svl 2023.06)
