@<TRIPOS>MOLECULE
NONAME
49 52 1 0 0 
SMALL
USER_CHARGES


@<TRIPOS>ATOM
  1 O       -0.4330    -2.1780    -1.7700 O.3   1 <1>  -0.6800 
  2 C       -1.4640    -2.7580    -1.0470 C.3   1 <1>   0.2000 
  3 C       -2.4330    -3.4720    -2.0080 C.3   1 <1>   0.2090 
  4 C       -2.1610    -1.6460    -0.2580 C.3   1 <1>  -0.1600 
  5 N       -3.6420    -3.9680    -1.2690 N.pl3 1 <1>  -0.8380 
  6 C       -3.4110    -2.1940     0.4480 C.3   1 <1>  -0.1600 
  7 C       -4.0060    -5.2740    -1.1730 C.ar  1 <1>   0.4100 
  8 C       -4.3630    -2.8790    -0.5380 C.3   1 <1>   0.2090 
  9 N       -4.6070    -5.6670    -0.0650 N.ar  1 <1>  -0.6200 
 10 C       -3.7530    -6.1780    -2.2230 C.ar  1 <1>  -0.1500 
 11 C       -4.9460    -6.9420     0.0660 C.ar  1 <1>   0.7710 
 12 C       -4.1170    -7.4730    -2.0800 C.ar  1 <1>   0.2110 
 13 N       -4.7080    -7.8310    -0.9180 N.ar  1 <1>  -0.1790 
 14 N       -5.5430    -7.3490     1.2230 N.pl3 1 <1>  -0.8380 
 15 C       -5.6760    -8.7790     1.6710 C.3   1 <1>   0.3530 
 16 C       -5.9790    -6.3590     2.2660 C.3   1 <1>   0.1290 
 17 C       -6.6110    -9.5800     0.7690 C.ar  1 <1>   0.1670 
 18 N       -6.1010   -10.1940    -0.2610 N.ar  1 <1>  -0.6200 
 19 C       -7.9860    -9.6060     1.0930 C.ar  1 <1>   0.1600 
 20 C       -7.0100   -10.9110    -0.9850 C.ar  1 <1>   0.3100 
 21 N       -8.8790   -10.2480     0.4120 N.ar  1 <1>  -0.6200 
 22 C       -8.3900   -10.9270    -0.6570 C.ar  1 <1>   0.3100 
 23 C       -6.5730   -11.6560    -2.0920 C.ar  1 <1>  -0.1500 
 24 C       -9.2680   -11.6660    -1.4640 C.ar  1 <1>  -0.1500 
 25 C       -7.4530   -12.3720    -2.8610 C.ar  1 <1>  -0.1500 
 26 C       -8.8140   -12.3740    -2.5460 C.ar  1 <1>  -0.1500 
 27 H        0.2240    -2.8470    -2.0410 H     1 <1>   0.4000 
 28 H       -1.0340    -3.4720    -0.3660 H     1 <1>   0.0800 
 29 H       -1.9100    -4.2870    -2.4730 H     1 <1>   0.0800 
 30 H       -2.7520    -2.7810    -2.7690 H     1 <1>   0.0800 
 31 H       -2.4530    -0.8590    -0.9320 H     1 <1>   0.0800 
 32 H       -1.4820    -1.2400     0.4710 H     1 <1>   0.0800 
 33 H       -3.9290    -1.3880     0.9370 H     1 <1>   0.0800 
 34 H       -3.1250    -2.9060     1.2030 H     1 <1>   0.0800 
 35 H       -5.2180    -3.2650    -0.0100 H     1 <1>   0.0800 
 36 H       -4.7220    -2.1570    -1.2530 H     1 <1>   0.0800 
 37 H       -3.2970    -5.8210    -3.1260 H     1 <1>   0.1500 
 38 H       -3.9650    -8.2170    -2.8450 H     1 <1>   0.1500 
 39 H       -5.0680    -8.7780    -0.7600 H     1 <1>   0.4570 
 40 H       -6.0420    -8.8180     2.6830 H     1 <1>   0.0800 
 41 H       -4.7030    -9.2420     1.6750 H     1 <1>   0.0800 
 42 H       -6.1390    -5.3820     1.8400 H     1 <1>   0.0800 
 43 H       -5.2260    -6.2780     3.0320 H     1 <1>   0.0800 
 44 H       -6.9060    -6.6710     2.7150 H     1 <1>   0.0800 
 45 H       -8.3160    -9.0550     1.9570 H     1 <1>   0.1500 
 46 H       -5.5240   -11.6590    -2.3240 H     1 <1>   0.1500 
 47 H      -10.3110   -11.6600    -1.2040 H     1 <1>   0.1500 
 48 H       -7.1120   -12.9420    -3.7100 H     1 <1>   0.1500 
 49 H       -9.4970   -12.9400    -3.1590 H     1 <1>   0.1500 
@<TRIPOS>BOND
  1   1   2  1   
  2   1  27  1   
  3   2   3  1   
  4   2   4  1   
  5   2  28  1   
  6   3   5  1   
  7   3  29  1   
  8   3  30  1   
  9   4   6  1   
 10   4  31  1   
 11   4  32  1   
 12   5   7  1   
 13   5   8  1   
 14   6   8  1   
 15   6  33  1   
 16   6  34  1   
 17   7   9  ar  
 18   7  10  ar  
 19   8  35  1   
 20   8  36  1   
 21   9  11  ar  
 22  10  12  ar  
 23  10  37  1   
 24  11  13  ar  
 25  11  14  1   
 26  12  13  ar  
 27  12  38  1   
 28  13  39  1   
 29  14  15  1   
 30  14  16  1   
 31  15  17  1   
 32  15  40  1   
 33  15  41  1   
 34  16  42  1   
 35  16  43  1   
 36  16  44  1   
 37  17  18  ar  
 38  17  19  ar  
 39  18  20  ar  
 40  19  21  ar  
 41  19  45  1   
 42  20  22  ar  
 43  20  23  ar  
 44  21  22  ar  
 45  22  24  ar  
 46  23  25  ar  
 47  23  46  1   
 48  24  26  ar  
 49  24  47  1   
 50  25  26  ar  
 51  25  48  1   
 52  26  49  1   
@<TRIPOS>SUBSTRUCTURE
  1 ****  13 GROUP 4 **** **** 0

# MOE 2024.06 (io_trps.svl 2023.06)
