@<TRIPOS>MOLECULE
NONAME
49 50 1 0 0 
SMALL
USER_CHARGES


@<TRIPOS>ATOM
  1 CL      -0.1570     0.4090    -1.2480 Cl    1 <1>  -0.1770 
  2 C       -1.7900     0.6960    -0.7090 C.ar  1 <1>   0.1770 
  3 C       -2.6400    -0.3740    -0.5070 C.ar  1 <1>  -0.1500 
  4 C       -2.2150     1.9920    -0.4880 C.ar  1 <1>  -0.1500 
  5 C       -3.9340    -0.1400    -0.0780 C.ar  1 <1>  -0.1500 
  6 C       -3.5120     2.2140    -0.0600 C.ar  1 <1>  -0.1500 
  7 C       -4.4010     1.1570     0.1520 C.ar  1 <1>   0.0530 
  8 C       -5.7440     1.4150     0.6100 C.2   1 <1>   0.0870 
  9 O       -5.9430     2.3460     1.5090 O.3   1 <1>  -0.0190 
 10 C       -6.9610     0.8730     0.3250 C.2   1 <1>  -0.0860 
 11 N       -7.1960     2.4660     1.8560 N.2   1 <1>  -0.4100 
 12 C       -7.8260     1.6000     1.1550 C.2   1 <1>   0.3720 
 13 C       -7.3400    -0.1750    -0.5740 C.2   1 <1>   0.7160 
 14 N       -9.2040     1.4770     1.2700 N.pl3 1 <1>  -0.8520 
 15 O       -6.5980    -0.5600    -1.4570 O.2   1 <1>  -0.5700 
 16 N       -8.5570    -0.7670    -0.4430 N.am  1 <1>  -0.7300 
 17 C       -9.9640     2.1550     0.1820 C.3   1 <1>   0.2090 
 18 C       -9.0820    -1.9240    -1.2060 C.3   1 <1>   0.1400 
 19 C      -11.3250     1.4860    -0.0090 C.3   1 <1>   0.1200 
 20 C       -9.7160    -2.9850    -0.2760 C.3   1 <1>   0.0000 
 21 O      -12.0270     2.1810    -0.9900 O.3   1 <1>  -0.5600 
 22 C       -8.6710    -3.5390     0.7070 C.3   1 <1>  -0.2400 
 23 C      -10.8950    -2.3950     0.5170 C.3   1 <1>  -0.2400 
 24 C      -10.2390    -4.1440    -1.1380 C.3   1 <1>  -0.2400 
 25 C      -13.2850     1.6550    -1.2660 C.3   1 <1>   0.0400 
 26 H       -2.2910    -1.3750    -0.6870 H     1 <1>   0.1500 
 27 H       -1.5370     2.8110    -0.6500 H     1 <1>   0.1500 
 28 H       -4.5920    -0.9750     0.0810 H     1 <1>   0.1500 
 29 H       -3.8470     3.2220     0.1130 H     1 <1>   0.1500 
 30 H       -9.4630     1.9230     2.1580 H     1 <1>   0.4000 
 31 H       -9.1570    -0.3890     0.2990 H     1 <1>   0.3700 
 32 H       -9.4140     2.1010    -0.7430 H     1 <1>   0.0800 
 33 H      -10.1070     3.1900     0.4410 H     1 <1>   0.0800 
 34 H       -8.2830    -2.3730    -1.7720 H     1 <1>   0.0800 
 35 H       -9.8190    -1.5680    -1.9060 H     1 <1>   0.0800 
 36 H      -11.8910     1.5190     0.9050 H     1 <1>   0.0800 
 37 H      -11.1960     0.4700    -0.3370 H     1 <1>   0.0800 
 38 H       -8.3130    -2.7660     1.3630 H     1 <1>   0.0800 
 39 H       -7.8300    -3.9430     0.1730 H     1 <1>   0.0800 
 40 H       -9.0970    -4.3200     1.3120 H     1 <1>   0.0800 
 41 H      -10.5630    -1.6170     1.1810 H     1 <1>   0.0800 
 42 H      -11.3650    -3.1580     1.1110 H     1 <1>   0.0800 
 43 H      -11.6320    -1.9870    -0.1520 H     1 <1>   0.0800 
 44 H       -9.4350    -4.5910    -1.6970 H     1 <1>   0.0800 
 45 H      -10.9820    -3.7950    -1.8320 H     1 <1>   0.0800 
 46 H      -10.6830    -4.9050    -0.5210 H     1 <1>   0.0800 
 47 H      -13.7400     2.2610    -2.0300 H     1 <1>   0.0800 
 48 H      -13.8870     1.6840    -0.3750 H     1 <1>   0.0800 
 49 H      -13.1780     0.6450    -1.6210 H     1 <1>   0.0800 
@<TRIPOS>BOND
  1   1   2  1   
  2   2   3  ar  
  3   2   4  ar  
  4   3   5  ar  
  5   3  26  1   
  6   4   6  ar  
  7   4  27  1   
  8   5   7  ar  
  9   5  28  1   
 10   6   7  ar  
 11   6  29  1   
 12   7   8  1   
 13   8   9  1   
 14   8  10  2   
 15   9  11  1   
 16  10  12  1   
 17  10  13  1   
 18  11  12  2   
 19  12  14  1   
 20  13  15  2   
 21  13  16  am  
 22  14  17  1   
 23  14  30  1   
 24  16  18  1   
 25  16  31  1   
 26  17  19  1   
 27  17  32  1   
 28  17  33  1   
 29  18  20  1   
 30  18  34  1   
 31  18  35  1   
 32  19  21  1   
 33  19  36  1   
 34  19  37  1   
 35  20  22  1   
 36  20  23  1   
 37  20  24  1   
 38  21  25  1   
 39  22  38  1   
 40  22  39  1   
 41  22  40  1   
 42  23  41  1   
 43  23  42  1   
 44  23  43  1   
 45  24  44  1   
 46  24  45  1   
 47  24  46  1   
 48  25  47  1   
 49  25  48  1   
 50  25  49  1   
@<TRIPOS>SUBSTRUCTURE
  1 ****  13 GROUP 4 **** **** 0

# MOE 2024.06 (io_trps.svl 2023.06)
