@<TRIPOS>MOLECULE
NONAME
41 43 1 0 0 
SMALL
USER_CHARGES


@<TRIPOS>ATOM
  1 O       -0.4430    -0.4300    -0.8220 O.co2 1 <1>  -0.9000 
  2 C       -1.4070    -0.4260    -0.0540 C.2   1 <1>   0.9060 
  3 O       -1.2970    -0.6090     1.1630 O.co2 1 <1>  -0.9000 
  4 C       -2.7420     0.0960    -0.6170 C.3   1 <1>   0.3170 
  5 N       -2.9340     1.5920    -0.3600 N.4   1 <1>  -0.9590 
  6 C       -3.9330    -0.7190    -0.0530 C.3   1 <1>   0.1200 
  7 C       -3.1520     1.7730     1.1180 C.3   1 <1>   0.3430 
  8 C       -1.7430     2.3350    -0.8590 C.3   1 <1>   0.5240 
  9 O       -4.8600     0.1100     0.6050 O.3   1 <1>  -0.5600 
 10 C       -4.2780     0.8530     1.6450 C.3   1 <1>   0.1200 
 11 C       -1.8530     3.7830    -0.4320 C.2   1 <1>  -0.1810 
 12 C       -1.0820     4.3880     0.5530 C.2   1 <1>   0.1080 
 13 C       -2.6830     4.7580    -0.8620 C.2   1 <1>  -0.3020 
 14 N       -1.4130     5.6240     0.7310 N.2   1 <1>  -0.7070 
 15 C        0.0240     3.7300     1.3540 C.3   1 <1>  -0.0590 
 16 N       -2.4070     5.8840    -0.1570 N.pl3 1 <1>   0.5930 
 17 C       -3.0610     7.1460    -0.2680 C.ar  1 <1>  -0.0230 
 18 C       -3.2180     7.9620     0.8510 C.ar  1 <1>  -0.1500 
 19 C       -3.5610     7.5950    -1.4890 C.ar  1 <1>  -0.1500 
 20 C       -3.8640     9.1810     0.7560 C.ar  1 <1>  -0.1500 
 21 C       -4.2080     8.8140    -1.5850 C.ar  1 <1>  -0.1500 
 22 C       -4.3620     9.6080    -0.4620 C.ar  1 <1>  -0.1500 
 23 H       -2.6910    -0.0770    -1.6760 H     1 <1>   0.0800 
 24 H       -3.7880     1.8940    -0.8350 H     1 <1>   0.4500 
 25 H       -3.5960    -1.4730     0.6410 H     1 <1>   0.0800 
 26 H       -4.4470    -1.2170    -0.8550 H     1 <1>   0.0800 
 27 H       -2.2450     1.5330     1.6500 H     1 <1>   0.0800 
 28 H       -3.3960     2.7990     1.3370 H     1 <1>   0.0800 
 29 H       -0.8380     1.9100    -0.4520 H     1 <1>   0.0800 
 30 H       -1.6880     2.2680    -1.9320 H     1 <1>   0.0800 
 31 H       -5.0510     1.4380     2.1090 H     1 <1>   0.0800 
 32 H       -3.8820     0.1680     2.3760 H     1 <1>   0.0800 
 33 H       -3.4510     4.7320    -1.6120 H     1 <1>   0.1500 
 34 H       -0.2080     2.7030     1.5710 H     1 <1>   0.0800 
 35 H        0.1620     4.2540     2.2820 H     1 <1>   0.0800 
 36 H        0.9440     3.7710     0.8000 H     1 <1>   0.0800 
 37 H       -2.8280     7.6390     1.8020 H     1 <1>   0.1500 
 38 H       -3.4430     6.9980    -2.3750 H     1 <1>   0.1500 
 39 H       -3.9770     9.7990     1.6300 H     1 <1>   0.1500 
 40 H       -4.5910     9.1510    -2.5330 H     1 <1>   0.1500 
 41 H       -4.8640    10.5570    -0.5360 H     1 <1>   0.1500 
@<TRIPOS>BOND
  1   1   2  ar  
  2   2   3  ar  
  3   2   4  1   
  4   4   5  1   
  5   4   6  1   
  6   4  23  1   
  7   5   7  1   
  8   5   8  1   
  9   5  24  1   
 10   6   9  1   
 11   6  25  1   
 12   6  26  1   
 13   7  10  1   
 14   7  27  1   
 15   7  28  1   
 16   8  11  1   
 17   8  29  1   
 18   8  30  1   
 19   9  10  1   
 20  10  31  1   
 21  10  32  1   
 22  11  12  1   
 23  11  13  2   
 24  12  14  2   
 25  12  15  1   
 26  13  16  1   
 27  13  33  1   
 28  14  16  1   
 29  15  34  1   
 30  15  35  1   
 31  15  36  1   
 32  16  17  1   
 33  17  18  ar  
 34  17  19  ar  
 35  18  20  ar  
 36  18  37  1   
 37  19  21  ar  
 38  19  38  1   
 39  20  22  ar  
 40  20  39  1   
 41  21  22  ar  
 42  21  40  1   
 43  22  41  1   
@<TRIPOS>SUBSTRUCTURE
  1 ****  11 GROUP 4 **** **** 0

# MOE 2024.06 (io_trps.svl 2023.06)
