@<TRIPOS>MOLECULE
NONAME
36 37 1 0 0 
SMALL
USER_CHARGES


@<TRIPOS>ATOM
  1 S       -0.2400     0.8790     1.0180 S.o2  1 <1>   1.4470 
  2 O       -0.7740     2.2110     1.2050 O.2   1 <1>  -0.6500 
  3 O        0.1950     0.1610     2.1980 O.2   1 <1>  -0.6500 
  4 N       -1.4450    -0.0650     0.2910 N.am  1 <1>  -0.8490 
  5 C        1.0920     0.8900    -0.2040 C.ar  1 <1>  -0.0090 
  6 C       -0.9910    -1.4480     0.0110 C.3   1 <1>   0.1960 
  7 C       -2.7010    -0.0370     1.0330 C.3   1 <1>   0.1960 
  8 C        1.0020     1.6320    -1.3700 C.ar  1 <1>   0.1900 
  9 C        2.2420     0.1250    -0.0360 C.ar  1 <1>  -0.1500 
 10 C       -2.1410    -2.4480    -0.1810 C.3   1 <1>  -0.1860 
 11 C       -3.8310    -0.5860     0.1520 C.3   1 <1>  -0.1600 
 12 F       -0.0590     2.3580    -1.5990 F     1 <1>  -0.1900 
 13 C        1.9940     1.6440    -2.3330 C.ar  1 <1>  -0.1500 
 14 C        3.2530     0.1130    -0.9860 C.ar  1 <1>  -0.1440 
 15 C       -1.6740    -3.6120    -1.0320 C.2   1 <1>   0.9060 
 16 C       -3.3660    -1.7340    -0.7530 C.3   1 <1>   0.2000 
 17 C        3.1280     0.8770    -2.1350 C.ar  1 <1>  -0.1500 
 18 C        4.4810    -0.7510    -0.7630 C.3   1 <1>  -0.0970 
 19 O       -0.4690    -3.8790    -1.0650 O.co2 1 <1>  -0.9000 
 20 O       -2.5120    -4.2790    -1.6530 O.co2 1 <1>  -0.9000 
 21 O       -4.3950    -2.6410    -0.8750 O.3   1 <1>  -0.6800 
 22 H       -0.3920    -1.4210    -0.8850 H     1 <1>   0.0800 
 23 H       -0.3630    -1.8180     0.8050 H     1 <1>   0.0800 
 24 H       -2.6010    -0.6290     1.9280 H     1 <1>   0.0800 
 25 H       -2.9450     0.9720     1.3230 H     1 <1>   0.0800 
 26 H        2.3420    -0.4790     0.8510 H     1 <1>   0.1500 
 27 H       -2.3950    -2.8560     0.7780 H     1 <1>   0.0800 
 28 H       -4.2050     0.2070    -0.4690 H     1 <1>   0.0800 
 29 H       -4.6290    -0.9130     0.7940 H     1 <1>   0.0800 
 30 H        1.8740     2.2400    -3.2200 H     1 <1>   0.1500 
 31 H       -3.1330    -1.3640    -1.7380 H     1 <1>   0.0800 
 32 H        3.9050     0.8720    -2.8800 H     1 <1>   0.1500 
 33 H        5.2890    -0.4410    -1.4010 H     1 <1>   0.0800 
 34 H        4.2440    -1.7780    -0.9800 H     1 <1>   0.0800 
 35 H        4.8070    -0.6790     0.2590 H     1 <1>   0.0800 
 36 H       -3.9720    -3.4590    -1.2750 H     1 <1>   0.4000 
@<TRIPOS>BOND
  1   1   2  2   
  2   1   3  2   
  3   1   4  am  
  4   1   5  1   
  5   4   6  1   
  6   4   7  1   
  7   5   8  ar  
  8   5   9  ar  
  9   6  10  1   
 10   6  22  1   
 11   6  23  1   
 12   7  11  1   
 13   7  24  1   
 14   7  25  1   
 15   8  12  1   
 16   8  13  ar  
 17   9  14  ar  
 18   9  26  1   
 19  10  15  1   
 20  10  16  1   
 21  10  27  1   
 22  11  16  1   
 23  11  28  1   
 24  11  29  1   
 25  13  17  ar  
 26  13  30  1   
 27  14  17  ar  
 28  14  18  1   
 29  15  19  ar  
 30  15  20  ar  
 31  16  21  1   
 32  16  31  1   
 33  17  32  1   
 34  18  33  1   
 35  18  34  1   
 36  18  35  1   
 37  21  36  1   
@<TRIPOS>SUBSTRUCTURE
  1 ****   6 GROUP 4 **** **** 0

# MOE 2024.06 (io_trps.svl 2023.06)
