@<TRIPOS>MOLECULE
NONAME
53 56 1 0 0 
SMALL
USER_CHARGES


@<TRIPOS>ATOM
  1 S       -2.7120     2.5830    -0.1920 S.3   1 <1>  -0.0800 
  2 C       -2.2550     1.1550     0.7200 C.2   1 <1>  -0.1400 
  3 C       -1.1120     2.6860    -0.9110 C.2   1 <1>  -0.1100 
  4 C       -0.9500     0.8970     0.5510 C.2   1 <1>  -0.1500 
  5 C       -3.3380     0.3800     1.4460 C.3   1 <1>   0.5230 
  6 C       -0.3170     1.7020    -0.4460 C.2   1 <1>  -0.1810 
  7 N       -3.4920    -0.9880     0.8310 N.4   1 <1>  -0.9590 
  8 C        1.0530     1.3240    -0.9870 C.3   1 <1>   0.5240 
  9 C       -2.4740    -1.9790     1.3310 C.3   1 <1>   0.3430 
 10 C       -3.3790    -1.0090    -0.6640 C.3   1 <1>   0.3430 
 11 N        2.0230     1.1880     0.1240 N.4   1 <1>  -0.9590 
 12 C       -1.9580    -2.7790     0.1330 C.3   1 <1>   0.0380 
 13 C       -2.9430    -2.4210    -0.9940 C.3   1 <1>  -0.1600 
 14 C        3.3390     1.7970    -0.1610 C.3   1 <1>   0.3430 
 15 C        2.2470    -0.2540     0.4520 C.3   1 <1>   0.3430 
 16 C       -1.9920    -4.2950     0.4120 C.ar  1 <1>  -0.1430 
 17 C       -0.5550    -2.1890    -0.0810 C.2   1 <1>   0.9060 
 18 C        4.3020     1.0200     0.7180 C.3   1 <1>  -0.1600 
 19 C        3.7420    -0.3990     0.7150 C.3   1 <1>  -0.1600 
 20 C       -0.8790    -5.0960     0.1850 C.ar  1 <1>  -0.1500 
 21 C       -3.1510    -4.8990     0.8930 C.ar  1 <1>  -0.1500 
 22 O        0.2440    -2.2000     0.8620 O.co2 1 <1>  -0.9000 
 23 O       -0.2730    -1.5350    -1.0940 O.co2 1 <1>  -0.9000 
 24 C       -0.9190    -6.4550     0.4370 C.ar  1 <1>  -0.1500 
 25 C       -3.1920    -6.2590     1.1450 C.ar  1 <1>  -0.1500 
 26 C       -2.0750    -7.0400     0.9180 C.ar  1 <1>  -0.1500 
 27 H       -0.9630     3.4520    -1.6540 H     1 <1>   0.1500 
 28 H       -0.4090     0.1130     1.0420 H     1 <1>   0.1500 
 29 H       -4.2650     0.9230     1.3580 H     1 <1>   0.0800 
 30 H       -3.0920     0.2940     2.4910 H     1 <1>   0.0800 
 31 H       -4.4160    -1.3570     1.0750 H     1 <1>   0.4500 
 32 H        1.3790     2.0830    -1.6780 H     1 <1>   0.0800 
 33 H        0.9740     0.3900    -1.5230 H     1 <1>   0.0800 
 34 H       -2.9230    -2.6450     2.0480 H     1 <1>   0.0800 
 35 H       -1.6550    -1.4750     1.8190 H     1 <1>   0.0800 
 36 H       -2.6040    -0.3390    -1.0030 H     1 <1>   0.0800 
 37 H       -4.3080    -0.7510    -1.1450 H     1 <1>   0.0800 
 38 H        1.6000     1.6290     0.9460 H     1 <1>   0.4500 
 39 H       -2.4800    -2.4750    -1.9650 H     1 <1>   0.0800 
 40 H       -3.8010    -3.0670    -0.9940 H     1 <1>   0.0800 
 41 H        3.3510     2.8520     0.0610 H     1 <1>   0.0800 
 42 H        3.5990     1.6400    -1.1950 H     1 <1>   0.0800 
 43 H        1.9410    -0.8980    -0.3590 H     1 <1>   0.0800 
 44 H        1.6840    -0.5320     1.3290 H     1 <1>   0.0800 
 45 H        4.2820     1.4260     1.7150 H     1 <1>   0.0800 
 46 H        5.3090     1.0620     0.3430 H     1 <1>   0.0800 
 47 H        4.1750    -0.9770    -0.0840 H     1 <1>   0.0800 
 48 H        3.9220    -0.9130     1.6430 H     1 <1>   0.0800 
 49 H        0.0410    -4.6770    -0.1870 H     1 <1>   0.1500 
 50 H       -4.0400    -4.3250     1.0730 H     1 <1>   0.1500 
 51 H       -0.0450    -7.0570     0.2580 H     1 <1>   0.1500 
 52 H       -4.0940    -6.7140     1.5170 H     1 <1>   0.1500 
 53 H       -2.1030    -8.0980     1.1140 H     1 <1>   0.1500 
@<TRIPOS>BOND
  1   1   2  1   
  2   1   3  1   
  3   2   4  2   
  4   2   5  1   
  5   3   6  2   
  6   3  27  1   
  7   4   6  1   
  8   4  28  1   
  9   5   7  1   
 10   5  29  1   
 11   5  30  1   
 12   6   8  1   
 13   7   9  1   
 14   7  10  1   
 15   7  31  1   
 16   8  11  1   
 17   8  32  1   
 18   8  33  1   
 19   9  12  1   
 20   9  34  1   
 21   9  35  1   
 22  10  13  1   
 23  10  36  1   
 24  10  37  1   
 25  11  14  1   
 26  11  15  1   
 27  11  38  1   
 28  12  13  1   
 29  12  16  1   
 30  12  17  1   
 31  13  39  1   
 32  13  40  1   
 33  14  18  1   
 34  14  41  1   
 35  14  42  1   
 36  15  19  1   
 37  15  43  1   
 38  15  44  1   
 39  16  20  ar  
 40  16  21  ar  
 41  17  22  ar  
 42  17  23  ar  
 43  18  19  1   
 44  18  45  1   
 45  18  46  1   
 46  19  47  1   
 47  19  48  1   
 48  20  24  ar  
 49  20  49  1   
 50  21  25  ar  
 51  21  50  1   
 52  24  26  ar  
 53  24  51  1   
 54  25  26  ar  
 55  25  52  1   
 56  26  53  1   
@<TRIPOS>SUBSTRUCTURE
  1 ****  17 GROUP 4 **** **** 0

# MOE 2024.06 (io_trps.svl 2023.06)
