@<TRIPOS>MOLECULE
NONAME
62 65 1 0 0 
SMALL
USER_CHARGES


@<TRIPOS>ATOM
  1 O       -0.7160     0.5550    -1.5580 O.2   1 <1>  -0.5700 
  2 C       -1.6670     1.3010    -1.4150 C.2   1 <1>   0.5440 
  3 N       -2.9260     0.7410    -1.4370 N.am  1 <1>  -0.6600 
  4 C       -1.4720     2.7220    -1.1880 C.ar  1 <1>   0.0860 
  5 C       -3.0970    -0.6730    -1.8550 C.3   1 <1>   0.1400 
  6 C       -4.0100     1.2360    -0.5490 C.3   1 <1>   0.1400 
  7 C       -0.8100     3.2460    -0.0670 C.ar  1 <1>  -0.1440 
  8 C       -1.9820     3.6210    -2.1250 C.ar  1 <1>  -0.1500 
  9 C       -3.0410    -1.5580    -0.5910 C.3   1 <1>   0.4230 
 10 C       -4.0010     0.3770     0.7240 C.3   1 <1>  -0.1600 
 11 C       -0.6710     4.6180     0.0760 C.ar  1 <1>  -0.1500 
 12 C       -0.2290     2.3580     1.0330 C.3   1 <1>   0.1270 
 13 C       -1.8440     4.9870    -1.9720 C.ar  1 <1>  -0.1500 
 14 N       -2.9770    -3.0500    -0.8810 N.4   1 <1>  -0.9590 
 15 C       -4.1300    -1.1530     0.4510 C.3   1 <1>   0.0000 
 16 C       -1.1840     5.4880    -0.8670 C.ar  1 <1>  -0.1500 
 17 C        1.2890     2.4570     1.0890 C.ar  1 <1>  -0.1440 
 18 C       -3.3330    -3.9160     0.2900 C.3   1 <1>   0.3430 
 19 C       -3.7190    -3.5050    -2.1020 C.3   1 <1>   0.2630 
 20 C       -3.8740    -1.9220     1.7810 C.3   1 <1>  -0.1600 
 21 C       -5.5470    -1.4820    -0.1020 C.3   1 <1>   0.1200 
 22 C        2.0520     2.0120     0.0210 C.ar  1 <1>  -0.1500 
 23 C        1.9270     2.9860     2.2010 C.ar  1 <1>  -0.1500 
 24 C       -3.0360    -3.2040     1.6090 C.3   1 <1>  -0.1600 
 25 O       -6.5450    -0.9610     0.7040 O.3   1 <1>  -0.6800 
 26 C        3.4330     2.0910     0.0650 C.ar  1 <1>  -0.1500 
 27 C        3.3080     3.0660     2.2430 C.ar  1 <1>  -0.1500 
 28 C        4.0690     2.6170     1.1760 C.ar  1 <1>  -0.1440 
 29 C        5.5840     2.7050     1.2220 C.3   1 <1>  -0.0960 
 30 H       -4.0320    -0.7710    -2.3740 H     1 <1>   0.0800 
 31 H       -2.3050    -0.9470    -2.5310 H     1 <1>   0.0800 
 32 H       -3.8530     2.2710    -0.2930 H     1 <1>   0.0800 
 33 H       -4.9590     1.1640    -1.0530 H     1 <1>   0.0800 
 34 H       -2.4920     3.2380    -2.9910 H     1 <1>   0.1500 
 35 H       -2.1010    -1.3050    -0.1270 H     1 <1>   0.0800 
 36 H       -3.0760     0.5790     1.2360 H     1 <1>   0.0800 
 37 H       -4.7880     0.7170     1.3750 H     1 <1>   0.0800 
 38 H       -0.1510     5.0180     0.9300 H     1 <1>   0.1500 
 39 H       -0.6450     2.6660     1.9760 H     1 <1>   0.0800 
 40 H       -0.4950     1.3270     0.9010 H     1 <1>   0.0800 
 41 H       -2.2450     5.6590    -2.7100 H     1 <1>   0.1500 
 42 H       -1.9760    -3.2210    -1.0640 H     1 <1>   0.4500 
 43 H       -1.0660     6.5510    -0.7420 H     1 <1>   0.1500 
 44 H       -4.3840    -4.1550     0.2610 H     1 <1>   0.0800 
 45 H       -2.7810    -4.8420     0.2420 H     1 <1>   0.0800 
 46 H       -4.7740    -3.3110    -1.9990 H     1 <1>   0.0800 
 47 H       -3.5780    -4.5640    -2.2510 H     1 <1>   0.0800 
 48 H       -3.3570    -2.9920    -2.9790 H     1 <1>   0.0800 
 49 H       -3.3570    -1.2960     2.4890 H     1 <1>   0.0800 
 50 H       -4.8110    -2.1800     2.2450 H     1 <1>   0.0800 
 51 H       -5.7090    -2.5420    -0.1680 H     1 <1>   0.0800 
 52 H       -5.6970    -1.0540    -1.0770 H     1 <1>   0.0800 
 53 H        1.5730     1.6020    -0.8520 H     1 <1>   0.1500 
 54 H        1.3560     3.3400     3.0400 H     1 <1>   0.1500 
 55 H       -3.2430    -3.8730     2.4270 H     1 <1>   0.0800 
 56 H       -1.9850    -2.9700     1.6530 H     1 <1>   0.0800 
 57 H       -6.5440    -1.3530     1.6000 H     1 <1>   0.4000 
 58 H        4.0060     1.7420    -0.7750 H     1 <1>   0.1500 
 59 H        3.7890     3.4800     3.1110 H     1 <1>   0.1500 
 60 H        6.0230     1.9140     0.6420 H     1 <1>   0.0800 
 61 H        5.9350     2.6200     2.2340 H     1 <1>   0.0800 
 62 H        5.9040     3.6500     0.8200 H     1 <1>   0.0800 
@<TRIPOS>BOND
  1   1   2  2   
  2   2   3  am  
  3   2   4  1   
  4   3   5  1   
  5   3   6  1   
  6   4   7  ar  
  7   4   8  ar  
  8   5   9  1   
  9   5  30  1   
 10   5  31  1   
 11   6  10  1   
 12   6  32  1   
 13   6  33  1   
 14   7  11  ar  
 15   7  12  1   
 16   8  13  ar  
 17   8  34  1   
 18   9  14  1   
 19   9  15  1   
 20   9  35  1   
 21  10  15  1   
 22  10  36  1   
 23  10  37  1   
 24  11  16  ar  
 25  11  38  1   
 26  12  17  1   
 27  12  39  1   
 28  12  40  1   
 29  13  16  ar  
 30  13  41  1   
 31  14  18  1   
 32  14  19  1   
 33  14  42  1   
 34  15  20  1   
 35  15  21  1   
 36  16  43  1   
 37  17  22  ar  
 38  17  23  ar  
 39  18  24  1   
 40  18  44  1   
 41  18  45  1   
 42  19  46  1   
 43  19  47  1   
 44  19  48  1   
 45  20  24  1   
 46  20  49  1   
 47  20  50  1   
 48  21  25  1   
 49  21  51  1   
 50  21  52  1   
 51  22  26  ar  
 52  22  53  1   
 53  23  27  ar  
 54  23  54  1   
 55  24  55  1   
 56  24  56  1   
 57  25  57  1   
 58  26  28  ar  
 59  26  58  1   
 60  27  28  ar  
 61  27  59  1   
 62  28  29  1   
 63  29  60  1   
 64  29  61  1   
 65  29  62  1   
@<TRIPOS>SUBSTRUCTURE
  1 ****   2 GROUP 4 **** **** 0

# MOE 2024.06 (io_trps.svl 2023.06)
