@<TRIPOS>MOLECULE
NONAME
52 55 1 0 0 
SMALL
USER_CHARGES


@<TRIPOS>ATOM
  1 O       -0.5060     0.6760    -0.0100 O.2   1 <1>  -0.5700 
  2 C       -1.6160     1.1500    -0.0440 C.2   1 <1>   0.5690 
  3 N       -2.7170     0.3740    -0.2720 N.am  1 <1>  -0.6600 
  4 C       -1.7910     2.6500     0.1730 C.3   1 <1>  -0.0990 
  5 C       -4.1310     0.8240    -0.2870 C.3   1 <1>   0.1400 
  6 C       -2.6320    -1.0910    -0.4870 C.3   1 <1>   0.1400 
  7 C       -0.4660     3.4240     0.3220 C.3   1 <1>  -0.1600 
  8 C       -4.9520    -0.4430    -0.5410 C.3   1 <1>   0.2000 
  9 C       -4.0380    -1.6140    -0.1850 C.3   1 <1>  -0.0800 
 10 C       -0.6970     4.9290     0.5200 C.3   1 <1>   0.0200 
 11 O       -6.0910    -0.4730     0.2480 O.3   1 <1>  -0.6800 
 12 C       -4.4070    -2.9020    -0.9410 C.3   1 <1>  -0.0170 
 13 C        0.6140     5.6840     0.6360 C.2   1 <1>   0.2980 
 14 C       -3.5000    -4.0590    -0.5590 C.ar  1 <1>   0.1660 
 15 O        1.3520     5.5080     1.7010 O.3   1 <1>  -0.0190 
 16 N        1.0780     6.4950    -0.2210 N.2   1 <1>  -0.5650 
 17 N       -2.3500    -4.1430    -1.2080 N.ar  1 <1>  -0.6200 
 18 C       -3.9020    -4.9500     0.4260 C.ar  1 <1>  -0.1500 
 19 N        2.3780     6.2740     1.5030 N.2   1 <1>  -0.4100 
 20 C        2.2220     6.8560     0.3670 C.2   1 <1>   0.4620 
 21 C       -1.5660    -5.1520    -0.8610 C.ar  1 <1>   0.1600 
 22 C       -3.0760    -5.9970     0.7770 C.ar  1 <1>  -0.1500 
 23 C        3.1490     7.7940    -0.2340 C.ar  1 <1>   0.0540 
 24 C       -1.8750    -6.0910     0.1080 C.ar  1 <1>  -0.1500 
 25 C        2.9030     8.3610    -1.4860 C.ar  1 <1>   0.1600 
 26 C        4.3260     8.1740     0.4020 C.ar  1 <1>  -0.1500 
 27 N        3.6850     9.2240    -2.1180 N.ar  1 <1>  -0.6200 
 28 C        5.1540     9.0700    -0.2360 C.ar  1 <1>  -0.1500 
 29 C        4.7930     9.5600    -1.4790 C.ar  1 <1>   0.1600 
 30 H       -2.3340     3.0460    -0.6650 H     1 <1>   0.0800 
 31 H       -2.3830     2.7890     1.0590 H     1 <1>   0.0800 
 32 H       -4.3800     1.2590     0.6650 H     1 <1>   0.0800 
 33 H       -4.2870     1.5360    -1.0780 H     1 <1>   0.0800 
 34 H       -2.3620    -1.2800    -1.5120 H     1 <1>   0.0800 
 35 H       -1.8950    -1.5390     0.1590 H     1 <1>   0.0800 
 36 H        0.0820     3.0310     1.1610 H     1 <1>   0.0800 
 37 H        0.1340     3.2720    -0.5600 H     1 <1>   0.0800 
 38 H       -5.2530    -0.4790    -1.5740 H     1 <1>   0.0800 
 39 H       -4.0830    -1.7990     0.8740 H     1 <1>   0.0800 
 40 H       -1.2730     5.1010     1.4120 H     1 <1>   0.0800 
 41 H       -1.2460     5.3240    -0.3160 H     1 <1>   0.0800 
 42 H       -5.8490    -0.5240     1.1930 H     1 <1>   0.4000 
 43 H       -4.3360    -2.7400    -2.0020 H     1 <1>   0.0800 
 44 H       -5.4270    -3.1610    -0.7220 H     1 <1>   0.0800 
 45 H       -4.8500    -4.8280     0.9160 H     1 <1>   0.1500 
 46 H       -0.6250    -5.2340    -1.3770 H     1 <1>   0.1500 
 47 H       -3.3560    -6.7070     1.5370 H     1 <1>   0.1500 
 48 H       -1.1830    -6.8820     0.3330 H     1 <1>   0.1500 
 49 H        1.9990     8.0810    -1.9980 H     1 <1>   0.1500 
 50 H        4.5820     7.7760     1.3700 H     1 <1>   0.1500 
 51 H        6.0730     9.3900     0.2220 H     1 <1>   0.1500 
 52 H        5.4460    10.2610    -1.9720 H     1 <1>   0.1500 
@<TRIPOS>BOND
  1   1   2  2   
  2   2   3  am  
  3   2   4  1   
  4   3   5  1   
  5   3   6  1   
  6   4   7  1   
  7   4  30  1   
  8   4  31  1   
  9   5   8  1   
 10   5  32  1   
 11   5  33  1   
 12   6   9  1   
 13   6  34  1   
 14   6  35  1   
 15   7  10  1   
 16   7  36  1   
 17   7  37  1   
 18   8   9  1   
 19   8  11  1   
 20   8  38  1   
 21   9  12  1   
 22   9  39  1   
 23  10  13  1   
 24  10  40  1   
 25  10  41  1   
 26  11  42  1   
 27  12  14  1   
 28  12  43  1   
 29  12  44  1   
 30  13  15  1   
 31  13  16  2   
 32  14  17  ar  
 33  14  18  ar  
 34  15  19  1   
 35  16  20  1   
 36  17  21  ar  
 37  18  22  ar  
 38  18  45  1   
 39  19  20  2   
 40  20  23  1   
 41  21  24  ar  
 42  21  46  1   
 43  22  24  ar  
 44  22  47  1   
 45  23  25  ar  
 46  23  26  ar  
 47  24  48  1   
 48  25  27  ar  
 49  25  49  1   
 50  26  28  ar  
 51  26  50  1   
 52  27  29  ar  
 53  28  29  ar  
 54  28  51  1   
 55  29  52  1   
@<TRIPOS>SUBSTRUCTURE
  1 ****   4 GROUP 4 **** **** 0

# MOE 2024.06 (io_trps.svl 2023.06)
