@<TRIPOS>MOLECULE
NONAME
39 40 1 0 0 
SMALL
USER_CHARGES


@<TRIPOS>ATOM
  1 I        0.9120     0.3670     0.6570 I     1 <1>  -0.0810 
  2 C        0.4670     2.3980     0.1830 C.ar  1 <1>   0.0810 
  3 C       -0.8280     2.8500     0.2140 C.ar  1 <1>   0.1600 
  4 C        1.4720     3.2680    -0.1540 C.ar  1 <1>   0.1600 
  5 N       -1.1100     4.1000    -0.0760 N.ar  1 <1>  -0.6200 
  6 N        1.2060     4.5210    -0.4470 N.ar  1 <1>  -0.6200 
  7 C       -0.0800     4.8880    -0.4020 C.ar  1 <1>   0.7200 
  8 N       -0.3730     6.1990    -0.7130 N.pl3 1 <1>  -0.8380 
  9 C       -1.5770     6.8920    -0.1500 C.3   1 <1>   0.2090 
 10 C        0.6700     7.1650    -1.1860 C.3   1 <1>   0.2090 
 11 C       -1.1720     7.8350     0.9960 C.3   1 <1>   0.1400 
 12 C        1.1000     8.0980    -0.0430 C.3   1 <1>   0.1400 
 13 N       -0.0870     8.7750     0.5700 N.am  1 <1>  -0.6600 
 14 C       -0.2360    10.1340     0.6420 C.2   1 <1>   0.7800 
 15 O       -1.2430    10.6470     1.0890 O.2   1 <1>  -0.5700 
 16 O        0.7750    10.8820     0.1930 O.3   1 <1>  -0.4300 
 17 C        0.8540    12.2900     0.1650 C.3   1 <1>   0.2800 
 18 C        2.2220    12.6010    -0.4420 C.3   1 <1>  -0.2400 
 19 C        0.7950    12.8530     1.5900 C.3   1 <1>  -0.2400 
 20 C       -0.2420    12.8670    -0.7390 C.3   1 <1>  -0.2400 
 21 H       -1.6330     2.1860     0.4760 H     1 <1>   0.1500 
 22 H        2.4950     2.9360    -0.1830 H     1 <1>   0.1500 
 23 H       -2.3040     6.1890     0.2150 H     1 <1>   0.0800 
 24 H       -2.0480     7.4650    -0.9280 H     1 <1>   0.0800 
 25 H        0.2610     7.7560    -1.9870 H     1 <1>   0.0800 
 26 H        1.5300     6.6510    -1.5780 H     1 <1>   0.0800 
 27 H       -0.8190     7.2470     1.8250 H     1 <1>   0.0800 
 28 H       -2.0390     8.3810     1.3250 H     1 <1>   0.0800 
 29 H        1.8010     8.8190    -0.4230 H     1 <1>   0.0800 
 30 H        1.6010     7.5160     0.7110 H     1 <1>   0.0800 
 31 H        3.0040    12.1820     0.1660 H     1 <1>   0.0800 
 32 H        2.3720    13.6630    -0.5030 H     1 <1>   0.0800 
 33 H        2.2920    12.1910    -1.4340 H     1 <1>   0.0800 
 34 H        1.5290    12.3740     2.2120 H     1 <1>   0.0800 
 35 H       -0.1790    12.7150     2.0220 H     1 <1>   0.0800 
 36 H        0.9960    13.9090     1.5760 H     1 <1>   0.0800 
 37 H       -0.2150    12.3970    -1.7050 H     1 <1>   0.0800 
 38 H       -0.0930    13.9230    -0.8680 H     1 <1>   0.0800 
 39 H       -1.2150    12.7280    -0.3060 H     1 <1>   0.0800 
@<TRIPOS>BOND
  1   1   2  1   
  2   2   3  ar  
  3   2   4  ar  
  4   3   5  ar  
  5   3  21  1   
  6   4   6  ar  
  7   4  22  1   
  8   5   7  ar  
  9   6   7  ar  
 10   7   8  1   
 11   8   9  1   
 12   8  10  1   
 13   9  11  1   
 14   9  23  1   
 15   9  24  1   
 16  10  12  1   
 17  10  25  1   
 18  10  26  1   
 19  11  13  1   
 20  11  27  1   
 21  11  28  1   
 22  12  13  1   
 23  12  29  1   
 24  12  30  1   
 25  13  14  am  
 26  14  15  2   
 27  14  16  1   
 28  16  17  1   
 29  17  18  1   
 30  17  19  1   
 31  17  20  1   
 32  18  31  1   
 33  18  32  1   
 34  18  33  1   
 35  19  34  1   
 36  19  35  1   
 37  19  36  1   
 38  20  37  1   
 39  20  38  1   
 40  20  39  1   
@<TRIPOS>SUBSTRUCTURE
  1 ****  12 GROUP 4 **** **** 0

# MOE 2024.06 (io_trps.svl 2023.06)
