@<TRIPOS>MOLECULE
NONAME
33 34 1 0 0 
SMALL
USER_CHARGES


@<TRIPOS>ATOM
  1 N       -0.4260    -0.7740     0.6970 N.ar  1 <1>  -0.6200 
  2 C       -0.0650    -1.9550     0.2580 C.ar  1 <1>   0.4100 
  3 C        0.5560     0.0690     0.9490 C.ar  1 <1>   0.4760 
  4 N       -1.0930    -2.8050     0.0020 N.pl3 1 <1>  -0.8690 
  5 C        1.2650    -2.2860     0.0830 C.ar  1 <1>  -0.1500 
  6 N        1.8550    -0.1320     0.8110 N.ar  1 <1>  -0.6200 
  7 C        0.1450     1.4330     1.4490 C.3   1 <1>  -0.0970 
  8 C       -1.1420    -3.6420    -1.2140 C.3   1 <1>   0.3890 
  9 C        2.1970    -1.3290     0.3760 C.ar  1 <1>   0.1600 
 10 C       -2.4840    -4.3480    -1.3010 C.2   1 <1>   0.0070 
 11 N       -3.4450    -3.9100    -2.0420 N.2   1 <1>  -0.3380 
 12 N       -2.8350    -5.4730    -0.6520 N.pl3 1 <1>   0.0480 
 13 N       -4.4700    -4.7470    -1.8970 N.2   1 <1>  -0.3380 
 14 C       -4.0880    -5.6580    -1.0740 C.2   1 <1>   0.0370 
 15 C       -2.1250    -6.3980     0.2760 C.3   1 <1>   0.1760 
 16 C       -1.5420    -5.6770     1.4960 C.3   1 <1>  -0.2400 
 17 C       -1.0510    -7.2000    -0.4680 C.3   1 <1>  -0.2400 
 18 H       -1.9980    -2.3500     0.1640 H     1 <1>   0.4000 
 19 H        1.5510    -3.2570    -0.2610 H     1 <1>   0.1500 
 20 H       -0.7540     1.3560     2.0320 H     1 <1>   0.0800 
 21 H       -0.0320     2.0780     0.6100 H     1 <1>   0.0800 
 22 H        0.9210     1.8530     2.0610 H     1 <1>   0.0800 
 23 H       -0.3430    -4.3580    -1.2020 H     1 <1>   0.0800 
 24 H       -1.0210    -3.0110    -2.0790 H     1 <1>   0.0800 
 25 H        3.2460    -1.5360     0.2560 H     1 <1>   0.1500 
 26 H       -4.7000    -6.4830    -0.7580 H     1 <1>   0.1500 
 27 H       -2.8600    -7.0960     0.6400 H     1 <1>   0.0800 
 28 H       -0.6760    -5.0990     1.2330 H     1 <1>   0.0800 
 29 H       -1.2410    -6.3980     2.2340 H     1 <1>   0.0800 
 30 H       -2.2790    -5.0290     1.9370 H     1 <1>   0.0800 
 31 H       -0.2580    -6.5640    -0.8140 H     1 <1>   0.0800 
 32 H       -1.4850    -7.7130    -1.3080 H     1 <1>   0.0800 
 33 H       -0.6250    -7.9360     0.1910 H     1 <1>   0.0800 
@<TRIPOS>BOND
  1   1   2  ar  
  2   1   3  ar  
  3   2   4  1   
  4   2   5  ar  
  5   3   6  ar  
  6   3   7  1   
  7   4   8  1   
  8   4  18  1   
  9   5   9  ar  
 10   5  19  1   
 11   6   9  ar  
 12   7  20  1   
 13   7  21  1   
 14   7  22  1   
 15   8  10  1   
 16   8  23  1   
 17   8  24  1   
 18   9  25  1   
 19  10  11  2   
 20  10  12  1   
 21  11  13  1   
 22  12  14  1   
 23  12  15  1   
 24  13  14  2   
 25  14  26  1   
 26  15  16  1   
 27  15  17  1   
 28  15  27  1   
 29  16  28  1   
 30  16  29  1   
 31  16  30  1   
 32  17  31  1   
 33  17  32  1   
 34  17  33  1   
@<TRIPOS>SUBSTRUCTURE
  1 ****   4 GROUP 4 **** **** 0

# MOE 2024.06 (io_trps.svl 2023.06)
