@<TRIPOS>MOLECULE
NONAME
44 46 1 0 0 
SMALL
USER_CHARGES


@<TRIPOS>ATOM
  1 F        0.2820    -0.2070    -0.2420 F     1 <1>  -0.3400 
  2 C        1.5290    -0.3230    -0.6790 C.3   1 <1>   0.8800 
  3 F        1.8080    -1.6180    -0.6440 F     1 <1>  -0.3400 
  4 O        2.3890     0.3320     0.2240 O.3   1 <1>  -0.3630 
  5 C        2.5000     1.6790     0.2510 C.ar  1 <1>   0.0830 
  6 C        3.4400     2.2110     1.1200 C.ar  1 <1>  -0.1500 
  7 C        1.7350     2.5450    -0.5270 C.ar  1 <1>  -0.1500 
  8 C        3.6210     3.5780     1.2100 C.ar  1 <1>  -0.1500 
  9 C        1.9270     3.9120    -0.4320 C.ar  1 <1>  -0.1500 
 10 C        2.8760     4.4650     0.4300 C.ar  1 <1>   0.0860 
 11 C        3.0500     5.9040     0.5200 C.2   1 <1>   0.5440 
 12 O        2.0630     6.6170     0.5360 O.2   1 <1>  -0.5700 
 13 N        4.2940     6.5020     0.5810 N.am  1 <1>  -0.6600 
 14 C        5.5300     5.8800     0.0120 C.3   1 <1>   0.1400 
 15 C        4.4380     7.8790     1.1320 C.3   1 <1>   0.1400 
 16 C        6.1460     6.7190    -1.1200 C.3   1 <1>   0.1400 
 17 C        4.4930     8.9010    -0.0070 C.3   1 <1>  -0.1600 
 18 N        6.7740     7.9730    -0.6040 N.am  1 <1>  -0.6600 
 19 C        5.9080     9.1850    -0.5310 C.3   1 <1>   0.1400 
 20 C        8.0630     7.9420    -0.0970 C.2   1 <1>   0.7150 
 21 O        8.5620     6.8530     0.1330 O.2   1 <1>  -0.5700 
 22 C        8.8180     9.1540     0.1470 C.2   1 <1>   0.0550 
 23 O        9.5570     9.2910     1.2450 O.3   1 <1>  -0.2800 
 24 C        8.9380    10.2950    -0.5910 C.2   1 <1>  -0.1500 
 25 C       10.1350    10.4700     1.2270 C.2   1 <1>  -0.0100 
 26 C        9.7900    11.1470     0.1110 C.2   1 <1>  -0.1500 
 27 H        1.6120     0.0430    -1.6870 H     1 <1>   0.0800 
 28 H        4.0240     1.5440     1.7300 H     1 <1>   0.1500 
 29 H        0.9800     2.1860    -1.2020 H     1 <1>   0.1500 
 30 H        4.3450     3.9740     1.9010 H     1 <1>   0.1500 
 31 H        1.3270     4.5790    -1.0270 H     1 <1>   0.1500 
 32 H        5.2970     4.9130    -0.3930 H     1 <1>   0.0800 
 33 H        6.2570     5.7400     0.7940 H     1 <1>   0.0800 
 34 H        5.3200     7.9390     1.7480 H     1 <1>   0.0800 
 35 H        3.5890     8.0960     1.7590 H     1 <1>   0.0800 
 36 H        5.3970     6.9500    -1.8570 H     1 <1>   0.0800 
 37 H        6.9050     6.1290    -1.6060 H     1 <1>   0.0800 
 38 H        4.0910     9.8300     0.3540 H     1 <1>   0.0800 
 39 H        3.8520     8.5830    -0.8100 H     1 <1>   0.0800 
 40 H        6.3590     9.9030     0.1320 H     1 <1>   0.0800 
 41 H        5.8440     9.6330    -1.5080 H     1 <1>   0.0800 
 42 H        8.4820    10.5150    -1.5400 H     1 <1>   0.1500 
 43 H       10.7770    10.7490     2.0450 H     1 <1>   0.1500 
 44 H       10.0960    12.1310    -0.1970 H     1 <1>   0.1500 
@<TRIPOS>BOND
  1   1   2  1   
  2   2   3  1   
  3   2   4  1   
  4   2  27  1   
  5   4   5  1   
  6   5   6  ar  
  7   5   7  ar  
  8   6   8  ar  
  9   6  28  1   
 10   7   9  ar  
 11   7  29  1   
 12   8  10  ar  
 13   8  30  1   
 14   9  10  ar  
 15   9  31  1   
 16  10  11  1   
 17  11  12  2   
 18  11  13  am  
 19  13  14  1   
 20  13  15  1   
 21  14  16  1   
 22  14  32  1   
 23  14  33  1   
 24  15  17  1   
 25  15  34  1   
 26  15  35  1   
 27  16  18  1   
 28  16  36  1   
 29  16  37  1   
 30  17  19  1   
 31  17  38  1   
 32  17  39  1   
 33  18  19  1   
 34  18  20  am  
 35  19  40  1   
 36  19  41  1   
 37  20  21  2   
 38  20  22  1   
 39  22  23  1   
 40  22  24  2   
 41  23  25  1   
 42  24  26  1   
 43  24  42  1   
 44  25  26  2   
 45  25  43  1   
 46  26  44  1   
@<TRIPOS>SUBSTRUCTURE
  1 ****  14 GROUP 4 **** **** 0

# MOE 2024.06 (io_trps.svl 2023.06)
