@<TRIPOS>MOLECULE
NONAME
50 52 1 0 0 
SMALL
USER_CHARGES


@<TRIPOS>ATOM
  1 S        0.9720     0.2040     3.0470 S.3   1 <1>  -0.4600 
  2 C       -0.4590     1.3320     2.9060 C.3   1 <1>   0.1310 
  3 C        0.4950    -1.2730     2.0860 C.3   1 <1>   0.0700 
  4 C       -0.2270     2.2980     1.7520 C.2   1 <1>   0.5690 
  5 C        0.3910    -0.9880     0.5740 C.3   1 <1>   0.3430 
  6 O       -0.5550     1.9200     0.6490 O.2   1 <1>  -0.5700 
  7 N        0.3710     3.5170     1.9470 N.am  1 <1>  -0.6600 
  8 N        1.5120    -0.1600     0.0320 N.4   1 <1>  -0.9590 
  9 C        0.4680     4.4970     0.8310 C.3   1 <1>   0.2840 
 10 C        0.9700     3.9630     3.2400 C.3   1 <1>   0.0600 
 11 C        1.4580    -0.0300    -1.4520 C.3   1 <1>   0.3430 
 12 C        2.8810    -0.5870     0.4250 C.3   1 <1>   0.3430 
 13 C        1.5980     4.1030    -0.1060 C.ar  1 <1>  -0.1440 
 14 C        2.8750    -0.2930    -1.9470 C.3   1 <1>  -0.1600 
 15 C        3.7640    -0.1350    -0.7210 C.3   1 <1>  -0.1600 
 16 C        1.2790     3.4860    -1.3250 C.ar  1 <1>   0.1600 
 17 C        2.9090     4.3260     0.1980 C.ar  1 <1>  -0.1500 
 18 N        2.1510     3.0980    -2.2070 N.ar  1 <1>  -0.6200 
 19 C        3.8890     3.9340    -0.7280 C.ar  1 <1>   0.0000 
 20 C        3.4590     3.3400    -1.9350 C.ar  1 <1>   0.3100 
 21 C        5.2690     4.1080    -0.5040 C.ar  1 <1>  -0.1500 
 22 C        4.4300     2.9730    -2.8820 C.ar  1 <1>  -0.1500 
 23 C        6.1890     3.7240    -1.4410 C.ar  1 <1>  -0.1500 
 24 C        5.7660     3.1540    -2.6460 C.ar  1 <1>  -0.1500 
 25 H       -0.5600     1.8490     3.8410 H     1 <1>   0.0800 
 26 H       -1.3350     0.7360     2.7330 H     1 <1>   0.0800 
 27 H       -0.4470    -1.6200     2.4740 H     1 <1>   0.0800 
 28 H        1.2420    -2.0220     2.2800 H     1 <1>   0.0800 
 29 H       -0.5380    -0.4740     0.3850 H     1 <1>   0.0800 
 30 H        0.3530    -1.9280     0.0500 H     1 <1>   0.0800 
 31 H        1.3690     0.7970     0.4000 H     1 <1>   0.4500 
 32 H        0.6460     5.4840     1.2220 H     1 <1>   0.0800 
 33 H       -0.4660     4.5230     0.2960 H     1 <1>   0.0800 
 34 H        1.2880     3.1210     3.8290 H     1 <1>   0.0800 
 35 H        0.2470     4.5340     3.7980 H     1 <1>   0.0800 
 36 H        1.8320     4.5800     3.0570 H     1 <1>   0.0800 
 37 H        1.1460     0.9650    -1.7200 H     1 <1>   0.0800 
 38 H        0.7720    -0.7390    -1.8860 H     1 <1>   0.0800 
 39 H        2.9200    -1.6610     0.5020 H     1 <1>   0.0800 
 40 H        3.1800    -0.1460     1.3630 H     1 <1>   0.0800 
 41 H        3.1440     0.3830    -2.7390 H     1 <1>   0.0800 
 42 H        2.9340    -1.3000    -2.3220 H     1 <1>   0.0800 
 43 H        4.6660    -0.7180    -0.7870 H     1 <1>   0.0800 
 44 H        4.0270     0.8990    -0.5760 H     1 <1>   0.0800 
 45 H        0.2370     3.3160    -1.5430 H     1 <1>   0.1500 
 46 H        3.2130     4.7930     1.1170 H     1 <1>   0.1500 
 47 H        5.5900     4.5560     0.4200 H     1 <1>   0.1500 
 48 H        4.0870     2.5450    -3.8060 H     1 <1>   0.1500 
 49 H        7.2440     3.8610    -1.2690 H     1 <1>   0.1500 
 50 H        6.5020     2.8670    -3.3790 H     1 <1>   0.1500 
@<TRIPOS>BOND
  1   1   2  1   
  2   1   3  1   
  3   2   4  1   
  4   2  25  1   
  5   2  26  1   
  6   3   5  1   
  7   3  27  1   
  8   3  28  1   
  9   4   6  2   
 10   4   7  am  
 11   5   8  1   
 12   5  29  1   
 13   5  30  1   
 14   7   9  1   
 15   7  10  1   
 16   8  11  1   
 17   8  12  1   
 18   8  31  1   
 19   9  13  1   
 20   9  32  1   
 21   9  33  1   
 22  10  34  1   
 23  10  35  1   
 24  10  36  1   
 25  11  14  1   
 26  11  37  1   
 27  11  38  1   
 28  12  15  1   
 29  12  39  1   
 30  12  40  1   
 31  13  16  ar  
 32  13  17  ar  
 33  14  15  1   
 34  14  41  1   
 35  14  42  1   
 36  15  43  1   
 37  15  44  1   
 38  16  18  ar  
 39  16  45  1   
 40  17  19  ar  
 41  17  46  1   
 42  18  20  ar  
 43  19  20  ar  
 44  19  21  ar  
 45  20  22  ar  
 46  21  23  ar  
 47  21  47  1   
 48  22  24  ar  
 49  22  48  1   
 50  23  24  ar  
 51  23  49  1   
 52  24  50  1   
@<TRIPOS>SUBSTRUCTURE
  1 ****  13 GROUP 4 **** **** 0

# MOE 2024.06 (io_trps.svl 2023.06)
