@<TRIPOS>MOLECULE
NONAME
55 58 1 0 0 
SMALL
USER_CHARGES


@<TRIPOS>ATOM
  1 CL      -5.5220    -4.2120    -0.0880 Cl    1 <1>  -0.1770 
  2 C       -5.6500    -2.5070     0.2380 C.ar  1 <1>   0.1770 
  3 C       -5.3350    -1.5990    -0.7560 C.ar  1 <1>  -0.1500 
  4 C       -6.1140    -2.0890     1.4710 C.ar  1 <1>  -0.1500 
  5 C       -5.5560    -0.2510    -0.5310 C.ar  1 <1>  -0.1500 
  6 C       -6.3320    -0.7390     1.6840 C.ar  1 <1>  -0.1500 
  7 C       -6.1040     0.1930     0.6720 C.ar  1 <1>   0.0540 
  8 C       -6.5050     1.5680     0.8550 C.2   1 <1>   0.2350 
  9 N       -5.9230     2.3950     1.6740 N.2   1 <1>  -0.7070 
 10 C       -7.6030     2.1710     0.2290 C.2   1 <1>  -0.1810 
 11 N       -6.6060     3.5470     1.5710 N.pl3 1 <1>   0.3000 
 12 C       -7.6360     3.4320     0.7070 C.2   1 <1>  -0.3020 
 13 C       -8.5390     1.5020    -0.7570 C.3   1 <1>   0.5240 
 14 N       -9.0490     0.2720    -0.0950 N.4   1 <1>  -0.9590 
 15 C       -8.8150    -0.9640    -0.9220 C.3   1 <1>   0.3430 
 16 C      -10.4740     0.3960     0.3170 C.3   1 <1>   0.3430 
 17 C       -9.2000    -2.2650    -0.1560 C.3   1 <1>   0.4230 
 18 C      -10.8590    -0.8430     1.1400 C.3   1 <1>  -0.1600 
 19 N       -8.8660    -3.5770    -0.8620 N.4   1 <1>  -0.9590 
 20 C      -10.6500    -2.2020     0.4090 C.3   1 <1>   0.0000 
 21 C       -9.5480    -4.7740    -0.2640 C.3   1 <1>   0.3430 
 22 C       -9.0930    -3.5760    -2.3470 C.3   1 <1>   0.2630 
 23 C      -10.8180    -3.3490     1.4470 C.3   1 <1>  -0.1600 
 24 C      -11.7490    -2.3700    -0.6800 C.3   1 <1>   0.1200 
 25 C       -9.8710    -4.5470     1.2140 C.3   1 <1>  -0.1600 
 26 O      -11.5390    -1.5150    -1.7520 O.3   1 <1>  -0.6800 
 27 H       -4.9180    -1.9430    -1.6880 H     1 <1>   0.1500 
 28 H       -6.2930    -2.8080     2.2530 H     1 <1>   0.1500 
 29 H       -5.3030     0.4710    -1.2910 H     1 <1>   0.1500 
 30 H       -6.6760    -0.3920     2.6460 H     1 <1>   0.1500 
 31 H       -6.3470     4.3880     2.1060 H     1 <1>   0.2700 
 32 H       -8.3060     4.2500     0.5010 H     1 <1>   0.1500 
 33 H       -7.9940     1.2570    -1.6540 H     1 <1>   0.0800 
 34 H       -9.3480     2.1670    -1.0140 H     1 <1>   0.0800 
 35 H       -8.4870     0.2210     0.7680 H     1 <1>   0.4500 
 36 H       -9.3930    -0.8950    -1.8280 H     1 <1>   0.0800 
 37 H       -7.7770    -1.0200    -1.1940 H     1 <1>   0.0800 
 38 H      -10.6120     1.2840     0.9150 H     1 <1>   0.0800 
 39 H      -11.1080     0.4730    -0.5530 H     1 <1>   0.0800 
 40 H       -8.5750    -2.2520     0.7200 H     1 <1>   0.0800 
 41 H      -10.2820    -0.8150     2.0490 H     1 <1>   0.0800 
 42 H      -11.8910    -0.7470     1.4330 H     1 <1>   0.0800 
 43 H       -7.8560    -3.7500    -0.7140 H     1 <1>   0.4500 
 44 H      -10.4700    -4.9710    -0.7880 H     1 <1>   0.0800 
 45 H       -8.9200    -5.6450    -0.3700 H     1 <1>   0.0800 
 46 H      -10.1300    -3.3870    -2.5720 H     1 <1>   0.0800 
 47 H       -8.8220    -4.5320    -2.7660 H     1 <1>   0.0800 
 48 H       -8.4930    -2.8190    -2.8260 H     1 <1>   0.0800 
 49 H      -10.6370    -2.9950     2.4490 H     1 <1>   0.0800 
 50 H      -11.8370    -3.7000     1.4410 H     1 <1>   0.0800 
 51 H      -12.7210    -2.1520    -0.2670 H     1 <1>   0.0800 
 52 H      -11.7740    -3.3740    -1.0650 H     1 <1>   0.0800 
 53 H      -10.3260    -5.4370     1.6140 H     1 <1>   0.0800 
 54 H       -8.9500    -4.4030     1.7530 H     1 <1>   0.0800 
 55 H      -12.3290    -1.5110    -2.3420 H     1 <1>   0.4000 
@<TRIPOS>BOND
  1   1   2  1   
  2   2   3  ar  
  3   2   4  ar  
  4   3   5  ar  
  5   3  27  1   
  6   4   6  ar  
  7   4  28  1   
  8   5   7  ar  
  9   5  29  1   
 10   6   7  ar  
 11   6  30  1   
 12   7   8  1   
 13   8   9  2   
 14   8  10  1   
 15   9  11  1   
 16  10  12  2   
 17  10  13  1   
 18  11  12  1   
 19  11  31  1   
 20  12  32  1   
 21  13  14  1   
 22  13  33  1   
 23  13  34  1   
 24  14  15  1   
 25  14  16  1   
 26  14  35  1   
 27  15  17  1   
 28  15  36  1   
 29  15  37  1   
 30  16  18  1   
 31  16  38  1   
 32  16  39  1   
 33  17  19  1   
 34  17  20  1   
 35  17  40  1   
 36  18  20  1   
 37  18  41  1   
 38  18  42  1   
 39  19  21  1   
 40  19  22  1   
 41  19  43  1   
 42  20  23  1   
 43  20  24  1   
 44  21  25  1   
 45  21  44  1   
 46  21  45  1   
 47  22  46  1   
 48  22  47  1   
 49  22  48  1   
 50  23  25  1   
 51  23  49  1   
 52  23  50  1   
 53  24  26  1   
 54  24  51  1   
 55  24  52  1   
 56  25  53  1   
 57  25  54  1   
 58  26  55  1   
@<TRIPOS>SUBSTRUCTURE
  1 ****  15 GROUP 4 **** **** 0

# MOE 2024.06 (io_trps.svl 2023.06)
