@<TRIPOS>MOLECULE
NONAME
54 56 1 0 0 
SMALL
USER_CHARGES


@<TRIPOS>ATOM
  1 O        0.5800     0.3750    -1.8320 O.3   1 <1>  -0.5600 
  2 C        1.8130    -0.2230    -1.5080 C.3   1 <1>   0.2000 
  3 C        0.5710     1.7660    -1.9370 C.3   1 <1>   0.1200 
  4 C        2.4740     0.4190    -0.2450 C.3   1 <1>   0.5660 
  5 C        1.5030    -1.7160    -1.3020 C.3   1 <1>   0.1200 
  6 C        0.9240     2.3770    -0.5750 C.3   1 <1>   0.3430 
  7 N        2.2630     1.8980    -0.1170 N.4   1 <1>  -0.9590 
  8 C        3.9910     0.2470    -0.2420 C.ar  1 <1>  -0.1440 
  9 O        2.5320    -2.3610    -0.6310 O.3   1 <1>  -0.6800 
 10 C        2.6230     2.4030     1.2300 C.3   1 <1>   0.4870 
 11 C        4.5970    -0.4720     0.7790 C.ar  1 <1>  -0.1500 
 12 C        4.7880     0.8250    -1.2270 C.ar  1 <1>  -0.1500 
 13 C        2.9830     3.8620     1.0580 C.ar  1 <1>  -0.1440 
 14 C        5.9740    -0.6010     0.8260 C.ar  1 <1>  -0.1500 
 15 C        6.1650     0.7000    -1.1740 C.ar  1 <1>  -0.1500 
 16 C        4.1040     4.1950     0.3140 C.ar  1 <1>  -0.1500 
 17 C        2.2110     4.8700     1.6130 C.ar  1 <1>  -0.1500 
 18 C        6.7580    -0.0110    -0.1480 C.ar  1 <1>  -0.1500 
 19 C        4.4530     5.5190     0.0960 C.ar  1 <1>  -0.1440 
 20 C        2.5530     6.1950     1.4110 C.ar  1 <1>  -0.1500 
 21 C        3.6700     6.5280     0.6480 C.ar  1 <1>   0.0820 
 22 C        5.6690     5.8910    -0.7560 C.3   1 <1>   0.2640 
 23 O        4.0420     7.8120     0.4070 O.3   1 <1>  -0.3630 
 24 O        6.5330     4.8010    -0.9170 O.3   1 <1>  -0.5600 
 25 C        3.3580     8.9080     0.9740 C.3   1 <1>   0.0400 
 26 C        7.4290     4.6190     0.1350 C.3   1 <1>   0.0400 
 27 H        2.4580    -0.1140    -2.3610 H     1 <1>   0.0800 
 28 H        1.2650     2.0700    -2.7020 H     1 <1>   0.0800 
 29 H       -0.4210     2.0650    -2.2310 H     1 <1>   0.0800 
 30 H        2.0630    -0.0770     0.6190 H     1 <1>   0.0800 
 31 H        1.3420    -2.2110    -2.2440 H     1 <1>   0.0800 
 32 H        0.6200    -1.8220    -0.6950 H     1 <1>   0.0800 
 33 H        0.1650     2.0950     0.1360 H     1 <1>   0.0800 
 34 H        0.9270     3.4530    -0.6530 H     1 <1>   0.0800 
 35 H        2.9660     2.3180    -0.7340 H     1 <1>   0.4500 
 36 H        3.1960    -2.7270    -1.2540 H     1 <1>   0.4000 
 37 H        1.8030     2.2840     1.9180 H     1 <1>   0.0800 
 38 H        3.4830     1.8760     1.6150 H     1 <1>   0.0800 
 39 H        4.0060    -0.9490     1.5440 H     1 <1>   0.1500 
 40 H        4.3640     1.3790    -2.0460 H     1 <1>   0.1500 
 41 H        6.4380    -1.1620     1.6190 H     1 <1>   0.1500 
 42 H        6.7800     1.1570    -1.9330 H     1 <1>   0.1500 
 43 H        4.7230     3.4200    -0.1050 H     1 <1>   0.1500 
 44 H        1.3410     4.6410     2.2070 H     1 <1>   0.1500 
 45 H        7.8300    -0.1090    -0.1100 H     1 <1>   0.1500 
 46 H        1.9380     6.9570     1.8530 H     1 <1>   0.1500 
 47 H        6.2150     6.7130    -0.3230 H     1 <1>   0.0800 
 48 H        5.3380     6.1860    -1.7350 H     1 <1>   0.0800 
 49 H        3.8530     9.8090     0.6590 H     1 <1>   0.0800 
 50 H        3.3950     8.8280     2.0460 H     1 <1>   0.0800 
 51 H        2.3420     8.9090     0.6210 H     1 <1>   0.0800 
 52 H        8.0010     3.7290    -0.0600 H     1 <1>   0.0800 
 53 H        6.8850     4.5070     1.0570 H     1 <1>   0.0800 
 54 H        8.0880     5.4680     0.1890 H     1 <1>   0.0800 
@<TRIPOS>BOND
  1   1   2  1   
  2   1   3  1   
  3   2   4  1   
  4   2   5  1   
  5   2  27  1   
  6   3   6  1   
  7   3  28  1   
  8   3  29  1   
  9   4   7  1   
 10   4   8  1   
 11   4  30  1   
 12   5   9  1   
 13   5  31  1   
 14   5  32  1   
 15   6   7  1   
 16   6  33  1   
 17   6  34  1   
 18   7  10  1   
 19   7  35  1   
 20   8  11  ar  
 21   8  12  ar  
 22   9  36  1   
 23  10  13  1   
 24  10  37  1   
 25  10  38  1   
 26  11  14  ar  
 27  11  39  1   
 28  12  15  ar  
 29  12  40  1   
 30  13  16  ar  
 31  13  17  ar  
 32  14  18  ar  
 33  14  41  1   
 34  15  18  ar  
 35  15  42  1   
 36  16  19  ar  
 37  16  43  1   
 38  17  20  ar  
 39  17  44  1   
 40  18  45  1   
 41  19  21  ar  
 42  19  22  1   
 43  20  21  ar  
 44  20  46  1   
 45  21  23  1   
 46  22  24  1   
 47  22  47  1   
 48  22  48  1   
 49  23  25  1   
 50  24  26  1   
 51  25  49  1   
 52  25  50  1   
 53  25  51  1   
 54  26  52  1   
 55  26  53  1   
 56  26  54  1   
@<TRIPOS>SUBSTRUCTURE
  1 ****   7 GROUP 4 **** **** 0

# MOE 2024.06 (io_trps.svl 2023.06)
