@<TRIPOS>MOLECULE
NONAME
50 53 1 0 0 
SMALL
USER_CHARGES


@<TRIPOS>ATOM
  1 S       -1.1750    -2.6940     0.4150 S.3   1 <1>  -0.0800 
  2 C       -1.6640    -1.0880    -0.1460 C.2   1 <1>   0.0410 
  3 C        0.4550    -2.5000    -0.2010 C.2   1 <1>  -0.1100 
  4 C       -2.9990    -0.5780     0.0730 C.2   1 <1>   0.2880 
  5 C       -0.5950    -0.5060    -0.7450 C.2   1 <1>  -0.1500 
  6 C        0.5930    -1.2950    -0.7800 C.2   1 <1>  -0.1500 
  7 N       -3.2600     0.6930    -0.0780 N.2   1 <1>  -0.7070 
  8 C       -4.1650    -1.2670     0.4450 C.2   1 <1>  -0.1810 
  9 N       -4.5630     0.8730     0.2170 N.pl3 1 <1>   0.5930 
 10 C       -5.1240    -0.3190     0.5320 C.2   1 <1>  -0.3020 
 11 C       -4.2590    -2.7640     0.6750 C.3   1 <1>   0.5240 
 12 C       -5.2270     2.1300     0.1470 C.ar  1 <1>  -0.0230 
 13 N       -5.6760    -3.2030     0.6180 N.4   1 <1>  -0.9590 
 14 C       -6.2100     2.4780     1.0710 C.ar  1 <1>  -0.1500 
 15 C       -4.9100     3.0410    -0.8580 C.ar  1 <1>  -0.1500 
 16 C       -5.8330    -4.5930     1.1950 C.3   1 <1>   0.3430 
 17 C       -6.2100    -3.1060    -0.7730 C.3   1 <1>   0.3430 
 18 C       -6.8650     3.6940     0.9840 C.ar  1 <1>  -0.1500 
 19 C       -5.5640     4.2570    -0.9460 C.ar  1 <1>  -0.1500 
 20 C       -7.0120    -5.4000     0.5950 C.3   1 <1>   0.2000 
 21 C       -7.7220    -3.3660    -0.7660 C.3   1 <1>  -0.1600 
 22 C       -6.5440     4.5830    -0.0260 C.ar  1 <1>  -0.1500 
 23 O       -6.5600    -6.0320    -0.5580 O.3   1 <1>  -0.6800 
 24 C       -8.1750    -4.4560     0.2400 C.3   1 <1>  -0.0800 
 25 C       -9.4230    -5.2100    -0.2430 C.3   1 <1>   0.1200 
 26 O      -10.4400    -4.2890    -0.4130 O.3   1 <1>  -0.6800 
 27 H        1.1450    -3.3140    -0.0620 H     1 <1>   0.1500 
 28 H       -0.6130     0.4840    -1.1670 H     1 <1>   0.1500 
 29 H        1.4940    -0.9210    -1.2360 H     1 <1>   0.1500 
 30 H       -6.1660    -0.3830     0.7830 H     1 <1>   0.1500 
 31 H       -3.8360    -2.9960     1.6380 H     1 <1>   0.0800 
 32 H       -3.6930    -3.2850    -0.0800 H     1 <1>   0.0800 
 33 H       -6.2140    -2.5430     1.1880 H     1 <1>   0.4500 
 34 H       -6.4670     1.8060     1.8710 H     1 <1>   0.1500 
 35 H       -4.1430     2.7980    -1.5750 H     1 <1>   0.1500 
 36 H       -4.9340    -5.1650     1.0380 H     1 <1>   0.0800 
 37 H       -5.9840    -4.5070     2.2580 H     1 <1>   0.0800 
 38 H       -6.0100    -2.1350    -1.1960 H     1 <1>   0.0800 
 39 H       -5.7280    -3.8490    -1.3900 H     1 <1>   0.0800 
 40 H       -7.6240     3.9530     1.7020 H     1 <1>   0.1500 
 41 H       -5.3090     4.9500    -1.7290 H     1 <1>   0.1500 
 42 H       -7.3200    -6.1650     1.2890 H     1 <1>   0.0800 
 43 H       -8.2480    -2.4500    -0.5590 H     1 <1>   0.0800 
 44 H       -7.9970    -3.6570    -1.7650 H     1 <1>   0.0800 
 45 H       -7.0540     5.5290    -0.0950 H     1 <1>   0.1500 
 46 H       -7.2130    -6.6820    -0.8920 H     1 <1>   0.4000 
 47 H       -8.4550    -3.9650     1.1570 H     1 <1>   0.0800 
 48 H       -9.7470    -5.9350     0.4850 H     1 <1>   0.0800 
 49 H       -9.2500    -5.6970    -1.1880 H     1 <1>   0.0800 
 50 H      -11.2680    -4.7230    -0.7080 H     1 <1>   0.4000 
@<TRIPOS>BOND
  1   1   2  1   
  2   1   3  1   
  3   2   4  1   
  4   2   5  2   
  5   3   6  2   
  6   3  27  1   
  7   4   7  2   
  8   4   8  1   
  9   5   6  1   
 10   5  28  1   
 11   6  29  1   
 12   7   9  1   
 13   8  10  2   
 14   8  11  1   
 15   9  10  1   
 16   9  12  1   
 17  10  30  1   
 18  11  13  1   
 19  11  31  1   
 20  11  32  1   
 21  12  14  ar  
 22  12  15  ar  
 23  13  16  1   
 24  13  17  1   
 25  13  33  1   
 26  14  18  ar  
 27  14  34  1   
 28  15  19  ar  
 29  15  35  1   
 30  16  20  1   
 31  16  36  1   
 32  16  37  1   
 33  17  21  1   
 34  17  38  1   
 35  17  39  1   
 36  18  22  ar  
 37  18  40  1   
 38  19  22  ar  
 39  19  41  1   
 40  20  23  1   
 41  20  24  1   
 42  20  42  1   
 43  21  24  1   
 44  21  43  1   
 45  21  44  1   
 46  22  45  1   
 47  23  46  1   
 48  24  25  1   
 49  24  47  1   
 50  25  26  1   
 51  25  48  1   
 52  25  49  1   
 53  26  50  1   
@<TRIPOS>SUBSTRUCTURE
  1 ****   8 GROUP 4 **** **** 0

# MOE 2024.06 (io_trps.svl 2023.06)
