@<TRIPOS>MOLECULE
NONAME
43 45 1 0 0 
SMALL
USER_CHARGES


@<TRIPOS>ATOM
  1 S        2.4490    -0.6650     2.7070 S.3   1 <1>  -0.0800 
  2 C        1.3670    -1.6330     1.7010 C.2   1 <1>  -0.0450 
  3 C        2.8600     0.3960     1.3770 C.2   1 <1>  -0.1100 
  4 C        1.3790    -1.1230     0.4390 C.2   1 <1>  -0.1810 
  5 C        0.6820    -2.7440     2.3130 C.2   1 <1>   0.7150 
  6 C        2.2110     0.0180     0.2620 C.2   1 <1>  -0.1810 
  7 C        0.6490    -1.6490    -0.7860 C.3   1 <1>   0.0210 
  8 O        1.2890    -3.5300     3.0180 O.2   1 <1>  -0.5700 
  9 N       -0.6610    -2.9610     2.1130 N.am  1 <1>  -0.6600 
 10 C        2.2810     0.6500    -1.1150 C.3   1 <1>   0.0210 
 11 C        1.6230    -1.7190    -1.9730 C.3   1 <1>  -0.1600 
 12 C       -1.1670    -4.3610     2.0110 C.3   1 <1>   0.3210 
 13 C       -1.6120    -1.8780     1.7000 C.3   1 <1>   0.1400 
 14 C        2.4570    -0.4320    -2.1960 C.3   1 <1>  -0.1600 
 15 C       -1.2680    -4.7790     0.5490 C.2   1 <1>   0.0460 
 16 C       -2.7940    -1.7590     2.6700 C.3   1 <1>   0.1200 
 17 N       -2.3830    -4.5320    -0.1720 N.2   1 <1>  -0.5650 
 18 C       -0.3340    -5.4040    -0.2080 C.2   1 <1>  -0.3320 
 19 O       -2.3180    -1.6930     3.9690 O.3   1 <1>  -0.6800 
 20 C       -2.1100    -5.0160    -1.3390 C.2   1 <1>   0.0360 
 21 N       -0.8800    -5.5620    -1.4270 N.pl3 1 <1>   0.0330 
 22 C        1.0730    -5.8640     0.1350 C.3   1 <1>  -0.0600 
 23 H        3.5520     1.1950     1.5730 H     1 <1>   0.1500 
 24 H       -0.1630    -0.9860    -1.0240 H     1 <1>   0.0800 
 25 H        0.2390    -2.6240    -0.5950 H     1 <1>   0.0800 
 26 H        3.0880     1.3600    -1.1620 H     1 <1>   0.0800 
 27 H        1.3610     1.1800    -1.2910 H     1 <1>   0.0800 
 28 H        1.0760    -1.9580    -2.8680 H     1 <1>   0.0800 
 29 H        2.3040    -2.5320    -1.7870 H     1 <1>   0.0800 
 30 H       -2.1330    -4.4450     2.4750 H     1 <1>   0.0800 
 31 H       -0.5060    -5.0370     2.5240 H     1 <1>   0.0800 
 32 H       -1.9820    -2.0760     0.7090 H     1 <1>   0.0800 
 33 H       -1.1080    -0.9280     1.6740 H     1 <1>   0.0800 
 34 H        3.4970    -0.7100    -2.2240 H     1 <1>   0.0800 
 35 H        2.2160    -0.0070    -3.1550 H     1 <1>   0.0800 
 36 H       -3.4410    -2.6150     2.5870 H     1 <1>   0.0800 
 37 H       -3.3670    -0.8700     2.4730 H     1 <1>   0.0800 
 38 H       -1.5410    -2.2870     4.0490 H     1 <1>   0.4000 
 39 H       -2.7880    -4.9980    -2.1750 H     1 <1>   0.1500 
 40 H       -0.4580    -6.0040    -2.2490 H     1 <1>   0.2700 
 41 H        1.3150    -5.6260     1.1560 H     1 <1>   0.0800 
 42 H        1.7890    -5.3730    -0.5000 H     1 <1>   0.0800 
 43 H        1.1600    -6.9280     0.0050 H     1 <1>   0.0800 
@<TRIPOS>BOND
  1   1   2  1   
  2   1   3  1   
  3   2   4  2   
  4   2   5  1   
  5   3   6  2   
  6   3  23  1   
  7   4   6  1   
  8   4   7  1   
  9   5   8  2   
 10   5   9  am  
 11   6  10  1   
 12   7  11  1   
 13   7  24  1   
 14   7  25  1   
 15   9  12  1   
 16   9  13  1   
 17  10  14  1   
 18  10  26  1   
 19  10  27  1   
 20  11  14  1   
 21  11  28  1   
 22  11  29  1   
 23  12  15  1   
 24  12  30  1   
 25  12  31  1   
 26  13  16  1   
 27  13  32  1   
 28  13  33  1   
 29  14  34  1   
 30  14  35  1   
 31  15  17  1   
 32  15  18  2   
 33  16  19  1   
 34  16  36  1   
 35  16  37  1   
 36  17  20  2   
 37  18  21  1   
 38  18  22  1   
 39  19  38  1   
 40  20  21  1   
 41  20  39  1   
 42  21  40  1   
 43  22  41  1   
 44  22  42  1   
 45  22  43  1   
@<TRIPOS>SUBSTRUCTURE
  1 ****   5 GROUP 4 **** **** 0

# MOE 2024.06 (io_trps.svl 2023.06)
