@<TRIPOS>MOLECULE
NONAME
59 62 1 0 0 
SMALL
USER_CHARGES


@<TRIPOS>ATOM
  1 O       -0.5660     0.2670    -0.2480 O.2   1 <1>  -0.5700 
  2 C       -1.3260     1.1760    -0.4870 C.2   1 <1>   0.6300 
  3 N       -2.6840     1.0390    -0.3090 N.am  1 <1>  -0.6600 
  4 C       -0.7250     2.4680    -1.0410 C.3   1 <1>  -0.1000 
  5 C       -3.2450    -0.2310     0.2500 C.3   1 <1>   0.1400 
  6 C       -3.6880     2.0490    -0.7500 C.3   1 <1>   0.1400 
  7 C        0.4190     3.1870    -0.3830 C.3   1 <1>  -0.1520 
  8 C       -0.9260     3.8190    -0.3810 C.3   1 <1>  -0.2000 
  9 C       -4.1520     0.0010     1.4680 C.3   1 <1>   0.1400 
 10 C       -4.2670     2.7740     0.4690 C.3   1 <1>  -0.1600 
 11 C        1.2790     2.6260     0.7770 C.3   1 <1>   0.0760 
 12 C        1.7250     3.4300    -1.1740 C.3   1 <1>   0.0760 
 13 N       -5.4600     0.6090     1.0690 N.am  1 <1>  -0.6600 
 14 C       -5.5120     2.1040     1.0680 C.3   1 <1>   0.1400 
 15 C        2.3420     2.2940    -0.3090 C.3   1 <1>   0.0000 
 16 C       -6.5880    -0.1130     0.7660 C.2   1 <1>   0.5690 
 17 O       -7.6260     0.4250     0.4580 O.2   1 <1>  -0.5700 
 18 C       -6.5760    -1.6410     0.8090 C.3   1 <1>  -0.0990 
 19 C       -7.9090    -2.2730     0.3520 C.3   1 <1>  -0.1600 
 20 C       -7.8810    -3.8000     0.4030 C.3   1 <1>   0.3430 
 21 N       -9.2250    -4.3390     0.0600 N.4   1 <1>  -0.9590 
 22 C       -9.3470    -5.7990     0.2930 C.3   1 <1>   0.3430 
 23 C       -9.6300    -4.1180    -1.3520 C.3   1 <1>   0.3430 
 24 C      -10.5680    -6.2090    -0.5190 C.3   1 <1>  -0.1600 
 25 C      -10.7450    -5.1270    -1.5890 C.3   1 <1>  -0.1600 
 26 H       -0.7260     2.4470    -2.1150 H     1 <1>   0.1000 
 27 H       -2.4430    -0.8780     0.5600 H     1 <1>   0.0800 
 28 H       -3.7900    -0.7440    -0.5200 H     1 <1>   0.0800 
 29 H       -4.4730     1.5660    -1.3070 H     1 <1>   0.0800 
 30 H       -3.2290     2.7660    -1.4060 H     1 <1>   0.0800 
 31 H       -1.4400     3.8790     0.5610 H     1 <1>   0.1000 
 32 H       -1.0830     4.6860    -0.9980 H     1 <1>   0.1000 
 33 H       -3.6470     0.6340     2.1770 H     1 <1>   0.0800 
 34 H       -4.3220    -0.9400     1.9570 H     1 <1>   0.0800 
 35 H       -4.5520     3.7670     0.1710 H     1 <1>   0.0800 
 36 H       -3.5120     2.8830     1.2270 H     1 <1>   0.0800 
 37 H        0.8710     1.7730     1.2860 H     1 <1>   0.0000 
 38 H        1.6110     3.4000     1.4480 H     1 <1>   0.0000 
 39 H        2.1610     4.3920    -0.9640 H     1 <1>   0.0000 
 40 H        1.6620     3.2040    -2.2230 H     1 <1>   0.0000 
 41 H       -6.3660     2.4300     0.4970 H     1 <1>   0.0800 
 42 H       -5.6550     2.4500     2.0770 H     1 <1>   0.0800 
 43 H        2.2010     1.3180    -0.7430 H     1 <1>   0.0000 
 44 H        3.3540     2.4830     0.0010 H     1 <1>   0.0000 
 45 H       -6.3710    -1.9430     1.8200 H     1 <1>   0.0800 
 46 H       -5.7810    -1.9910     0.1760 H     1 <1>   0.0800 
 47 H       -8.1090    -1.9420    -0.6530 H     1 <1>   0.0800 
 48 H       -8.6940    -1.9100     0.9930 H     1 <1>   0.0800 
 49 H       -7.6100    -4.1140     1.3980 H     1 <1>   0.0800 
 50 H       -7.1420    -4.1790    -0.2860 H     1 <1>   0.0800 
 51 H       -9.9270    -3.8730     0.6520 H     1 <1>   0.4500 
 52 H       -9.4670    -6.0300     1.3390 H     1 <1>   0.0800 
 53 H       -8.4760    -6.3050    -0.0910 H     1 <1>   0.0800 
 54 H       -8.8030    -4.3350    -2.0080 H     1 <1>   0.0800 
 55 H       -9.9650    -3.1060    -1.5180 H     1 <1>   0.0800 
 56 H      -11.4340    -6.2500     0.1200 H     1 <1>   0.0800 
 57 H      -10.4210    -7.1830    -0.9540 H     1 <1>   0.0800 
 58 H      -10.6780    -5.5330    -2.5840 H     1 <1>   0.0800 
 59 H      -11.7020    -4.6450    -1.4820 H     1 <1>   0.0800 
@<TRIPOS>BOND
  1   1   2  2   
  2   2   3  am  
  3   2   4  1   
  4   3   5  1   
  5   3   6  1   
  6   4   7  1   
  7   4   8  1   
  8   4  26  1   
  9   5   9  1   
 10   5  27  1   
 11   5  28  1   
 12   6  10  1   
 13   6  29  1   
 14   6  30  1   
 15   7   8  1   
 16   7  11  1   
 17   7  12  1   
 18   8  31  1   
 19   8  32  1   
 20   9  13  1   
 21   9  33  1   
 22   9  34  1   
 23  10  14  1   
 24  10  35  1   
 25  10  36  1   
 26  11  15  1   
 27  11  37  1   
 28  11  38  1   
 29  12  15  1   
 30  12  39  1   
 31  12  40  1   
 32  13  14  1   
 33  13  16  am  
 34  14  41  1   
 35  14  42  1   
 36  15  43  1   
 37  15  44  1   
 38  16  17  2   
 39  16  18  1   
 40  18  19  1   
 41  18  45  1   
 42  18  46  1   
 43  19  20  1   
 44  19  47  1   
 45  19  48  1   
 46  20  21  1   
 47  20  49  1   
 48  20  50  1   
 49  21  22  1   
 50  21  23  1   
 51  21  51  1   
 52  22  24  1   
 53  22  52  1   
 54  22  53  1   
 55  23  25  1   
 56  23  54  1   
 57  23  55  1   
 58  24  25  1   
 59  24  56  1   
 60  24  57  1   
 61  25  58  1   
 62  25  59  1   
@<TRIPOS>SUBSTRUCTURE
  1 ****   5 GROUP 4 **** **** 0

# MOE 2024.06 (io_trps.svl 2023.06)
