@<TRIPOS>MOLECULE
NONAME
53 55 1 0 0 
SMALL
USER_CHARGES


@<TRIPOS>ATOM
  1 CL      -0.9300     0.0310    -1.2750 Cl    1 <1>  -0.1770 
  2 C       -1.8820     0.8770    -0.0670 C.ar  1 <1>   0.1770 
  3 C       -1.7770     2.2570     0.0380 C.ar  1 <1>   0.0830 
  4 C       -2.7270     0.1420     0.7550 C.ar  1 <1>  -0.1440 
  5 O       -0.9330     2.9160    -0.7980 O.3   1 <1>  -0.3630 
  6 C       -2.5560     2.9170     0.9920 C.ar  1 <1>   0.0830 
  7 C       -3.4630     0.8100     1.7250 C.ar  1 <1>  -0.1500 
  8 C       -2.8440    -1.3600     0.5930 C.3   1 <1>   0.4860 
  9 C        0.1880     3.5410    -0.2080 C.3   1 <1>   0.0400 
 10 O       -2.5530     4.2620     1.1420 O.3   1 <1>  -0.3630 
 11 C       -3.3760     2.1880     1.8380 C.ar  1 <1>  -0.1500 
 12 N       -3.4120    -1.7260    -0.7470 N.4   1 <1>  -0.9590 
 13 C       -3.0910     5.0240     0.0820 C.3   1 <1>   0.0400 
 14 C       -4.8520    -1.4260    -1.0280 C.3   1 <1>   0.4230 
 15 C       -3.1290    -3.1650    -1.0310 C.3   1 <1>   0.2630 
 16 C       -5.8120    -1.6250     0.1420 C.3   1 <1>  -0.1600 
 17 C       -5.0980     0.0030    -1.5010 C.3   1 <1>  -0.1600 
 18 C       -7.0720    -0.8550    -0.2740 C.3   1 <1>  -0.0800 
 19 C       -6.5880     0.2570    -1.2350 C.3   1 <1>  -0.0800 
 20 C       -7.9090    -0.3720     0.9310 C.3   1 <1>   0.1400 
 21 C       -6.8700     1.6780    -0.7130 C.3   1 <1>  -0.0990 
 22 N       -8.7850     0.7580     0.5370 N.am  1 <1>  -0.6600 
 23 C       -8.3010     1.7820    -0.2310 C.2   1 <1>   0.5690 
 24 C      -10.1680     0.7590     1.0870 C.3   1 <1>   0.0600 
 25 O       -8.9520     2.7510    -0.5380 O.2   1 <1>  -0.5700 
 26 H       -4.1110     0.2780     2.4010 H     1 <1>   0.1500 
 27 H       -3.4510    -1.7720     1.3820 H     1 <1>   0.0800 
 28 H       -1.8560    -1.7820     0.6890 H     1 <1>   0.0800 
 29 H        0.7980     3.9460    -0.9950 H     1 <1>   0.0800 
 30 H        0.7450     2.8070     0.3470 H     1 <1>   0.0800 
 31 H       -0.1420     4.3310     0.4420 H     1 <1>   0.0800 
 32 H       -3.9470     2.7120     2.5850 H     1 <1>   0.1500 
 33 H       -2.8670    -1.1690    -1.4250 H     1 <1>   0.4500 
 34 H       -3.0970     6.0570     0.3810 H     1 <1>   0.0800 
 35 H       -4.0950     4.6930    -0.1110 H     1 <1>   0.0800 
 36 H       -2.4790     4.9020    -0.7940 H     1 <1>   0.0800 
 37 H       -5.1870    -2.0680    -1.8270 H     1 <1>   0.0800 
 38 H       -3.6660    -3.7970    -0.3430 H     1 <1>   0.0800 
 39 H       -2.0740    -3.3660    -0.9360 H     1 <1>   0.0800 
 40 H       -3.4320    -3.4140    -2.0360 H     1 <1>   0.0800 
 41 H       -6.0310    -2.6660     0.3080 H     1 <1>   0.0800 
 42 H       -5.4270    -1.1860     1.0410 H     1 <1>   0.0800 
 43 H       -4.5170     0.7130    -0.9500 H     1 <1>   0.0800 
 44 H       -4.8760     0.1090    -2.5490 H     1 <1>   0.0800 
 45 H       -7.6970    -1.5220    -0.8460 H     1 <1>   0.0800 
 46 H       -7.1320     0.1430    -2.1600 H     1 <1>   0.0800 
 47 H       -7.2670    -0.0280     1.7240 H     1 <1>   0.0800 
 48 H       -8.5040    -1.1850     1.3100 H     1 <1>   0.0800 
 49 H       -6.7040     2.3990    -1.4930 H     1 <1>   0.0800 
 50 H       -6.2270     1.9210     0.1130 H     1 <1>   0.0800 
 51 H      -10.6970    -0.1140     0.7480 H     1 <1>   0.0800 
 52 H      -10.7050     1.6330     0.7590 H     1 <1>   0.0800 
 53 H      -10.1330     0.7610     2.1620 H     1 <1>   0.0800 
@<TRIPOS>BOND
  1   1   2  1   
  2   2   3  ar  
  3   2   4  ar  
  4   3   5  1   
  5   3   6  ar  
  6   4   7  ar  
  7   4   8  1   
  8   5   9  1   
  9   6  10  1   
 10   6  11  ar  
 11   7  11  ar  
 12   7  26  1   
 13   8  12  1   
 14   8  27  1   
 15   8  28  1   
 16   9  29  1   
 17   9  30  1   
 18   9  31  1   
 19  10  13  1   
 20  11  32  1   
 21  12  14  1   
 22  12  15  1   
 23  12  33  1   
 24  13  34  1   
 25  13  35  1   
 26  13  36  1   
 27  14  16  1   
 28  14  17  1   
 29  14  37  1   
 30  15  38  1   
 31  15  39  1   
 32  15  40  1   
 33  16  18  1   
 34  16  41  1   
 35  16  42  1   
 36  17  19  1   
 37  17  43  1   
 38  17  44  1   
 39  18  19  1   
 40  18  20  1   
 41  18  45  1   
 42  19  21  1   
 43  19  46  1   
 44  20  22  1   
 45  20  47  1   
 46  20  48  1   
 47  21  23  1   
 48  21  49  1   
 49  21  50  1   
 50  22  23  am  
 51  22  24  1   
 52  23  25  2   
 53  24  51  1   
 54  24  52  1   
 55  24  53  1   
@<TRIPOS>SUBSTRUCTURE
  1 ****  17 GROUP 4 **** **** 0

# MOE 2024.06 (io_trps.svl 2023.06)
