@<TRIPOS>MOLECULE
NONAME
42 43 1 0 0 
SMALL
USER_CHARGES


@<TRIPOS>ATOM
  1 O       -1.5440    -0.7710    -1.7040 O.2   1 <1>  -0.5700 
  2 C       -1.7980     0.2540    -1.1100 C.2   1 <1>   0.5690 
  3 N       -2.3440     0.2190     0.1480 N.am  1 <1>  -0.6600 
  4 C       -1.5170     1.5660    -1.8350 C.3   1 <1>   0.0440 
  5 C       -2.4350    -1.0760     0.8830 C.3   1 <1>   0.3200 
  6 C       -2.9790     1.3780     0.8530 C.3   1 <1>   0.1400 
  7 C       -0.6120     2.5000    -1.0380 C.ar  1 <1>  -0.1440 
  8 C       -3.7090    -1.8010     0.4910 C.2   1 <1>   0.0060 
  9 C       -2.2810     1.7780     2.1690 C.3   1 <1>   0.1200 
 10 C       -1.0120     3.7930    -0.7380 C.ar  1 <1>  -0.1500 
 11 C        0.6210     2.0510    -0.5920 C.ar  1 <1>  -0.1500 
 12 N       -4.7090    -2.0490     1.2780 N.2   1 <1>  -0.5650 
 13 N       -3.8860    -2.2510    -0.7680 N.pl3 1 <1>   0.0330 
 14 O       -0.8970     1.6920     2.0820 O.3   1 <1>  -0.6800 
 15 C       -0.2010     4.6160     0.0240 C.ar  1 <1>  -0.1500 
 16 C        1.4310     2.8750     0.1680 C.ar  1 <1>  -0.1500 
 17 C       -5.5840    -2.7000     0.4860 C.2   1 <1>   0.0770 
 18 C       -5.0990    -2.8320    -0.7680 C.2   1 <1>  -0.3020 
 19 C        1.0220     4.1590     0.4870 C.ar  1 <1>  -0.1430 
 20 C        1.9050     5.0540     1.3410 C.3   1 <1>  -0.0170 
 21 C        1.5700     4.8680     2.8230 C.3   1 <1>  -0.2400 
 22 H       -2.4530     2.0410    -2.0580 H     1 <1>   0.0800 
 23 H       -1.0380     1.3460    -2.7720 H     1 <1>   0.0800 
 24 H       -2.4260    -0.9090     1.9450 H     1 <1>   0.0800 
 25 H       -1.5840    -1.6900     0.6440 H     1 <1>   0.0800 
 26 H       -4.0020     1.1240     1.0750 H     1 <1>   0.0800 
 27 H       -3.0140     2.2350     0.2090 H     1 <1>   0.0800 
 28 H       -2.5950     1.1300     2.9690 H     1 <1>   0.0800 
 29 H       -2.5380     2.7890     2.4330 H     1 <1>   0.0800 
 30 H       -1.9560     4.1700    -1.0890 H     1 <1>   0.1500 
 31 H        0.9530     1.0530    -0.8240 H     1 <1>   0.1500 
 32 H       -3.2100    -2.1250    -1.5340 H     1 <1>   0.2700 
 33 H       -0.5610     2.1700     1.2880 H     1 <1>   0.4000 
 34 H       -0.5250     5.6150     0.2580 H     1 <1>   0.1500 
 35 H        2.3800     2.5080     0.5180 H     1 <1>   0.1500 
 36 H       -6.5310    -3.0440     0.8660 H     1 <1>   0.1500 
 37 H       -5.5370    -3.2930    -1.6350 H     1 <1>   0.1500 
 38 H        1.7590     6.0830     1.0620 H     1 <1>   0.0800 
 39 H        2.9400     4.8130     1.1710 H     1 <1>   0.0800 
 40 H        0.5430     5.1280     3.0070 H     1 <1>   0.0800 
 41 H        2.2010     5.4940     3.4280 H     1 <1>   0.0800 
 42 H        1.7200     3.8420     3.1100 H     1 <1>   0.0800 
@<TRIPOS>BOND
  1   1   2  2   
  2   2   3  am  
  3   2   4  1   
  4   3   5  1   
  5   3   6  1   
  6   4   7  1   
  7   4  22  1   
  8   4  23  1   
  9   5   8  1   
 10   5  24  1   
 11   5  25  1   
 12   6   9  1   
 13   6  26  1   
 14   6  27  1   
 15   7  10  ar  
 16   7  11  ar  
 17   8  12  2   
 18   8  13  1   
 19   9  14  1   
 20   9  28  1   
 21   9  29  1   
 22  10  15  ar  
 23  10  30  1   
 24  11  16  ar  
 25  11  31  1   
 26  12  17  1   
 27  13  18  1   
 28  13  32  1   
 29  14  33  1   
 30  15  19  ar  
 31  15  34  1   
 32  16  19  ar  
 33  16  35  1   
 34  17  18  2   
 35  17  36  1   
 36  18  37  1   
 37  19  20  1   
 38  20  21  1   
 39  20  38  1   
 40  20  39  1   
 41  21  40  1   
 42  21  41  1   
 43  21  42  1   
@<TRIPOS>SUBSTRUCTURE
  1 ****   3 GROUP 4 **** **** 0

# MOE 2024.06 (io_trps.svl 2023.06)
