@<TRIPOS>MOLECULE
NONAME
25 25 1 0 0 
SMALL
USER_CHARGES


@<TRIPOS>ATOM
  1 F        0.5360     0.7370    -0.7550 F     1 <1>  -0.1900 
  2 C        0.1020     1.9480    -0.5330 C.ar  1 <1>   0.1900 
  3 C       -1.0730     2.1140     0.1730 C.ar  1 <1>  -0.1500 
  4 C        0.8330     3.0150    -1.0120 C.ar  1 <1>  -0.1500 
  5 C       -1.5480     3.4020     0.4170 C.ar  1 <1>  -0.1440 
  6 C        0.3680     4.2960    -0.7730 C.ar  1 <1>  -0.1500 
  7 C       -0.8170     4.4930    -0.0620 C.ar  1 <1>   0.0820 
  8 C       -2.8500     3.6300     1.1980 C.3   1 <1>   1.1640 
  9 O       -1.3090     5.7330     0.1940 O.3   1 <1>  -0.3630 
 10 F       -2.6610     4.3420     2.3040 F     1 <1>  -0.3400 
 11 F       -3.7630     4.2810     0.4850 F     1 <1>  -0.3400 
 12 F       -3.4290     2.5000     1.5870 F     1 <1>  -0.3400 
 13 C       -0.6750     6.9140    -0.2290 C.3   1 <1>   0.1200 
 14 C       -1.5450     8.0780     0.2590 C.3   1 <1>   0.3430 
 15 N       -0.9830     9.4070    -0.1250 N.4   1 <1>  -0.8530 
 16 H       -1.5940     1.2370     0.5180 H     1 <1>   0.1500 
 17 H        1.7440     2.8390    -1.5570 H     1 <1>   0.1500 
 18 H        0.9480     5.1170    -1.1520 H     1 <1>   0.1500 
 19 H       -0.6150     6.8940    -1.3040 H     1 <1>   0.0800 
 20 H        0.3050     6.9450     0.2160 H     1 <1>   0.0800 
 21 H       -1.6280     8.0180     1.3330 H     1 <1>   0.0800 
 22 H       -2.5330     7.9680    -0.1620 H     1 <1>   0.0800 
 23 H       -0.0520     9.5550     0.2810 H     1 <1>   0.4500 
 24 H       -1.5910    10.1630     0.2170 H     1 <1>   0.4500 
 25 H       -0.9150     9.5080    -1.1450 H     1 <1>   0.4500 
@<TRIPOS>BOND
  1   1   2  1   
  2   2   3  ar  
  3   2   4  ar  
  4   3   5  ar  
  5   3  16  1   
  6   4   6  ar  
  7   4  17  1   
  8   5   7  ar  
  9   5   8  1   
 10   6   7  ar  
 11   6  18  1   
 12   7   9  1   
 13   8  10  1   
 14   8  11  1   
 15   8  12  1   
 16   9  13  1   
 17  13  14  1   
 18  13  19  1   
 19  13  20  1   
 20  14  15  1   
 21  14  21  1   
 22  14  22  1   
 23  15  23  1   
 24  15  24  1   
 25  15  25  1   
@<TRIPOS>SUBSTRUCTURE
  1 ****   7 GROUP 4 **** **** 0

# MOE 2024.06 (io_trps.svl 2023.06)
