@<TRIPOS>MOLECULE
NONAME
40 41 1 0 0 
SMALL
USER_CHARGES


@<TRIPOS>ATOM
  1 S        0.7130    -0.5440    -0.0010 S.o2  1 <1>   1.3330 
  2 O        0.5690    -1.1020     1.3250 O.2   1 <1>  -0.6500 
  3 O        0.7160    -1.4250    -1.1480 O.2   1 <1>  -0.6500 
  4 N       -0.5140     0.6090    -0.2160 N.am  1 <1>  -0.8490 
  5 C        2.2090     0.4370    -0.0640 C.3   1 <1>  -0.0550 
  6 C       -1.7200     0.0300    -0.8150 C.3   1 <1>   0.1160 
  7 C       -0.8620     1.3290     1.0130 C.3   1 <1>   0.1160 
  8 C        3.4930    -0.4150    -0.0020 C.3   1 <1>  -0.0800 
  9 C        4.7920     0.3590    -0.1690 C.3   1 <1>   0.2200 
 10 C        3.7030    -1.1600     1.3240 C.3   1 <1>   0.1200 
 11 N        4.7530     1.6280     0.5950 N.am  1 <1>  -0.7300 
 12 C        5.7670    -0.5880     0.5130 C.3   1 <1>   0.1200 
 13 O        5.0690    -1.0800     1.6150 O.3   1 <1>  -0.5600 
 14 C        4.5720     2.8750     0.0770 C.2   1 <1>   0.7150 
 15 O        4.3430     2.9640    -1.1130 O.2   1 <1>  -0.5700 
 16 C        4.6280     4.0360     0.9290 C.2   1 <1>  -0.0450 
 17 S        4.8790     3.8020     2.6500 S.3   1 <1>  -0.0800 
 18 C        4.5250     5.3740     0.7280 C.2   1 <1>   0.0460 
 19 C        4.8160     5.5240     2.8940 C.2   1 <1>   0.2280 
 20 N        4.6300     6.1960     1.8320 N.2   1 <1>  -0.5650 
 21 C        4.3050     6.0970    -0.5880 C.3   1 <1>  -0.0590 
 22 H        2.2150     0.9970    -0.9800 H     1 <1>   0.0800 
 23 H        2.2020     1.1390     0.7460 H     1 <1>   0.0800 
 24 H       -2.4690     0.7900    -0.9550 H     1 <1>   0.0800 
 25 H       -2.1150    -0.7480    -0.1820 H     1 <1>   0.0800 
 26 H       -1.4870    -0.3930    -1.7780 H     1 <1>   0.0800 
 27 H       -1.5800     2.1010     0.7980 H     1 <1>   0.0800 
 28 H        0.0140     1.7900     1.4360 H     1 <1>   0.0800 
 29 H       -1.2810     0.6520     1.7400 H     1 <1>   0.0800 
 30 H        3.4450    -1.1540    -0.7840 H     1 <1>   0.0800 
 31 H        5.0450     0.5380    -1.2020 H     1 <1>   0.0800 
 32 H        3.4210    -2.1970     1.2500 H     1 <1>   0.0800 
 33 H        3.1690    -0.6980     2.1370 H     1 <1>   0.0800 
 34 H        4.9230     1.5200     1.5980 H     1 <1>   0.3700 
 35 H        6.6690    -0.1010     0.8390 H     1 <1>   0.0800 
 36 H        6.0070    -1.4200    -0.1260 H     1 <1>   0.0800 
 37 H        4.9350     5.8880     3.9000 H     1 <1>   0.1500 
 38 H        4.2580     5.4180    -1.4170 H     1 <1>   0.0800 
 39 H        5.1110     6.7870    -0.7570 H     1 <1>   0.0800 
 40 H        3.3840     6.6490    -0.5440 H     1 <1>   0.0800 
@<TRIPOS>BOND
  1   1   2  2   
  2   1   3  2   
  3   1   4  am  
  4   1   5  1   
  5   4   6  1   
  6   4   7  1   
  7   5   8  1   
  8   5  22  1   
  9   5  23  1   
 10   6  24  1   
 11   6  25  1   
 12   6  26  1   
 13   7  27  1   
 14   7  28  1   
 15   7  29  1   
 16   8   9  1   
 17   8  10  1   
 18   8  30  1   
 19   9  11  1   
 20   9  12  1   
 21   9  31  1   
 22  10  13  1   
 23  10  32  1   
 24  10  33  1   
 25  11  14  am  
 26  11  34  1   
 27  12  13  1   
 28  12  35  1   
 29  12  36  1   
 30  14  15  2   
 31  14  16  1   
 32  16  17  1   
 33  16  18  2   
 34  17  19  1   
 35  18  20  1   
 36  18  21  1   
 37  19  20  2   
 38  19  37  1   
 39  21  38  1   
 40  21  39  1   
 41  21  40  1   
@<TRIPOS>SUBSTRUCTURE
  1 ****   5 GROUP 4 **** **** 0

# MOE 2024.06 (io_trps.svl 2023.06)
