@<TRIPOS>MOLECULE
NONAME
40 41 1 0 0 
SMALL
USER_CHARGES


@<TRIPOS>ATOM
  1 F       -1.0290     2.1150    -2.4300 F     1 <1>  -0.1900 
  2 C       -1.6690     2.2320    -1.2930 C.ar  1 <1>   0.1900 
  3 C       -3.0350     2.0030    -1.2480 C.ar  1 <1>   0.1900 
  4 C       -0.9680     2.5890    -0.1500 C.ar  1 <1>  -0.1440 
  5 F       -3.6850     1.6670    -2.3330 F     1 <1>  -0.1900 
  6 C       -3.7380     2.1260    -0.0640 C.ar  1 <1>  -0.1500 
  7 C       -1.6770     2.7170     1.0390 C.ar  1 <1>  -0.1500 
  8 C        0.5280     2.8450    -0.1730 C.3   1 <1>   0.2840 
  9 C       -3.0470     2.4870     1.0840 C.ar  1 <1>  -0.1500 
 10 N        0.7470     4.3010    -0.2490 N.am  1 <1>  -0.7300 
 11 C        1.1190     5.0790     0.7970 C.2   1 <1>   0.5690 
 12 O        1.3670     4.6100     1.8810 O.2   1 <1>  -0.5700 
 13 C        1.2020     6.5910     0.6080 C.3   1 <1>  -0.0190 
 14 C       -0.1470     7.1900     0.1640 C.3   1 <1>  -0.1600 
 15 C        2.3430     6.9940    -0.3570 C.3   1 <1>  -0.1600 
 16 C       -0.1150     8.7330     0.1290 C.3   1 <1>   0.2000 
 17 C        2.1540     8.3860    -0.9940 C.3   1 <1>  -0.1600 
 18 O       -0.9600     9.1600    -0.9110 O.3   1 <1>  -0.5600 
 19 C        1.3100     9.3030    -0.1040 C.3   1 <1>   0.2000 
 20 C       -2.3170     9.1950    -0.5950 C.3   1 <1>   0.0400 
 21 O        1.2110    10.5300    -0.7280 O.3   1 <1>  -0.6800 
 22 H       -4.7980     1.9450    -0.0430 H     1 <1>   0.1500 
 23 H       -1.1560     3.0020     1.9390 H     1 <1>   0.1500 
 24 H        0.9930     2.3660    -1.0170 H     1 <1>   0.0800 
 25 H        0.9790     2.4500     0.7220 H     1 <1>   0.0800 
 26 H       -3.5750     2.5900     2.0170 H     1 <1>   0.1500 
 27 H        0.4750     4.7350    -1.1320 H     1 <1>   0.3700 
 28 H        1.4310     7.0070     1.5750 H     1 <1>   0.0800 
 29 H       -0.9190     6.8690     0.8410 H     1 <1>   0.0800 
 30 H       -0.3830     6.8190    -0.8180 H     1 <1>   0.0800 
 31 H        3.2690     6.9770     0.1930 H     1 <1>   0.0800 
 32 H        2.4360     6.2730    -1.1510 H     1 <1>   0.0800 
 33 H       -0.4780     9.1340     1.0600 H     1 <1>   0.0800 
 34 H        1.6510     8.2730    -1.9390 H     1 <1>   0.0800 
 35 H        3.1150     8.8350    -1.1740 H     1 <1>   0.0800 
 36 H        1.8130     9.4490     0.8360 H     1 <1>   0.0800 
 37 H       -2.8530     9.5410    -1.4610 H     1 <1>   0.0800 
 38 H       -2.4740     9.8770     0.2230 H     1 <1>   0.0800 
 39 H       -2.6540     8.2060    -0.3350 H     1 <1>   0.0800 
 40 H        0.3930    10.4870    -1.2720 H     1 <1>   0.4000 
@<TRIPOS>BOND
  1   1   2  1   
  2   2   3  ar  
  3   2   4  ar  
  4   3   5  1   
  5   3   6  ar  
  6   4   7  ar  
  7   4   8  1   
  8   6   9  ar  
  9   6  22  1   
 10   7   9  ar  
 11   7  23  1   
 12   8  10  1   
 13   8  24  1   
 14   8  25  1   
 15   9  26  1   
 16  10  11  am  
 17  10  27  1   
 18  11  12  2   
 19  11  13  1   
 20  13  14  1   
 21  13  15  1   
 22  13  28  1   
 23  14  16  1   
 24  14  29  1   
 25  14  30  1   
 26  15  17  1   
 27  15  31  1   
 28  15  32  1   
 29  16  18  1   
 30  16  19  1   
 31  16  33  1   
 32  17  19  1   
 33  17  34  1   
 34  17  35  1   
 35  18  20  1   
 36  19  21  1   
 37  19  36  1   
 38  20  37  1   
 39  20  38  1   
 40  20  39  1   
 41  21  40  1   
@<TRIPOS>SUBSTRUCTURE
  1 ****  10 GROUP 4 **** **** 0

# MOE 2024.06 (io_trps.svl 2023.06)
