@<TRIPOS>MOLECULE
NONAME
56 58 1 0 0 
SMALL
USER_CHARGES


@<TRIPOS>ATOM
  1 O       -0.4330    -0.3260    -0.7090 O.2   1 <1>  -0.5700 
  2 C       -1.2810     0.3770    -0.2080 C.2   1 <1>   0.5690 
  3 N       -2.5050    -0.1590     0.1320 N.am  1 <1>  -0.6600 
  4 C       -0.9100     1.8770     0.0300 C.3   1 <1>   0.3410 
  5 C       -2.7090    -1.6470     0.1780 C.3   1 <1>   0.1400 
  6 C       -3.8070     0.5790     0.2250 C.3   1 <1>   0.1400 
  7 O       -1.6170     2.4100     1.1180 O.3   1 <1>  -0.6800 
  8 C        0.5860     2.0650     0.3780 C.3   1 <1>  -0.1600 
  9 C       -1.2380     2.7360    -1.2040 C.3   1 <1>  -0.1600 
 10 C       -3.7940    -2.1030    -0.8130 C.3   1 <1>   0.3430 
 11 C       -4.8320     0.0180    -0.7880 C.3   1 <1>   0.2000 
 12 C        1.1110     3.4970     0.2180 C.3   1 <1>   0.3430 
 13 C       -0.8770     4.2200    -1.0550 C.3   1 <1>   0.3430 
 14 O       -4.9690    -1.3630    -0.6090 O.3   1 <1>  -0.5600 
 15 C       -4.0900    -3.5900    -0.6370 C.ar  1 <1>  -0.1440 
 16 C       -6.2370     0.6550    -0.6880 C.3   1 <1>  -0.0800 
 17 N       -0.0190     4.4580     0.1410 N.4   1 <1>  -0.9590 
 18 C       -3.3880    -4.5210    -1.3910 C.ar  1 <1>  -0.1500 
 19 C       -5.0380    -4.0380     0.2730 C.ar  1 <1>  -0.1500 
 20 C       -6.2160     2.1540    -1.0280 C.3   1 <1>  -0.2400 
 21 C       -6.9160     0.4450     0.6760 C.3   1 <1>  -0.2400 
 22 C        0.4230     5.8790     0.2520 C.3   1 <1>   0.2630 
 23 C       -3.6280    -5.8760    -1.2360 C.ar  1 <1>  -0.1500 
 24 C       -5.2790    -5.3920     0.4290 C.ar  1 <1>  -0.1500 
 25 C       -4.5740    -6.3120    -0.3250 C.ar  1 <1>  -0.1500 
 26 H       -1.7960    -2.1710    -0.0430 H     1 <1>   0.0800 
 27 H       -3.0100    -1.9320     1.1710 H     1 <1>   0.0800 
 28 H       -4.1950     0.4760     1.2220 H     1 <1>   0.0800 
 29 H       -3.6710     1.6240     0.0270 H     1 <1>   0.0800 
 30 H       -1.8180     1.6790     1.7440 H     1 <1>   0.4000 
 31 H        0.7740     1.7140     1.3770 H     1 <1>   0.0800 
 32 H        1.1900     1.4530    -0.2690 H     1 <1>   0.0800 
 33 H       -0.6900     2.3420    -2.0420 H     1 <1>   0.0800 
 34 H       -2.2780     2.6450    -1.4570 H     1 <1>   0.0800 
 35 H       -3.4620    -1.9250    -1.8220 H     1 <1>   0.0800 
 36 H       -4.4620     0.1780    -1.7860 H     1 <1>   0.0800 
 37 H        1.6990     3.5650    -0.6830 H     1 <1>   0.0800 
 38 H        1.7480     3.7380     1.0540 H     1 <1>   0.0800 
 39 H       -1.7860     4.7920    -0.9520 H     1 <1>   0.0800 
 40 H       -0.3720     4.5560    -1.9460 H     1 <1>   0.0800 
 41 H       -6.8460     0.1700    -1.4340 H     1 <1>   0.0800 
 42 H       -0.6290     4.2160     0.9470 H     1 <1>   0.4500 
 43 H       -2.6490    -4.1990    -2.1030 H     1 <1>   0.1500 
 44 H       -5.5950    -3.3300     0.8620 H     1 <1>   0.1500 
 45 H       -5.6870     2.7180    -0.2810 H     1 <1>   0.0800 
 46 H       -7.2230     2.5300    -1.0790 H     1 <1>   0.0800 
 47 H       -5.7520     2.3160    -1.9850 H     1 <1>   0.0800 
 48 H       -6.4000     0.9700     1.4590 H     1 <1>   0.0800 
 49 H       -6.9430    -0.6030     0.9220 H     1 <1>   0.0800 
 50 H       -7.9300     0.8030     0.6420 H     1 <1>   0.0800 
 51 H        1.0540     6.1420    -0.5810 H     1 <1>   0.0800 
 52 H        0.9770     6.0270     1.1650 H     1 <1>   0.0800 
 53 H       -0.4310     6.5370     0.2600 H     1 <1>   0.0800 
 54 H       -3.0800    -6.5900    -1.8240 H     1 <1>   0.1500 
 55 H       -6.0170    -5.7280     1.1360 H     1 <1>   0.1500 
 56 H       -4.7610    -7.3650    -0.2040 H     1 <1>   0.1500 
@<TRIPOS>BOND
  1   1   2  2   
  2   2   3  am  
  3   2   4  1   
  4   3   5  1   
  5   3   6  1   
  6   4   7  1   
  7   4   8  1   
  8   4   9  1   
  9   5  10  1   
 10   5  26  1   
 11   5  27  1   
 12   6  11  1   
 13   6  28  1   
 14   6  29  1   
 15   7  30  1   
 16   8  12  1   
 17   8  31  1   
 18   8  32  1   
 19   9  13  1   
 20   9  33  1   
 21   9  34  1   
 22  10  14  1   
 23  10  15  1   
 24  10  35  1   
 25  11  14  1   
 26  11  16  1   
 27  11  36  1   
 28  12  17  1   
 29  12  37  1   
 30  12  38  1   
 31  13  17  1   
 32  13  39  1   
 33  13  40  1   
 34  15  18  ar  
 35  15  19  ar  
 36  16  20  1   
 37  16  21  1   
 38  16  41  1   
 39  17  22  1   
 40  17  42  1   
 41  18  23  ar  
 42  18  43  1   
 43  19  24  ar  
 44  19  44  1   
 45  20  45  1   
 46  20  46  1   
 47  20  47  1   
 48  21  48  1   
 49  21  49  1   
 50  21  50  1   
 51  22  51  1   
 52  22  52  1   
 53  22  53  1   
 54  23  25  ar  
 55  23  54  1   
 56  24  25  ar  
 57  24  55  1   
 58  25  56  1   
@<TRIPOS>SUBSTRUCTURE
  1 ****   3 GROUP 4 **** **** 0

# MOE 2024.06 (io_trps.svl 2023.06)
