@<TRIPOS>MOLECULE
NONAME
50 54 1 0 0 
SMALL
USER_CHARGES


@<TRIPOS>ATOM
  1 F       -0.5810    -0.2150     0.9330 F     1 <1>  -0.1900 
  2 C       -1.7170     0.0570     0.3420 C.ar  1 <1>   0.1900 
  3 C       -2.9040    -0.5420     0.8340 C.ar  1 <1>   0.3100 
  4 C       -1.6780     0.9140    -0.7230 C.ar  1 <1>  -0.1500 
  5 N       -2.8650    -1.3680     1.9140 N.ar  1 <1>  -0.6200 
  6 C       -4.1110    -0.2320     0.1580 C.ar  1 <1>   0.0000 
  7 C       -2.8870     1.2040    -1.3470 C.ar  1 <1>   0.1900 
  8 C       -3.9850    -1.8840     2.3230 C.ar  1 <1>   0.1660 
  9 C       -5.3090    -0.8270     0.6210 C.ar  1 <1>   0.1000 
 10 C       -4.0730     0.6630    -0.9340 C.ar  1 <1>  -0.1500 
 11 F       -2.8720     2.0260    -2.3610 F     1 <1>  -0.1900 
 12 C       -5.2150    -1.6460     1.7150 C.ar  1 <1>  -0.1500 
 13 C       -3.9090    -2.7950     3.5300 C.3   1 <1>  -0.0960 
 14 N       -6.5260    -0.6000    -0.0030 N.pl3 1 <1>  -0.8380 
 15 C       -7.7360    -0.2470     0.8030 C.3   1 <1>   0.2090 
 16 C       -6.8300    -1.2920    -1.2830 C.3   1 <1>   0.2090 
 17 C       -8.6800     0.6630    -0.0040 C.3   1 <1>   0.1430 
 18 C       -7.7660    -0.4190    -2.1280 C.3   1 <1>  -0.1600 
 19 C       -9.9070     0.9460     0.8420 C.ar  1 <1>   0.1670 
 20 C       -9.0320    -0.0120    -1.3490 C.3   1 <1>  -0.1600 
 21 C       -8.0730     2.0790    -0.2020 C.3   1 <1>  -0.1600 
 22 N      -10.8600     0.0820     1.1150 N.ar  1 <1>  -0.6200 
 23 C       -9.9060     2.2220     1.3190 C.ar  1 <1>  -0.1430 
 24 C       -8.6870     2.9900     0.8750 C.3   1 <1>  -0.0170 
 25 C      -11.8300     0.5610     1.8820 C.ar  1 <1>   0.4770 
 26 C      -10.9600     2.6110     2.1080 C.ar  1 <1>   0.1600 
 27 N      -11.9380     1.7780     2.3980 N.ar  1 <1>  -0.6200 
 28 C      -12.9480    -0.3960     2.2150 C.3   1 <1>  -0.0970 
 29 H       -0.7620     1.3520    -1.0720 H     1 <1>   0.1500 
 30 H       -4.9850     0.9210    -1.4380 H     1 <1>   0.1500 
 31 H       -6.0960    -2.1180     2.1030 H     1 <1>   0.1500 
 32 H       -3.4960    -2.2530     4.3610 H     1 <1>   0.0800 
 33 H       -3.2680    -3.6280     3.3090 H     1 <1>   0.0800 
 34 H       -4.8800    -3.1640     3.8030 H     1 <1>   0.0800 
 35 H       -7.4360     0.2500     1.7090 H     1 <1>   0.0800 
 36 H       -8.2570    -1.1500     1.0720 H     1 <1>   0.0800 
 37 H       -7.3040    -2.2350    -1.0690 H     1 <1>   0.0800 
 38 H       -5.9180    -1.4870    -1.8210 H     1 <1>   0.0800 
 39 H       -8.0490    -0.9620    -3.0120 H     1 <1>   0.0800 
 40 H       -7.2310     0.4590    -2.4440 H     1 <1>   0.0800 
 41 H       -9.6420     0.6450    -1.9450 H     1 <1>   0.0800 
 42 H       -9.6130    -0.8960    -1.1510 H     1 <1>   0.0800 
 43 H       -8.3580     2.4610    -1.1660 H     1 <1>   0.0800 
 44 H       -6.9980     2.0730    -0.1480 H     1 <1>   0.0800 
 45 H       -8.9470     3.9550     0.4750 H     1 <1>   0.0800 
 46 H       -8.0100     3.1070     1.7040 H     1 <1>   0.0800 
 47 H      -11.0040     3.6100     2.5080 H     1 <1>   0.1500 
 48 H      -12.9850    -1.1930     1.4970 H     1 <1>   0.0800 
 49 H      -13.8880     0.1250     2.2060 H     1 <1>   0.0800 
 50 H      -12.7830    -0.8070     3.1920 H     1 <1>   0.0800 
@<TRIPOS>BOND
  1   1   2  1   
  2   2   3  ar  
  3   2   4  ar  
  4   3   5  ar  
  5   3   6  ar  
  6   4   7  ar  
  7   4  29  1   
  8   5   8  ar  
  9   6   9  ar  
 10   6  10  ar  
 11   7  10  ar  
 12   7  11  1   
 13   8  12  ar  
 14   8  13  1   
 15   9  12  ar  
 16   9  14  1   
 17  10  30  1   
 18  12  31  1   
 19  13  32  1   
 20  13  33  1   
 21  13  34  1   
 22  14  15  1   
 23  14  16  1   
 24  15  17  1   
 25  15  35  1   
 26  15  36  1   
 27  16  18  1   
 28  16  37  1   
 29  16  38  1   
 30  17  19  1   
 31  17  20  1   
 32  17  21  1   
 33  18  20  1   
 34  18  39  1   
 35  18  40  1   
 36  19  22  ar  
 37  19  23  ar  
 38  20  41  1   
 39  20  42  1   
 40  21  24  1   
 41  21  43  1   
 42  21  44  1   
 43  22  25  ar  
 44  23  24  1   
 45  23  26  ar  
 46  24  45  1   
 47  24  46  1   
 48  25  27  ar  
 49  25  28  1   
 50  26  27  ar  
 51  26  47  1   
 52  28  48  1   
 53  28  49  1   
 54  28  50  1   
@<TRIPOS>SUBSTRUCTURE
  1 ****  14 GROUP 4 **** **** 0

# MOE 2024.06 (io_trps.svl 2023.06)
