@<TRIPOS>MOLECULE
NONAME
49 50 1 0 0 
SMALL
USER_CHARGES


@<TRIPOS>ATOM
  1 O       -1.3110     0.9450     1.5580 O.2   1 <1>  -0.5700 
  2 C       -0.8800     2.0670     1.4870 C.2   1 <1>   0.5690 
  3 N       -1.7040     3.1050     1.2210 N.am  1 <1>  -0.7300 
  4 C        0.6250     2.3210     1.6650 C.3   1 <1>   0.1810 
  5 C       -1.2420     4.5080     1.1840 C.3   1 <1>   0.3640 
  6 O        0.9610     3.6860     1.8370 O.3   1 <1>  -0.5600 
  7 C       -1.9770     5.2570     0.0750 C.ar  1 <1>  -0.1440 
  8 C        0.2860     4.5720     0.9630 C.3   1 <1>   0.2610 
  9 C       -2.6230     6.4510     0.3620 C.ar  1 <1>  -0.1500 
 10 C       -2.0020     4.7720    -1.2260 C.ar  1 <1>  -0.1500 
 11 C        0.8040     6.0130     1.1090 C.2   1 <1>   0.5690 
 12 C       -3.2790     7.1530    -0.6340 C.ar  1 <1>  -0.1500 
 13 C       -2.6530     5.4750    -2.2240 C.ar  1 <1>  -0.1500 
 14 O        0.2300     6.7740     1.8610 O.2   1 <1>  -0.5700 
 15 N        1.8690     6.4690     0.3600 N.am  1 <1>  -0.6600 
 16 C       -3.2910     6.6670    -1.9290 C.ar  1 <1>  -0.1500 
 17 C        2.2700     7.9050     0.4200 C.3   1 <1>   0.1400 
 18 C        2.7730     5.5760    -0.4150 C.3   1 <1>   0.1400 
 19 C        1.1470     8.8020    -0.1440 C.3   1 <1>   0.3430 
 20 C        2.3880     5.6260    -1.8910 C.3   1 <1>  -0.2400 
 21 N        0.9040    10.0420     0.6710 N.4   1 <1>  -0.9590 
 22 C        0.3050     9.6950     2.0020 C.3   1 <1>   0.2630 
 23 C       -0.0040    10.9700    -0.0660 C.3   1 <1>   0.2630 
 24 H       -2.7050     2.9320     1.1160 H     1 <1>   0.3700 
 25 H        1.1470     1.9520     0.8010 H     1 <1>   0.0800 
 26 H        0.9730     1.7880     2.5300 H     1 <1>   0.0800 
 27 H       -1.4750     4.9580     2.1340 H     1 <1>   0.0800 
 28 H        0.4860     4.2450    -0.0390 H     1 <1>   0.0800 
 29 H       -2.6220     6.8400     1.3670 H     1 <1>   0.1500 
 30 H       -1.5210     3.8400    -1.4710 H     1 <1>   0.1500 
 31 H       -3.7870     8.0730    -0.4030 H     1 <1>   0.1500 
 32 H       -2.6710     5.0920    -3.2300 H     1 <1>   0.1500 
 33 H       -3.8050     7.2080    -2.7060 H     1 <1>   0.1500 
 34 H        2.4770     8.1510     1.4470 H     1 <1>   0.0800 
 35 H        3.1690     8.0620    -0.1490 H     1 <1>   0.0800 
 36 H        3.7960     5.8930    -0.2880 H     1 <1>   0.0800 
 37 H        2.7100     4.5650    -0.0500 H     1 <1>   0.0800 
 38 H        0.2350     8.2270    -0.1800 H     1 <1>   0.0800 
 39 H        1.4050     9.0750    -1.1530 H     1 <1>   0.0800 
 40 H        2.5240     6.6160    -2.2870 H     1 <1>   0.0800 
 41 H        1.3660     5.3220    -2.0290 H     1 <1>   0.0800 
 42 H        3.0170     4.9540    -2.4480 H     1 <1>   0.0800 
 43 H        1.8040    10.5190     0.8300 H     1 <1>   0.4500 
 44 H       -0.6280     9.1700     1.8660 H     1 <1>   0.0800 
 45 H        0.1220    10.5860     2.5790 H     1 <1>   0.0800 
 46 H        0.9660     9.0530     2.5610 H     1 <1>   0.0800 
 47 H       -0.9570    10.4970    -0.2460 H     1 <1>   0.0800 
 48 H        0.4280    11.2450    -1.0150 H     1 <1>   0.0800 
 49 H       -0.1690    11.8680     0.5090 H     1 <1>   0.0800 
@<TRIPOS>BOND
  1   1   2  2   
  2   2   3  am  
  3   2   4  1   
  4   3   5  1   
  5   3  24  1   
  6   4   6  1   
  7   4  25  1   
  8   4  26  1   
  9   5   7  1   
 10   5   8  1   
 11   5  27  1   
 12   6   8  1   
 13   7   9  ar  
 14   7  10  ar  
 15   8  11  1   
 16   8  28  1   
 17   9  12  ar  
 18   9  29  1   
 19  10  13  ar  
 20  10  30  1   
 21  11  14  2   
 22  11  15  am  
 23  12  16  ar  
 24  12  31  1   
 25  13  16  ar  
 26  13  32  1   
 27  15  17  1   
 28  15  18  1   
 29  16  33  1   
 30  17  19  1   
 31  17  34  1   
 32  17  35  1   
 33  18  20  1   
 34  18  36  1   
 35  18  37  1   
 36  19  21  1   
 37  19  38  1   
 38  19  39  1   
 39  20  40  1   
 40  20  41  1   
 41  20  42  1   
 42  21  22  1   
 43  21  23  1   
 44  21  43  1   
 45  22  44  1   
 46  22  45  1   
 47  22  46  1   
 48  23  47  1   
 49  23  48  1   
 50  23  49  1   
@<TRIPOS>SUBSTRUCTURE
  1 ****  11 GROUP 4 **** **** 0

# MOE 2024.06 (io_trps.svl 2023.06)
