@<TRIPOS>MOLECULE
NONAME
41 44 1 0 0 
SMALL
USER_CHARGES


@<TRIPOS>ATOM
  1 S        0.2660    -0.5920    -1.3970 S.3   1 <1>  -0.0800 
  2 C        0.0500    -2.2480    -0.8300 C.ar  1 <1>   0.2970 
  3 C       -1.3960    -0.1760    -0.9740 C.2   1 <1>  -0.1100 
  4 N        1.0100    -3.1460    -0.8480 N.ar  1 <1>  -0.5670 
  5 C       -1.2310    -2.4360    -0.3750 C.ar  1 <1>   0.0000 
  6 C       -2.0320    -1.2410    -0.4530 C.2   1 <1>  -0.1500 
  7 C        0.6240    -4.3080    -0.3590 C.ar  1 <1>   0.4770 
  8 C       -1.5100    -3.7230     0.0870 C.ar  1 <1>   0.4100 
  9 N       -0.5670    -4.6490     0.1110 N.ar  1 <1>  -0.6200 
 10 C        1.6660    -5.4010    -0.3270 C.3   1 <1>  -0.0960 
 11 N       -2.7630    -4.0880     0.5280 N.pl3 1 <1>  -0.8380 
 12 C       -2.9340    -4.9790     1.7280 C.3   1 <1>   0.3900 
 13 C       -3.9670    -3.9290    -0.3350 C.3   1 <1>   0.1290 
 14 C       -3.7930    -6.2160     1.4540 C.2   1 <1>   0.1080 
 15 N       -4.9950    -6.3820     1.9350 N.2   1 <1>  -0.7070 
 16 C       -3.4050    -7.2970     0.6660 C.2   1 <1>  -0.1810 
 17 N       -5.3960    -7.5780     1.4580 N.pl3 1 <1>   0.3000 
 18 C       -4.4500    -8.1420     0.6840 C.2   1 <1>  -0.3320 
 19 C       -2.1200    -7.5500    -0.0980 C.3   1 <1>   0.0210 
 20 C       -4.5130    -9.4730    -0.0400 C.3   1 <1>   0.0200 
 21 C       -2.0400    -9.0280    -0.5290 C.3   1 <1>  -0.1600 
 22 C       -3.3830    -9.5450    -1.0850 C.3   1 <1>  -0.1600 
 23 H       -1.7120     0.8350    -1.1610 H     1 <1>   0.1500 
 24 H       -3.0480    -1.2510    -0.1020 H     1 <1>   0.1500 
 25 H        2.5940    -5.0530    -0.7420 H     1 <1>   0.0800 
 26 H        1.3190    -6.2410    -0.8980 H     1 <1>   0.0800 
 27 H        1.8300    -5.7070     0.6890 H     1 <1>   0.0800 
 28 H       -3.4060    -4.4110     2.5080 H     1 <1>   0.0800 
 29 H       -1.9770    -5.2990     2.0970 H     1 <1>   0.0800 
 30 H       -3.7580    -3.2790    -1.1660 H     1 <1>   0.0800 
 31 H       -4.7780    -3.5190     0.2420 H     1 <1>   0.0800 
 32 H       -4.2680    -4.8860    -0.7280 H     1 <1>   0.0800 
 33 H       -6.3170    -7.9750     1.6790 H     1 <1>   0.2700 
 34 H       -1.2730    -7.3030     0.5150 H     1 <1>   0.0800 
 35 H       -2.1070    -6.9120    -0.9640 H     1 <1>   0.0800 
 36 H       -5.4650    -9.5910    -0.5280 H     1 <1>   0.0800 
 37 H       -4.3940   -10.2670     0.6770 H     1 <1>   0.0800 
 38 H       -1.7690    -9.6220     0.3270 H     1 <1>   0.0800 
 39 H       -1.2680    -9.1400    -1.2690 H     1 <1>   0.0800 
 40 H       -3.6580    -8.9420    -1.9330 H     1 <1>   0.0800 
 41 H       -3.2730   -10.5600    -1.4240 H     1 <1>   0.0800 
@<TRIPOS>BOND
  1   1   2  1   
  2   1   3  1   
  3   2   4  ar  
  4   2   5  ar  
  5   3   6  2   
  6   3  23  1   
  7   4   7  ar  
  8   5   6  1   
  9   5   8  ar  
 10   6  24  1   
 11   7   9  ar  
 12   7  10  1   
 13   8   9  ar  
 14   8  11  1   
 15  10  25  1   
 16  10  26  1   
 17  10  27  1   
 18  11  12  1   
 19  11  13  1   
 20  12  14  1   
 21  12  28  1   
 22  12  29  1   
 23  13  30  1   
 24  13  31  1   
 25  13  32  1   
 26  14  15  2   
 27  14  16  1   
 28  15  17  1   
 29  16  18  2   
 30  16  19  1   
 31  17  18  1   
 32  17  33  1   
 33  18  20  1   
 34  19  21  1   
 35  19  34  1   
 36  19  35  1   
 37  20  22  1   
 38  20  36  1   
 39  20  37  1   
 40  21  22  1   
 41  21  38  1   
 42  21  39  1   
 43  22  40  1   
 44  22  41  1   
@<TRIPOS>SUBSTRUCTURE
  1 ****  11 GROUP 4 **** **** 0

# MOE 2024.06 (io_trps.svl 2023.06)
