@<TRIPOS>MOLECULE
NONAME
65 68 1 0 0 
SMALL
USER_CHARGES


@<TRIPOS>ATOM
  1 O        0.3370     1.3740     1.9590 O.2   1 <1>  -0.5700 
  2 C        0.0620     1.7140     0.8400 C.2   1 <1>   0.4950 
  3 C       -1.0860     2.5560     0.5570 C.2   1 <1>  -0.1240 
  4 C        1.0190     1.3770    -0.3220 C.3   1 <1>  -0.0190 
  5 C       -2.0970     2.3880    -0.3040 C.2   1 <1>  -0.2880 
  6 C       -1.1850     3.9250     1.2340 C.3   1 <1>   0.0580 
  7 C        2.5340     1.4960     0.0710 C.3   1 <1>   0.2000 
  8 C        0.6450     0.0350    -0.9900 C.3   1 <1>  -0.2400 
  9 C       -3.0450     3.5600    -0.3610 C.3   1 <1>   0.0580 
 10 C       -2.5420     4.5050     0.7670 C.3   1 <1>  -0.0800 
 11 C        0.0330     4.6750     0.7060 C.3   1 <1>  -0.0990 
 12 O        3.0490     0.2500     0.3810 O.3   1 <1>  -0.6800 
 13 C        3.4590     2.1150    -1.0270 C.3   1 <1>  -0.1600 
 14 C       -4.5110     3.1490    -0.1670 C.3   1 <1>  -0.0800 
 15 C       -3.5240     4.6130     1.9620 C.3   1 <1>  -0.1600 
 16 C        0.4770     6.0760     1.0530 C.2   1 <1>   0.6590 
 17 C        3.9480     3.5830    -0.8130 C.3   1 <1>  -0.1600 
 18 C       -5.3300     4.3890     0.1650 C.3   1 <1>  -0.0800 
 19 C       -5.2320     2.5030    -1.3570 C.3   1 <1>  -0.1600 
 20 C       -4.9780     4.9410     1.5560 C.3   1 <1>  -0.1600 
 21 O       -0.2760     6.8460     1.5810 O.2   1 <1>  -0.5700 
 22 O        1.7490     6.4250     0.7870 O.3   1 <1>  -0.4300 
 23 C        2.8590     4.4340    -0.1590 C.3   1 <1>  -0.1600 
 24 C       -6.7660     3.9250    -0.0630 C.3   1 <1>  -0.1600 
 25 C       -6.6670     3.0550    -1.3180 C.3   1 <1>   0.2000 
 26 C        2.7450     5.9760    -0.1550 C.3   1 <1>   0.2000 
 27 O       -6.8390     3.8750    -2.4130 O.3   1 <1>  -0.6800 
 28 C        4.0480     6.6880     0.2450 C.3   1 <1>  -0.1600 
 29 C        5.0760     6.7980    -0.8910 C.3   1 <1>  -0.2400 
 30 H        0.8350     2.1380    -1.0570 H     1 <1>   0.0800 
 31 H       -2.2920     1.5470    -0.9470 H     1 <1>   0.1500 
 32 H       -1.1330     3.8290     2.3070 H     1 <1>   0.0800 
 33 H        2.6270     2.0610     0.9810 H     1 <1>   0.0800 
 34 H        0.7050    -0.7690    -0.2760 H     1 <1>   0.0800 
 35 H        1.2990    -0.1740    -1.8180 H     1 <1>   0.0800 
 36 H       -0.3640     0.0740    -1.3600 H     1 <1>   0.0800 
 37 H       -2.9310     4.0550    -1.3100 H     1 <1>   0.0800 
 38 H       -2.4070     5.4940     0.3630 H     1 <1>   0.0800 
 39 H        0.0010     4.6220    -0.3660 H     1 <1>   0.0800 
 40 H        0.8130     4.0840     1.1160 H     1 <1>   0.0800 
 41 H        2.7950    -0.3980    -0.3020 H     1 <1>   0.4000 
 42 H        4.3410     1.5070    -1.1380 H     1 <1>   0.0800 
 43 H        2.9440     2.0710    -1.9700 H     1 <1>   0.0800 
 44 H       -4.5780     2.4650     0.6640 H     1 <1>   0.0800 
 45 H       -3.5300     3.6700     2.4830 H     1 <1>   0.0800 
 46 H       -3.1690     5.3560     2.6570 H     1 <1>   0.0800 
 47 H        4.2200     3.9960    -1.7690 H     1 <1>   0.0800 
 48 H        4.8230     3.5850    -0.1840 H     1 <1>   0.0800 
 49 H       -5.1040     5.1510    -0.5630 H     1 <1>   0.0800 
 50 H       -5.2430     1.4350    -1.2330 H     1 <1>   0.0800 
 51 H       -4.7490     2.7370    -2.2900 H     1 <1>   0.0800 
 52 H       -5.1190     6.0090     1.5480 H     1 <1>   0.0800 
 53 H       -5.6420     4.5330     2.2990 H     1 <1>   0.0800 
 54 H        2.8600     4.1420     0.8750 H     1 <1>   0.0800 
 55 H        1.9940     4.1040    -0.6830 H     1 <1>   0.0800 
 56 H       -7.4600     4.7400    -0.1740 H     1 <1>   0.0800 
 57 H       -7.0790     3.3090     0.7620 H     1 <1>   0.0800 
 58 H       -7.4180     2.2820    -1.3510 H     1 <1>   0.0800 
 59 H        2.4370     6.3230    -1.1260 H     1 <1>   0.0800 
 60 H       -6.2080     4.6160    -2.3620 H     1 <1>   0.4000 
 61 H        3.8020     7.6910     0.5520 H     1 <1>   0.0800 
 62 H        4.4920     6.1870     1.0870 H     1 <1>   0.0800 
 63 H        4.6310     7.2480    -1.7610 H     1 <1>   0.0800 
 64 H        5.4720     5.8370    -1.1570 H     1 <1>   0.0800 
 65 H        5.8970     7.4170    -0.5740 H     1 <1>   0.0800 
@<TRIPOS>BOND
  1   1   2  2   
  2   2   3  1   
  3   2   4  1   
  4   3   5  2   
  5   3   6  1   
  6   4   7  1   
  7   4   8  1   
  8   4  30  1   
  9   5   9  1   
 10   5  31  1   
 11   6  10  1   
 12   6  11  1   
 13   6  32  1   
 14   7  12  1   
 15   7  13  1   
 16   7  33  1   
 17   8  34  1   
 18   8  35  1   
 19   8  36  1   
 20   9  10  1   
 21   9  14  1   
 22   9  37  1   
 23  10  15  1   
 24  10  38  1   
 25  11  16  1   
 26  11  39  1   
 27  11  40  1   
 28  12  41  1   
 29  13  17  1   
 30  13  42  1   
 31  13  43  1   
 32  14  18  1   
 33  14  19  1   
 34  14  44  1   
 35  15  20  1   
 36  15  45  1   
 37  15  46  1   
 38  16  21  2   
 39  16  22  1   
 40  17  23  1   
 41  17  47  1   
 42  17  48  1   
 43  18  20  1   
 44  18  24  1   
 45  18  49  1   
 46  19  25  1   
 47  19  50  1   
 48  19  51  1   
 49  20  52  1   
 50  20  53  1   
 51  22  26  1   
 52  23  26  1   
 53  23  54  1   
 54  23  55  1   
 55  24  25  1   
 56  24  56  1   
 57  24  57  1   
 58  25  27  1   
 59  25  58  1   
 60  26  28  1   
 61  26  59  1   
 62  27  60  1   
 63  28  29  1   
 64  28  61  1   
 65  28  62  1   
 66  29  63  1   
 67  29  64  1   
 68  29  65  1   
@<TRIPOS>SUBSTRUCTURE
  1 ****   6 GROUP 4 **** **** 0

# MOE 2024.06 (io_trps.svl 2023.06)
