@<TRIPOS>MOLECULE
NONAME
57 60 1 0 0 
SMALL
USER_CHARGES


@<TRIPOS>ATOM
  1 S        0.2710     0.2470    -1.1980 S.3   1 <1>  -0.0800 
  2 C        0.4200     1.7050    -0.2280 C.2   1 <1>  -0.1400 
  3 C        0.9280    -0.7490     0.0920 C.2   1 <1>  -0.1400 
  4 C        0.9240     1.4010     0.9860 C.2   1 <1>  -0.1500 
  5 C       -0.0280     2.9930    -0.9000 C.3   1 <1>   0.5230 
  6 C        1.2160     0.0120     1.1640 C.2   1 <1>  -0.1500 
  7 C        1.0970    -2.2350    -0.1690 C.3   1 <1>   0.5230 
  8 N        0.4640     4.1740    -0.1420 N.4   1 <1>  -0.9590 
  9 N       -0.1620    -2.9500     0.1650 N.4   1 <1>  -0.9590 
 10 C       -0.2310     5.4210    -0.5750 C.3   1 <1>   0.3430 
 11 C        1.9490     4.3080    -0.2450 C.3   1 <1>   0.3430 
 12 C       -1.3380    -2.6420    -0.6950 C.3   1 <1>   0.3430 
 13 C       -0.0360    -4.4360     0.1780 C.3   1 <1>   0.3430 
 14 C        0.1980     6.5840     0.3210 C.3   1 <1>  -0.1600 
 15 C        2.4240     5.4460     0.6590 C.3   1 <1>  -0.1600 
 16 C       -2.3020    -3.7950    -0.4120 C.3   1 <1>   0.2000 
 17 C       -1.3590    -5.0010    -0.3640 C.3   1 <1>  -0.0800 
 18 C        1.7220     6.7680     0.3240 C.3   1 <1>  -0.1600 
 19 O       -2.8530    -3.5840     0.8490 O.3   1 <1>  -0.6800 
 20 C       -1.8660    -6.2280     0.4200 C.3   1 <1>   0.0200 
 21 C       -0.8720    -7.3700     0.3270 C.2   1 <1>  -0.0400 
 22 O        0.3140    -7.2460     0.8600 O.3   1 <1>  -0.0190 
 23 C       -0.9440    -8.5860    -0.2360 C.2   1 <1>  -0.1500 
 24 N        1.0460    -8.3010     0.6690 N.2   1 <1>  -0.4100 
 25 C        0.3120    -9.1320     0.0190 C.2   1 <1>   0.1080 
 26 C        0.7620   -10.5120    -0.4090 C.3   1 <1>  -0.0590 
 27 H        1.1180     2.0880     1.7930 H     1 <1>   0.1500 
 28 H       -1.1050     3.0050    -0.9460 H     1 <1>   0.0800 
 29 H        0.3530     3.0250    -1.9080 H     1 <1>   0.0800 
 30 H        1.6350    -0.3390     2.0950 H     1 <1>   0.1500 
 31 H        1.8930    -2.6070     0.4560 H     1 <1>   0.0800 
 32 H        1.3680    -2.4020    -1.1980 H     1 <1>   0.0800 
 33 H        0.2330     4.0200     0.8460 H     1 <1>   0.4500 
 34 H       -0.4540    -2.6710     1.1140 H     1 <1>   0.4500 
 35 H        0.0220     5.6460    -1.5990 H     1 <1>   0.0800 
 36 H       -1.3000     5.2940    -0.5080 H     1 <1>   0.0800 
 37 H        2.4300     3.3890     0.0530 H     1 <1>   0.0800 
 38 H        2.2280     4.5200    -1.2650 H     1 <1>   0.0800 
 39 H       -1.7820    -1.6910    -0.4480 H     1 <1>   0.0800 
 40 H       -1.0530    -2.6530    -1.7330 H     1 <1>   0.0800 
 41 H        0.7820    -4.7680    -0.4420 H     1 <1>   0.0800 
 42 H        0.1330    -4.7800     1.1870 H     1 <1>   0.0800 
 43 H       -0.2670     7.4890    -0.0310 H     1 <1>   0.0800 
 44 H       -0.1530     6.4130     1.3240 H     1 <1>   0.0800 
 45 H        2.2460     5.1860     1.6880 H     1 <1>   0.0800 
 46 H        3.4870     5.5700     0.5400 H     1 <1>   0.0800 
 47 H       -3.0910    -3.8730    -1.1410 H     1 <1>   0.0800 
 48 H       -1.1750    -5.3140    -1.3770 H     1 <1>   0.0800 
 49 H        1.9980     7.5230     1.0430 H     1 <1>   0.0800 
 50 H        2.0440     7.1100    -0.6460 H     1 <1>   0.0800 
 51 H       -3.6620    -4.1230     0.9840 H     1 <1>   0.4000 
 52 H       -2.8080    -6.5530     0.0150 H     1 <1>   0.0800 
 53 H       -2.0130    -5.9880     1.4590 H     1 <1>   0.0800 
 54 H       -1.7490    -9.0640    -0.7640 H     1 <1>   0.1500 
 55 H        0.1200   -11.2550     0.0260 H     1 <1>   0.0800 
 56 H        1.7700   -10.6890    -0.0790 H     1 <1>   0.0800 
 57 H        0.7270   -10.5940    -1.4790 H     1 <1>   0.0800 
@<TRIPOS>BOND
  1   1   2  1   
  2   1   3  1   
  3   2   4  2   
  4   2   5  1   
  5   3   6  2   
  6   3   7  1   
  7   4   6  1   
  8   4  27  1   
  9   5   8  1   
 10   5  28  1   
 11   5  29  1   
 12   6  30  1   
 13   7   9  1   
 14   7  31  1   
 15   7  32  1   
 16   8  10  1   
 17   8  11  1   
 18   8  33  1   
 19   9  12  1   
 20   9  13  1   
 21   9  34  1   
 22  10  14  1   
 23  10  35  1   
 24  10  36  1   
 25  11  15  1   
 26  11  37  1   
 27  11  38  1   
 28  12  16  1   
 29  12  39  1   
 30  12  40  1   
 31  13  17  1   
 32  13  41  1   
 33  13  42  1   
 34  14  18  1   
 35  14  43  1   
 36  14  44  1   
 37  15  18  1   
 38  15  45  1   
 39  15  46  1   
 40  16  17  1   
 41  16  19  1   
 42  16  47  1   
 43  17  20  1   
 44  17  48  1   
 45  18  49  1   
 46  18  50  1   
 47  19  51  1   
 48  20  21  1   
 49  20  52  1   
 50  20  53  1   
 51  21  22  1   
 52  21  23  2   
 53  22  24  1   
 54  23  25  1   
 55  23  54  1   
 56  24  25  2   
 57  25  26  1   
 58  26  55  1   
 59  26  56  1   
 60  26  57  1   
@<TRIPOS>SUBSTRUCTURE
  1 ****   7 GROUP 4 **** **** 0

# MOE 2024.06 (io_trps.svl 2023.06)
