@<TRIPOS>MOLECULE
NONAME
49 52 1 0 0 
SMALL
USER_CHARGES


@<TRIPOS>ATOM
  1 S       -0.9080     1.1450    -1.4350 S.3   1 <1>  -0.4600 
  2 C       -1.5790    -0.2170    -0.4470 C.3   1 <1>   0.0700 
  3 C       -0.3320     2.3640    -0.2140 C.3   1 <1>   0.0700 
  4 C       -2.9610     0.1890     0.0930 C.3   1 <1>   0.4230 
  5 C       -1.3740     3.4740    -0.0150 C.3   1 <1>   0.0700 
  6 N       -3.7630    -0.9760     0.5810 N.4   1 <1>  -0.9060 
  7 C       -2.8400     1.2390     1.2110 C.3   1 <1>   0.0700 
  8 S       -3.0390     2.8700     0.4500 S.3   1 <1>  -0.4600 
  9 C       -4.1700    -1.9660    -0.4560 C.3   1 <1>   0.4230 
 10 C       -5.5110    -2.5640    -0.0380 C.3   1 <1>  -0.0800 
 11 C       -3.2740    -3.1950    -0.3340 C.3   1 <1>   0.1200 
 12 C       -5.0990    -3.7080     0.9100 C.3   1 <1>   0.1200 
 13 C       -6.3160    -3.0820    -1.2500 C.3   1 <1>  -0.0170 
 14 O       -3.7030    -3.7650     0.8540 O.3   1 <1>  -0.5600 
 15 C       -7.6730    -3.6160    -0.8070 C.ar  1 <1>  -0.1440 
 16 C       -8.7480    -2.7620    -0.4560 C.ar  1 <1>   0.0000 
 17 C       -7.8860    -4.9620    -0.7250 C.ar  1 <1>  -0.1500 
 18 C       -9.9440    -3.3680     0.0030 C.ar  1 <1>   0.3100 
 19 C       -8.7130    -1.3500    -0.5370 C.ar  1 <1>  -0.1500 
 20 C       -9.1160    -5.4570    -0.2780 C.ar  1 <1>   0.1600 
 21 N      -10.1090    -4.7100     0.0850 N.ar  1 <1>  -0.6200 
 22 C      -11.0170    -2.5490     0.3890 C.ar  1 <1>  -0.1500 
 23 C       -9.7790    -0.5810    -0.1570 C.ar  1 <1>  -0.1500 
 24 C      -10.9450    -1.1850     0.3170 C.ar  1 <1>  -0.1500 
 25 H       -1.6430    -1.0410    -1.1310 H     1 <1>   0.0800 
 26 H       -0.8720    -0.4340     0.3340 H     1 <1>   0.0800 
 27 H       -0.0980     1.8520     0.7010 H     1 <1>   0.0800 
 28 H        0.5750     2.7850    -0.6130 H     1 <1>   0.0800 
 29 H       -3.5070     0.6450    -0.7180 H     1 <1>   0.0800 
 30 H       -1.4990     4.0350    -0.9250 H     1 <1>   0.0800 
 31 H       -1.0610     4.1450     0.7650 H     1 <1>   0.0800 
 32 H       -3.2710    -1.5130     1.3120 H     1 <1>   0.4500 
 33 H       -4.6150    -0.6140     1.0220 H     1 <1>   0.4500 
 34 H       -1.9000     1.2130     1.7310 H     1 <1>   0.0800 
 35 H       -3.6470     1.1600     1.9180 H     1 <1>   0.0800 
 36 H       -4.1880    -1.5350    -1.4450 H     1 <1>   0.0800 
 37 H       -6.1180    -1.8500     0.4880 H     1 <1>   0.0800 
 38 H       -2.2240    -2.9750    -0.2670 H     1 <1>   0.0800 
 39 H       -3.4470    -3.8980    -1.1320 H     1 <1>   0.0800 
 40 H       -5.4870    -4.6640     0.6020 H     1 <1>   0.0800 
 41 H       -5.3920    -3.5180     1.9290 H     1 <1>   0.0800 
 42 H       -5.7720    -3.8660    -1.7500 H     1 <1>   0.0800 
 43 H       -6.4640    -2.2980    -1.9730 H     1 <1>   0.0800 
 44 H       -7.1290    -5.6780    -0.9910 H     1 <1>   0.1500 
 45 H       -7.8380    -0.8590    -0.9120 H     1 <1>   0.1500 
 46 H       -9.2430    -6.5250    -0.2270 H     1 <1>   0.1500 
 47 H      -11.9060    -3.0360     0.7450 H     1 <1>   0.1500 
 48 H       -9.7430     0.4940    -0.2220 H     1 <1>   0.1500 
 49 H      -11.7780    -0.5710     0.6160 H     1 <1>   0.1500 
@<TRIPOS>BOND
  1   1   2  1   
  2   1   3  1   
  3   2   4  1   
  4   2  25  1   
  5   2  26  1   
  6   3   5  1   
  7   3  27  1   
  8   3  28  1   
  9   4   6  1   
 10   4   7  1   
 11   4  29  1   
 12   5   8  1   
 13   5  30  1   
 14   5  31  1   
 15   6   9  1   
 16   6  32  1   
 17   6  33  1   
 18   7   8  1   
 19   7  34  1   
 20   7  35  1   
 21   9  10  1   
 22   9  11  1   
 23   9  36  1   
 24  10  12  1   
 25  10  13  1   
 26  10  37  1   
 27  11  14  1   
 28  11  38  1   
 29  11  39  1   
 30  12  14  1   
 31  12  40  1   
 32  12  41  1   
 33  13  15  1   
 34  13  42  1   
 35  13  43  1   
 36  15  16  ar  
 37  15  17  ar  
 38  16  18  ar  
 39  16  19  ar  
 40  17  20  ar  
 41  17  44  1   
 42  18  21  ar  
 43  18  22  ar  
 44  19  23  ar  
 45  19  45  1   
 46  20  21  ar  
 47  20  46  1   
 48  22  24  ar  
 49  22  47  1   
 50  23  24  ar  
 51  23  48  1   
 52  24  49  1   
@<TRIPOS>SUBSTRUCTURE
  1 ****  10 GROUP 4 **** **** 0

# MOE 2024.06 (io_trps.svl 2023.06)
