@<TRIPOS>MOLECULE
NONAME
55 57 1 0 0 
SMALL
USER_CHARGES


@<TRIPOS>ATOM
  1 O        2.0000     2.5730    -1.2650 O.2   1 <1>  -0.5700 
  2 C        2.0380     1.5410    -0.6380 C.2   1 <1>   0.5690 
  3 N        1.1430     1.1850     0.3240 N.am  1 <1>  -0.4930 
  4 C        3.1610     0.5420    -0.9300 C.3   1 <1>   0.1710 
  5 C       -0.0200     1.8290     0.8160 C.2   1 <1>   0.0630 
  6 N        2.7950    -0.8890    -0.6570 N.3   1 <1>  -0.8100 
  7 C       -0.3230     3.1850     0.9900 C.2   1 <1>   0.1080 
  8 C       -1.1190     1.1830     1.2560 C.2   1 <1>  -0.3020 
  9 C        3.9530    -1.8400    -0.6940 C.3   1 <1>   0.1900 
 10 C        1.7810    -1.3130    -1.6530 C.3   1 <1>   0.1100 
 11 N       -1.5090     3.3600     1.4900 N.2   1 <1>  -0.7070 
 12 C        0.5730     4.3620     0.6770 C.3   1 <1>  -0.0590 
 13 N       -2.0010     2.1240     1.6510 N.pl3 1 <1>   0.3140 
 14 C        3.4830    -3.2570    -0.2510 C.3   1 <1>   0.0000 
 15 C        5.1790    -1.3870     0.1390 C.3   1 <1>   0.1400 
 16 C        1.2480    -2.7130    -1.3440 C.3   1 <1>  -0.1600 
 17 C       -3.3460     1.8950     2.1900 C.3   1 <1>   0.0160 
 18 C        4.6800    -4.2330    -0.3380 C.3   1 <1>  -0.1600 
 19 C        2.3900    -3.7330    -1.2370 C.3   1 <1>  -0.1600 
 20 C        2.9310    -3.2010     1.2040 C.3   1 <1>   0.1200 
 21 N        6.2800    -2.4000     0.0760 N.am  1 <1>  -0.6600 
 22 C        5.8810    -3.7740     0.4920 C.3   1 <1>   0.1400 
 23 O        2.4940    -4.4490     1.6270 O.3   1 <1>  -0.6800 
 24 C        7.5680    -2.1420    -0.3260 C.2   1 <1>   0.5690 
 25 O        8.4130    -3.0020    -0.3780 O.2   1 <1>  -0.5700 
 26 C        7.9910    -0.7470    -0.7270 C.3   1 <1>  -0.1790 
 27 H        1.2750     0.2210     0.6390 H     1 <1>   0.3700 
 28 H        3.9730     0.8480    -0.3010 H     1 <1>   0.0800 
 29 H        3.4700     0.6560    -1.9540 H     1 <1>   0.0800 
 30 H       -1.3210     0.1320     1.3070 H     1 <1>   0.1500 
 31 H        4.2930    -1.9050    -1.7150 H     1 <1>   0.0800 
 32 H        0.9480    -0.6290    -1.6600 H     1 <1>   0.0800 
 33 H        2.2170    -1.3070    -2.6390 H     1 <1>   0.0800 
 34 H        1.5930     4.1260     0.9160 H     1 <1>   0.0800 
 35 H        0.2690     5.2170     1.2510 H     1 <1>   0.0800 
 36 H        0.5000     4.6010    -0.3680 H     1 <1>   0.0800 
 37 H        4.8960    -1.2410     1.1650 H     1 <1>   0.0800 
 38 H        5.5390    -0.4540    -0.2430 H     1 <1>   0.0800 
 39 H        0.6770    -2.6830    -0.4340 H     1 <1>   0.0800 
 40 H        0.5770    -3.0130    -2.1300 H     1 <1>   0.0800 
 41 H       -3.3240     1.0570     2.8590 H     1 <1>   0.0800 
 42 H       -4.0200     1.7030     1.3770 H     1 <1>   0.0800 
 43 H       -3.6630     2.7740     2.7210 H     1 <1>   0.0800 
 44 H        5.0040    -4.3310    -1.3590 H     1 <1>   0.0800 
 45 H        4.3860    -5.2120    -0.0050 H     1 <1>   0.0800 
 46 H        2.8260    -3.8520    -2.2140 H     1 <1>   0.0800 
 47 H        2.0000    -4.6930    -0.9470 H     1 <1>   0.0800 
 48 H        2.1030    -2.5190     1.2820 H     1 <1>   0.0800 
 49 H        3.6830    -2.8800     1.9000 H     1 <1>   0.0800 
 50 H        6.6930    -4.4680     0.3480 H     1 <1>   0.0800 
 51 H        5.6410    -3.7750     1.5410 H     1 <1>   0.0800 
 52 H        1.7810    -4.7700     1.0430 H     1 <1>   0.4000 
 53 H        7.4390    -0.4330    -1.5920 H     1 <1>   0.0800 
 54 H        9.0380    -0.7440    -0.9690 H     1 <1>   0.0800 
 55 H        7.8270    -0.0660     0.0860 H     1 <1>   0.0800 
@<TRIPOS>BOND
  1   1   2  2   
  2   2   3  am  
  3   2   4  1   
  4   3   5  1   
  5   3  27  1   
  6   4   6  1   
  7   4  28  1   
  8   4  29  1   
  9   5   7  1   
 10   5   8  2   
 11   6   9  1   
 12   6  10  1   
 13   7  11  2   
 14   7  12  1   
 15   8  13  1   
 16   8  30  1   
 17   9  14  1   
 18   9  15  1   
 19   9  31  1   
 20  10  16  1   
 21  10  32  1   
 22  10  33  1   
 23  11  13  1   
 24  12  34  1   
 25  12  35  1   
 26  12  36  1   
 27  13  17  1   
 28  14  18  1   
 29  14  19  1   
 30  14  20  1   
 31  15  21  1   
 32  15  37  1   
 33  15  38  1   
 34  16  19  1   
 35  16  39  1   
 36  16  40  1   
 37  17  41  1   
 38  17  42  1   
 39  17  43  1   
 40  18  22  1   
 41  18  44  1   
 42  18  45  1   
 43  19  46  1   
 44  19  47  1   
 45  20  23  1   
 46  20  48  1   
 47  20  49  1   
 48  21  22  1   
 49  21  24  am  
 50  22  50  1   
 51  22  51  1   
 52  23  52  1   
 53  24  25  2   
 54  24  26  1   
 55  26  53  1   
 56  26  54  1   
 57  26  55  1   
@<TRIPOS>SUBSTRUCTURE
  1 ****   6 GROUP 4 **** **** 0

# MOE 2024.06 (io_trps.svl 2023.06)
