@<TRIPOS>MOLECULE
NONAME
44 45 1 0 0 
SMALL
USER_CHARGES


@<TRIPOS>ATOM
  1 F       -1.4530     0.2660     0.8170 F     1 <1>  -0.3400 
  2 C       -2.1420     1.3770     1.0570 C.3   1 <1>   1.1640 
  3 F       -3.3950     1.1080     0.6940 F     1 <1>  -0.3400 
  4 F       -2.1750     1.5190     2.3790 F     1 <1>  -0.3400 
  5 C       -1.5540     2.6210     0.3320 C.ar  1 <1>   0.1660 
  6 N       -0.3030     3.0000     0.5760 N.ar  1 <1>  -0.6200 
  7 C       -2.3240     3.3370    -0.5660 C.ar  1 <1>  -0.1500 
  8 C        0.1400     4.0670    -0.0700 C.ar  1 <1>   0.4760 
  9 C       -1.7670     4.4290    -1.1870 C.ar  1 <1>   0.1660 
 10 N       -0.5350     4.8030    -0.9450 N.ar  1 <1>  -0.6200 
 11 C        1.5850     4.4890     0.2270 C.3   1 <1>   0.2840 
 12 C       -2.5520     5.2570    -2.1820 C.3   1 <1>  -0.0970 
 13 N        1.7920     5.9510     0.0400 N.am  1 <1>  -0.7300 
 14 C        2.6380     6.7220     0.7600 C.2   1 <1>   0.5690 
 15 O        3.4030     6.2430     1.5590 O.2   1 <1>  -0.5700 
 16 C        2.6080     8.2360     0.5670 C.3   1 <1>  -0.0190 
 17 C        1.2090     8.8210     0.8460 C.3   1 <1>  -0.1600 
 18 C        3.1220     8.6500    -0.8340 C.3   1 <1>  -0.1600 
 19 C        1.2090    10.3640     0.8120 C.3   1 <1>   0.2000 
 20 C        2.6250    10.0360    -1.2910 C.3   1 <1>  -0.1600 
 21 O       -0.0460    10.7890     0.3400 O.3   1 <1>  -0.5600 
 22 C        2.3230    10.9470    -0.0980 C.3   1 <1>   0.2000 
 23 C       -1.0650    10.7960     1.2910 C.3   1 <1>   0.0400 
 24 O        1.9140    12.1690    -0.5880 O.3   1 <1>  -0.6800 
 25 H       -3.3380     3.0580    -0.7860 H     1 <1>   0.1500 
 26 H        2.2410     3.9560    -0.4360 H     1 <1>   0.0800 
 27 H        1.8340     4.2180     1.2380 H     1 <1>   0.0800 
 28 H       -3.5420     4.8640    -2.3210 H     1 <1>   0.0800 
 29 H       -2.0440     5.2590    -3.1290 H     1 <1>   0.0800 
 30 H       -2.6260     6.2700    -1.8290 H     1 <1>   0.0800 
 31 H        1.1040     6.3680    -0.5950 H     1 <1>   0.3700 
 32 H        3.2800     8.6510     1.2990 H     1 <1>   0.0800 
 33 H        0.8710     8.4890     1.8120 H     1 <1>   0.0800 
 34 H        0.5250     8.4510     0.1020 H     1 <1>   0.0800 
 35 H        4.1990     8.6460    -0.8100 H     1 <1>   0.0800 
 36 H        2.8210     7.9270    -1.5720 H     1 <1>   0.0800 
 37 H        1.3600    10.7560     1.8040 H     1 <1>   0.0800 
 38 H        1.7200     9.9120    -1.8610 H     1 <1>   0.0800 
 39 H        3.3640    10.4940    -1.9250 H     1 <1>   0.0800 
 40 H        3.2260    11.1030     0.4680 H     1 <1>   0.0800 
 41 H       -1.9630    11.1470     0.8150 H     1 <1>   0.0800 
 42 H       -0.7980    11.4610     2.0940 H     1 <1>   0.0800 
 43 H       -1.2200     9.7980     1.6610 H     1 <1>   0.0800 
 44 H        0.9330    12.1180    -0.6460 H     1 <1>   0.4000 
@<TRIPOS>BOND
  1   1   2  1   
  2   2   3  1   
  3   2   4  1   
  4   2   5  1   
  5   5   6  ar  
  6   5   7  ar  
  7   6   8  ar  
  8   7   9  ar  
  9   7  25  1   
 10   8  10  ar  
 11   8  11  1   
 12   9  10  ar  
 13   9  12  1   
 14  11  13  1   
 15  11  26  1   
 16  11  27  1   
 17  12  28  1   
 18  12  29  1   
 19  12  30  1   
 20  13  14  am  
 21  13  31  1   
 22  14  15  2   
 23  14  16  1   
 24  16  17  1   
 25  16  18  1   
 26  16  32  1   
 27  17  19  1   
 28  17  33  1   
 29  17  34  1   
 30  18  20  1   
 31  18  35  1   
 32  18  36  1   
 33  19  21  1   
 34  19  22  1   
 35  19  37  1   
 36  20  22  1   
 37  20  38  1   
 38  20  39  1   
 39  21  23  1   
 40  22  24  1   
 41  22  40  1   
 42  23  41  1   
 43  23  42  1   
 44  23  43  1   
 45  24  44  1   
@<TRIPOS>SUBSTRUCTURE
  1 ****  13 GROUP 4 **** **** 0

# MOE 2024.06 (io_trps.svl 2023.06)
