@<TRIPOS>MOLECULE
NONAME
44 45 1 0 0 
SMALL
USER_CHARGES


@<TRIPOS>ATOM
  1 S       -0.1260     0.1710     0.2870 S.o2  1 <1>   1.3330 
  2 O       -0.7160     1.4800     0.4500 O.2   1 <1>  -0.6500 
  3 O        0.0500    -0.6830     1.4400 O.2   1 <1>  -0.6500 
  4 N       -1.0360    -0.6860    -0.8610 N.am  1 <1>  -0.8490 
  5 C        1.4470     0.3820    -0.5470 C.3   1 <1>  -0.0550 
  6 C       -0.8260    -2.1370    -0.8080 C.3   1 <1>   0.1160 
  7 C       -2.4690    -0.3860    -0.7740 C.3   1 <1>   0.1160 
  8 C        2.4360     1.2670     0.2350 C.3   1 <1>  -0.0800 
  9 C        3.6650     1.5860    -0.6010 C.3   1 <1>   0.2200 
 10 C        3.0250     0.5470     1.4590 C.3   1 <1>   0.1200 
 11 N        4.2040     2.8930    -0.1660 N.am  1 <1>  -0.7300 
 12 C        4.6220     0.4770    -0.1900 C.3   1 <1>   0.1200 
 13 O        4.3550     0.2410     1.1560 O.3   1 <1>  -0.5600 
 14 C        4.2940     4.0090    -0.9480 C.2   1 <1>   0.5440 
 15 O        4.0130     3.9110    -2.1260 O.2   1 <1>  -0.5700 
 16 C        4.7180     5.2750    -0.3940 C.ar  1 <1>   0.0860 
 17 C        4.4540     5.6120     0.9320 C.ar  1 <1>   0.1600 
 18 C        5.4000     6.2190    -1.1530 C.ar  1 <1>  -0.1500 
 19 N        4.8080     6.7310     1.5360 N.ar  1 <1>  -0.6200 
 20 C        5.7750     7.3960    -0.5480 C.ar  1 <1>  -0.1500 
 21 C        5.4640     7.6110     0.7940 C.ar  1 <1>   0.3930 
 22 O        5.8060     8.7390     1.4430 O.3   1 <1>  -0.3620 
 23 C        6.4810     9.8140     0.8310 C.3   1 <1>   0.0400 
 24 H        1.8880    -0.5780    -0.7350 H     1 <1>   0.0800 
 25 H        1.2550     0.8460    -1.4960 H     1 <1>   0.0800 
 26 H       -1.3530    -2.6170    -1.6150 H     1 <1>   0.0800 
 27 H       -1.1820    -2.5350     0.1280 H     1 <1>   0.0800 
 28 H        0.2210    -2.3650    -0.9040 H     1 <1>   0.0800 
 29 H       -3.0120    -0.9340    -1.5250 H     1 <1>   0.0800 
 30 H       -2.6370     0.6650    -0.9380 H     1 <1>   0.0800 
 31 H       -2.8470    -0.6480     0.2010 H     1 <1>   0.0800 
 32 H        1.9260     2.1690     0.5270 H     1 <1>   0.0800 
 33 H        3.4750     1.5850    -1.6610 H     1 <1>   0.0800 
 34 H        2.5150    -0.3700     1.6970 H     1 <1>   0.0800 
 35 H        3.0250     1.1890     2.3240 H     1 <1>   0.0800 
 36 H        4.6030     2.8780     0.7760 H     1 <1>   0.3700 
 37 H        5.6550     0.7510    -0.3150 H     1 <1>   0.0800 
 38 H        4.4140    -0.4290    -0.7320 H     1 <1>   0.0800 
 39 H        3.9050     4.9080     1.5330 H     1 <1>   0.1500 
 40 H        5.6210     6.0220    -2.1890 H     1 <1>   0.1500 
 41 H        6.3030     8.1330    -1.1210 H     1 <1>   0.1500 
 42 H        6.6170    10.5840     1.5690 H     1 <1>   0.0800 
 43 H        5.8800    10.1890     0.0200 H     1 <1>   0.0800 
 44 H        7.4380     9.4730     0.4790 H     1 <1>   0.0800 
@<TRIPOS>BOND
  1   1   2  2   
  2   1   3  2   
  3   1   4  am  
  4   1   5  1   
  5   4   6  1   
  6   4   7  1   
  7   5   8  1   
  8   5  24  1   
  9   5  25  1   
 10   6  26  1   
 11   6  27  1   
 12   6  28  1   
 13   7  29  1   
 14   7  30  1   
 15   7  31  1   
 16   8   9  1   
 17   8  10  1   
 18   8  32  1   
 19   9  11  1   
 20   9  12  1   
 21   9  33  1   
 22  10  13  1   
 23  10  34  1   
 24  10  35  1   
 25  11  14  am  
 26  11  36  1   
 27  12  13  1   
 28  12  37  1   
 29  12  38  1   
 30  14  15  2   
 31  14  16  1   
 32  16  17  ar  
 33  16  18  ar  
 34  17  19  ar  
 35  17  39  1   
 36  18  20  ar  
 37  18  40  1   
 38  19  21  ar  
 39  20  21  ar  
 40  20  41  1   
 41  21  22  1   
 42  22  23  1   
 43  23  42  1   
 44  23  43  1   
 45  23  44  1   
@<TRIPOS>SUBSTRUCTURE
  1 ****  11 GROUP 4 **** **** 0

# MOE 2024.06 (io_trps.svl 2023.06)
