@<TRIPOS>MOLECULE
NONAME
52 54 1 0 0 
SMALL
USER_CHARGES


@<TRIPOS>ATOM
  1 O       -2.0650    -0.3410    -1.6110 O.co2 1 <1>  -0.9000 
  2 C       -2.5620    -0.1680    -0.4940 C.2   1 <1>   0.9060 
  3 O       -1.9590     0.3440     0.4520 O.co2 1 <1>  -0.9000 
  4 C       -3.9180    -0.8150    -0.2050 C.3   1 <1>   0.2370 
  5 N       -3.8570    -2.2970     0.1410 N.4   1 <1>  -0.9590 
  6 C       -3.0380    -2.5290     1.3870 C.3   1 <1>   0.4230 
  7 C       -3.4380    -3.0930    -1.0560 C.3   1 <1>   0.3430 
  8 C       -1.5120    -2.7160     1.1770 C.3   1 <1>   0.1200 
  9 C       -3.6520    -3.7390     2.1370 C.3   1 <1>   0.1400 
 10 C       -2.8790    -4.5040    -0.7720 C.3   1 <1>  -0.0800 
 11 O       -1.1780    -4.0430     0.8780 O.3   1 <1>  -0.5600 
 12 N       -4.4500    -4.6460     1.2320 N.am  1 <1>  -0.6600 
 13 C       -1.3820    -4.4270    -0.4370 C.3   1 <1>   0.1200 
 14 C       -3.6700    -5.4080     0.2110 C.3   1 <1>   0.1400 
 15 C       -5.8160    -4.5350     1.1770 C.2   1 <1>   0.5690 
 16 O       -6.3250    -3.4640     1.4180 O.2   1 <1>  -0.5700 
 17 C       -6.7280    -5.6770     0.7260 C.3   1 <1>   0.1810 
 18 O       -6.1930    -6.9470     1.0650 O.3   1 <1>  -0.3630 
 19 C       -6.7650    -8.0910     0.6170 C.ar  1 <1>   0.0830 
 20 C       -7.9790    -8.1400    -0.0620 C.ar  1 <1>  -0.1500 
 21 C       -6.0760    -9.2660     0.8590 C.ar  1 <1>  -0.1500 
 22 C       -8.4920    -9.3490    -0.5050 C.ar  1 <1>  -0.1430 
 23 C       -6.5840   -10.4750     0.4200 C.ar  1 <1>  -0.1500 
 24 C       -7.7890   -10.5260    -0.2640 C.ar  1 <1>  -0.1430 
 25 C       -9.8220    -9.3620    -1.2460 C.3   1 <1>  -0.0970 
 26 C       -8.3140   -11.8770    -0.7310 C.3   1 <1>  -0.0970 
 27 H       -4.5330    -0.6690    -1.0740 H     1 <1>   0.0800 
 28 H       -4.3550    -0.2710     0.6120 H     1 <1>   0.0800 
 29 H       -4.8010    -2.6230     0.4180 H     1 <1>   0.4500 
 30 H       -3.1470    -1.6620     2.0180 H     1 <1>   0.0800 
 31 H       -4.2870    -3.1840    -1.7130 H     1 <1>   0.0800 
 32 H       -2.6830    -2.5420    -1.5960 H     1 <1>   0.0800 
 33 H       -1.0140    -2.4800     2.1010 H     1 <1>   0.0800 
 34 H       -1.1090    -2.0620     0.4230 H     1 <1>   0.0800 
 35 H       -4.2980    -3.3580     2.9090 H     1 <1>   0.0800 
 36 H       -2.8860    -4.3070     2.6360 H     1 <1>   0.0800 
 37 H       -2.9040    -5.0100    -1.7200 H     1 <1>   0.0800 
 38 H       -0.8610    -3.7410    -1.0860 H     1 <1>   0.0800 
 39 H       -0.9330    -5.3990    -0.5490 H     1 <1>   0.0800 
 40 H       -2.9960    -6.0800     0.7180 H     1 <1>   0.0800 
 41 H       -4.3410    -6.0200    -0.3660 H     1 <1>   0.0800 
 42 H       -6.8500    -5.6320    -0.3400 H     1 <1>   0.0800 
 43 H       -7.6840    -5.5810     1.2080 H     1 <1>   0.0800 
 44 H       -8.5390    -7.2450    -0.2490 H     1 <1>   0.1500 
 45 H       -5.1440    -9.2320     1.3910 H     1 <1>   0.1500 
 46 H       -6.0330   -11.3770     0.6180 H     1 <1>   0.1500 
 47 H      -10.2200    -8.3690    -1.3480 H     1 <1>   0.0800 
 48 H      -10.5370    -9.9570    -0.7060 H     1 <1>   0.0800 
 49 H       -9.6920    -9.7760    -2.2290 H     1 <1>   0.0800 
 50 H       -7.6410   -12.6690    -0.4550 H     1 <1>   0.0800 
 51 H       -8.4190   -11.8820    -1.8000 H     1 <1>   0.0800 
 52 H       -9.2700   -12.0770    -0.2820 H     1 <1>   0.0800 
@<TRIPOS>BOND
  1   1   2  ar  
  2   2   3  ar  
  3   2   4  1   
  4   4   5  1   
  5   4  27  1   
  6   4  28  1   
  7   5   6  1   
  8   5   7  1   
  9   5  29  1   
 10   6   8  1   
 11   6   9  1   
 12   6  30  1   
 13   7  10  1   
 14   7  31  1   
 15   7  32  1   
 16   8  11  1   
 17   8  33  1   
 18   8  34  1   
 19   9  12  1   
 20   9  35  1   
 21   9  36  1   
 22  10  13  1   
 23  10  14  1   
 24  10  37  1   
 25  11  13  1   
 26  12  14  1   
 27  12  15  am  
 28  13  38  1   
 29  13  39  1   
 30  14  40  1   
 31  14  41  1   
 32  15  16  2   
 33  15  17  1   
 34  17  18  1   
 35  17  42  1   
 36  17  43  1   
 37  18  19  1   
 38  19  20  ar  
 39  19  21  ar  
 40  20  22  ar  
 41  20  44  1   
 42  21  23  ar  
 43  21  45  1   
 44  22  24  ar  
 45  22  25  1   
 46  23  24  ar  
 47  23  46  1   
 48  24  26  1   
 49  25  47  1   
 50  25  48  1   
 51  25  49  1   
 52  26  50  1   
 53  26  51  1   
 54  26  52  1   
@<TRIPOS>SUBSTRUCTURE
  1 ****  14 GROUP 4 **** **** 0

# MOE 2024.06 (io_trps.svl 2023.06)
