@<TRIPOS>MOLECULE
NONAME
53 55 1 0 0 
SMALL
USER_CHARGES


@<TRIPOS>ATOM
  1 O       -0.3370    -0.6680     0.1410 O.3   1 <1>  -0.3630 
  2 C       -1.5570    -1.2400     0.3540 C.ar  1 <1>   0.0830 
  3 C        0.0920     0.4940     0.8120 C.3   1 <1>   0.1200 
  4 C       -1.8930    -2.4490    -0.2810 C.ar  1 <1>   0.0830 
  5 C       -2.4970    -0.6370     1.1880 C.ar  1 <1>  -0.1500 
  6 C        1.5200     0.7930     0.3640 C.3   1 <1>  -0.2400 
  7 O       -1.1060    -3.1810    -1.1220 O.3   1 <1>  -0.3620 
  8 C       -3.1450    -3.0020    -0.0710 C.ar  1 <1>  -0.1500 
  9 C       -3.7440    -1.2040     1.3830 C.ar  1 <1>  -0.1500 
 10 C        0.2890    -2.9940    -1.2290 C.3   1 <1>   0.0400 
 11 C       -4.0790    -2.3880     0.7470 C.ar  1 <1>  -0.1430 
 12 C       -5.4500    -3.0090     0.9270 C.3   1 <1>   0.4860 
 13 N       -6.4200    -2.2690     0.0810 N.4   1 <1>  -0.9590 
 14 C       -7.8330    -2.6630     0.3860 C.3   1 <1>   0.3430 
 15 C       -6.1180    -2.3620    -1.3740 C.3   1 <1>   0.3430 
 16 C       -8.8660    -2.0180    -0.5800 C.3   1 <1>   0.0000 
 17 C       -6.9620    -1.3400    -2.1470 C.3   1 <1>  -0.1600 
 18 C      -10.0980    -1.5310     0.1980 C.3   1 <1>   0.2000 
 19 C       -8.2350    -0.8790    -1.4110 C.3   1 <1>  -0.1600 
 20 C       -9.4730    -3.1120    -1.4740 C.3   1 <1>  -0.1600 
 21 O       -9.7350    -0.9450     1.3980 O.3   1 <1>  -0.6800 
 22 C      -10.9620    -2.7660     0.4470 C.3   1 <1>  -0.1600 
 23 C      -10.5400    -3.7960    -0.6110 C.3   1 <1>  -0.1600 
 24 H       -0.5650     1.3040     0.5480 H     1 <1>   0.0800 
 25 H        0.0580     0.3100     1.8720 H     1 <1>   0.0800 
 26 H       -2.2800     0.2820     1.6980 H     1 <1>   0.1500 
 27 H        1.5470     0.9580    -0.6980 H     1 <1>   0.0800 
 28 H        2.1670    -0.0280     0.6180 H     1 <1>   0.0800 
 29 H        1.8790     1.6780     0.8580 H     1 <1>   0.0800 
 30 H       -3.3690    -3.9290    -0.5670 H     1 <1>   0.1500 
 31 H       -4.4440    -0.7100     2.0370 H     1 <1>   0.1500 
 32 H        0.6930    -3.8070    -1.8030 H     1 <1>   0.0800 
 33 H        0.7190    -2.9910    -0.2430 H     1 <1>   0.0800 
 34 H        0.4780    -2.0640    -1.7330 H     1 <1>   0.0800 
 35 H       -5.7370    -2.9410     1.9640 H     1 <1>   0.0800 
 36 H       -5.4250    -4.0480     0.6460 H     1 <1>   0.0800 
 37 H       -6.3290    -1.2750     0.3250 H     1 <1>   0.4500 
 38 H       -7.9320    -3.7340     0.3280 H     1 <1>   0.0800 
 39 H       -8.0580    -2.3800     1.4000 H     1 <1>   0.0800 
 40 H       -5.0730    -2.1700    -1.5610 H     1 <1>   0.0800 
 41 H       -6.3460    -3.3550    -1.7240 H     1 <1>   0.0800 
 42 H       -6.3540    -0.4800    -2.3710 H     1 <1>   0.0800 
 43 H       -7.2320    -1.7800    -3.0920 H     1 <1>   0.0800 
 44 H      -10.6480    -0.8090    -0.3850 H     1 <1>   0.0800 
 45 H       -8.9440    -0.4860    -2.1210 H     1 <1>   0.0800 
 46 H       -7.9810    -0.0710    -0.7440 H     1 <1>   0.0800 
 47 H       -9.9610    -2.6580    -2.3210 H     1 <1>   0.0800 
 48 H       -8.7450    -3.8150    -1.8400 H     1 <1>   0.0800 
 49 H      -10.5300    -0.5950     1.8520 H     1 <1>   0.4000 
 50 H      -10.7940    -3.1690     1.4310 H     1 <1>   0.0800 
 51 H      -12.0040    -2.5190     0.3370 H     1 <1>   0.0800 
 52 H      -10.1290    -4.6660    -0.1280 H     1 <1>   0.0800 
 53 H      -11.3780    -4.1060    -1.2130 H     1 <1>   0.0800 
@<TRIPOS>BOND
  1   1   2  1   
  2   1   3  1   
  3   2   4  ar  
  4   2   5  ar  
  5   3   6  1   
  6   3  24  1   
  7   3  25  1   
  8   4   7  1   
  9   4   8  ar  
 10   5   9  ar  
 11   5  26  1   
 12   6  27  1   
 13   6  28  1   
 14   6  29  1   
 15   7  10  1   
 16   8  11  ar  
 17   8  30  1   
 18   9  11  ar  
 19   9  31  1   
 20  10  32  1   
 21  10  33  1   
 22  10  34  1   
 23  11  12  1   
 24  12  13  1   
 25  12  35  1   
 26  12  36  1   
 27  13  14  1   
 28  13  15  1   
 29  13  37  1   
 30  14  16  1   
 31  14  38  1   
 32  14  39  1   
 33  15  17  1   
 34  15  40  1   
 35  15  41  1   
 36  16  18  1   
 37  16  19  1   
 38  16  20  1   
 39  17  19  1   
 40  17  42  1   
 41  17  43  1   
 42  18  21  1   
 43  18  22  1   
 44  18  44  1   
 45  19  45  1   
 46  19  46  1   
 47  20  23  1   
 48  20  47  1   
 49  20  48  1   
 50  21  49  1   
 51  22  23  1   
 52  22  50  1   
 53  22  51  1   
 54  23  52  1   
 55  23  53  1   
@<TRIPOS>SUBSTRUCTURE
  1 ****  13 GROUP 4 **** **** 0

# MOE 2024.06 (io_trps.svl 2023.06)
