@<TRIPOS>MOLECULE
NONAME
42 43 1 0 0 
SMALL
USER_CHARGES


@<TRIPOS>ATOM
  1 O        0.0770    -0.7330    -1.0380 O.2   1 <1>  -0.5700 
  2 C        1.0370    -1.1600    -0.4280 C.2   1 <1>   0.5440 
  3 N        1.9840    -0.2770     0.0120 N.am  1 <1>  -0.7300 
  4 C        1.1640    -2.5800    -0.1570 C.ar  1 <1>   0.0860 
  5 C        1.9630     1.1780    -0.2310 C.3   1 <1>   0.1400 
  6 C        0.0640    -3.4130    -0.0740 C.ar  1 <1>  -0.1500 
  7 C        2.3880    -3.2130     0.0340 C.ar  1 <1>  -0.1500 
  8 C        3.3940     1.6560    -0.4450 C.3   1 <1>  -0.2400 
  9 C        0.2030    -4.7670     0.1920 C.ar  1 <1>   0.4100 
 10 C        2.4330    -4.5670     0.2960 C.ar  1 <1>   0.1600 
 11 N        1.3770    -5.3540     0.3820 N.ar  1 <1>  -0.6200 
 12 N       -0.9220    -5.5540     0.2660 N.pl3 1 <1>  -0.8690 
 13 C       -0.8410    -7.0280     0.2900 C.3   1 <1>   0.2090 
 14 C       -2.2560    -7.6000     0.3210 C.3   1 <1>  -0.1600 
 15 C       -2.2360    -9.1310     0.3840 C.3   1 <1>   0.0210 
 16 C       -3.6490    -9.6810     0.3660 C.2   1 <1>  -0.1810 
 17 C       -4.5850    -9.6130     1.3930 C.2   1 <1>   0.1390 
 18 C       -4.2850   -10.3370    -0.6270 C.2   1 <1>  -0.3020 
 19 N       -5.7090   -10.1760     1.0710 N.2   1 <1>  -0.7070 
 20 N       -5.5220   -10.6260    -0.1800 N.pl3 1 <1>   0.3140 
 21 C       -6.5830   -11.3310    -0.9050 C.3   1 <1>   0.0160 
 22 H        2.7070    -0.5990     0.6540 H     1 <1>   0.3700 
 23 H        1.5240     1.6760     0.6180 H     1 <1>   0.0800 
 24 H        1.3660     1.3980    -1.1020 H     1 <1>   0.0800 
 25 H       -0.9190    -3.0050    -0.2150 H     1 <1>   0.1500 
 26 H        3.3020    -2.6540    -0.0290 H     1 <1>   0.1500 
 27 H        3.9900     1.4680     0.4290 H     1 <1>   0.0800 
 28 H        3.3940     2.7140    -0.6360 H     1 <1>   0.0800 
 29 H        3.8270     1.1580    -1.2940 H     1 <1>   0.0800 
 30 H        3.3930    -5.0350     0.4410 H     1 <1>   0.1500 
 31 H       -1.7500    -5.1880    -0.2060 H     1 <1>   0.4000 
 32 H       -0.2930    -7.3370     1.1650 H     1 <1>   0.0800 
 33 H       -0.3140    -7.3710    -0.5850 H     1 <1>   0.0800 
 34 H       -2.7850    -7.2950    -0.5640 H     1 <1>   0.0800 
 35 H       -2.7730    -7.2180     1.1830 H     1 <1>   0.0800 
 36 H       -1.7400    -9.4590     1.2800 H     1 <1>   0.0800 
 37 H       -1.6970    -9.5230    -0.4610 H     1 <1>   0.0800 
 38 H       -4.4100    -9.1480     2.3480 H     1 <1>   0.1500 
 39 H       -3.9340   -10.6090    -1.6050 H     1 <1>   0.1500 
 40 H       -6.2030   -11.6940    -1.8400 H     1 <1>   0.0800 
 41 H       -7.3960   -10.6510    -1.0780 H     1 <1>   0.0800 
 42 H       -6.9250   -12.1540    -0.3050 H     1 <1>   0.0800 
@<TRIPOS>BOND
  1   1   2  2   
  2   2   3  am  
  3   2   4  1   
  4   3   5  1   
  5   3  22  1   
  6   4   6  ar  
  7   4   7  ar  
  8   5   8  1   
  9   5  23  1   
 10   5  24  1   
 11   6   9  ar  
 12   6  25  1   
 13   7  10  ar  
 14   7  26  1   
 15   8  27  1   
 16   8  28  1   
 17   8  29  1   
 18   9  11  ar  
 19   9  12  1   
 20  10  11  ar  
 21  10  30  1   
 22  12  13  1   
 23  12  31  1   
 24  13  14  1   
 25  13  32  1   
 26  13  33  1   
 27  14  15  1   
 28  14  34  1   
 29  14  35  1   
 30  15  16  1   
 31  15  36  1   
 32  15  37  1   
 33  16  17  1   
 34  16  18  2   
 35  17  19  2   
 36  17  38  1   
 37  18  20  1   
 38  18  39  1   
 39  19  20  1   
 40  20  21  1   
 41  21  40  1   
 42  21  41  1   
 43  21  42  1   
@<TRIPOS>SUBSTRUCTURE
  1 ****  12 GROUP 4 **** **** 0

# MOE 2024.06 (io_trps.svl 2023.06)
