@<TRIPOS>MOLECULE
NONAME
40 42 1 0 0 
SMALL
USER_CHARGES


@<TRIPOS>ATOM
  1 O       -0.3640     0.1760    -0.1020 O.2   1 <1>  -0.5700 
  2 C       -1.4220     0.7510     0.0580 C.2   1 <1>   0.5440 
  3 N       -2.5760     0.0030     0.1250 N.am  1 <1>  -0.6600 
  4 C       -1.4410     2.1940     0.1520 C.ar  1 <1>   0.0860 
  5 C       -3.9440     0.5300    -0.1110 C.3   1 <1>   0.1400 
  6 C       -2.5630    -1.4780     0.0160 C.3   1 <1>   0.1400 
  7 C       -0.7410     2.9630    -0.7720 C.ar  1 <1>   0.1600 
  8 C       -2.1350     2.8770     1.1430 C.ar  1 <1>  -0.1500 
  9 C       -4.7710    -0.6890    -0.5210 C.3   1 <1>   0.2000 
 10 C       -4.0340    -1.8960     0.0540 C.3   1 <1>  -0.0800 
 11 N       -0.7010     4.2870    -0.8090 N.ar  1 <1>  -0.6200 
 12 C       -2.1000     4.2550     1.1260 C.ar  1 <1>  -0.1500 
 13 O       -6.0580    -0.6300    -0.0100 O.3   1 <1>  -0.6800 
 14 C       -4.3440    -3.1960    -0.7080 C.3   1 <1>  -0.0170 
 15 C       -1.3810     4.9090     0.1390 C.ar  1 <1>   0.1670 
 16 C       -3.6580    -4.3970    -0.0770 C.ar  1 <1>   0.1670 
 17 C       -1.3320     6.4220     0.1010 C.3   1 <1>  -0.0970 
 18 N       -2.3930    -4.5970    -0.4080 N.ar  1 <1>  -0.6200 
 19 C       -4.3630    -5.2190     0.8010 C.ar  1 <1>   0.1600 
 20 C       -1.8830    -5.6600     0.1940 C.ar  1 <1>   0.1600 
 21 N       -3.8550    -6.2810     1.4060 N.ar  1 <1>  -0.6200 
 22 C       -2.5900    -6.4730     1.0710 C.ar  1 <1>   0.1600 
 23 H       -4.3220     0.9550     0.8020 H     1 <1>   0.0800 
 24 H       -3.9380     1.2690    -0.8940 H     1 <1>   0.0800 
 25 H       -2.1060    -1.7580    -0.9190 H     1 <1>   0.0800 
 26 H       -2.0030    -1.9170     0.8240 H     1 <1>   0.0800 
 27 H       -0.1800     2.4410    -1.5290 H     1 <1>   0.1500 
 28 H       -2.6750     2.3410     1.9030 H     1 <1>   0.1500 
 29 H       -4.8320    -0.7420    -1.5950 H     1 <1>   0.0800 
 30 H       -4.3010    -2.0170     1.0900 H     1 <1>   0.0800 
 31 H       -2.6270     4.8170     1.8760 H     1 <1>   0.1500 
 32 H       -6.0380    -0.6010     0.9660 H     1 <1>   0.4000 
 33 H       -4.0240    -3.1070    -1.7320 H     1 <1>   0.0800 
 34 H       -5.4070    -3.3550    -0.7170 H     1 <1>   0.0800 
 35 H       -1.9070     6.8510     0.9000 H     1 <1>   0.0800 
 36 H       -1.7260     6.7690    -0.8370 H     1 <1>   0.0800 
 37 H       -0.3130     6.7490     0.1890 H     1 <1>   0.0800 
 38 H       -5.3910    -4.9880     1.0160 H     1 <1>   0.1500 
 39 H       -0.8560    -5.8980    -0.0170 H     1 <1>   0.1500 
 40 H       -2.0880    -7.3160     1.5120 H     1 <1>   0.1500 
@<TRIPOS>BOND
  1   1   2  2   
  2   2   3  am  
  3   2   4  1   
  4   3   5  1   
  5   3   6  1   
  6   4   7  ar  
  7   4   8  ar  
  8   5   9  1   
  9   5  23  1   
 10   5  24  1   
 11   6  10  1   
 12   6  25  1   
 13   6  26  1   
 14   7  11  ar  
 15   7  27  1   
 16   8  12  ar  
 17   8  28  1   
 18   9  10  1   
 19   9  13  1   
 20   9  29  1   
 21  10  14  1   
 22  10  30  1   
 23  11  15  ar  
 24  12  15  ar  
 25  12  31  1   
 26  13  32  1   
 27  14  16  1   
 28  14  33  1   
 29  14  34  1   
 30  15  17  1   
 31  16  18  ar  
 32  16  19  ar  
 33  17  35  1   
 34  17  36  1   
 35  17  37  1   
 36  18  20  ar  
 37  19  21  ar  
 38  19  38  1   
 39  20  22  ar  
 40  20  39  1   
 41  21  22  ar  
 42  22  40  1   
@<TRIPOS>SUBSTRUCTURE
  1 ****   3 GROUP 4 **** **** 0

# MOE 2024.06 (io_trps.svl 2023.06)
