@<TRIPOS>MOLECULE
NONAME
46 49 1 0 0 
SMALL
USER_CHARGES


@<TRIPOS>ATOM
  1 F        0.3750    -0.4110     1.3980 F     1 <1>  -0.1900 
  2 C        0.8640    -1.5660     1.0230 C.ar  1 <1>   0.1900 
  3 C        0.2430    -2.7190     1.4310 C.ar  1 <1>  -0.1500 
  4 C        2.0070    -1.5610     0.2180 C.ar  1 <1>  -0.1500 
  5 C        0.7890    -3.9380     1.0120 C.ar  1 <1>   0.0000 
  6 C        2.5420    -2.7610    -0.1920 C.ar  1 <1>  -0.1500 
  7 C        1.9250    -3.9570     0.2070 C.ar  1 <1>  -0.1520 
  8 C        0.4370    -5.2780     1.2310 C.2   1 <1>  -0.1500 
  9 N        2.2440    -5.2690    -0.0560 N.pl3 1 <1>   0.0480 
 10 C        1.3210    -6.0840     0.5720 C.2   1 <1>  -0.2370 
 11 C        3.3950    -5.7200    -0.8670 C.3   1 <1>   0.0160 
 12 C        1.3530    -7.5260     0.5110 C.2   1 <1>   0.7150 
 13 O        2.4140    -8.1220     0.5140 O.2   1 <1>  -0.5700 
 14 N        0.1920    -8.2580     0.4290 N.am  1 <1>  -0.6600 
 15 C       -1.1050    -7.7220    -0.0540 C.3   1 <1>   0.1400 
 16 C        0.1950    -9.7410     0.3840 C.3   1 <1>   0.1400 
 17 C       -1.8190    -8.9270    -0.6630 C.3   1 <1>   0.2000 
 18 C       -1.2470   -10.1410     0.0640 C.3   1 <1>  -0.0800 
 19 O       -3.1900    -8.8600    -0.4780 O.3   1 <1>  -0.6800 
 20 C       -1.3590   -11.4380    -0.7510 C.3   1 <1>   0.0200 
 21 C       -0.7090   -12.5970    -0.0210 C.2   1 <1>  -0.0400 
 22 O       -1.1700   -12.9790     1.1410 O.3   1 <1>  -0.0190 
 23 C        0.3330   -13.3820    -0.3290 C.2   1 <1>  -0.1500 
 24 N       -0.4890   -13.9750     1.6280 N.2   1 <1>  -0.4100 
 25 C        0.4230   -14.2410     0.7630 C.2   1 <1>   0.1080 
 26 C        1.4510   -15.3390     0.9210 C.3   1 <1>  -0.0590 
 27 H       -0.6320    -2.6970     2.0510 H     1 <1>   0.1500 
 28 H        2.4450    -0.6220    -0.0650 H     1 <1>   0.1500 
 29 H        3.4220    -2.7820    -0.8090 H     1 <1>   0.1500 
 30 H       -0.3970    -5.5820     1.8380 H     1 <1>   0.1500 
 31 H        3.0870    -6.5230    -1.5110 H     1 <1>   0.0800 
 32 H        4.1710    -6.0700    -0.2110 H     1 <1>   0.0800 
 33 H        3.7670    -4.9120    -1.4670 H     1 <1>   0.0800 
 34 H       -1.6590    -7.3360     0.7830 H     1 <1>   0.0800 
 35 H       -0.9530    -6.9520    -0.7900 H     1 <1>   0.0800 
 36 H        0.8680   -10.0680    -0.3910 H     1 <1>   0.0800 
 37 H        0.5180   -10.1490     1.3270 H     1 <1>   0.0800 
 38 H       -1.6190    -8.9700    -1.7200 H     1 <1>   0.0800 
 39 H       -1.7540   -10.2670     1.0050 H     1 <1>   0.0800 
 40 H       -3.4110    -8.9020     0.4720 H     1 <1>   0.4000 
 41 H       -0.8860   -11.3140    -1.7090 H     1 <1>   0.0800 
 42 H       -2.3970   -11.6690    -0.9200 H     1 <1>   0.0800 
 43 H        0.9700   -13.3800    -1.1940 H     1 <1>   0.1500 
 44 H        1.3760   -16.0300     0.1020 H     1 <1>   0.0800 
 45 H        1.2810   -15.8700     1.8410 H     1 <1>   0.0800 
 46 H        2.4370   -14.9140     0.9410 H     1 <1>   0.0800 
@<TRIPOS>BOND
  1   1   2  1   
  2   2   3  ar  
  3   2   4  ar  
  4   3   5  ar  
  5   3  27  1   
  6   4   6  ar  
  7   4  28  1   
  8   5   7  ar  
  9   5   8  1   
 10   6   7  ar  
 11   6  29  1   
 12   7   9  1   
 13   8  10  2   
 14   8  30  1   
 15   9  10  1   
 16   9  11  1   
 17  10  12  1   
 18  11  31  1   
 19  11  32  1   
 20  11  33  1   
 21  12  13  2   
 22  12  14  am  
 23  14  15  1   
 24  14  16  1   
 25  15  17  1   
 26  15  34  1   
 27  15  35  1   
 28  16  18  1   
 29  16  36  1   
 30  16  37  1   
 31  17  18  1   
 32  17  19  1   
 33  17  38  1   
 34  18  20  1   
 35  18  39  1   
 36  19  40  1   
 37  20  21  1   
 38  20  41  1   
 39  20  42  1   
 40  21  22  1   
 41  21  23  2   
 42  22  24  1   
 43  23  25  1   
 44  23  43  1   
 45  24  25  2   
 46  25  26  1   
 47  26  44  1   
 48  26  45  1   
 49  26  46  1   
@<TRIPOS>SUBSTRUCTURE
  1 ****  14 GROUP 4 **** **** 0

# MOE 2024.06 (io_trps.svl 2023.06)
