@<TRIPOS>MOLECULE
NONAME
37 38 1 0 0 
SMALL
USER_CHARGES


@<TRIPOS>ATOM
  1 CL       0.1240     0.3270    -0.5080 Cl    1 <1>  -0.1230 
  2 C       -0.9710     1.6740    -0.2670 C.2   1 <1>   0.1230 
  3 C       -2.3100     1.6070    -0.0860 C.2   1 <1>  -0.3020 
  4 C       -0.5850     3.0040    -0.2310 C.2   1 <1>  -0.1500 
  5 N       -2.7870     2.8680     0.0650 N.pl3 1 <1>   0.0480 
  6 C       -1.7240     3.7520    -0.0240 C.2   1 <1>  -0.2370 
  7 C       -4.2150     3.1820     0.2830 C.3   1 <1>   0.0160 
  8 C       -1.8400     5.1850     0.0870 C.2   1 <1>   0.7150 
  9 O       -2.8980     5.7240     0.3330 O.2   1 <1>  -0.5700 
 10 N       -0.7130     5.9350    -0.0980 N.am  1 <1>  -0.4940 
 11 C       -0.5390     7.2990    -0.0350 C.2   1 <1>   0.4420 
 12 S        1.0600     7.8960    -0.3500 S.3   1 <1>  -0.0800 
 13 N       -1.3630     8.2500     0.2220 N.2   1 <1>  -0.3380 
 14 C        0.4360     9.4880    -0.0920 C.2   1 <1>   0.1980 
 15 N       -0.8010     9.4940     0.1880 N.2   1 <1>  -0.3380 
 16 C        1.3720    10.6690    -0.2160 C.3   1 <1>   0.0200 
 17 C        0.5730    11.9560     0.0240 C.3   1 <1>   0.3430 
 18 N        1.3960    13.2010    -0.1390 N.4   1 <1>  -0.9590 
 19 C        2.4220    13.3580     0.9430 C.3   1 <1>   0.2630 
 20 C        0.4940    14.3950    -0.1620 C.3   1 <1>   0.2630 
 21 H       -2.9310     0.7300    -0.0590 H     1 <1>   0.1500 
 22 H        0.4340     3.3250    -0.3470 H     1 <1>   0.1500 
 23 H       -4.7930     2.2770     0.2840 H     1 <1>   0.0800 
 24 H       -4.5620     3.8280    -0.5030 H     1 <1>   0.0800 
 25 H       -4.3290     3.6820     1.2280 H     1 <1>   0.0800 
 26 H        0.1110     5.3900    -0.3200 H     1 <1>   0.3700 
 27 H        1.7950    10.6720    -1.2030 H     1 <1>   0.0800 
 28 H        2.1520    10.5630     0.5140 H     1 <1>   0.0800 
 29 H        0.1450    11.9260     1.0140 H     1 <1>   0.0800 
 30 H       -0.2470    11.9750    -0.6780 H     1 <1>   0.0800 
 31 H        1.8790    13.1590    -1.0510 H     1 <1>   0.4500 
 32 H        1.9450    13.3910     1.9100 H     1 <1>   0.0800 
 33 H        2.9760    14.2720     0.8030 H     1 <1>   0.0800 
 34 H        3.1170    12.5350     0.9300 H     1 <1>   0.0800 
 35 H       -0.0400    14.4810     0.7710 H     1 <1>   0.0800 
 36 H       -0.2240    14.3080    -0.9610 H     1 <1>   0.0800 
 37 H        1.0670    15.2960    -0.3140 H     1 <1>   0.0800 
@<TRIPOS>BOND
  1   1   2  1   
  2   2   3  2   
  3   2   4  1   
  4   3   5  1   
  5   3  21  1   
  6   4   6  2   
  7   4  22  1   
  8   5   6  1   
  9   5   7  1   
 10   6   8  1   
 11   7  23  1   
 12   7  24  1   
 13   7  25  1   
 14   8   9  2   
 15   8  10  am  
 16  10  11  1   
 17  10  26  1   
 18  11  12  1   
 19  11  13  2   
 20  12  14  1   
 21  13  15  1   
 22  14  15  2   
 23  14  16  1   
 24  16  17  1   
 25  16  27  1   
 26  16  28  1   
 27  17  18  1   
 28  17  29  1   
 29  17  30  1   
 30  18  19  1   
 31  18  20  1   
 32  18  31  1   
 33  19  32  1   
 34  19  33  1   
 35  19  34  1   
 36  20  35  1   
 37  20  36  1   
 38  20  37  1   
@<TRIPOS>SUBSTRUCTURE
  1 ****  11 GROUP 4 **** **** 0

# MOE 2024.06 (io_trps.svl 2023.06)
