@<TRIPOS>MOLECULE
NONAME
44 46 1 0 0 
SMALL
USER_CHARGES


@<TRIPOS>ATOM
  1 S       -0.8270     0.0060     1.6630 S.3   1 <1>  -0.0800 
  2 C       -1.0830    -1.0480     0.3090 C.2   1 <1>   0.4420 
  3 C       -0.5630     1.2820     0.5240 C.2   1 <1>   0.1980 
  4 N       -0.9640    -0.4310    -0.8090 N.2   1 <1>  -0.3380 
  5 N       -1.3690    -2.3690     0.5920 N.am  1 <1>  -0.4940 
  6 N       -0.6680     0.8960    -0.6800 N.2   1 <1>  -0.3380 
  7 C       -0.2490     2.6690     1.0400 C.3   1 <1>   0.0200 
  8 C       -1.6840    -3.3840    -0.2790 C.2   1 <1>   0.5690 
  9 C       -0.0290     3.6050    -0.1550 C.3   1 <1>   0.3430 
 10 O       -1.8170    -3.1980    -1.4630 O.2   1 <1>  -0.5700 
 11 C       -1.9210    -4.7800     0.2930 C.3   1 <1>   0.3800 
 12 N        0.3510     5.0000     0.2500 N.4   1 <1>  -0.9590 
 13 N       -1.5950    -5.8400    -0.6800 N.pl3 1 <1>   0.3140 
 14 C       -3.3400    -4.9640     0.8360 C.ar  1 <1>  -0.1440 
 15 C       -0.7750     5.7320     0.9160 C.3   1 <1>   0.2630 
 16 C        0.8120     5.7610    -0.9540 C.3   1 <1>   0.2630 
 17 N       -0.6720    -6.7510    -0.4440 N.2   1 <1>  -0.4180 
 18 C       -2.1310    -6.1220    -1.8530 C.2   1 <1>   0.0360 
 19 C       -3.5390    -5.7550     1.9600 C.ar  1 <1>  -0.1500 
 20 C       -4.4380    -4.3610     0.2320 C.ar  1 <1>  -0.1500 
 21 N       -0.6700    -7.5390    -1.4580 N.2   1 <1>   0.0000 
 22 N       -1.5790    -7.1610    -2.3500 N.2   1 <1>  -0.3380 
 23 C       -4.8100    -5.9320     2.4780 C.ar  1 <1>  -0.1500 
 24 C       -5.7080    -4.5390     0.7520 C.ar  1 <1>  -0.1500 
 25 C       -5.8940    -5.3220     1.8760 C.ar  1 <1>  -0.1500 
 26 H       -1.3880    -2.5870     1.5860 H     1 <1>   0.3700 
 27 H        0.6400     2.6210     1.6420 H     1 <1>   0.0800 
 28 H       -1.0750     3.0040     1.6390 H     1 <1>   0.0800 
 29 H       -0.9270     3.6290    -0.7540 H     1 <1>   0.0800 
 30 H        0.7530     3.1860    -0.7690 H     1 <1>   0.0800 
 31 H       -1.2370    -4.9010     1.1110 H     1 <1>   0.0800 
 32 H        1.1470     4.9460     0.9060 H     1 <1>   0.4500 
 33 H       -1.6260     5.7920     0.2560 H     1 <1>   0.0800 
 34 H       -0.4690     6.7340     1.1720 H     1 <1>   0.0800 
 35 H       -1.0730     5.2280     1.8200 H     1 <1>   0.0800 
 36 H        0.0140     5.8410    -1.6750 H     1 <1>   0.0800 
 37 H        1.6460     5.2600    -1.4180 H     1 <1>   0.0800 
 38 H        1.1230     6.7550    -0.6740 H     1 <1>   0.0800 
 39 H       -2.9160    -5.5450    -2.3080 H     1 <1>   0.1500 
 40 H       -2.7110    -6.2490     2.4410 H     1 <1>   0.1500 
 41 H       -4.3290    -3.7500    -0.6500 H     1 <1>   0.1500 
 42 H       -4.9570    -6.5480     3.3490 H     1 <1>   0.1500 
 43 H       -6.5540    -4.0680     0.2800 H     1 <1>   0.1500 
 44 H       -6.8830    -5.4600     2.2780 H     1 <1>   0.1500 
@<TRIPOS>BOND
  1   1   2  1   
  2   1   3  1   
  3   2   4  2   
  4   2   5  1   
  5   3   6  2   
  6   3   7  1   
  7   4   6  1   
  8   5   8  am  
  9   5  26  1   
 10   7   9  1   
 11   7  27  1   
 12   7  28  1   
 13   8  10  2   
 14   8  11  1   
 15   9  12  1   
 16   9  29  1   
 17   9  30  1   
 18  11  13  1   
 19  11  14  1   
 20  11  31  1   
 21  12  15  1   
 22  12  16  1   
 23  12  32  1   
 24  13  17  1   
 25  13  18  1   
 26  14  19  ar  
 27  14  20  ar  
 28  15  33  1   
 29  15  34  1   
 30  15  35  1   
 31  16  36  1   
 32  16  37  1   
 33  16  38  1   
 34  17  21  2   
 35  18  22  2   
 36  18  39  1   
 37  19  23  ar  
 38  19  40  1   
 39  20  24  ar  
 40  20  41  1   
 41  21  22  1   
 42  23  25  ar  
 43  23  42  1   
 44  24  25  ar  
 45  24  43  1   
 46  25  44  1   
@<TRIPOS>SUBSTRUCTURE
  1 ****   5 GROUP 4 **** **** 0

# MOE 2024.06 (io_trps.svl 2023.06)
