@<TRIPOS>MOLECULE
NONAME
43 45 1 0 0 
SMALL
USER_CHARGES


@<TRIPOS>ATOM
  1 O       -0.8200     0.1020    -1.2400 O.2   1 <1>  -0.5700 
  2 C       -1.5080     0.7900    -0.5100 C.2   1 <1>   0.7160 
  3 N       -2.5250     0.1900     0.1970 N.am  1 <1>  -0.6600 
  4 C       -1.2560     2.2090    -0.4230 C.2   1 <1>  -0.0860 
  5 C       -2.5640    -1.2940     0.3950 C.3   1 <1>   0.1400 
  6 C       -3.8620     0.8330     0.3760 C.3   1 <1>   0.1400 
  7 C       -0.6750     3.0140    -1.3520 C.2   1 <1>  -0.0100 
  8 C       -1.5360     3.0810     0.6530 C.2   1 <1>  -0.1500 
  9 C       -3.7060    -1.9270    -0.4160 C.3   1 <1>   0.3440 
 10 C       -4.9530     0.0810    -0.4230 C.3   1 <1>   0.2000 
 11 O       -0.6050     4.2560    -0.9370 O.3   1 <1>  -0.2800 
 12 C       -1.1190     4.3050     0.2730 C.2   1 <1>  -0.0100 
 13 O       -4.9150    -1.2840    -0.1050 O.3   1 <1>  -0.5600 
 14 C       -3.8220    -3.4170    -0.1100 C.ar  1 <1>  -0.1430 
 15 C       -6.3820     0.6010    -0.1400 C.3   1 <1>  -0.0800 
 16 C       -4.6170    -3.8880     0.9270 C.ar  1 <1>  -0.1500 
 17 C       -3.1050    -4.3280    -0.8740 C.ar  1 <1>  -0.1500 
 18 C       -7.4370    -0.1950    -0.9280 C.3   1 <1>  -0.2400 
 19 C       -6.5380     2.0930    -0.4810 C.3   1 <1>  -0.2400 
 20 C       -4.6940    -5.2430     1.1950 C.ar  1 <1>  -0.1500 
 21 C       -3.1810    -5.6840    -0.6070 C.ar  1 <1>  -0.1500 
 22 C       -3.9750    -6.1430     0.4280 C.ar  1 <1>  -0.1500 
 23 H       -1.6310    -1.7420     0.1030 H     1 <1>   0.0800 
 24 H       -2.7150    -1.5090     1.4380 H     1 <1>   0.0800 
 25 H       -4.1200     0.8320     1.4200 H     1 <1>   0.0800 
 26 H       -3.8280     1.8530     0.0400 H     1 <1>   0.0800 
 27 H       -0.2890     2.7610    -2.3250 H     1 <1>   0.1500 
 28 H       -1.9880     2.7870     1.5840 H     1 <1>   0.1500 
 29 H       -3.5200    -1.7940    -1.4680 H     1 <1>   0.0800 
 30 H       -4.7520     0.1800    -1.4760 H     1 <1>   0.0800 
 31 H       -1.1430     5.2500     0.7880 H     1 <1>   0.1500 
 32 H       -6.5820     0.4760     0.9110 H     1 <1>   0.0800 
 33 H       -5.1830    -3.1960     1.5270 H     1 <1>   0.1500 
 34 H       -2.4820    -3.9860    -1.6830 H     1 <1>   0.1500 
 35 H       -7.2610    -0.1150    -1.9860 H     1 <1>   0.0800 
 36 H       -8.4250     0.1720    -0.7140 H     1 <1>   0.0800 
 37 H       -7.4040    -1.2360    -0.6560 H     1 <1>   0.0800 
 38 H       -6.2810     2.2760    -1.5100 H     1 <1>   0.0800 
 39 H       -5.9160     2.7040     0.1470 H     1 <1>   0.0800 
 40 H       -7.5570     2.4040    -0.3270 H     1 <1>   0.0800 
 41 H       -5.3150    -5.5970     2.0000 H     1 <1>   0.1500 
 42 H       -2.6220    -6.3820    -1.2050 H     1 <1>   0.1500 
 43 H       -4.0350    -7.1970     0.6360 H     1 <1>   0.1500 
@<TRIPOS>BOND
  1   1   2  2   
  2   2   3  am  
  3   2   4  1   
  4   3   5  1   
  5   3   6  1   
  6   4   7  2   
  7   4   8  1   
  8   5   9  1   
  9   5  23  1   
 10   5  24  1   
 11   6  10  1   
 12   6  25  1   
 13   6  26  1   
 14   7  11  1   
 15   7  27  1   
 16   8  12  2   
 17   8  28  1   
 18   9  13  1   
 19   9  14  1   
 20   9  29  1   
 21  10  13  1   
 22  10  15  1   
 23  10  30  1   
 24  11  12  1   
 25  12  31  1   
 26  14  16  ar  
 27  14  17  ar  
 28  15  18  1   
 29  15  19  1   
 30  15  32  1   
 31  16  20  ar  
 32  16  33  1   
 33  17  21  ar  
 34  17  34  1   
 35  18  35  1   
 36  18  36  1   
 37  18  37  1   
 38  19  38  1   
 39  19  39  1   
 40  19  40  1   
 41  20  22  ar  
 42  20  41  1   
 43  21  22  ar  
 44  21  42  1   
 45  22  43  1   
@<TRIPOS>SUBSTRUCTURE
  1 ****   3 GROUP 4 **** **** 0

# MOE 2024.06 (io_trps.svl 2023.06)
