@<TRIPOS>MOLECULE
NONAME
50 53 1 0 0 
SMALL
USER_CHARGES


@<TRIPOS>ATOM
  1 O       -0.3560    -0.0020    -0.8450 O.2   1 <1>  -0.5700 
  2 C       -1.3460     0.7090    -0.8330 C.2   1 <1>   0.7160 
  3 N       -2.5700     0.0850    -0.7010 N.am  1 <1>  -0.6600 
  4 C       -1.2180     2.1560    -0.9520 C.2   1 <1>   0.1410 
  5 C       -3.8880     0.7630    -0.6310 C.3   1 <1>   0.1400 
  6 C       -2.7440    -1.3880    -0.7210 C.3   1 <1>   0.1400 
  7 N       -2.0570     2.9290    -1.7160 N.2   1 <1>  -0.5650 
  8 C       -0.3040     2.9910    -0.3930 C.2   1 <1>  -0.0400 
  9 C       -4.8510    -0.3320    -0.1790 C.3   1 <1>   0.2000 
 10 C       -4.2620    -1.6070    -0.7970 C.3   1 <1>  -0.0800 
 11 C       -1.5930     4.1130    -1.5800 C.2   1 <1>   0.3280 
 12 O       -0.5490     4.2020    -0.8000 O.3   1 <1>  -0.2800 
 13 C        0.8680     2.7950     0.5640 C.3   1 <1>   0.1000 
 14 O       -4.7920    -0.4130     1.2050 O.3   1 <1>  -0.6800 
 15 C       -4.7420    -2.9200    -0.1450 C.3   1 <1>  -0.0170 
 16 C        2.0980     2.2720    -0.1840 C.3   1 <1>  -0.2400 
 17 C        0.5120     1.8900     1.7490 C.3   1 <1>  -0.2400 
 18 C       -4.2900    -4.2240    -0.8140 C.ar  1 <1>  -0.1440 
 19 C       -4.5050    -5.4620    -0.1570 C.ar  1 <1>   0.0000 
 20 C       -3.6870    -4.2740    -2.0410 C.ar  1 <1>  -0.1500 
 21 C       -4.0580    -6.6440    -0.7980 C.ar  1 <1>   0.3100 
 22 C       -5.1440    -5.5990     1.0990 C.ar  1 <1>  -0.1500 
 23 C       -3.2880    -5.4990    -2.5890 C.ar  1 <1>   0.1600 
 24 N       -3.4510    -6.6450    -2.0110 N.ar  1 <1>  -0.6200 
 25 C       -4.2490    -7.8810    -0.1620 C.ar  1 <1>  -0.1500 
 26 C       -5.3180    -6.8200     1.6910 C.ar  1 <1>  -0.1500 
 27 C       -4.8640    -7.9780     1.0560 C.ar  1 <1>  -0.1500 
 28 H       -3.8770     1.5980     0.0490 H     1 <1>   0.0800 
 29 H       -4.1560     1.1060    -1.6160 H     1 <1>   0.0800 
 30 H       -2.2300    -1.8170    -1.5630 H     1 <1>   0.0800 
 31 H       -2.3390    -1.8010     0.1880 H     1 <1>   0.0800 
 32 H       -5.8710    -0.1450    -0.4680 H     1 <1>   0.0800 
 33 H       -4.5500    -1.6070    -1.8330 H     1 <1>   0.0800 
 34 H       -1.9760     5.0110    -2.0340 H     1 <1>   0.1500 
 35 H        1.1160     3.7620     0.9690 H     1 <1>   0.0800 
 36 H       -3.8530    -0.4070     1.4800 H     1 <1>   0.4000 
 37 H       -5.8180    -2.9140    -0.1180 H     1 <1>   0.0800 
 38 H       -4.3950    -2.9300     0.8730 H     1 <1>   0.0800 
 39 H        1.9050     1.2970    -0.5950 H     1 <1>   0.0800 
 40 H        2.9390     2.2050     0.4820 H     1 <1>   0.0800 
 41 H        2.3480     2.9390    -0.9890 H     1 <1>   0.0800 
 42 H        0.3620     0.8750     1.4340 H     1 <1>   0.0800 
 43 H       -0.3850     2.2430     2.2260 H     1 <1>   0.0800 
 44 H        1.3090     1.9010     2.4710 H     1 <1>   0.0800 
 45 H       -3.4950    -3.4020    -2.6340 H     1 <1>   0.1500 
 46 H       -5.5100    -4.7270     1.6070 H     1 <1>   0.1500 
 47 H       -2.8140    -5.4860    -3.5550 H     1 <1>   0.1500 
 48 H       -3.8940    -8.7570    -0.6720 H     1 <1>   0.1500 
 49 H       -5.8050    -6.9060     2.6470 H     1 <1>   0.1500 
 50 H       -5.0050    -8.9330     1.5320 H     1 <1>   0.1500 
@<TRIPOS>BOND
  1   1   2  2   
  2   2   3  am  
  3   2   4  1   
  4   3   5  1   
  5   3   6  1   
  6   4   7  1   
  7   4   8  2   
  8   5   9  1   
  9   5  28  1   
 10   5  29  1   
 11   6  10  1   
 12   6  30  1   
 13   6  31  1   
 14   7  11  2   
 15   8  12  1   
 16   8  13  1   
 17   9  10  1   
 18   9  14  1   
 19   9  32  1   
 20  10  15  1   
 21  10  33  1   
 22  11  12  1   
 23  11  34  1   
 24  13  16  1   
 25  13  17  1   
 26  13  35  1   
 27  14  36  1   
 28  15  18  1   
 29  15  37  1   
 30  15  38  1   
 31  16  39  1   
 32  16  40  1   
 33  16  41  1   
 34  17  42  1   
 35  17  43  1   
 36  17  44  1   
 37  18  19  ar  
 38  18  20  ar  
 39  19  21  ar  
 40  19  22  ar  
 41  20  23  ar  
 42  20  45  1   
 43  21  24  ar  
 44  21  25  ar  
 45  22  26  ar  
 46  22  46  1   
 47  23  24  ar  
 48  23  47  1   
 49  25  27  ar  
 50  25  48  1   
 51  26  27  ar  
 52  26  49  1   
 53  27  50  1   
@<TRIPOS>SUBSTRUCTURE
  1 ****   6 GROUP 4 **** **** 0

# MOE 2024.06 (io_trps.svl 2023.06)
