@<TRIPOS>MOLECULE
NONAME
53 57 1 0 0 
SMALL
USER_CHARGES


@<TRIPOS>ATOM
  1 O        0.0370     1.2200     0.7680 O.2   1 <1>  -0.5700 
  2 C       -0.0840     2.3850     0.4870 C.2   1 <1>   0.5690 
  3 N       -1.0110     3.1520     1.0980 N.am  1 <1>  -0.7300 
  4 C        0.7920     3.0120    -0.5970 C.3   1 <1>   0.1810 
  5 C       -1.2790     4.5700     0.7450 C.3   1 <1>   0.3640 
  6 O        0.8740     4.4130    -0.4700 O.3   1 <1>  -0.5600 
  7 C       -2.7640     4.6970     0.4100 C.ar  1 <1>  -0.1440 
  8 C       -0.3850     5.0840    -0.4190 C.3   1 <1>   0.2610 
  9 C       -3.4050     3.7700    -0.4030 C.ar  1 <1>  -0.1500 
 10 C       -3.4980     5.7590     0.9210 C.ar  1 <1>  -0.1500 
 11 C       -0.1660     6.5950    -0.2720 C.2   1 <1>   0.5690 
 12 C       -4.7520     3.9000    -0.6940 C.ar  1 <1>  -0.1500 
 13 C       -4.8450     5.8900     0.6300 C.ar  1 <1>  -0.1500 
 14 O       -1.1160     7.3390    -0.3260 O.2   1 <1>  -0.5700 
 15 N        1.1020     7.0470    -0.0750 N.am  1 <1>  -0.7300 
 16 C       -5.4730     4.9600    -0.1770 C.ar  1 <1>  -0.1500 
 17 C        1.5970     8.4230     0.0760 C.3   1 <1>   0.3000 
 18 C        3.1210     8.3500     0.2660 C.3   1 <1>  -0.1600 
 19 C        0.9680     9.0970     1.3120 C.3   1 <1>  -0.1600 
 20 C        1.2860     9.2540    -1.1840 C.3   1 <1>  -0.1600 
 21 C        3.6750     9.7700     0.4260 C.3   1 <1>   0.2800 
 22 C        1.5310    10.5230     1.4800 C.3   1 <1>  -0.0800 
 23 C        1.8510    10.6810    -1.0290 C.3   1 <1>  -0.0800 
 24 O        5.0350     9.6880     0.5940 O.3   1 <1>  -0.6800 
 25 C        3.0600    10.4430     1.6610 C.3   1 <1>  -0.1600 
 26 C        3.3770    10.5990    -0.8310 C.3   1 <1>  -0.1600 
 27 C        1.2140    11.3410     0.2110 C.3   1 <1>  -0.1600 
 28 H       -1.6390     2.7170     1.7760 H     1 <1>   0.3700 
 29 H        0.3920     2.7780    -1.5670 H     1 <1>   0.0800 
 30 H        1.7880     2.6160    -0.5240 H     1 <1>   0.0800 
 31 H       -1.0700     5.1660     1.6170 H     1 <1>   0.0800 
 32 H       -0.8830     4.9120    -1.3560 H     1 <1>   0.0800 
 33 H       -2.8640     2.9360    -0.8150 H     1 <1>   0.1500 
 34 H       -3.0240     6.5000     1.5420 H     1 <1>   0.1500 
 35 H       -5.2400     3.1750    -1.3230 H     1 <1>   0.1500 
 36 H       -5.4010     6.7200     1.0300 H     1 <1>   0.1500 
 37 H        1.8360     6.3320    -0.0890 H     1 <1>   0.3700 
 38 H       -6.5200     5.0630    -0.4030 H     1 <1>   0.1500 
 39 H        3.5750     7.8860    -0.5910 H     1 <1>   0.0800 
 40 H        3.3530     7.7760     1.1450 H     1 <1>   0.0800 
 41 H       -0.0990     9.1550     1.1960 H     1 <1>   0.0800 
 42 H        1.1790     8.5160     2.1920 H     1 <1>   0.0800 
 43 H        1.7190     8.7830    -2.0490 H     1 <1>   0.0800 
 44 H        0.2230     9.3130    -1.3320 H     1 <1>   0.0800 
 45 H        1.0840    10.9920     2.3400 H     1 <1>   0.0800 
 46 H        1.6250    11.2600    -1.9090 H     1 <1>   0.0800 
 47 H        5.4040    10.5840     0.6930 H     1 <1>   0.4000 
 48 H        3.2900     9.8710     2.5430 H     1 <1>   0.0800 
 49 H        3.4580    11.4340     1.7830 H     1 <1>   0.0800 
 50 H        3.7780    11.5920    -0.7270 H     1 <1>   0.0800 
 51 H        3.8290    10.1360    -1.6910 H     1 <1>   0.0800 
 52 H        1.5860    12.3450     0.3220 H     1 <1>   0.0800 
 53 H        0.1470    11.4050     0.0790 H     1 <1>   0.0800 
@<TRIPOS>BOND
  1   1   2  2   
  2   2   3  am  
  3   2   4  1   
  4   3   5  1   
  5   3  28  1   
  6   4   6  1   
  7   4  29  1   
  8   4  30  1   
  9   5   7  1   
 10   5   8  1   
 11   5  31  1   
 12   6   8  1   
 13   7   9  ar  
 14   7  10  ar  
 15   8  11  1   
 16   8  32  1   
 17   9  12  ar  
 18   9  33  1   
 19  10  13  ar  
 20  10  34  1   
 21  11  14  2   
 22  11  15  am  
 23  12  16  ar  
 24  12  35  1   
 25  13  16  ar  
 26  13  36  1   
 27  15  17  1   
 28  15  37  1   
 29  16  38  1   
 30  17  18  1   
 31  17  19  1   
 32  17  20  1   
 33  18  21  1   
 34  18  39  1   
 35  18  40  1   
 36  19  22  1   
 37  19  41  1   
 38  19  42  1   
 39  20  23  1   
 40  20  43  1   
 41  20  44  1   
 42  21  24  1   
 43  21  25  1   
 44  21  26  1   
 45  22  25  1   
 46  22  27  1   
 47  22  45  1   
 48  23  26  1   
 49  23  27  1   
 50  23  46  1   
 51  24  47  1   
 52  25  48  1   
 53  25  49  1   
 54  26  50  1   
 55  26  51  1   
 56  27  52  1   
 57  27  53  1   
@<TRIPOS>SUBSTRUCTURE
  1 ****  11 GROUP 4 **** **** 0

# MOE 2024.06 (io_trps.svl 2023.06)
