@<TRIPOS>MOLECULE
NONAME
49 51 1 0 0 
SMALL
USER_CHARGES


@<TRIPOS>ATOM
  1 O       -2.0970     0.2050     2.0570 O.2   1 <1>  -0.5700 
  2 C       -1.9320     0.6840     0.9630 C.2   1 <1>   0.5690 
  3 N       -2.0030    -0.0670    -0.1680 N.am  1 <1>  -0.7300 
  4 C       -1.6520     2.1810     0.8470 C.3   1 <1>  -0.0190 
  5 C       -2.2510    -1.5270    -0.1970 C.3   1 <1>   0.1400 
  6 C       -2.7300     2.9060     0.0170 C.3   1 <1>  -0.1600 
  7 C       -0.2310     2.4660     0.3010 C.3   1 <1>  -0.1600 
  8 C       -3.7400    -1.7990    -0.4060 C.3   1 <1>  -0.0170 
  9 C       -2.5420     4.4370     0.0310 C.3   1 <1>   0.2000 
 10 C       -0.0800     3.8620    -0.3360 C.3   1 <1>  -0.1600 
 11 C       -3.9940    -3.2940    -0.5180 C.ar  1 <1>  -0.1440 
 12 O       -2.9780     4.9340    -1.2110 O.3   1 <1>  -0.5600 
 13 C       -1.0680     4.8640     0.2640 C.3   1 <1>   0.2000 
 14 C       -4.3750    -4.0310     0.5720 C.ar  1 <1>  -0.1500 
 15 C       -3.8330    -3.9320    -1.7560 C.ar  1 <1>  -0.1500 
 16 C       -4.3530     5.1370    -1.3160 C.3   1 <1>   0.0400 
 17 O       -0.8510     6.0880    -0.3340 O.3   1 <1>  -0.6800 
 18 C       -4.6100    -5.4180     0.4820 C.ar  1 <1>   0.0000 
 19 C       -4.0540    -5.2760    -1.8730 C.ar  1 <1>  -0.1500 
 20 C       -4.4470    -6.0540    -0.7660 C.ar  1 <1>   0.0000 
 21 C       -5.0030    -6.1940     1.5910 C.ar  1 <1>  -0.1500 
 22 C       -4.6840    -7.4410    -0.8570 C.ar  1 <1>  -0.1500 
 23 C       -5.2250    -7.5390     1.4750 C.ar  1 <1>  -0.1500 
 24 C       -5.0640    -8.1700     0.2360 C.ar  1 <1>  -0.1500 
 25 H       -1.8770     0.3860    -1.0740 H     1 <1>   0.3700 
 26 H       -1.7020     2.5780     1.8460 H     1 <1>   0.0800 
 27 H       -1.6770    -1.9730    -0.9910 H     1 <1>   0.0800 
 28 H       -1.9350    -1.9690     0.7340 H     1 <1>   0.0800 
 29 H       -3.7020     2.6670     0.4110 H     1 <1>   0.0800 
 30 H       -2.6800     2.5520    -0.9980 H     1 <1>   0.0800 
 31 H        0.4650     2.3690     1.1170 H     1 <1>   0.0800 
 32 H        0.0440     1.7310    -0.4350 H     1 <1>   0.0800 
 33 H       -4.2890    -1.4000     0.4290 H     1 <1>   0.0800 
 34 H       -4.0820    -1.3110    -1.3010 H     1 <1>   0.0800 
 35 H       -3.1370     4.8780     0.8130 H     1 <1>   0.0800 
 36 H       -0.2710     3.7870    -1.3930 H     1 <1>   0.0800 
 37 H        0.9280     4.2140    -0.1990 H     1 <1>   0.0800 
 38 H       -0.8720     4.9720     1.3170 H     1 <1>   0.0800 
 39 H       -4.5010    -3.5610     1.5310 H     1 <1>   0.1500 
 40 H       -3.5340    -3.3540    -2.6130 H     1 <1>   0.1500 
 41 H       -4.5610     5.5140    -2.3020 H     1 <1>   0.0800 
 42 H       -4.6630     5.8590    -0.5800 H     1 <1>   0.0800 
 43 H       -4.8680     4.2030    -1.1720 H     1 <1>   0.0800 
 44 H       -1.4590     6.1200    -1.1070 H     1 <1>   0.4000 
 45 H       -3.9310    -5.7660    -2.8220 H     1 <1>   0.1500 
 46 H       -5.1250    -5.7040     2.5400 H     1 <1>   0.1500 
 47 H       -4.5580    -7.9190    -1.8110 H     1 <1>   0.1500 
 48 H       -5.5250    -8.1250     2.3260 H     1 <1>   0.1500 
 49 H       -5.2440    -9.2280     0.1610 H     1 <1>   0.1500 
@<TRIPOS>BOND
  1   1   2  2   
  2   2   3  am  
  3   2   4  1   
  4   3   5  1   
  5   3  25  1   
  6   4   6  1   
  7   4   7  1   
  8   4  26  1   
  9   5   8  1   
 10   5  27  1   
 11   5  28  1   
 12   6   9  1   
 13   6  29  1   
 14   6  30  1   
 15   7  10  1   
 16   7  31  1   
 17   7  32  1   
 18   8  11  1   
 19   8  33  1   
 20   8  34  1   
 21   9  12  1   
 22   9  13  1   
 23   9  35  1   
 24  10  13  1   
 25  10  36  1   
 26  10  37  1   
 27  11  14  ar  
 28  11  15  ar  
 29  12  16  1   
 30  13  17  1   
 31  13  38  1   
 32  14  18  ar  
 33  14  39  1   
 34  15  19  ar  
 35  15  40  1   
 36  16  41  1   
 37  16  42  1   
 38  16  43  1   
 39  17  44  1   
 40  18  20  ar  
 41  18  21  ar  
 42  19  20  ar  
 43  19  45  1   
 44  20  22  ar  
 45  21  23  ar  
 46  21  46  1   
 47  22  24  ar  
 48  22  47  1   
 49  23  24  ar  
 50  23  48  1   
 51  24  49  1   
@<TRIPOS>SUBSTRUCTURE
  1 ****   5 GROUP 4 **** **** 0

# MOE 2024.06 (io_trps.svl 2023.06)
