@<TRIPOS>MOLECULE
NONAME
46 49 1 0 0 
SMALL
USER_CHARGES


@<TRIPOS>ATOM
  1 S       -1.8180    -0.5260    -0.8470 S.3   1 <1>  -0.0800 
  2 C       -1.2700    -1.4540     0.5430 C.2   1 <1>  -0.1400 
  3 C       -1.1070     0.9430    -0.2030 C.2   1 <1>  -0.1100 
  4 C       -0.6020    -0.6610     1.4020 C.2   1 <1>  -0.1500 
  5 C       -1.6130    -2.9290     0.5750 C.3   1 <1>   0.3200 
  6 C       -0.5090     0.7030     0.9780 C.2   1 <1>  -0.1500 
  7 N       -3.0590    -3.0470     0.7940 N.am  1 <1>  -0.7300 
  8 C       -3.8250    -4.0340     0.2820 C.2   1 <1>   0.6900 
  9 O       -3.2860    -5.0160    -0.1950 O.2   1 <1>  -0.5700 
 10 N       -5.1890    -3.9020     0.2850 N.am  1 <1>  -0.6600 
 11 C       -5.9340    -2.7330     0.8500 C.3   1 <1>   0.1400 
 12 C       -6.0670    -4.8840    -0.4100 C.3   1 <1>   0.1400 
 13 C       -6.6760    -1.9730    -0.2650 C.3   1 <1>   0.1440 
 14 C       -6.8430    -4.1810    -1.5320 C.3   1 <1>  -0.1600 
 15 C       -7.4240    -0.8140     0.3670 C.ar  1 <1>   0.1670 
 16 C       -7.6080    -2.9470    -1.0190 C.3   1 <1>  -0.1600 
 17 C       -5.6930    -1.2470    -1.2260 C.3   1 <1>  -0.1600 
 18 N       -8.5100    -0.9140     1.1010 N.ar  1 <1>  -0.6200 
 19 C       -6.8180     0.3790     0.1030 C.ar  1 <1>  -0.1430 
 20 C       -5.5800     0.2080    -0.7400 C.3   1 <1>  -0.0170 
 21 C       -8.9750     0.2420     1.5530 C.ar  1 <1>   0.4770 
 22 C       -7.3850     1.5150     0.6230 C.ar  1 <1>   0.1600 
 23 N       -8.4770     1.4560     1.3570 N.ar  1 <1>  -0.6200 
 24 C      -10.2280     0.1750     2.3920 C.3   1 <1>  -0.0970 
 25 H       -1.2100     1.8410    -0.7860 H     1 <1>   0.1500 
 26 H       -0.1630    -0.9770     2.3330 H     1 <1>   0.1500 
 27 H       -1.0930    -3.4160     1.3820 H     1 <1>   0.0800 
 28 H       -1.3340    -3.3990    -0.3530 H     1 <1>   0.0800 
 29 H        0.0020     1.4340     1.5800 H     1 <1>   0.1500 
 30 H       -3.5110    -2.1810     1.0660 H     1 <1>   0.3700 
 31 H       -5.2790    -2.0620     1.3730 H     1 <1>   0.0800 
 32 H       -6.6530    -3.0970     1.5630 H     1 <1>   0.0800 
 33 H       -6.7540    -5.3030     0.3050 H     1 <1>   0.0800 
 34 H       -5.4860    -5.6920    -0.8230 H     1 <1>   0.0800 
 35 H       -7.5370    -4.8780    -1.9690 H     1 <1>   0.0800 
 36 H       -6.1480    -3.8920    -2.3010 H     1 <1>   0.0800 
 37 H       -8.0910    -2.4410    -1.8360 H     1 <1>   0.0800 
 38 H       -8.3810    -3.2760    -0.3450 H     1 <1>   0.0800 
 39 H       -6.1110    -1.2320    -2.2170 H     1 <1>   0.0800 
 40 H       -4.7320    -1.7260    -1.2800 H     1 <1>   0.0800 
 41 H       -5.5570     0.8990    -1.5650 H     1 <1>   0.0800 
 42 H       -4.7040     0.3390    -0.1280 H     1 <1>   0.0800 
 43 H       -6.9440     2.4800     0.4410 H     1 <1>   0.1500 
 44 H      -10.4190    -0.8350     2.7040 H     1 <1>   0.0800 
 45 H      -11.0600     0.5290     1.8130 H     1 <1>   0.0800 
 46 H      -10.1140     0.7940     3.2620 H     1 <1>   0.0800 
@<TRIPOS>BOND
  1   1   2  1   
  2   1   3  1   
  3   2   4  2   
  4   2   5  1   
  5   3   6  2   
  6   3  25  1   
  7   4   6  1   
  8   4  26  1   
  9   5   7  1   
 10   5  27  1   
 11   5  28  1   
 12   6  29  1   
 13   7   8  am  
 14   7  30  1   
 15   8   9  2   
 16   8  10  am  
 17  10  11  1   
 18  10  12  1   
 19  11  13  1   
 20  11  31  1   
 21  11  32  1   
 22  12  14  1   
 23  12  33  1   
 24  12  34  1   
 25  13  15  1   
 26  13  16  1   
 27  13  17  1   
 28  14  16  1   
 29  14  35  1   
 30  14  36  1   
 31  15  18  ar  
 32  15  19  ar  
 33  16  37  1   
 34  16  38  1   
 35  17  20  1   
 36  17  39  1   
 37  17  40  1   
 38  18  21  ar  
 39  19  20  1   
 40  19  22  ar  
 41  20  41  1   
 42  20  42  1   
 43  21  23  ar  
 44  21  24  1   
 45  22  23  ar  
 46  22  43  1   
 47  24  44  1   
 48  24  45  1   
 49  24  46  1   
@<TRIPOS>SUBSTRUCTURE
  1 ****  11 GROUP 4 **** **** 0

# MOE 2024.06 (io_trps.svl 2023.06)
