@<TRIPOS>MOLECULE
NONAME
37 39 1 0 0 
SMALL
USER_CHARGES


@<TRIPOS>ATOM
  1 CL       2.0290    -3.4710     2.3260 Cl    1 <1>  -0.1770 
  2 C        2.0880    -2.3420     0.9820 C.ar  1 <1>   0.1770 
  3 C        0.9830    -2.1480     0.1320 C.ar  1 <1>   0.4100 
  4 C        3.2550    -1.6420     0.7950 C.ar  1 <1>  -0.1500 
  5 N        1.0160    -1.2720    -0.8730 N.ar  1 <1>  -0.6200 
  6 N       -0.2060    -2.8580     0.2910 N.pl3 1 <1>  -0.8380 
  7 C        3.2760    -0.7470    -0.2550 C.ar  1 <1>  -0.1500 
  8 C        2.1470    -0.6040    -1.0410 C.ar  1 <1>   0.1600 
  9 C       -1.4660    -2.3780    -0.3530 C.3   1 <1>   0.2090 
 10 C       -0.1630    -4.3450     0.1720 C.3   1 <1>   0.2090 
 11 C       -2.4110    -3.5740    -0.2750 C.3   1 <1>   0.2000 
 12 C       -1.4710    -4.7550    -0.5120 C.3   1 <1>  -0.0800 
 13 O       -2.9120    -3.6340     1.0180 O.3   1 <1>  -0.6800 
 14 C       -2.0010    -6.1280    -0.0610 C.3   1 <1>   0.0210 
 15 C       -0.9630    -7.2110    -0.2840 C.2   1 <1>   0.1080 
 16 N       -0.4570    -7.4760    -1.4490 N.2   1 <1>  -0.7070 
 17 C       -0.4350    -8.0230     0.7140 C.2   1 <1>  -0.1500 
 18 N        0.4150    -8.4760    -1.2220 N.pl3 1 <1>   0.3000 
 19 C        0.4480    -8.8240     0.0810 C.2   1 <1>  -0.3320 
 20 C        1.3330    -9.9170     0.6500 C.3   1 <1>  -0.0600 
 21 H        4.1030    -1.7880     1.4400 H     1 <1>   0.1500 
 22 H        4.1570    -0.1650    -0.4600 H     1 <1>   0.1500 
 23 H        2.1730     0.1000    -1.8550 H     1 <1>   0.1500 
 24 H       -1.8640    -1.5150     0.1520 H     1 <1>   0.0800 
 25 H       -1.2830    -2.1370    -1.3860 H     1 <1>   0.0800 
 26 H        0.6880    -4.6680    -0.4040 H     1 <1>   0.0800 
 27 H       -0.1080    -4.7750     1.1570 H     1 <1>   0.0800 
 28 H       -3.2310    -3.5230    -0.9700 H     1 <1>   0.0800 
 29 H       -1.2700    -4.8080    -1.5680 H     1 <1>   0.0800 
 30 H       -2.1680    -3.4250     1.6220 H     1 <1>   0.4000 
 31 H       -2.8840    -6.3740    -0.6220 H     1 <1>   0.0800 
 32 H       -2.2640    -6.1090     0.9810 H     1 <1>   0.0800 
 33 H       -0.6930    -7.9950     1.7580 H     1 <1>   0.1500 
 34 H        0.9700    -8.8980    -1.9760 H     1 <1>   0.2700 
 35 H        1.1770   -10.0050     1.7110 H     1 <1>   0.0800 
 36 H        2.3690    -9.6870     0.4750 H     1 <1>   0.0800 
 37 H        1.1000   -10.8620     0.1910 H     1 <1>   0.0800 
@<TRIPOS>BOND
  1   1   2  1   
  2   2   3  ar  
  3   2   4  ar  
  4   3   5  ar  
  5   3   6  1   
  6   4   7  ar  
  7   4  21  1   
  8   5   8  ar  
  9   6   9  1   
 10   6  10  1   
 11   7   8  ar  
 12   7  22  1   
 13   8  23  1   
 14   9  11  1   
 15   9  24  1   
 16   9  25  1   
 17  10  12  1   
 18  10  26  1   
 19  10  27  1   
 20  11  12  1   
 21  11  13  1   
 22  11  28  1   
 23  12  14  1   
 24  12  29  1   
 25  13  30  1   
 26  14  15  1   
 27  14  31  1   
 28  14  32  1   
 29  15  16  2   
 30  15  17  1   
 31  16  18  1   
 32  17  19  2   
 33  17  33  1   
 34  18  19  1   
 35  18  34  1   
 36  19  20  1   
 37  20  35  1   
 38  20  36  1   
 39  20  37  1   
@<TRIPOS>SUBSTRUCTURE
  1 ****  10 GROUP 4 **** **** 0

# MOE 2024.06 (io_trps.svl 2023.06)
