@<TRIPOS>MOLECULE
NONAME
46 48 1 0 0 
SMALL
USER_CHARGES


@<TRIPOS>ATOM
  1 O        1.5810    -0.3560     2.2900 O.3   1 <1>  -0.6800 
  2 C        1.6810    -0.0210     0.9420 C.3   1 <1>   0.2000 
  3 C        2.3890    -1.1430     0.1790 C.3   1 <1>  -0.0800 
  4 C        2.6820     1.1270     0.8250 C.3   1 <1>   0.3430 
  5 C        3.8870    -0.8860     0.4030 C.3   1 <1>   0.3430 
  6 C        1.9670    -2.5840     0.5230 C.3   1 <1>  -0.0170 
  7 N        4.0060     0.4670     1.0260 N.4   1 <1>  -0.9590 
  8 C        2.8280    -3.5770    -0.2410 C.ar  1 <1>  -0.1440 
  9 C        5.1750     1.2460     0.5160 C.3   1 <1>   0.3430 
 10 C        2.6850    -3.7700    -1.6010 C.ar  1 <1>  -0.1500 
 11 C        3.8010    -4.3330     0.3840 C.ar  1 <1>  -0.1500 
 12 C        5.4030     2.5350     1.3080 C.3   1 <1>  -0.0170 
 13 C        3.5130    -4.6680    -2.2560 C.ar  1 <1>   0.1600 
 14 C        4.5750    -5.2050    -0.3640 C.ar  1 <1>   0.1600 
 15 C        6.5010     3.3280     0.6310 C.ar  1 <1>   0.1670 
 16 N        4.4600    -5.3790    -1.6690 N.ar  1 <1>  -0.6200 
 17 N        6.3460     3.5090    -0.6700 N.ar  1 <1>  -0.6200 
 18 C        7.5750     3.8100     1.3640 C.ar  1 <1>  -0.1500 
 19 C        7.2950     4.2050    -1.2760 C.ar  1 <1>   0.1670 
 20 C        8.5610     4.5290     0.7240 C.ar  1 <1>  -0.1500 
 21 C        8.4060     4.7260    -0.6310 C.ar  1 <1>  -0.1500 
 22 C        7.1130     4.4190    -2.7640 C.3   1 <1>  -0.0970 
 23 H        0.7890    -0.9100     2.4610 H     1 <1>   0.4000 
 24 H        0.7050     0.2310     0.5610 H     1 <1>   0.0800 
 25 H        2.2040    -0.9880    -0.8700 H     1 <1>   0.0800 
 26 H        2.4910     1.8890     1.5620 H     1 <1>   0.0800 
 27 H        2.6310     1.5550    -0.1620 H     1 <1>   0.0800 
 28 H        4.4090    -0.9280    -0.5390 H     1 <1>   0.0800 
 29 H        4.3010    -1.6320     1.0630 H     1 <1>   0.0800 
 30 H        0.9330    -2.7360     0.2630 H     1 <1>   0.0800 
 31 H        2.0700    -2.7710     1.5780 H     1 <1>   0.0800 
 32 H        4.0840     0.3130     2.0430 H     1 <1>   0.4500 
 33 H        6.0690     0.6460     0.5730 H     1 <1>   0.0800 
 34 H        5.0150     1.4950    -0.5210 H     1 <1>   0.0800 
 35 H        1.9400    -3.2390    -2.1640 H     1 <1>   0.1500 
 36 H        3.9670    -4.2620     1.4430 H     1 <1>   0.1500 
 37 H        5.6780     2.3050     2.3200 H     1 <1>   0.0800 
 38 H        4.5180     3.1430     1.3080 H     1 <1>   0.0800 
 39 H        3.3900    -4.8080    -3.3170 H     1 <1>   0.1500 
 40 H        5.3280    -5.7900     0.1370 H     1 <1>   0.1500 
 41 H        7.6490     3.6350     2.4220 H     1 <1>   0.1500 
 42 H        9.4110     4.9220     1.2550 H     1 <1>   0.1500 
 43 H        9.1450     5.2820    -1.1790 H     1 <1>   0.1500 
 44 H        7.9210     4.9960    -3.1750 H     1 <1>   0.0800 
 45 H        6.1900     4.9410    -2.9410 H     1 <1>   0.0800 
 46 H        7.0770     3.4690    -3.2640 H     1 <1>   0.0800 
@<TRIPOS>BOND
  1   1   2  1   
  2   1  23  1   
  3   2   3  1   
  4   2   4  1   
  5   2  24  1   
  6   3   5  1   
  7   3   6  1   
  8   3  25  1   
  9   4   7  1   
 10   4  26  1   
 11   4  27  1   
 12   5   7  1   
 13   5  28  1   
 14   5  29  1   
 15   6   8  1   
 16   6  30  1   
 17   6  31  1   
 18   7   9  1   
 19   7  32  1   
 20   8  10  ar  
 21   8  11  ar  
 22   9  12  1   
 23   9  33  1   
 24   9  34  1   
 25  10  13  ar  
 26  10  35  1   
 27  11  14  ar  
 28  11  36  1   
 29  12  15  1   
 30  12  37  1   
 31  12  38  1   
 32  13  16  ar  
 33  13  39  1   
 34  14  16  ar  
 35  14  40  1   
 36  15  17  ar  
 37  15  18  ar  
 38  17  19  ar  
 39  18  20  ar  
 40  18  41  1   
 41  19  21  ar  
 42  19  22  1   
 43  20  21  ar  
 44  20  42  1   
 45  21  43  1   
 46  22  44  1   
 47  22  45  1   
 48  22  46  1   
@<TRIPOS>SUBSTRUCTURE
  1 ****   7 GROUP 4 **** **** 0

# MOE 2024.06 (io_trps.svl 2023.06)
