@<TRIPOS>MOLECULE
NONAME
41 44 1 0 0 
SMALL
USER_CHARGES


@<TRIPOS>ATOM
  1 S        1.0980     0.6600    -1.1850 S.3   1 <1>  -0.0800 
  2 C       -0.4010     1.2980    -0.5290 C.2   1 <1>  -0.1400 
  3 C        0.2400    -0.6910    -1.9150 C.2   1 <1>  -0.1100 
  4 C       -1.4380     0.5240    -0.8750 C.2   1 <1>  -0.1810 
  5 C       -0.4590     2.5680     0.3120 C.3   1 <1>   0.4600 
  6 C       -1.0810    -0.6170    -1.6610 C.2   1 <1>  -0.1500 
  7 C       -2.8320     0.9030    -0.4280 C.3   1 <1>   0.0210 
  8 O       -1.7770     2.7240     0.8060 O.3   1 <1>  -0.5600 
  9 C       -0.0880     3.8070    -0.5150 C.3   1 <1>  -0.1600 
 10 C        0.4480     2.4510     1.5410 C.3   1 <1>  -0.1600 
 11 C       -2.8490     2.3960    -0.0470 C.3   1 <1>   0.1200 
 12 C       -0.0800     5.0750     0.3400 C.3   1 <1>   0.1400 
 13 C        0.4420     3.7350     2.3720 C.3   1 <1>   0.1400 
 14 N        0.8330     4.8810     1.5040 N.am  1 <1>  -0.6600 
 15 C        1.9550     5.6320     1.7730 C.2   1 <1>   0.5690 
 16 O        2.6450     5.4150     2.7420 O.2   1 <1>  -0.5700 
 17 C        2.3790     6.7800     0.8650 C.3   1 <1>   0.0810 
 18 C        2.8950     6.3040    -0.4860 C.2   1 <1>  -0.1400 
 19 S        2.9760     7.4950    -1.7740 S.3   1 <1>  -0.0800 
 20 C        3.3220     5.1050    -0.9260 C.2   1 <1>  -0.1500 
 21 C        3.5930     6.3000    -2.9010 C.2   1 <1>  -0.1100 
 22 C        3.7170     5.1020    -2.3020 C.2   1 <1>  -0.1500 
 23 H        0.8240    -1.4070    -2.4650 H     1 <1>   0.1500 
 24 H       -1.8240    -1.3210    -1.9940 H     1 <1>   0.1500 
 25 H       -3.1180     0.3050     0.4180 H     1 <1>   0.0800 
 26 H       -3.5350     0.7300    -1.2220 H     1 <1>   0.0800 
 27 H       -0.7670     3.9200    -1.3380 H     1 <1>   0.0800 
 28 H        0.8910     3.6690    -0.9330 H     1 <1>   0.0800 
 29 H        1.4580     2.2540     1.2320 H     1 <1>   0.0800 
 30 H        0.1240     1.6230     2.1430 H     1 <1>   0.0800 
 31 H       -3.7620     2.6350     0.4690 H     1 <1>   0.0800 
 32 H       -2.7830     3.0070    -0.9290 H     1 <1>   0.0800 
 33 H       -1.0740     5.2730     0.7060 H     1 <1>   0.0800 
 34 H        0.2220     5.9090    -0.2660 H     1 <1>   0.0800 
 35 H        1.1220     3.6310     3.2010 H     1 <1>   0.0800 
 36 H       -0.5420     3.9130     2.7710 H     1 <1>   0.0800 
 37 H        3.1550     7.3420     1.3510 H     1 <1>   0.0800 
 38 H        1.5420     7.4370     0.7280 H     1 <1>   0.0800 
 39 H        3.3780     4.2060    -0.3350 H     1 <1>   0.1500 
 40 H        3.8010     6.6260    -3.9040 H     1 <1>   0.1500 
 41 H        4.0740     4.2010    -2.7690 H     1 <1>   0.1500 
@<TRIPOS>BOND
  1   1   2  1   
  2   1   3  1   
  3   2   4  2   
  4   2   5  1   
  5   3   6  2   
  6   3  23  1   
  7   4   6  1   
  8   4   7  1   
  9   5   8  1   
 10   5   9  1   
 11   5  10  1   
 12   6  24  1   
 13   7  11  1   
 14   7  25  1   
 15   7  26  1   
 16   8  11  1   
 17   9  12  1   
 18   9  27  1   
 19   9  28  1   
 20  10  13  1   
 21  10  29  1   
 22  10  30  1   
 23  11  31  1   
 24  11  32  1   
 25  12  14  1   
 26  12  33  1   
 27  12  34  1   
 28  13  14  1   
 29  13  35  1   
 30  13  36  1   
 31  14  15  am  
 32  15  16  2   
 33  15  17  1   
 34  17  18  1   
 35  17  37  1   
 36  17  38  1   
 37  18  19  1   
 38  18  20  2   
 39  19  21  1   
 40  20  22  1   
 41  20  39  1   
 42  21  22  2   
 43  21  40  1   
 44  22  41  1   
@<TRIPOS>SUBSTRUCTURE
  1 ****   9 GROUP 4 **** **** 0

# MOE 2024.06 (io_trps.svl 2023.06)
