@<TRIPOS>MOLECULE
NONAME
51 54 1 0 0 
SMALL
USER_CHARGES


@<TRIPOS>ATOM
  1 S        0.3050    -0.2340     0.1380 S.3   1 <1>  -0.0800 
  2 C       -1.1060     0.5710    -0.5410 C.2   1 <1>   0.3250 
  3 C        0.9950     1.3040     0.5380 C.2   1 <1>  -0.1100 
  4 N       -1.0240     1.8530    -0.4500 N.2   1 <1>  -0.5650 
  5 C       -2.1790    -0.2150    -1.1090 C.ar  1 <1>   0.0530 
  6 C        0.1470     2.2690     0.1490 C.2   1 <1>   0.0460 
  7 C       -2.1390    -1.6100    -1.2050 C.ar  1 <1>   0.1600 
  8 C       -3.3240     0.4040    -1.5980 C.ar  1 <1>  -0.1500 
  9 C        0.3260     3.7720     0.2870 C.3   1 <1>   0.0210 
 10 N       -3.0850    -2.3840    -1.7110 N.ar  1 <1>  -0.6200 
 11 C       -4.3220    -0.3810    -2.1290 C.ar  1 <1>  -0.1500 
 12 C        1.5610     4.1500     1.1070 C.3   1 <1>   0.2090 
 13 C       -4.1570    -1.7540    -2.1630 C.ar  1 <1>   0.1600 
 14 N        1.6730     5.6270     1.2270 N.pl3 1 <1>  -0.8690 
 15 C        2.1880     6.4230     0.2300 C.ar  1 <1>   0.4100 
 16 N        2.7910     5.8220    -0.7860 N.ar  1 <1>  -0.6200 
 17 C        2.0510     7.8000     0.3260 C.ar  1 <1>  -0.1500 
 18 C        3.2550     6.6150    -1.7350 C.ar  1 <1>   0.1600 
 19 C        2.5480     8.6350    -0.6550 C.ar  1 <1>   0.0860 
 20 C        3.1610     7.9910    -1.7220 C.ar  1 <1>  -0.1500 
 21 C        2.4240    10.0760    -0.5740 C.2   1 <1>   0.5440 
 22 O        1.3190    10.5580    -0.4150 O.2   1 <1>  -0.5700 
 23 N        3.5200    10.9100    -0.6680 N.am  1 <1>  -0.6600 
 24 C        3.3680    12.3880    -0.7860 C.3   1 <1>   0.1400 
 25 C        4.9270    10.4580    -0.4660 C.3   1 <1>   0.1400 
 26 C        3.9370    13.0700     0.4620 C.3   1 <1>  -0.1600 
 27 C        5.5120    11.1270     0.7820 C.3   1 <1>  -0.1600 
 28 C        5.3930    12.6560     0.7170 C.3   1 <1>  -0.1600 
 29 H        1.9580     1.3120     1.0150 H     1 <1>   0.1500 
 30 H       -1.2700    -2.1270    -0.8420 H     1 <1>   0.1500 
 31 H       -3.4220     1.4760    -1.5580 H     1 <1>   0.1500 
 32 H       -0.5490     4.1780     0.7610 H     1 <1>   0.0800 
 33 H        0.4090     4.1960    -0.6970 H     1 <1>   0.0800 
 34 H       -5.2210     0.0630    -2.5160 H     1 <1>   0.1500 
 35 H        2.4470     3.7570     0.6370 H     1 <1>   0.0800 
 36 H        1.4890     3.7240     2.0930 H     1 <1>   0.0800 
 37 H       -4.9420    -2.3620    -2.5800 H     1 <1>   0.1500 
 38 H        0.9780     6.0640     1.8360 H     1 <1>   0.4000 
 39 H        1.5510     8.2260     1.1750 H     1 <1>   0.1500 
 40 H        3.7360     6.1360    -2.5710 H     1 <1>   0.1500 
 41 H        3.5570     8.5710    -2.5350 H     1 <1>   0.1500 
 42 H        2.3320    12.6580    -0.9060 H     1 <1>   0.0800 
 43 H        3.8990    12.7240    -1.6600 H     1 <1>   0.0800 
 44 H        5.5070    10.7270    -1.3320 H     1 <1>   0.0800 
 45 H        4.9780     9.3900    -0.3450 H     1 <1>   0.0800 
 46 H        3.3270    12.8010     1.3070 H     1 <1>   0.0800 
 47 H        3.8780    14.1370     0.3420 H     1 <1>   0.0800 
 48 H        6.5460    10.8490     0.8830 H     1 <1>   0.0800 
 49 H        4.9890    10.7610     1.6480 H     1 <1>   0.0800 
 50 H        5.7370    13.0880     1.6410 H     1 <1>   0.0800 
 51 H        6.0150    13.0310    -0.0780 H     1 <1>   0.0800 
@<TRIPOS>BOND
  1   1   2  1   
  2   1   3  1   
  3   2   4  2   
  4   2   5  1   
  5   3   6  2   
  6   3  29  1   
  7   4   6  1   
  8   5   7  ar  
  9   5   8  ar  
 10   6   9  1   
 11   7  10  ar  
 12   7  30  1   
 13   8  11  ar  
 14   8  31  1   
 15   9  12  1   
 16   9  32  1   
 17   9  33  1   
 18  10  13  ar  
 19  11  13  ar  
 20  11  34  1   
 21  12  14  1   
 22  12  35  1   
 23  12  36  1   
 24  13  37  1   
 25  14  15  1   
 26  14  38  1   
 27  15  16  ar  
 28  15  17  ar  
 29  16  18  ar  
 30  17  19  ar  
 31  17  39  1   
 32  18  20  ar  
 33  18  40  1   
 34  19  20  ar  
 35  19  21  1   
 36  20  41  1   
 37  21  22  2   
 38  21  23  am  
 39  23  24  1   
 40  23  25  1   
 41  24  26  1   
 42  24  42  1   
 43  24  43  1   
 44  25  27  1   
 45  25  44  1   
 46  25  45  1   
 47  26  28  1   
 48  26  46  1   
 49  26  47  1   
 50  27  28  1   
 51  27  48  1   
 52  27  49  1   
 53  28  50  1   
 54  28  51  1   
@<TRIPOS>SUBSTRUCTURE
  1 ****  15 GROUP 4 **** **** 0

# MOE 2024.06 (io_trps.svl 2023.06)
