@<TRIPOS>MOLECULE
NONAME
47 49 1 0 0 
SMALL
USER_CHARGES


@<TRIPOS>ATOM
  1 O       -0.3340     0.5930     0.3030 O.2   1 <1>  -0.5700 
  2 C       -0.3180     1.7940     0.1660 C.2   1 <1>   0.5690 
  3 N       -1.4160     2.5950     0.3750 N.am  1 <1>  -0.5090 
  4 C        1.0050     2.4280    -0.2560 C.3   1 <1>   0.1810 
  5 C       -1.3050     4.0900     0.2750 C.3   1 <1>   0.3640 
  6 C       -2.5860     2.0970     1.1500 C.3   1 <1>   0.0490 
  7 O        1.1270     3.7570     0.1830 O.3   1 <1>  -0.5600 
  8 C       -2.3830     4.6510    -0.6480 C.ar  1 <1>  -0.1440 
  9 C        0.0700     4.5900    -0.2430 C.3   1 <1>   0.2610 
 10 C       -3.2970     0.8600     0.6960 C.3   1 <1>  -0.2000 
 11 C       -3.9800     2.1840     0.6050 C.3   1 <1>  -0.2000 
 12 C       -2.6150     4.0940    -1.8990 C.ar  1 <1>   0.1600 
 13 C       -3.1360     5.7440    -0.2630 C.ar  1 <1>  -0.1500 
 14 C        0.3280     6.0590     0.1460 C.2   1 <1>   0.5690 
 15 N       -3.5020     4.5350    -2.7750 N.ar  1 <1>  -0.6200 
 16 C       -4.0720     6.2100    -1.1590 C.ar  1 <1>  -0.1500 
 17 O       -0.2770     6.5270     1.0880 O.2   1 <1>  -0.5700 
 18 N        1.2110     6.8350    -0.5740 N.am  1 <1>  -0.6600 
 19 C       -4.2120     5.5800    -2.3840 C.ar  1 <1>   0.1600 
 20 C        1.3700     8.2820    -0.2690 C.3   1 <1>   0.1400 
 21 C        2.0960     6.3200    -1.6590 C.3   1 <1>   0.0600 
 22 C        2.4860     8.4730     0.7600 C.3   1 <1>  -0.1600 
 23 C        2.6150     9.9450     1.1450 C.3   1 <1>   0.1200 
 24 O        3.6690    10.0720     2.0270 O.3   1 <1>  -0.6800 
 25 H        1.0970     2.4050    -1.3270 H     1 <1>   0.0800 
 26 H        1.8170     1.8690     0.1730 H     1 <1>   0.0800 
 27 H       -1.4620     4.4760     1.2680 H     1 <1>   0.0800 
 28 H       -2.4480     2.2240     2.2120 H     1 <1>   0.1000 
 29 H        0.0560     4.5500    -1.3170 H     1 <1>   0.0800 
 30 H       -2.9710     0.3800    -0.2110 H     1 <1>   0.1000 
 31 H       -3.6280     0.1570     1.4380 H     1 <1>   0.1000 
 32 H       -4.7890     2.3820     1.2850 H     1 <1>   0.1000 
 33 H       -4.1800     2.5560    -0.3830 H     1 <1>   0.1000 
 34 H       -2.0420     3.2320    -2.1990 H     1 <1>   0.1500 
 35 H       -2.9980     6.2210     0.6940 H     1 <1>   0.1500 
 36 H       -4.6880     7.0570    -0.9150 H     1 <1>   0.1500 
 37 H       -4.9460     5.9560    -3.0770 H     1 <1>   0.1500 
 38 H        1.5970     8.8210    -1.1730 H     1 <1>   0.0800 
 39 H        0.4450     8.6710     0.1240 H     1 <1>   0.0800 
 40 H        3.0340     6.8470    -1.6510 H     1 <1>   0.0800 
 41 H        1.6220     6.4670    -2.6140 H     1 <1>   0.0800 
 42 H        2.3050     5.2740    -1.5210 H     1 <1>   0.0800 
 43 H        3.4180     8.1340     0.3440 H     1 <1>   0.0800 
 44 H        2.2520     7.8950     1.6360 H     1 <1>   0.0800 
 45 H        1.7210    10.3040     1.6280 H     1 <1>   0.0800 
 46 H        2.8290    10.5560     0.2840 H     1 <1>   0.0800 
 47 H        3.5200     9.5190     2.8180 H     1 <1>   0.4000 
@<TRIPOS>BOND
  1   1   2  2   
  2   2   3  am  
  3   2   4  1   
  4   3   5  1   
  5   3   6  1   
  6   4   7  1   
  7   4  25  1   
  8   4  26  1   
  9   5   8  1   
 10   5   9  1   
 11   5  27  1   
 12   6  10  1   
 13   6  11  1   
 14   6  28  1   
 15   7   9  1   
 16   8  12  ar  
 17   8  13  ar  
 18   9  14  1   
 19   9  29  1   
 20  10  11  1   
 21  10  30  1   
 22  10  31  1   
 23  11  32  1   
 24  11  33  1   
 25  12  15  ar  
 26  12  34  1   
 27  13  16  ar  
 28  13  35  1   
 29  14  17  2   
 30  14  18  am  
 31  15  19  ar  
 32  16  19  ar  
 33  16  36  1   
 34  18  20  1   
 35  18  21  1   
 36  19  37  1   
 37  20  22  1   
 38  20  38  1   
 39  20  39  1   
 40  21  40  1   
 41  21  41  1   
 42  21  42  1   
 43  22  23  1   
 44  22  43  1   
 45  22  44  1   
 46  23  24  1   
 47  23  45  1   
 48  23  46  1   
 49  24  47  1   
@<TRIPOS>SUBSTRUCTURE
  1 ****   9 GROUP 4 **** **** 0

# MOE 2024.06 (io_trps.svl 2023.06)
