@<TRIPOS>MOLECULE
NONAME
44 47 1 0 0 
SMALL
USER_CHARGES


@<TRIPOS>ATOM
  1 S       -0.2440    -0.3080    -1.3740 S.3   1 <1>  -0.0800 
  2 C       -1.4030    -1.2170    -0.4260 C.ar  1 <1>   0.0400 
  3 C       -1.0300     1.1820    -0.8680 C.2   1 <1>   0.2280 
  4 C       -2.2600    -0.3160     0.1770 C.ar  1 <1>   0.2270 
  5 C       -1.4980    -2.5850    -0.2660 C.ar  1 <1>  -0.1500 
  6 N       -2.0270     1.0290    -0.0930 N.2   1 <1>  -0.5650 
  7 C       -3.2640    -0.8200     0.9900 C.ar  1 <1>  -0.1500 
  8 C       -2.5130    -3.1000     0.5390 C.ar  1 <1>   0.0860 
  9 C       -3.3800    -2.1890     1.1660 C.ar  1 <1>  -0.1500 
 10 C       -2.6540    -4.5320     0.7240 C.2   1 <1>   0.5440 
 11 O       -1.6700    -5.2060     0.9630 O.2   1 <1>  -0.5700 
 12 N       -3.8760    -5.1560     0.6120 N.am  1 <1>  -0.6600 
 13 C       -5.0080    -4.6400    -0.2020 C.3   1 <1>   0.1400 
 14 C       -4.0720    -6.6020     0.8690 C.3   1 <1>   0.1400 
 15 C       -5.9370    -5.8400    -0.4460 C.3   1 <1>   0.2000 
 16 C       -5.0370    -7.0590    -0.2240 C.3   1 <1>  -0.0800 
 17 O       -6.9570    -5.8510     0.5120 O.3   1 <1>  -0.5600 
 18 C       -5.7860    -8.3600     0.1200 C.3   1 <1>   0.0200 
 19 C       -8.0860    -5.1010     0.1890 C.3   1 <1>   0.0400 
 20 C       -4.8800    -9.5790     0.1610 C.2   1 <1>  -0.0400 
 21 O       -5.3880   -10.7270     0.5220 O.3   1 <1>  -0.0190 
 22 C       -3.5800    -9.7780    -0.1110 C.2   1 <1>  -0.1500 
 23 N       -4.5010   -11.6800     0.5100 N.2   1 <1>  -0.4100 
 24 C       -3.4010   -11.1360     0.1330 C.2   1 <1>   0.1080 
 25 C       -2.0930   -11.8790    -0.0200 C.3   1 <1>  -0.0590 
 26 H       -0.6140     2.0990    -1.2470 H     1 <1>   0.1500 
 27 H       -0.8000    -3.2450    -0.7500 H     1 <1>   0.1500 
 28 H       -3.9340    -0.1320     1.4750 H     1 <1>   0.1500 
 29 H       -4.1520    -2.5750     1.8100 H     1 <1>   0.1500 
 30 H       -5.5230    -3.8490     0.3120 H     1 <1>   0.0800 
 31 H       -4.6270    -4.2770    -1.1400 H     1 <1>   0.0800 
 32 H       -3.1420    -7.1430     0.8350 H     1 <1>   0.0800 
 33 H       -4.5190    -6.7220     1.8420 H     1 <1>   0.0800 
 34 H       -6.3720    -5.8370    -1.4310 H     1 <1>   0.0800 
 35 H       -4.4670    -7.2140    -1.1230 H     1 <1>   0.0800 
 36 H       -6.5530    -8.5330    -0.6150 H     1 <1>   0.0800 
 37 H       -6.2700    -8.2610     1.0760 H     1 <1>   0.0800 
 38 H       -8.7810    -5.1770     1.0060 H     1 <1>   0.0800 
 39 H       -8.5350    -5.5030    -0.7030 H     1 <1>   0.0800 
 40 H       -7.8080    -4.0720     0.0450 H     1 <1>   0.0800 
 41 H       -2.8220    -9.0920    -0.4400 H     1 <1>   0.1500 
 42 H       -1.3380   -11.4170     0.5890 H     1 <1>   0.0800 
 43 H       -1.7820   -11.8600    -1.0480 H     1 <1>   0.0800 
 44 H       -2.2130   -12.9010     0.2890 H     1 <1>   0.0800 
@<TRIPOS>BOND
  1   1   2  1   
  2   1   3  1   
  3   2   4  ar  
  4   2   5  ar  
  5   3   6  2   
  6   3  26  1   
  7   4   6  1   
  8   4   7  ar  
  9   5   8  ar  
 10   5  27  1   
 11   7   9  ar  
 12   7  28  1   
 13   8   9  ar  
 14   8  10  1   
 15   9  29  1   
 16  10  11  2   
 17  10  12  am  
 18  12  13  1   
 19  12  14  1   
 20  13  15  1   
 21  13  30  1   
 22  13  31  1   
 23  14  16  1   
 24  14  32  1   
 25  14  33  1   
 26  15  16  1   
 27  15  17  1   
 28  15  34  1   
 29  16  18  1   
 30  16  35  1   
 31  17  19  1   
 32  18  20  1   
 33  18  36  1   
 34  18  37  1   
 35  19  38  1   
 36  19  39  1   
 37  19  40  1   
 38  20  21  1   
 39  20  22  2   
 40  21  23  1   
 41  22  24  1   
 42  22  41  1   
 43  23  24  2   
 44  24  25  1   
 45  25  42  1   
 46  25  43  1   
 47  25  44  1   
@<TRIPOS>SUBSTRUCTURE
  1 ****  12 GROUP 4 **** **** 0

# MOE 2024.06 (io_trps.svl 2023.06)
