@<TRIPOS>MOLECULE
NONAME
19 18 1 0 0 
SMALL
USER_CHARGES


@<TRIPOS>ATOM
  1 F       -0.4780     0.0080     0.1420 F     1 <1>  -0.3400 
  2 C       -1.5420    -0.7640    -0.0350 C.3   1 <1>   0.1800 
  3 C       -2.7830     0.1160     0.1130 C.3   1 <1>  -0.1600 
  4 C       -4.0650    -0.7060    -0.0790 C.3   1 <1>  -0.1600 
  5 C       -5.3120     0.1730     0.0680 C.3   1 <1>  -0.1600 
  6 C       -6.5970    -0.6490    -0.1240 C.3   1 <1>  -0.2660 
  7 C       -7.8430     0.1960     0.0170 C.2   1 <1>   0.9060 
  8 O       -8.3050     0.7360    -0.9920 O.co2 1 <1>  -0.9000 
  9 O       -8.3510     0.3120     1.1360 O.co2 1 <1>  -0.9000 
 10 H       -1.4960    -1.5330     0.7150 H     1 <1>   0.0800 
 11 H       -1.4580    -1.1870    -1.0200 H     1 <1>   0.0800 
 12 H       -2.7520     0.9000    -0.6240 H     1 <1>   0.0800 
 13 H       -2.7900     0.5580     1.0940 H     1 <1>   0.0800 
 14 H       -4.1030    -1.4950     0.6530 H     1 <1>   0.0800 
 15 H       -4.0650    -1.1540    -1.0580 H     1 <1>   0.0800 
 16 H       -5.2960     0.9640    -0.6620 H     1 <1>   0.0800 
 17 H       -5.3340     0.6240     1.0460 H     1 <1>   0.0800 
 18 H       -6.6500    -1.4320     0.6080 H     1 <1>   0.0800 
 19 H       -6.6130    -1.0910    -1.1010 H     1 <1>   0.0800 
@<TRIPOS>BOND
  1   1   2  1   
  2   2   3  1   
  3   2  10  1   
  4   2  11  1   
  5   3   4  1   
  6   3  12  1   
  7   3  13  1   
  8   4   5  1   
  9   4  14  1   
 10   4  15  1   
 11   5   6  1   
 12   5  16  1   
 13   5  17  1   
 14   6   7  1   
 15   6  18  1   
 16   6  19  1   
 17   7   8  ar  
 18   7   9  ar  
@<TRIPOS>SUBSTRUCTURE
  1 ****   5 GROUP 4 **** **** 0

# MOE 2024.06 (io_trps.svl 2023.06)
