@<TRIPOS>MOLECULE
NONAME
57 61 1 0 0 
SMALL
USER_CHARGES


@<TRIPOS>ATOM
  1 O       -0.4080     0.7740     0.7500 O.3   1 <1>  -0.5600 
  2 C        0.0340     1.2880    -0.4710 C.3   1 <1>   0.1200 
  3 C       -1.7830     0.9860     0.8950 C.3   1 <1>   0.1200 
  4 C       -0.9160     2.4320    -0.8000 C.3   1 <1>   0.2890 
  5 C       -2.2280     1.8620    -0.2810 C.3   1 <1>  -0.0800 
  6 N       -0.5160     3.6280    -0.0140 N.pl3 1 <1>  -0.8690 
  7 C       -3.3130     2.8960     0.0780 C.3   1 <1>  -0.0170 
  8 C       -0.0090     4.7770    -0.5690 C.ar  1 <1>   0.4100 
  9 C       -4.6030     2.2090     0.5160 C.ar  1 <1>  -0.1430 
 10 N       -0.1920     4.9810    -1.8590 N.ar  1 <1>  -0.6200 
 11 C        0.6670     5.6860     0.2060 C.ar  1 <1>  -0.1500 
 12 C       -5.5080     1.6290    -0.4050 C.ar  1 <1>   0.0000 
 13 C       -4.9170     2.1300     1.8410 C.ar  1 <1>  -0.1500 
 14 C        0.3270     6.0980    -2.3290 C.ar  1 <1>   0.4700 
 15 C        1.1610     6.8210    -0.3910 C.ar  1 <1>   0.4100 
 16 C       -6.6580     0.9880     0.1180 C.ar  1 <1>   0.3100 
 17 C       -5.3420     1.6480    -1.8090 C.ar  1 <1>  -0.1500 
 18 C       -6.0870     1.4810     2.2530 C.ar  1 <1>   0.1600 
 19 N        0.9950     7.0330    -1.6840 N.ar  1 <1>  -0.6200 
 20 N        1.8430     7.7770     0.3390 N.pl3 1 <1>  -0.8380 
 21 N       -6.9320     0.9220     1.4460 N.ar  1 <1>  -0.6200 
 22 C       -7.5650     0.3890    -0.7700 C.ar  1 <1>  -0.1500 
 23 C       -6.2470     1.0570    -2.6480 C.ar  1 <1>  -0.1500 
 24 C        2.9300     8.5760    -0.2930 C.3   1 <1>   0.2090 
 25 C        1.2050     8.3950     1.5310 C.3   1 <1>   0.2090 
 26 C       -7.3720     0.4160    -2.1250 C.ar  1 <1>  -0.1500 
 27 C        2.4110     9.9670    -0.6580 C.3   1 <1>  -0.1600 
 28 C        0.6720     9.7800     1.1660 C.3   1 <1>  -0.1600 
 29 C        1.7830    10.6370     0.5620 C.3   1 <1>   0.2000 
 30 O        1.2400    11.8400     0.1670 O.3   1 <1>  -0.6800 
 31 H        1.0560     1.6110    -0.3850 H     1 <1>   0.0800 
 32 H       -0.0450     0.5060    -1.2060 H     1 <1>   0.0800 
 33 H       -2.2870     0.0350     0.8980 H     1 <1>   0.0800 
 34 H       -1.9360     1.4810     1.8380 H     1 <1>   0.0800 
 35 H       -0.9490     2.6370    -1.8560 H     1 <1>   0.0800 
 36 H       -2.6170     1.2030    -1.0360 H     1 <1>   0.0800 
 37 H       -0.1590     3.3630     0.9080 H     1 <1>   0.4000 
 38 H       -3.5010     3.5400    -0.7630 H     1 <1>   0.0800 
 39 H       -2.9610     3.5290     0.8740 H     1 <1>   0.0800 
 40 H        0.8170     5.5140     1.2500 H     1 <1>   0.1500 
 41 H       -4.2810     2.5540     2.5970 H     1 <1>   0.1500 
 42 H        0.1850     6.2710    -3.3830 H     1 <1>   0.1500 
 43 H       -4.4870     2.1410    -2.2330 H     1 <1>   0.1500 
 44 H       -6.2950     1.4420     3.3080 H     1 <1>   0.1500 
 45 H       -8.4240    -0.0950    -0.3450 H     1 <1>   0.1500 
 46 H       -6.1070     1.0780    -3.7150 H     1 <1>   0.1500 
 47 H        3.7490     8.6600     0.4010 H     1 <1>   0.0800 
 48 H        3.2940     8.0760    -1.1750 H     1 <1>   0.0800 
 49 H        0.3930     7.7810     1.8830 H     1 <1>   0.0800 
 50 H        1.9350     8.4740     2.3190 H     1 <1>   0.0800 
 51 H       -8.0760    -0.0480    -2.7940 H     1 <1>   0.1500 
 52 H        1.6830     9.8580    -1.4420 H     1 <1>   0.0800 
 53 H        3.2260    10.5630    -1.0230 H     1 <1>   0.0800 
 54 H        0.2880    10.2560     2.0500 H     1 <1>   0.0800 
 55 H       -0.1300     9.6590     0.4600 H     1 <1>   0.0800 
 56 H        2.5380    10.8450     1.3020 H     1 <1>   0.0800 
 57 H        0.5740    11.6820    -0.5280 H     1 <1>   0.4000 
@<TRIPOS>BOND
  1   1   2  1   
  2   1   3  1   
  3   2   4  1   
  4   2  31  1   
  5   2  32  1   
  6   3   5  1   
  7   3  33  1   
  8   3  34  1   
  9   4   5  1   
 10   4   6  1   
 11   4  35  1   
 12   5   7  1   
 13   5  36  1   
 14   6   8  1   
 15   6  37  1   
 16   7   9  1   
 17   7  38  1   
 18   7  39  1   
 19   8  10  ar  
 20   8  11  ar  
 21   9  12  ar  
 22   9  13  ar  
 23  10  14  ar  
 24  11  15  ar  
 25  11  40  1   
 26  12  16  ar  
 27  12  17  ar  
 28  13  18  ar  
 29  13  41  1   
 30  14  19  ar  
 31  14  42  1   
 32  15  19  ar  
 33  15  20  1   
 34  16  21  ar  
 35  16  22  ar  
 36  17  23  ar  
 37  17  43  1   
 38  18  21  ar  
 39  18  44  1   
 40  20  24  1   
 41  20  25  1   
 42  22  26  ar  
 43  22  45  1   
 44  23  26  ar  
 45  23  46  1   
 46  24  27  1   
 47  24  47  1   
 48  24  48  1   
 49  25  28  1   
 50  25  49  1   
 51  25  50  1   
 52  26  51  1   
 53  27  29  1   
 54  27  52  1   
 55  27  53  1   
 56  28  29  1   
 57  28  54  1   
 58  28  55  1   
 59  29  30  1   
 60  29  56  1   
 61  30  57  1   
@<TRIPOS>SUBSTRUCTURE
  1 ****   6 GROUP 4 **** **** 0

# MOE 2024.06 (io_trps.svl 2023.06)
