@<TRIPOS>MOLECULE
NONAME
75 78 1 0 0 
SMALL
USER_CHARGES


@<TRIPOS>ATOM
  1 O        1.3660     1.5530    -0.6670 O.2   1 <1>  -0.5700 
  2 C        0.9210     2.3490     0.1140 C.2   1 <1>   0.6590 
  3 O        1.6630     3.3820     0.5050 O.3   1 <1>  -0.4300 
  4 C       -0.4960     2.1800     0.6460 C.3   1 <1>  -0.0990 
  5 C        1.3620     4.2650     1.5590 C.3   1 <1>   0.1200 
  6 C       -1.5110     3.0550    -0.1180 C.3   1 <1>  -0.1600 
  7 C        2.4970     5.2790     1.6560 C.3   1 <1>  -0.2400 
  8 C       -2.9250     3.1130     0.5190 C.3   1 <1>  -0.0800 
  9 C       -3.8620     1.9900    -0.0280 C.3   1 <1>  -0.0800 
 10 C       -3.5040     4.5140     0.2560 C.3   1 <1>  -0.2400 
 11 C       -5.3570     1.9380     0.4090 C.3   1 <1>   0.0000 
 12 C       -3.3470     0.5640     0.2870 C.3   1 <1>  -0.1600 
 13 C       -6.3540     2.9370    -0.2510 C.3   1 <1>   0.2000 
 14 C       -5.7300     0.5200    -0.0720 C.3   1 <1>  -0.0800 
 15 C       -5.4440     2.0790     1.9580 C.3   1 <1>  -0.2400 
 16 C       -4.5690    -0.3620     0.3720 C.3   1 <1>  -0.1600 
 17 O       -6.1760     2.9840    -1.6240 O.3   1 <1>  -0.6800 
 18 C       -7.8230     2.5540     0.0140 C.3   1 <1>  -0.1600 
 19 C       -7.1690     0.0800     0.2770 C.3   1 <1>  -0.0800 
 20 C       -8.1850     1.0840    -0.3450 C.3   1 <1>  -0.0800 
 21 C       -7.4570    -1.3750    -0.1520 C.3   1 <1>   0.2000 
 22 C       -9.6760     0.6990    -0.0520 C.3   1 <1>   0.0000 
 23 O       -7.2200    -1.5260    -1.5070 O.3   1 <1>  -0.6800 
 24 C       -8.9120    -1.7700     0.1120 C.3   1 <1>  -0.1600 
 25 C       -9.9140    -0.7730    -0.5040 C.3   1 <1>  -0.0800 
 26 C      -10.6290     1.6280    -0.8670 C.3   1 <1>  -0.1600 
 27 C      -10.0010     0.8680     1.4580 C.3   1 <1>  -0.2400 
 28 C      -11.3630    -1.2560    -0.2690 C.3   1 <1>  -0.1600 
 29 C      -11.8840     0.9480    -1.4560 C.3   1 <1>  -0.1600 
 30 C      -12.4160    -0.1730    -0.5620 C.3   1 <1>   0.2000 
 31 O      -13.4870    -0.7570    -1.2010 O.3   1 <1>  -0.6800 
 32 H       -0.7470     1.1440     0.5310 H     1 <1>   0.0800 
 33 H       -0.5210     2.3970     1.6960 H     1 <1>   0.0800 
 34 H        0.4320     4.7620     1.3470 H     1 <1>   0.0800 
 35 H        1.2820     3.6980     2.4710 H     1 <1>   0.0800 
 36 H       -1.5800     2.7150    -1.1380 H     1 <1>   0.0800 
 37 H       -1.0990     4.0470    -0.1650 H     1 <1>   0.0800 
 38 H        2.5810     5.8310     0.7370 H     1 <1>   0.0800 
 39 H        3.4260     4.7750     1.8560 H     1 <1>   0.0800 
 40 H        2.3030     5.9700     2.4560 H     1 <1>   0.0800 
 41 H       -2.8270     3.0050     1.5850 H     1 <1>   0.0800 
 42 H       -3.8540     2.0830    -1.1010 H     1 <1>   0.0800 
 43 H       -3.7640     4.6280    -0.7830 H     1 <1>   0.0800 
 44 H       -2.7980     5.2810     0.5180 H     1 <1>   0.0800 
 45 H       -4.3760     4.6890     0.8550 H     1 <1>   0.0800 
 46 H       -2.6760     0.2300    -0.4860 H     1 <1>   0.0800 
 47 H       -2.8360     0.5400     1.2330 H     1 <1>   0.0800 
 48 H       -6.1920     3.9340     0.1130 H     1 <1>   0.0800 
 49 H       -5.6700     0.5180    -1.1470 H     1 <1>   0.0800 
 50 H       -5.2090     3.0830     2.2560 H     1 <1>   0.0800 
 51 H       -4.7550     1.4250     2.4580 H     1 <1>   0.0800 
 52 H       -6.4230     1.8610     2.3350 H     1 <1>   0.0800 
 53 H       -4.7150    -0.6980     1.3840 H     1 <1>   0.0800 
 54 H       -4.4620    -1.2180    -0.2720 H     1 <1>   0.0800 
 55 H       -6.2140     2.0780    -1.9810 H     1 <1>   0.4000 
 56 H       -8.0160     2.7300     1.0530 H     1 <1>   0.0800 
 57 H       -8.4470     3.2410    -0.5290 H     1 <1>   0.0800 
 58 H       -7.2690     0.0980     1.3450 H     1 <1>   0.0800 
 59 H       -8.0630     1.0110    -1.4110 H     1 <1>   0.0800 
 60 H       -6.7970    -2.0520     0.3630 H     1 <1>   0.0800 
 61 H       -7.8600    -0.9870    -2.0050 H     1 <1>   0.4000 
 62 H       -9.0820    -2.7580    -0.2800 H     1 <1>   0.0800 
 63 H       -9.0630    -1.8250     1.1750 H     1 <1>   0.0800 
 64 H       -9.7610    -0.8000    -1.5690 H     1 <1>   0.0800 
 65 H      -10.9420     2.4520    -0.2490 H     1 <1>   0.0800 
 66 H      -10.1010     2.0610    -1.6980 H     1 <1>   0.0800 
 67 H      -11.0120     0.5880     1.6800 H     1 <1>   0.0800 
 68 H       -9.8950     1.8910     1.7670 H     1 <1>   0.0800 
 69 H       -9.3600     0.2700     2.0760 H     1 <1>   0.0800 
 70 H      -11.4830    -1.5610     0.7550 H     1 <1>   0.0800 
 71 H      -11.5340    -2.1220    -0.8840 H     1 <1>   0.0800 
 72 H      -11.6310     0.5350    -2.4160 H     1 <1>   0.0800 
 73 H      -12.6520     1.6870    -1.6030 H     1 <1>   0.0800 
 74 H      -12.7850     0.2470     0.3590 H     1 <1>   0.0800 
 75 H      -13.2000    -1.1280    -2.0560 H     1 <1>   0.4000 
@<TRIPOS>BOND
  1   1   2  2   
  2   2   3  1   
  3   2   4  1   
  4   3   5  1   
  5   4   6  1   
  6   4  32  1   
  7   4  33  1   
  8   5   7  1   
  9   5  34  1   
 10   5  35  1   
 11   6   8  1   
 12   6  36  1   
 13   6  37  1   
 14   7  38  1   
 15   7  39  1   
 16   7  40  1   
 17   8   9  1   
 18   8  10  1   
 19   8  41  1   
 20   9  11  1   
 21   9  12  1   
 22   9  42  1   
 23  10  43  1   
 24  10  44  1   
 25  10  45  1   
 26  11  13  1   
 27  11  14  1   
 28  11  15  1   
 29  12  16  1   
 30  12  46  1   
 31  12  47  1   
 32  13  17  1   
 33  13  18  1   
 34  13  48  1   
 35  14  16  1   
 36  14  19  1   
 37  14  49  1   
 38  15  50  1   
 39  15  51  1   
 40  15  52  1   
 41  16  53  1   
 42  16  54  1   
 43  17  55  1   
 44  18  20  1   
 45  18  56  1   
 46  18  57  1   
 47  19  20  1   
 48  19  21  1   
 49  19  58  1   
 50  20  22  1   
 51  20  59  1   
 52  21  23  1   
 53  21  24  1   
 54  21  60  1   
 55  22  25  1   
 56  22  26  1   
 57  22  27  1   
 58  23  61  1   
 59  24  25  1   
 60  24  62  1   
 61  24  63  1   
 62  25  28  1   
 63  25  64  1   
 64  26  29  1   
 65  26  65  1   
 66  26  66  1   
 67  27  67  1   
 68  27  68  1   
 69  27  69  1   
 70  28  30  1   
 71  28  70  1   
 72  28  71  1   
 73  29  30  1   
 74  29  72  1   
 75  29  73  1   
 76  30  31  1   
 77  30  74  1   
 78  31  75  1   
@<TRIPOS>SUBSTRUCTURE
  1 ****  11 GROUP 4 **** **** 0

# MOE 2024.06 (io_trps.svl 2023.06)
