@<TRIPOS>MOLECULE
NONAME
56 60 1 0 0 
SMALL
USER_CHARGES


@<TRIPOS>ATOM
  1 O       -1.8160     0.4250     1.5040 O.2   1 <1>  -0.5700 
  2 C       -1.6160     0.7170     0.3530 C.2   1 <1>   0.5690 
  3 N       -1.5550    -0.2040    -0.6470 N.am  1 <1>  -0.7300 
  4 C       -1.4690     2.1820    -0.0130 C.3   1 <1>  -0.0990 
  5 C       -1.5820    -1.6950    -0.5720 C.3   1 <1>   0.2200 
  6 C       -0.0170     2.7140    -0.0190 C.3   1 <1>   0.0000 
  7 C       -2.9720    -2.3160    -0.5810 C.3   1 <1>  -0.0800 
  8 C       -0.9380    -2.3480     0.6510 C.3   1 <1>   0.1200 
  9 C       -0.0390     4.2190    -0.3750 C.3   1 <1>  -0.1600 
 10 C        0.6430     2.5530     1.3710 C.3   1 <1>  -0.1600 
 11 C        0.8590     1.9810    -1.0640 C.3   1 <1>  -0.1600 
 12 C       -2.6560    -3.7210    -0.0560 C.3   1 <1>   0.1200 
 13 C       -4.0020    -1.5980     0.3190 C.3   1 <1>  -0.0170 
 14 O       -1.5050    -3.6230     0.7320 O.3   1 <1>  -0.5600 
 15 C        1.3850     4.8050    -0.3870 C.3   1 <1>  -0.0800 
 16 C        2.0720     3.1300     1.3680 C.3   1 <1>  -0.0800 
 17 C        2.2880     2.5560    -1.0800 C.3   1 <1>  -0.0800 
 18 C       -5.3510    -2.3020     0.3070 C.ar  1 <1>  -0.1440 
 19 C        2.0150     4.6250     1.0060 C.3   1 <1>  -0.1600 
 20 C        2.2310     4.0540    -1.4300 C.3   1 <1>  -0.1600 
 21 C        2.9150     2.3850     0.3170 C.3   1 <1>  -0.1600 
 22 C       -6.1980    -2.2420    -0.7810 C.ar  1 <1>  -0.1500 
 23 C       -5.8000    -3.0350     1.3870 C.ar  1 <1>  -0.1500 
 24 C       -7.4130    -2.9050    -0.7410 C.ar  1 <1>   0.1600 
 25 C       -7.0340    -3.6600     1.3260 C.ar  1 <1>   0.1600 
 26 N       -7.8520    -3.6150     0.2860 N.ar  1 <1>  -0.6200 
 27 H       -1.4090     0.1530    -1.5910 H     1 <1>   0.3700 
 28 H       -1.9140     2.3410    -0.9770 H     1 <1>   0.0800 
 29 H       -2.0440     2.7500     0.6960 H     1 <1>   0.0800 
 30 H       -1.0440    -2.0670    -1.4280 H     1 <1>   0.0800 
 31 H       -3.3530    -2.3780    -1.5830 H     1 <1>   0.0800 
 32 H       -1.1790    -1.8410     1.5660 H     1 <1>   0.0800 
 33 H        0.1270    -2.4440     0.5470 H     1 <1>   0.0800 
 34 H       -0.4890     4.3620    -1.3420 H     1 <1>   0.0800 
 35 H       -0.6350     4.7560     0.3430 H     1 <1>   0.0800 
 36 H        0.0540     3.0580     2.1170 H     1 <1>   0.0800 
 37 H        0.6870     1.5140     1.6460 H     1 <1>   0.0800 
 38 H        0.9180     0.9330    -0.8310 H     1 <1>   0.0800 
 39 H        0.4250     2.0800    -2.0440 H     1 <1>   0.0800 
 40 H       -2.4290    -4.3870    -0.8700 H     1 <1>   0.0800 
 41 H       -3.4470    -4.1460     0.5360 H     1 <1>   0.0800 
 42 H       -4.1460    -0.5900    -0.0230 H     1 <1>   0.0800 
 43 H       -3.6320    -1.5440     1.3290 H     1 <1>   0.0800 
 44 H        1.3460     5.8520    -0.6350 H     1 <1>   0.0800 
 45 H        2.5140     3.0080     2.3420 H     1 <1>   0.0800 
 46 H        2.8840     2.0350    -1.8100 H     1 <1>   0.0800 
 47 H        1.4350     5.1560     1.7410 H     1 <1>   0.0800 
 48 H        3.0080     5.0390     1.0130 H     1 <1>   0.0800 
 49 H        3.2270     4.4610    -1.4510 H     1 <1>   0.0800 
 50 H        1.8040     4.1850    -2.4090 H     1 <1>   0.0800 
 51 H        2.9690     1.3410     0.5680 H     1 <1>   0.0800 
 52 H        3.9190     2.7730     0.3150 H     1 <1>   0.0800 
 53 H       -5.9240    -1.6860    -1.6580 H     1 <1>   0.1500 
 54 H       -5.2010    -3.1250     2.2750 H     1 <1>   0.1500 
 55 H       -8.0600    -2.8470    -1.5990 H     1 <1>   0.1500 
 56 H       -7.3660    -4.2280     2.1780 H     1 <1>   0.1500 
@<TRIPOS>BOND
  1   1   2  2   
  2   2   3  am  
  3   2   4  1   
  4   3   5  1   
  5   3  27  1   
  6   4   6  1   
  7   4  28  1   
  8   4  29  1   
  9   5   7  1   
 10   5   8  1   
 11   5  30  1   
 12   6   9  1   
 13   6  10  1   
 14   6  11  1   
 15   7  12  1   
 16   7  13  1   
 17   7  31  1   
 18   8  14  1   
 19   8  32  1   
 20   8  33  1   
 21   9  15  1   
 22   9  34  1   
 23   9  35  1   
 24  10  16  1   
 25  10  36  1   
 26  10  37  1   
 27  11  17  1   
 28  11  38  1   
 29  11  39  1   
 30  12  14  1   
 31  12  40  1   
 32  12  41  1   
 33  13  18  1   
 34  13  42  1   
 35  13  43  1   
 36  15  19  1   
 37  15  20  1   
 38  15  44  1   
 39  16  19  1   
 40  16  21  1   
 41  16  45  1   
 42  17  20  1   
 43  17  21  1   
 44  17  46  1   
 45  18  22  ar  
 46  18  23  ar  
 47  19  47  1   
 48  19  48  1   
 49  20  49  1   
 50  20  50  1   
 51  21  51  1   
 52  21  52  1   
 53  22  24  ar  
 54  22  53  1   
 55  23  25  ar  
 56  23  54  1   
 57  24  26  ar  
 58  24  55  1   
 59  25  26  ar  
 60  25  56  1   
@<TRIPOS>SUBSTRUCTURE
  1 ****   2 GROUP 4 **** **** 0

# MOE 2024.06 (io_trps.svl 2023.06)
