@<TRIPOS>MOLECULE
NONAME
49 51 1 0 0 
SMALL
USER_CHARGES


@<TRIPOS>ATOM
  1 O       -0.8830    -0.4710    -2.5570 O.2   1 <1>  -0.5700 
  2 C       -1.2270     0.2890    -1.6810 C.2   1 <1>   0.5690 
  3 N       -1.6830    -0.1780    -0.4660 N.am  1 <1>  -0.6600 
  4 C       -1.1360     1.7890    -2.0120 C.3   1 <1>   0.1710 
  5 C       -1.7330    -1.6500    -0.2260 C.3   1 <1>   0.3200 
  6 C       -1.7940     0.6700     0.7740 C.3   1 <1>   0.1400 
  7 N       -0.3050     2.6040    -1.0820 N.3   1 <1>  -0.8100 
  8 C       -3.1420    -2.1770    -0.4100 C.2   1 <1>  -0.3320 
  9 C       -2.9320     1.7020     0.7360 C.3   1 <1>   0.1200 
 10 C       -0.5140     4.0450    -1.2970 C.3   1 <1>   0.2530 
 11 C        1.1260     2.2460    -1.1960 C.3   1 <1>   0.1100 
 12 N       -4.2330    -1.7040     0.2170 N.pl3 1 <1>   0.0330 
 13 C       -3.5740    -3.1890    -1.1950 C.2   1 <1>   0.0770 
 14 O       -4.0810     1.1230     0.2210 O.3   1 <1>  -0.6800 
 15 C       -0.2500     4.8010    -0.0080 C.ar  1 <1>  -0.1440 
 16 C        1.9880     2.7970    -0.0490 C.3   1 <1>   0.1200 
 17 C       -5.2600    -2.4570    -0.2270 C.2   1 <1>   0.0060 
 18 N       -4.9030    -3.3660    -1.0720 N.2   1 <1>  -0.5650 
 19 C        1.0340     4.8630     0.5210 C.ar  1 <1>   0.0820 
 20 C       -1.2800     5.4590     0.6480 C.ar  1 <1>  -0.1500 
 21 O        2.0570     4.2090    -0.0660 O.3   1 <1>  -0.3620 
 22 C       -6.6870    -2.2340     0.2210 C.3   1 <1>  -0.0600 
 23 C        1.2900     5.5970     1.6670 C.ar  1 <1>  -0.1500 
 24 C       -1.0290     6.1810     1.8030 C.ar  1 <1>  -0.1500 
 25 C        0.2570     6.2550     2.3110 C.ar  1 <1>  -0.1500 
 26 H       -2.1410     2.1660    -2.0210 H     1 <1>   0.0800 
 27 H       -0.7500     1.8920    -3.0120 H     1 <1>   0.0800 
 28 H       -1.3920    -1.8730     0.7700 H     1 <1>   0.0800 
 29 H       -1.0730    -2.1640    -0.9050 H     1 <1>   0.0800 
 30 H       -0.8620     1.1800     0.9450 H     1 <1>   0.0800 
 31 H       -1.9560     0.0380     1.6300 H     1 <1>   0.0800 
 32 H       -2.6710     2.5440     0.1220 H     1 <1>   0.0800 
 33 H       -3.1480     2.0640     1.7260 H     1 <1>   0.0800 
 34 H       -1.5300     4.2290    -1.5990 H     1 <1>   0.0800 
 35 H        0.1340     4.4100    -2.0760 H     1 <1>   0.0800 
 36 H        1.5250     2.5830    -2.1380 H     1 <1>   0.0800 
 37 H        1.2200     1.1730    -1.1740 H     1 <1>   0.0800 
 38 H       -4.2930    -0.8850     0.8360 H     1 <1>   0.2700 
 39 H       -2.9910    -3.8110    -1.8540 H     1 <1>   0.1500 
 40 H       -3.8450     0.6460    -0.6070 H     1 <1>   0.4000 
 41 H        2.9940     2.4330    -0.1500 H     1 <1>   0.0800 
 42 H        1.6000     2.4790     0.9030 H     1 <1>   0.0800 
 43 H       -2.2830     5.4190     0.2610 H     1 <1>   0.1500 
 44 H       -6.9950    -1.2320    -0.0180 H     1 <1>   0.0800 
 45 H       -6.7690    -2.3890     1.2810 H     1 <1>   0.0800 
 46 H       -7.3380    -2.9260    -0.2820 H     1 <1>   0.0800 
 47 H        2.2930     5.6460     2.0490 H     1 <1>   0.1500 
 48 H       -1.8330     6.6900     2.3050 H     1 <1>   0.1500 
 49 H        0.4530     6.8220     3.2050 H     1 <1>   0.1500 
@<TRIPOS>BOND
  1   1   2  2   
  2   2   3  am  
  3   2   4  1   
  4   3   5  1   
  5   3   6  1   
  6   4   7  1   
  7   4  26  1   
  8   4  27  1   
  9   5   8  1   
 10   5  28  1   
 11   5  29  1   
 12   6   9  1   
 13   6  30  1   
 14   6  31  1   
 15   7  10  1   
 16   7  11  1   
 17   8  12  1   
 18   8  13  2   
 19   9  14  1   
 20   9  32  1   
 21   9  33  1   
 22  10  15  1   
 23  10  34  1   
 24  10  35  1   
 25  11  16  1   
 26  11  36  1   
 27  11  37  1   
 28  12  17  1   
 29  12  38  1   
 30  13  18  1   
 31  13  39  1   
 32  14  40  1   
 33  15  19  ar  
 34  15  20  ar  
 35  16  21  1   
 36  16  41  1   
 37  16  42  1   
 38  17  18  2   
 39  17  22  1   
 40  19  21  1   
 41  19  23  ar  
 42  20  24  ar  
 43  20  43  1   
 44  22  44  1   
 45  22  45  1   
 46  22  46  1   
 47  23  25  ar  
 48  23  47  1   
 49  24  25  ar  
 50  24  48  1   
 51  25  49  1   
@<TRIPOS>SUBSTRUCTURE
  1 ****   6 GROUP 4 **** **** 0

# MOE 2024.06 (io_trps.svl 2023.06)
