@<TRIPOS>MOLECULE
NONAME
48 51 1 0 0 
SMALL
USER_CHARGES


@<TRIPOS>ATOM
  1 O       -2.1430    -1.7400     0.8360 O.3   1 <1>  -0.5600 
  2 C       -2.9000    -2.7830     0.2940 C.3   1 <1>   0.1200 
  3 C       -0.9740    -2.1570     1.4720 C.3   1 <1>   0.1200 
  4 C       -2.0870    -3.5470    -0.7660 C.3   1 <1>   0.2090 
  5 C       -0.0450    -2.8770     0.4750 C.3   1 <1>   0.2090 
  6 N       -0.7590    -4.0110    -0.2130 N.pl3 1 <1>  -0.8380 
  7 C       -0.3350    -5.2970    -0.3520 C.ar  1 <1>   0.7710 
  8 N       -1.1590    -6.2050    -0.8600 N.ar  1 <1>  -0.6200 
  9 N        0.9170    -5.6210     0.0220 N.ar  1 <1>  -0.1790 
 10 C       -0.7280    -7.4370    -0.9870 C.ar  1 <1>   0.4100 
 11 C        1.4030    -6.8800    -0.0910 C.ar  1 <1>   0.2180 
 12 N       -1.6210    -8.2880    -1.5140 N.pl3 1 <1>  -0.8690 
 13 C        0.5710    -7.8180    -0.6050 C.ar  1 <1>  -0.1500 
 14 C        2.8330    -7.1670     0.3520 C.3   1 <1>  -0.0170 
 15 C       -1.5290    -9.7460    -1.8040 C.3   1 <1>   0.3900 
 16 C        3.8640    -6.3960    -0.4840 C.3   1 <1>  -0.2400 
 17 C       -2.8560   -10.4380    -1.5320 C.2   1 <1>   0.1080 
 18 N       -3.3490   -11.3510    -2.2910 N.2   1 <1>  -0.4100 
 19 C       -3.6960   -10.1940    -0.4530 C.2   1 <1>  -0.1500 
 20 O       -4.4770   -11.7030    -1.7410 O.3   1 <1>  -0.0190 
 21 C       -4.7340   -11.0400    -0.6350 C.2   1 <1>   0.1400 
 22 C       -5.9270   -11.2760     0.1290 C.2   1 <1>   0.1400 
 23 O       -6.8120   -12.1860    -0.2600 O.3   1 <1>  -0.2800 
 24 C       -6.3730   -10.7010     1.2790 C.2   1 <1>  -0.1500 
 25 C       -7.8040   -12.2060     0.6050 C.2   1 <1>  -0.0100 
 26 C       -7.5930   -11.3060     1.5870 C.2   1 <1>  -0.1500 
 27 H       -3.7790    -2.3520    -0.1530 H     1 <1>   0.0800 
 28 H       -3.2060    -3.4420     1.0880 H     1 <1>   0.0800 
 29 H       -1.2380    -2.8030     2.2910 H     1 <1>   0.0800 
 30 H       -0.4900    -1.2800     1.8670 H     1 <1>   0.0800 
 31 H       -1.9120    -2.8910    -1.6020 H     1 <1>   0.0800 
 32 H       -2.6860    -4.3660    -1.1240 H     1 <1>   0.0800 
 33 H        0.8210    -3.2180     1.0110 H     1 <1>   0.0800 
 34 H        0.2790    -2.1610    -0.2630 H     1 <1>   0.0800 
 35 H        1.4890    -4.8600     0.3620 H     1 <1>   0.4570 
 36 H       -2.5110    -7.8780    -1.8180 H     1 <1>   0.4000 
 37 H        0.8810    -8.8370    -0.7330 H     1 <1>   0.1500 
 38 H        3.0320    -8.2210     0.2560 H     1 <1>   0.0800 
 39 H        2.9480    -6.9150     1.3930 H     1 <1>   0.0800 
 40 H       -0.7720   -10.2070    -1.1970 H     1 <1>   0.0800 
 41 H       -1.2690    -9.8840    -2.8400 H     1 <1>   0.0800 
 42 H        3.7600    -6.6390    -1.5280 H     1 <1>   0.0800 
 43 H        4.8590    -6.6710    -0.1770 H     1 <1>   0.0800 
 44 H        3.7600    -5.3330    -0.3630 H     1 <1>   0.0800 
 45 H       -3.5360    -9.4850     0.3370 H     1 <1>   0.1500 
 46 H       -5.8990    -9.9290     1.8590 H     1 <1>   0.1500 
 47 H       -8.6190   -12.8910     0.4450 H     1 <1>   0.1500 
 48 H       -8.2130   -11.0810     2.4370 H     1 <1>   0.1500 
@<TRIPOS>BOND
  1   1   2  1   
  2   1   3  1   
  3   2   4  1   
  4   2  27  1   
  5   2  28  1   
  6   3   5  1   
  7   3  29  1   
  8   3  30  1   
  9   4   6  1   
 10   4  31  1   
 11   4  32  1   
 12   5   6  1   
 13   5  33  1   
 14   5  34  1   
 15   6   7  1   
 16   7   8  ar  
 17   7   9  ar  
 18   8  10  ar  
 19   9  11  ar  
 20   9  35  1   
 21  10  12  1   
 22  10  13  ar  
 23  11  13  ar  
 24  11  14  1   
 25  12  15  1   
 26  12  36  1   
 27  13  37  1   
 28  14  16  1   
 29  14  38  1   
 30  14  39  1   
 31  15  17  1   
 32  15  40  1   
 33  15  41  1   
 34  16  42  1   
 35  16  43  1   
 36  16  44  1   
 37  17  18  2   
 38  17  19  1   
 39  18  20  1   
 40  19  21  2   
 41  19  45  1   
 42  20  21  1   
 43  21  22  1   
 44  22  23  1   
 45  22  24  2   
 46  23  25  1   
 47  24  26  1   
 48  24  46  1   
 49  25  26  2   
 50  25  47  1   
 51  26  48  1   
@<TRIPOS>SUBSTRUCTURE
  1 ****  12 GROUP 4 **** **** 0

# MOE 2024.06 (io_trps.svl 2023.06)
