@<TRIPOS>MOLECULE
NONAME
44 46 1 0 0 
SMALL
USER_CHARGES


@<TRIPOS>ATOM
  1 S       -1.5240    -0.3240     0.0410 S.3   1 <1>  -0.3310 
  2 C       -0.9220    -2.0210     0.0860 C.ar  1 <1>   0.1020 
  3 C       -0.0850     0.7530    -0.3890 C.3   1 <1>  -0.0100 
  4 C       -1.8180    -3.0080     0.3860 C.ar  1 <1>  -0.1500 
  5 C        0.4170    -2.3300    -0.1760 C.ar  1 <1>  -0.1500 
  6 C       -1.4290    -4.3540     0.4410 C.ar  1 <1>   0.3100 
  7 C        0.8250    -3.6360    -0.1280 C.ar  1 <1>  -0.1500 
  8 N       -2.3770    -5.2740     0.7390 N.ar  1 <1>  -0.6200 
  9 C       -0.0740    -4.6810     0.1790 C.ar  1 <1>   0.0000 
 10 C       -2.0040    -6.5140     0.7740 C.ar  1 <1>   0.4100 
 11 C        0.2950    -6.0440     0.2480 C.ar  1 <1>  -0.1430 
 12 N       -2.9950    -7.4000     1.0540 N.pl3 1 <1>  -0.8690 
 13 C       -0.6820    -6.9410     0.5510 C.ar  1 <1>  -0.1500 
 14 C        1.7250    -6.5020     0.0050 C.3   1 <1>  -0.0970 
 15 C       -3.4940    -8.2880    -0.0320 C.3   1 <1>   0.2890 
 16 C       -4.8220    -8.9310     0.3260 C.3   1 <1>   0.2000 
 17 C       -2.6150    -9.5120    -0.2800 C.3   1 <1>   0.1200 
 18 O       -5.8910    -8.0950    -0.0190 O.3   1 <1>  -0.5600 
 19 C       -4.8030   -10.2120    -0.5030 C.3   1 <1>   0.1200 
 20 O       -3.4590   -10.5590    -0.6730 O.3   1 <1>  -0.5600 
 21 C       -7.1090    -8.4380     0.5520 C.3   1 <1>   0.1200 
 22 C       -8.1390    -7.4250     0.0700 C.3   1 <1>  -0.2400 
 23 H       -0.4380     1.7680    -0.4170 H     1 <1>   0.0800 
 24 H        0.2810     0.4490    -1.3530 H     1 <1>   0.0800 
 25 H        0.6610     0.6300     0.3750 H     1 <1>   0.0800 
 26 H       -2.8460    -2.7700     0.5870 H     1 <1>   0.1500 
 27 H        1.1200    -1.5550    -0.4110 H     1 <1>   0.1500 
 28 H        1.8530    -3.8720    -0.3300 H     1 <1>   0.1500 
 29 H       -3.7920    -6.8610     1.4080 H     1 <1>   0.4000 
 30 H       -0.4770    -7.9880     0.6400 H     1 <1>   0.1500 
 31 H        1.8090    -7.5690     0.1090 H     1 <1>   0.0800 
 32 H        2.3860    -6.0410     0.7180 H     1 <1>   0.0800 
 33 H        2.0350    -6.2340    -0.9890 H     1 <1>   0.0800 
 34 H       -3.5930    -7.7320    -0.9500 H     1 <1>   0.0800 
 35 H       -4.8540    -9.1610     1.3770 H     1 <1>   0.0800 
 36 H       -2.1240    -9.8160     0.6280 H     1 <1>   0.0800 
 37 H       -1.8960    -9.3350    -1.0590 H     1 <1>   0.0800 
 38 H       -5.2210   -10.0400    -1.4800 H     1 <1>   0.0800 
 39 H       -5.3100   -11.0210    -0.0090 H     1 <1>   0.0800 
 40 H       -7.3800    -9.4320     0.2380 H     1 <1>   0.0800 
 41 H       -7.0140    -8.4000     1.6250 H     1 <1>   0.0800 
 42 H       -8.2170    -7.4600    -1.0020 H     1 <1>   0.0800 
 43 H       -7.8510    -6.4350     0.3760 H     1 <1>   0.0800 
 44 H       -9.1000    -7.6510     0.4940 H     1 <1>   0.0800 
@<TRIPOS>BOND
  1   1   2  1   
  2   1   3  1   
  3   2   4  ar  
  4   2   5  ar  
  5   3  23  1   
  6   3  24  1   
  7   3  25  1   
  8   4   6  ar  
  9   4  26  1   
 10   5   7  ar  
 11   5  27  1   
 12   6   8  ar  
 13   6   9  ar  
 14   7   9  ar  
 15   7  28  1   
 16   8  10  ar  
 17   9  11  ar  
 18  10  12  1   
 19  10  13  ar  
 20  11  13  ar  
 21  11  14  1   
 22  12  15  1   
 23  12  29  1   
 24  13  30  1   
 25  14  31  1   
 26  14  32  1   
 27  14  33  1   
 28  15  16  1   
 29  15  17  1   
 30  15  34  1   
 31  16  18  1   
 32  16  19  1   
 33  16  35  1   
 34  17  20  1   
 35  17  36  1   
 36  17  37  1   
 37  18  21  1   
 38  19  20  1   
 39  19  38  1   
 40  19  39  1   
 41  21  22  1   
 42  21  40  1   
 43  21  41  1   
 44  22  42  1   
 45  22  43  1   
 46  22  44  1   
@<TRIPOS>SUBSTRUCTURE
  1 ****   8 GROUP 4 **** **** 0

# MOE 2024.06 (io_trps.svl 2023.06)
