@<TRIPOS>MOLECULE
NONAME
51 52 1 0 0 
SMALL
USER_CHARGES


@<TRIPOS>ATOM
  1 S        1.0790     1.9020    -0.7170 S.o2  1 <1>   1.3330 
  2 O        0.1350     2.6310    -1.5290 O.2   1 <1>  -0.6500 
  3 O        2.2970     2.5780    -0.3210 O.2   1 <1>  -0.6500 
  4 N        1.4600     0.4300    -1.4570 N.am  1 <1>  -0.8490 
  5 C        0.2450     1.4310     0.8050 C.3   1 <1>  -0.0550 
  6 C        2.6640     0.5130    -2.2930 C.3   1 <1>   0.1160 
  7 C        0.3540    -0.1360    -2.2400 C.3   1 <1>   0.1160 
  8 C       -0.1700     2.5890     1.7540 C.3   1 <1>  -0.0800 
  9 C       -1.1010     3.6160     1.0960 C.3   1 <1>   0.2000 
 10 C        1.0090     3.4390     2.2410 C.3   1 <1>   0.3430 
 11 O       -1.9780     4.0870     2.0660 O.3   1 <1>  -0.6800 
 12 C       -0.1980     4.7670     0.6190 C.3   1 <1>   0.3430 
 13 N        1.1450     4.5260     1.2420 N.4   1 <1>  -0.9590 
 14 C        1.8420     5.7530     1.6990 C.3   1 <1>   0.4860 
 15 C        2.0490     6.6350     0.4870 C.ar  1 <1>  -0.1440 
 16 C        2.9360     6.2580    -0.5100 C.ar  1 <1>  -0.1500 
 17 C        1.3400     7.8170     0.3500 C.ar  1 <1>  -0.1500 
 18 C        3.1090     7.0450    -1.6360 C.ar  1 <1>   0.0820 
 19 C        1.5030     8.6130    -0.7710 C.ar  1 <1>   0.0820 
 20 O        3.9930     6.5860    -2.5560 O.3   1 <1>  -0.3630 
 21 C        2.3900     8.2280    -1.7710 C.ar  1 <1>  -0.1500 
 22 O        0.7570     9.7450    -0.8140 O.3   1 <1>  -0.3630 
 23 C        4.2570     7.2970    -3.7460 C.3   1 <1>   0.0400 
 24 C        0.8600    10.6560    -1.8860 C.3   1 <1>   0.0400 
 25 H       -0.6370     0.8750     0.5500 H     1 <1>   0.0800 
 26 H        0.8870     0.7610     1.3460 H     1 <1>   0.0800 
 27 H        2.8880    -0.4490    -2.7220 H     1 <1>   0.0800 
 28 H        3.5090     0.8180    -1.6990 H     1 <1>   0.0800 
 29 H        2.5220     1.2290    -3.0870 H     1 <1>   0.0800 
 30 H        0.6270    -1.1080    -2.6170 H     1 <1>   0.0800 
 31 H        0.1140     0.5050    -3.0730 H     1 <1>   0.0800 
 32 H       -0.5220    -0.2470    -1.6260 H     1 <1>   0.0800 
 33 H       -0.6550     2.1340     2.6010 H     1 <1>   0.0800 
 34 H       -1.6950     3.2090     0.2940 H     1 <1>   0.0800 
 35 H        1.9160     2.8590     2.3190 H     1 <1>   0.0800 
 36 H        0.7710     3.8590     3.2050 H     1 <1>   0.0800 
 37 H       -1.5320     4.5070     2.8260 H     1 <1>   0.4000 
 38 H       -0.6140     5.7150     0.9180 H     1 <1>   0.0800 
 39 H       -0.1070     4.7480    -0.4560 H     1 <1>   0.0800 
 40 H        1.7500     4.1470     0.4820 H     1 <1>   0.4500 
 41 H        1.2540     6.2690     2.4390 H     1 <1>   0.0800 
 42 H        2.8000     5.5010     2.1260 H     1 <1>   0.0800 
 43 H        3.5090     5.3490    -0.4390 H     1 <1>   0.1500 
 44 H        0.6470     8.1470     1.1050 H     1 <1>   0.1500 
 45 H        2.5180     8.8380    -2.6400 H     1 <1>   0.1500 
 46 H        4.9860     6.7440    -4.3100 H     1 <1>   0.0800 
 47 H        4.6510     8.2660    -3.4940 H     1 <1>   0.0800 
 48 H        3.3470     7.3840    -4.3110 H     1 <1>   0.0800 
 49 H        0.1940    11.4770    -1.6910 H     1 <1>   0.0800 
 50 H        0.5710    10.1600    -2.7960 H     1 <1>   0.0800 
 51 H        1.8730    11.0140    -1.9450 H     1 <1>   0.0800 
@<TRIPOS>BOND
  1   1   2  2   
  2   1   3  2   
  3   1   4  am  
  4   1   5  1   
  5   4   6  1   
  6   4   7  1   
  7   5   8  1   
  8   5  25  1   
  9   5  26  1   
 10   6  27  1   
 11   6  28  1   
 12   6  29  1   
 13   7  30  1   
 14   7  31  1   
 15   7  32  1   
 16   8   9  1   
 17   8  10  1   
 18   8  33  1   
 19   9  11  1   
 20   9  12  1   
 21   9  34  1   
 22  10  13  1   
 23  10  35  1   
 24  10  36  1   
 25  11  37  1   
 26  12  13  1   
 27  12  38  1   
 28  12  39  1   
 29  13  14  1   
 30  13  40  1   
 31  14  15  1   
 32  14  41  1   
 33  14  42  1   
 34  15  16  ar  
 35  15  17  ar  
 36  16  18  ar  
 37  16  43  1   
 38  17  19  ar  
 39  17  44  1   
 40  18  20  1   
 41  18  21  ar  
 42  19  21  ar  
 43  19  22  1   
 44  20  23  1   
 45  21  45  1   
 46  22  24  1   
 47  23  46  1   
 48  23  47  1   
 49  23  48  1   
 50  24  49  1   
 51  24  50  1   
 52  24  51  1   
@<TRIPOS>SUBSTRUCTURE
  1 ****  13 GROUP 4 **** **** 0

# MOE 2024.06 (io_trps.svl 2023.06)
