@<TRIPOS>MOLECULE
NONAME
38 40 1 0 0 
SMALL
USER_CHARGES


@<TRIPOS>ATOM
  1 O       -0.5120     0.4720     0.7800 O.2   1 <1>  -0.5700 
  2 C       -1.4760     0.9970     0.2490 C.2   1 <1>   0.7160 
  3 N       -2.6000     0.2090     0.0870 N.am  1 <1>  -0.6600 
  4 C       -1.4000     2.3950    -0.1750 C.2   1 <1>   0.1410 
  5 C       -3.9240     0.6480    -0.4270 C.3   1 <1>   0.1400 
  6 C       -2.6210    -1.2430     0.3900 C.3   1 <1>   0.1400 
  7 N       -2.2160     2.9740    -1.1160 N.2   1 <1>  -0.5650 
  8 C       -0.5380     3.3580     0.2420 C.2   1 <1>  -0.0400 
  9 C       -4.8740    -0.4880    -0.0520 C.3   1 <1>   0.2000 
 10 C       -3.9850    -1.7360    -0.1060 C.3   1 <1>  -0.0800 
 11 C       -1.7970     4.1810    -1.1900 C.2   1 <1>   0.3280 
 12 O       -0.7970     4.4590    -0.3960 O.3   1 <1>  -0.2800 
 13 C        0.5950     3.3790     1.2520 C.3   1 <1>  -0.0600 
 14 O       -5.3040    -0.2820     1.2500 O.3   1 <1>  -0.6800 
 15 C       -4.5270    -2.9540     0.6650 C.3   1 <1>   0.0200 
 16 C       -3.6880    -4.2050     0.4670 C.2   1 <1>  -0.0400 
 17 O       -3.9580    -5.2600     1.1890 O.3   1 <1>  -0.0190 
 18 C       -2.6570    -4.5150    -0.3360 C.2   1 <1>  -0.1500 
 19 N       -3.1630    -6.2540     0.9170 N.2   1 <1>  -0.4100 
 20 C       -2.3680    -5.8340     0.0000 C.2   1 <1>   0.1080 
 21 C       -1.2710    -6.6690    -0.6210 C.3   1 <1>  -0.0590 
 22 H       -4.2330     1.5850     0.0040 H     1 <1>   0.0800 
 23 H       -3.8680     0.7450    -1.4970 H     1 <1>   0.0800 
 24 H       -1.8080    -1.7440    -0.1060 H     1 <1>   0.0800 
 25 H       -2.5230    -1.3800     1.4540 H     1 <1>   0.0800 
 26 H       -5.7370    -0.5470    -0.6930 H     1 <1>   0.0800 
 27 H       -3.8790    -2.0080    -1.1420 H     1 <1>   0.0800 
 28 H       -2.1830     4.9600    -1.8250 H     1 <1>   0.1500 
 29 H        0.6840     2.4390     1.7640 H     1 <1>   0.0800 
 30 H        0.4160     4.1490     1.9810 H     1 <1>   0.0800 
 31 H        1.5230     3.5860     0.7500 H     1 <1>   0.0800 
 32 H       -4.5340    -0.0420     1.8040 H     1 <1>   0.4000 
 33 H       -5.5320    -3.1640     0.3430 H     1 <1>   0.0800 
 34 H       -4.5650    -2.7350     1.7180 H     1 <1>   0.0800 
 35 H       -2.1460    -3.9280    -1.0750 H     1 <1>   0.1500 
 36 H       -1.4310    -6.7530    -1.6790 H     1 <1>   0.0800 
 37 H       -1.2700    -7.6540    -0.1890 H     1 <1>   0.0800 
 38 H       -0.3160    -6.2100    -0.4400 H     1 <1>   0.0800 
@<TRIPOS>BOND
  1   1   2  2   
  2   2   3  am  
  3   2   4  1   
  4   3   5  1   
  5   3   6  1   
  6   4   7  1   
  7   4   8  2   
  8   5   9  1   
  9   5  22  1   
 10   5  23  1   
 11   6  10  1   
 12   6  24  1   
 13   6  25  1   
 14   7  11  2   
 15   8  12  1   
 16   8  13  1   
 17   9  10  1   
 18   9  14  1   
 19   9  26  1   
 20  10  15  1   
 21  10  27  1   
 22  11  12  1   
 23  11  28  1   
 24  13  29  1   
 25  13  30  1   
 26  13  31  1   
 27  14  32  1   
 28  15  16  1   
 29  15  33  1   
 30  15  34  1   
 31  16  17  1   
 32  16  18  2   
 33  17  19  1   
 34  18  20  1   
 35  18  35  1   
 36  19  20  2   
 37  20  21  1   
 38  21  36  1   
 39  21  37  1   
 40  21  38  1   
@<TRIPOS>SUBSTRUCTURE
  1 ****   6 GROUP 4 **** **** 0

# MOE 2024.06 (io_trps.svl 2023.06)
