@<TRIPOS>MOLECULE
NONAME
49 51 1 0 0 
SMALL
USER_CHARGES


@<TRIPOS>ATOM
  1 O        2.8030     0.2110    -1.5800 O.2   1 <1>  -0.5700 
  2 C        2.7510    -0.5670    -0.6320 C.2   1 <1>   0.4690 
  3 C        3.0380    -0.1420     0.7070 C.2   1 <1>   0.0290 
  4 C        2.3950    -1.9400    -0.8810 C.ar  1 <1>   0.0860 
  5 C        3.3900     1.2240     1.0220 C.2   1 <1>   0.6160 
  6 C        2.9740    -1.0880     1.6960 C.2   1 <1>  -0.0500 
  7 C        2.3440    -2.8510     0.1860 C.ar  1 <1>   0.4100 
  8 C        2.0940    -2.4180    -2.1560 C.ar  1 <1>  -0.1500 
  9 O        3.7680     1.4980     2.1480 O.2   1 <1>  -0.5700 
 10 N        3.3100     2.2350     0.0910 N.am  1 <1>  -0.4940 
 11 N        2.6430    -2.3950     1.4710 N.pl3 1 <1>  -0.5690 
 12 N        2.0220    -4.1410     0.0390 N.ar  1 <1>  -0.6200 
 13 C        1.7670    -3.7430    -2.2950 C.ar  1 <1>  -0.1500 
 14 C        3.6750     3.6030     0.1130 C.2   1 <1>  -0.0880 
 15 C        2.6290    -3.3290     2.6330 C.3   1 <1>   0.2090 
 16 C        1.7450    -4.5600    -1.1730 C.ar  1 <1>   0.1670 
 17 N        3.5950     4.4840     1.1500 N.pl3 1 <1>   0.3140 
 18 C        4.1580     4.3040    -0.9410 C.2   1 <1>  -0.1810 
 19 C        4.0060    -3.9710     2.7870 C.3   1 <1>  -0.2400 
 20 C        1.3870    -6.0250    -1.3080 C.3   1 <1>  -0.0970 
 21 N        4.0110     5.7160     0.7820 N.2   1 <1>  -0.7070 
 22 C        3.0450     4.2800     2.4960 C.3   1 <1>   0.0160 
 23 C        4.3490     5.5970    -0.4630 C.2   1 <1>   0.1080 
 24 C        4.4430     3.8080    -2.3490 C.3   1 <1>  -0.0590 
 25 C        4.8850     6.7700    -1.2640 C.3   1 <1>   0.0210 
 26 C        6.4120     6.8510    -1.1690 C.3   1 <1>  -0.2400 
 27 H        3.1960    -0.8100     2.7150 H     1 <1>   0.1500 
 28 H        2.1200    -1.7590    -3.0080 H     1 <1>   0.1500 
 29 H        3.0950     1.8770    -0.8490 H     1 <1>   0.3700 
 30 H        1.5300    -4.1440    -3.2640 H     1 <1>   0.1500 
 31 H        1.8750    -4.0870     2.5000 H     1 <1>   0.0800 
 32 H        2.3820    -2.7840     3.5280 H     1 <1>   0.0800 
 33 H        4.2460    -4.5400     1.9060 H     1 <1>   0.0800 
 34 H        4.0040    -4.6350     3.6310 H     1 <1>   0.0800 
 35 H        4.7560    -3.2170     2.9420 H     1 <1>   0.0800 
 36 H        0.5190    -6.2380    -0.7110 H     1 <1>   0.0800 
 37 H        2.2040    -6.6280    -0.9570 H     1 <1>   0.0800 
 38 H        1.1780    -6.2840    -2.3290 H     1 <1>   0.0800 
 39 H        2.2160     3.6010     2.4430 H     1 <1>   0.0800 
 40 H        2.7160     5.2240     2.8880 H     1 <1>   0.0800 
 41 H        3.8130     3.8750     3.1270 H     1 <1>   0.0800 
 42 H        4.2980     2.7450    -2.4180 H     1 <1>   0.0800 
 43 H        5.4610     4.0300    -2.6150 H     1 <1>   0.0800 
 44 H        3.7850     4.2910    -3.0470 H     1 <1>   0.0800 
 45 H        4.4540     7.6760    -0.8760 H     1 <1>   0.0800 
 46 H        4.5850     6.6730    -2.2900 H     1 <1>   0.0800 
 47 H        6.7040     6.9640    -0.1400 H     1 <1>   0.0800 
 48 H        6.7760     7.6920    -1.7290 H     1 <1>   0.0800 
 49 H        6.8570     5.9520    -1.5550 H     1 <1>   0.0800 
@<TRIPOS>BOND
  1   1   2  2   
  2   2   3  1   
  3   2   4  1   
  4   3   5  1   
  5   3   6  2   
  6   4   7  ar  
  7   4   8  ar  
  8   5   9  2   
  9   5  10  am  
 10   6  11  1   
 11   6  27  1   
 12   7  11  1   
 13   7  12  ar  
 14   8  13  ar  
 15   8  28  1   
 16  10  14  1   
 17  10  29  1   
 18  11  15  1   
 19  12  16  ar  
 20  13  16  ar  
 21  13  30  1   
 22  14  17  1   
 23  14  18  2   
 24  15  19  1   
 25  15  31  1   
 26  15  32  1   
 27  16  20  1   
 28  17  21  1   
 29  17  22  1   
 30  18  23  1   
 31  18  24  1   
 32  19  33  1   
 33  19  34  1   
 34  19  35  1   
 35  20  36  1   
 36  20  37  1   
 37  20  38  1   
 38  21  23  2   
 39  22  39  1   
 40  22  40  1   
 41  22  41  1   
 42  23  25  1   
 43  24  42  1   
 44  24  43  1   
 45  24  44  1   
 46  25  26  1   
 47  25  45  1   
 48  25  46  1   
 49  26  47  1   
 50  26  48  1   
 51  26  49  1   
@<TRIPOS>SUBSTRUCTURE
  1 ****   3 GROUP 4 **** **** 0

# MOE 2024.06 (io_trps.svl 2023.06)
