@<TRIPOS>MOLECULE
NONAME
52 55 1 0 0 
SMALL
USER_CHARGES


@<TRIPOS>ATOM
  1 S       -1.1380    -0.0640     2.2360 S.3   1 <1>  -0.3320 
  2 C       -0.7380    -1.4970     1.2430 C.ar  1 <1>   0.7220 
  3 C        0.4310     0.9090     2.3310 C.3   1 <1>  -0.0100 
  4 N       -1.7400    -2.3290     1.0570 N.ar  1 <1>  -0.6200 
  5 N        0.5110    -1.5630     0.8090 N.ar  1 <1>  -0.6200 
  6 C       -1.4550    -3.3860     0.3270 C.ar  1 <1>   0.4100 
  7 C        0.7700    -2.6350     0.0880 C.ar  1 <1>   0.1600 
  8 N       -2.4600    -4.2980     0.0810 N.pl3 1 <1>  -0.8380 
  9 C       -0.1830    -3.5790    -0.1810 C.ar  1 <1>  -0.1500 
 10 C       -2.8280    -4.6240    -1.3200 C.3   1 <1>   0.2090 
 11 C       -3.6060    -4.4100     1.0240 C.3   1 <1>   0.2090 
 12 C       -3.3270    -6.0670    -1.3760 C.3   1 <1>  -0.1600 
 13 C       -4.1270    -5.8460     1.0010 C.3   1 <1>  -0.1600 
 14 C       -4.5070    -6.2930    -0.4210 C.3   1 <1>   0.4240 
 15 O       -5.5300    -5.4470    -0.8940 O.3   1 <1>  -0.5600 
 16 C       -4.9420    -7.7750    -0.4400 C.ar  1 <1>  -0.1430 
 17 C       -6.8380    -5.7400    -0.5140 C.3   1 <1>   0.1200 
 18 C       -6.2410    -8.1390    -0.7830 C.ar  1 <1>  -0.1430 
 19 C       -4.0380    -8.7780    -0.1070 C.ar  1 <1>  -0.1500 
 20 C       -7.2480    -7.0660    -1.1450 C.3   1 <1>  -0.0170 
 21 C       -6.6220    -9.4720    -0.7900 C.ar  1 <1>  -0.1500 
 22 C       -4.4060   -10.1130    -0.1240 C.ar  1 <1>   0.0830 
 23 C       -5.7200   -10.4630    -0.4470 C.ar  1 <1>   0.0830 
 24 O       -3.4500   -11.0270     0.1740 O.3   1 <1>  -0.3630 
 25 O       -6.1700   -11.7420    -0.4350 O.3   1 <1>  -0.3630 
 26 C       -3.0710   -11.8970    -0.8700 C.3   1 <1>   0.0400 
 27 C       -6.2030   -12.3810     0.8220 C.3   1 <1>   0.0400 
 28 H        0.2390     1.7860     2.9220 H     1 <1>   0.0800 
 29 H        0.7150     1.1720     1.3280 H     1 <1>   0.0800 
 30 H        1.1760     0.2860     2.7920 H     1 <1>   0.0800 
 31 H        1.7710    -2.7540    -0.2920 H     1 <1>   0.1500 
 32 H        0.0360    -4.4530    -0.7590 H     1 <1>   0.1500 
 33 H       -1.9820    -4.5020    -1.9730 H     1 <1>   0.0800 
 34 H       -3.6040    -3.9510    -1.6480 H     1 <1>   0.0800 
 35 H       -4.3800    -3.7220     0.7280 H     1 <1>   0.0800 
 36 H       -3.2890    -4.1570     2.0220 H     1 <1>   0.0800 
 37 H       -2.5090    -6.7120    -1.1180 H     1 <1>   0.0800 
 38 H       -3.6330    -6.3110    -2.3770 H     1 <1>   0.0800 
 39 H       -4.9660    -5.9440     1.6610 H     1 <1>   0.0800 
 40 H       -3.3510    -6.4830     1.3820 H     1 <1>   0.0800 
 41 H       -7.4700    -4.9430    -0.8660 H     1 <1>   0.0800 
 42 H       -6.8950    -5.7860     0.5590 H     1 <1>   0.0800 
 43 H       -3.0280    -8.5400     0.1690 H     1 <1>   0.1500 
 44 H       -7.2910    -6.9560    -2.2140 H     1 <1>   0.0800 
 45 H       -8.2260    -7.3390    -0.7930 H     1 <1>   0.0800 
 46 H       -7.6240    -9.7550    -1.0550 H     1 <1>   0.1500 
 47 H       -2.2360   -12.4840    -0.5320 H     1 <1>   0.0800 
 48 H       -2.7880   -11.3100    -1.7260 H     1 <1>   0.0800 
 49 H       -3.8960   -12.5410    -1.1160 H     1 <1>   0.0800 
 50 H       -6.6790   -13.3370     0.7010 H     1 <1>   0.0800 
 51 H       -6.7670   -11.7710     1.5060 H     1 <1>   0.0800 
 52 H       -5.1990   -12.5150     1.1820 H     1 <1>   0.0800 
@<TRIPOS>BOND
  1   1   2  1   
  2   1   3  1   
  3   2   4  ar  
  4   2   5  ar  
  5   3  28  1   
  6   3  29  1   
  7   3  30  1   
  8   4   6  ar  
  9   5   7  ar  
 10   6   8  1   
 11   6   9  ar  
 12   7   9  ar  
 13   7  31  1   
 14   8  10  1   
 15   8  11  1   
 16   9  32  1   
 17  10  12  1   
 18  10  33  1   
 19  10  34  1   
 20  11  13  1   
 21  11  35  1   
 22  11  36  1   
 23  12  14  1   
 24  12  37  1   
 25  12  38  1   
 26  13  14  1   
 27  13  39  1   
 28  13  40  1   
 29  14  15  1   
 30  14  16  1   
 31  15  17  1   
 32  16  18  ar  
 33  16  19  ar  
 34  17  20  1   
 35  17  41  1   
 36  17  42  1   
 37  18  20  1   
 38  18  21  ar  
 39  19  22  ar  
 40  19  43  1   
 41  20  44  1   
 42  20  45  1   
 43  21  23  ar  
 44  21  46  1   
 45  22  23  ar  
 46  22  24  1   
 47  23  25  1   
 48  24  26  1   
 49  25  27  1   
 50  26  47  1   
 51  26  48  1   
 52  26  49  1   
 53  27  50  1   
 54  27  51  1   
 55  27  52  1   
@<TRIPOS>SUBSTRUCTURE
  1 ****  14 GROUP 4 **** **** 0

# MOE 2024.06 (io_trps.svl 2023.06)
