@<TRIPOS>MOLECULE
NONAME
52 55 1 0 0 
SMALL
USER_CHARGES


@<TRIPOS>ATOM
  1 S       -1.4730     1.9980    -2.6890 S.3   1 <1>  -0.0800 
  2 C       -1.4620     1.6530    -0.9670 C.2   1 <1>  -0.1400 
  3 C       -2.9100     1.0080    -2.9100 C.2   1 <1>  -0.1100 
  4 C       -2.4900     0.8610    -0.6350 C.2   1 <1>  -0.1810 
  5 C       -0.4040     2.2080    -0.0200 C.3   1 <1>   0.4600 
  6 C       -3.3180     0.4820    -1.7390 C.2   1 <1>  -0.1500 
  7 C       -2.6810     0.4520     0.8080 C.3   1 <1>   0.0210 
  8 O       -0.5910     1.6310     1.2580 O.3   1 <1>  -0.5600 
  9 C       -0.5060     3.7350     0.1060 C.3   1 <1>  -0.1600 
 10 C        1.0030     1.8000    -0.4730 C.3   1 <1>  -0.1600 
 11 C       -1.9100     1.4330     1.7130 C.3   1 <1>   0.1200 
 12 C        0.5890     4.2940     1.0150 C.3   1 <1>   0.1400 
 13 C        2.0840     2.3940     0.4330 C.3   1 <1>   0.1400 
 14 N        1.9170     3.8750     0.4850 N.am  1 <1>  -0.6600 
 15 C        2.9120     4.7180     0.0570 C.2   1 <1>   0.5690 
 16 O        3.9810     4.3010    -0.3240 O.2   1 <1>  -0.5700 
 17 C        2.6850     6.2230     0.0460 C.3   1 <1>  -0.0990 
 18 C        3.8410     7.0220    -0.5790 C.3   1 <1>  -0.0220 
 19 C        3.5130     8.5190    -0.6010 C.2   1 <1>  -0.1240 
 20 C        2.8270     9.0860    -1.6340 C.2   1 <1>  -0.0290 
 21 C        3.9190     9.3660     0.4800 C.2   1 <1>   0.3750 
 22 N        2.5890    10.4250    -1.5580 N.am  1 <1>  -0.5390 
 23 C        2.2780     8.4040    -2.8780 C.3   1 <1>  -0.1020 
 24 N        3.6730    10.6260     0.5290 N.2   1 <1>  -0.6610 
 25 C        4.6880     8.8050     1.6640 C.3   1 <1>  -0.1790 
 26 C        2.9930    11.1890    -0.5100 C.2   1 <1>   0.8410 
 27 O        2.7340    12.3760    -0.5200 O.2   1 <1>  -0.5700 
 28 H       -3.3020     0.9220    -3.9080 H     1 <1>   0.1500 
 29 H       -4.1710    -0.1600    -1.6030 H     1 <1>   0.1500 
 30 H       -2.3130    -0.5470     0.9550 H     1 <1>   0.0800 
 31 H       -3.7240     0.4750     1.0650 H     1 <1>   0.0800 
 32 H       -1.4750     4.0100     0.4780 H     1 <1>   0.0800 
 33 H       -0.4030     4.1770    -0.8680 H     1 <1>   0.0800 
 34 H        1.1770     2.1420    -1.4760 H     1 <1>   0.0800 
 35 H        1.0760     0.7280    -0.4770 H     1 <1>   0.0800 
 36 H       -1.8560     1.0470     2.7160 H     1 <1>   0.0800 
 37 H       -2.4080     2.3860     1.7390 H     1 <1>   0.0800 
 38 H        0.4720     3.9010     2.0110 H     1 <1>   0.0800 
 39 H        0.5030     5.3630     1.0710 H     1 <1>   0.0800 
 40 H        3.0560     2.1290     0.0550 H     1 <1>   0.0800 
 41 H        1.9930     1.9930     1.4280 H     1 <1>   0.0800 
 42 H        2.5350     6.5490     1.0570 H     1 <1>   0.0800 
 43 H        1.7890     6.4230    -0.5110 H     1 <1>   0.0800 
 44 H        4.0210     6.6690    -1.5790 H     1 <1>   0.0800 
 45 H        4.7510     6.8290    -0.0400 H     1 <1>   0.0800 
 46 H        2.0960    10.9490    -2.2770 H     1 <1>   0.3700 
 47 H        1.2390     8.6540    -3.0010 H     1 <1>   0.0800 
 48 H        2.3520     7.3350    -2.8310 H     1 <1>   0.0800 
 49 H        2.8180     8.7430    -3.7440 H     1 <1>   0.0800 
 50 H        4.1580     7.9840     2.1060 H     1 <1>   0.0800 
 51 H        4.8180     9.5630     2.4160 H     1 <1>   0.0800 
 52 H        5.6620     8.4800     1.3470 H     1 <1>   0.0800 
@<TRIPOS>BOND
  1   1   2  1   
  2   1   3  1   
  3   2   4  2   
  4   2   5  1   
  5   3   6  2   
  6   3  28  1   
  7   4   6  1   
  8   4   7  1   
  9   5   8  1   
 10   5   9  1   
 11   5  10  1   
 12   6  29  1   
 13   7  11  1   
 14   7  30  1   
 15   7  31  1   
 16   8  11  1   
 17   9  12  1   
 18   9  32  1   
 19   9  33  1   
 20  10  13  1   
 21  10  34  1   
 22  10  35  1   
 23  11  36  1   
 24  11  37  1   
 25  12  14  1   
 26  12  38  1   
 27  12  39  1   
 28  13  14  1   
 29  13  40  1   
 30  13  41  1   
 31  14  15  am  
 32  15  16  2   
 33  15  17  1   
 34  17  18  1   
 35  17  42  1   
 36  17  43  1   
 37  18  19  1   
 38  18  44  1   
 39  18  45  1   
 40  19  20  2   
 41  19  21  1   
 42  20  22  1   
 43  20  23  1   
 44  21  24  2   
 45  21  25  1   
 46  22  26  am  
 47  22  46  1   
 48  23  47  1   
 49  23  48  1   
 50  23  49  1   
 51  24  26  1   
 52  25  50  1   
 53  25  51  1   
 54  25  52  1   
 55  26  27  2   
@<TRIPOS>SUBSTRUCTURE
  1 ****  12 GROUP 4 **** **** 0

# MOE 2024.06 (io_trps.svl 2023.06)
