@<TRIPOS>MOLECULE
NONAME
43 45 1 0 0 
SMALL
USER_CHARGES


@<TRIPOS>ATOM
  1 N        0.0910    -0.8440    -0.3380 N.ar  1 <1>  -0.6200 
  2 C       -1.0780    -1.3310     0.0400 C.ar  1 <1>   0.4100 
  3 C        1.0560    -1.7540    -0.2940 C.ar  1 <1>   0.1600 
  4 N       -2.1550    -0.4290     0.0480 N.pl3 1 <1>  -0.8380 
  5 C       -1.2620    -2.6980     0.4360 C.ar  1 <1>   0.4100 
  6 C        0.8740    -3.0690     0.0930 C.ar  1 <1>   0.1600 
  7 C       -2.5140     0.1040     1.3890 C.3   1 <1>   0.1290 
  8 C       -2.1940     0.6050    -1.0220 C.3   1 <1>   0.1290 
  9 N       -0.2880    -3.5880     0.4670 N.ar  1 <1>  -0.6200 
 10 N       -2.5230    -3.1410     0.8090 N.pl3 1 <1>  -0.8690 
 11 C       -3.0140    -4.4550     0.3520 C.3   1 <1>   0.3040 
 12 C       -4.3350    -4.3070    -0.4410 C.3   1 <1>  -0.1900 
 13 C       -5.3830    -3.3240    -0.0090 C.3   1 <1>  -0.2000 
 14 C       -4.5950    -3.0800    -1.2690 C.3   1 <1>  -0.2000 
 15 C       -4.7770    -5.6480    -1.0600 C.3   1 <1>   0.1910 
 16 N       -4.7980    -6.7560    -0.0780 N.pl3 1 <1>   0.0480 
 17 C       -5.7280    -7.0710     0.8600 C.2   1 <1>   0.0070 
 18 C       -3.8580    -7.7120     0.0450 C.2   1 <1>  -0.3020 
 19 N       -5.4410    -8.1310     1.5420 N.2   1 <1>  -0.5650 
 20 C       -6.9900    -6.2700     1.1060 C.3   1 <1>  -0.0600 
 21 C       -4.2650    -8.5360     1.0330 C.2   1 <1>   0.0770 
 22 H        2.0390    -1.4290    -0.5830 H     1 <1>   0.1500 
 23 H        1.7210    -3.7310     0.0970 H     1 <1>   0.1500 
 24 H       -2.3960    -0.6610     2.1380 H     1 <1>   0.0800 
 25 H       -3.5370     0.4360     1.3900 H     1 <1>   0.0800 
 26 H       -1.8700     0.9310     1.6370 H     1 <1>   0.0800 
 27 H       -1.8990     0.1690    -1.9610 H     1 <1>   0.0800 
 28 H       -1.5150     1.4060    -0.7850 H     1 <1>   0.0800 
 29 H       -3.1910     0.9980    -1.1190 H     1 <1>   0.0800 
 30 H       -3.2030    -2.4060     0.5880 H     1 <1>   0.4000 
 31 H       -3.1680    -5.0780     1.2170 H     1 <1>   0.0800 
 32 H       -2.2760    -4.9300    -0.2720 H     1 <1>   0.0800 
 33 H       -5.1990    -2.6990     0.8490 H     1 <1>   0.1000 
 34 H       -6.4260    -3.5640    -0.1130 H     1 <1>   0.1000 
 35 H       -5.1050    -3.1750    -2.2120 H     1 <1>   0.1000 
 36 H       -3.8810    -2.2740    -1.2860 H     1 <1>   0.1000 
 37 H       -4.0950    -5.9130    -1.8480 H     1 <1>   0.0800 
 38 H       -5.7560    -5.5540    -1.4930 H     1 <1>   0.0800 
 39 H       -2.9700    -7.7590    -0.5590 H     1 <1>   0.1500 
 40 H       -7.5030    -6.0790     0.1830 H     1 <1>   0.0800 
 41 H       -6.7430    -5.3410     1.5850 H     1 <1>   0.0800 
 42 H       -7.6460    -6.8230     1.7550 H     1 <1>   0.0800 
 43 H       -3.7670    -9.4130     1.4120 H     1 <1>   0.1500 
@<TRIPOS>BOND
  1   1   2  ar  
  2   1   3  ar  
  3   2   4  1   
  4   2   5  ar  
  5   3   6  ar  
  6   3  22  1   
  7   4   7  1   
  8   4   8  1   
  9   5   9  ar  
 10   5  10  1   
 11   6   9  ar  
 12   6  23  1   
 13   7  24  1   
 14   7  25  1   
 15   7  26  1   
 16   8  27  1   
 17   8  28  1   
 18   8  29  1   
 19  10  11  1   
 20  10  30  1   
 21  11  12  1   
 22  11  31  1   
 23  11  32  1   
 24  12  13  1   
 25  12  14  1   
 26  12  15  1   
 27  13  14  1   
 28  13  33  1   
 29  13  34  1   
 30  14  35  1   
 31  14  36  1   
 32  15  16  1   
 33  15  37  1   
 34  15  38  1   
 35  16  17  1   
 36  16  18  1   
 37  17  19  2   
 38  17  20  1   
 39  18  21  2   
 40  18  39  1   
 41  19  21  1   
 42  20  40  1   
 43  20  41  1   
 44  20  42  1   
 45  21  43  1   
@<TRIPOS>SUBSTRUCTURE
  1 ****  11 GROUP 4 **** **** 0

# MOE 2024.06 (io_trps.svl 2023.06)
