@<TRIPOS>MOLECULE
NONAME
47 49 1 0 0 
SMALL
USER_CHARGES


@<TRIPOS>ATOM
  1 O        0.4880     1.2680     1.4960 O.2   1 <1>  -0.5700 
  2 C        0.3330     2.4370     1.2540 C.2   1 <1>   0.5690 
  3 N       -0.8870     3.0070     1.3660 N.am  1 <1>  -0.7300 
  4 C        1.5130     3.2880     0.7810 C.3   1 <1>   0.1810 
  5 C       -1.1480     4.4470     1.1210 C.3   1 <1>   0.3640 
  6 O        1.2900     4.6730     0.9350 O.3   1 <1>  -0.5600 
  7 C       -2.4130     4.5650     0.2780 C.ar  1 <1>  -0.1440 
  8 C        0.0520     5.1450     0.4230 C.3   1 <1>   0.2610 
  9 C       -2.5920     3.7860    -0.8580 C.ar  1 <1>   0.1600 
 10 C       -3.4050     5.4630     0.6220 C.ar  1 <1>  -0.1500 
 11 C       -0.0300     6.6810     0.5280 C.2   1 <1>   0.5690 
 12 N       -3.6460     3.8360    -1.6570 N.ar  1 <1>  -0.6200 
 13 C       -4.5130     5.5240    -0.1950 C.ar  1 <1>  -0.1500 
 14 O       -0.8550     7.1690     1.2700 O.2   1 <1>  -0.5700 
 15 N        0.8030     7.4850    -0.2140 N.am  1 <1>  -0.6600 
 16 C       -4.5820     4.7010    -1.3060 C.ar  1 <1>   0.1600 
 17 C        0.7830     8.9790    -0.0320 C.3   1 <1>   0.3210 
 18 C        1.8960     6.9770    -1.0950 C.3   1 <1>   0.0600 
 19 C        2.0840     9.5340     0.5510 C.2   1 <1>   0.3350 
 20 N        2.2570     9.8590     1.7700 N.2   1 <1>  -0.4100 
 21 N        3.1580     9.7440    -0.2050 N.2   1 <1>  -0.5650 
 22 O        3.4740    10.2960     1.8830 O.3   1 <1>  -0.0190 
 23 C        3.9620    10.2040     0.6700 C.2   1 <1>   0.2980 
 24 C        5.4080    10.6520     0.4480 C.3   1 <1>   0.1000 
 25 C        5.5170    12.1810     0.5240 C.3   1 <1>  -0.2400 
 26 C        5.9800    10.1560    -0.8900 C.3   1 <1>  -0.2400 
 27 H       -1.6620     2.4400     1.7130 H     1 <1>   0.3700 
 28 H        1.7070     3.0880    -0.2560 H     1 <1>   0.0800 
 29 H        2.3870     3.0330     1.3530 H     1 <1>   0.0800 
 30 H       -1.3150     4.9130     2.0780 H     1 <1>   0.0800 
 31 H        0.0220     4.8930    -0.6200 H     1 <1>   0.0800 
 32 H       -1.8280     3.0770    -1.1300 H     1 <1>   0.1500 
 33 H       -3.3210     6.1000     1.4880 H     1 <1>   0.1500 
 34 H       -5.3160     6.2040     0.0240 H     1 <1>   0.1500 
 35 H       -5.4520     4.7590    -1.9380 H     1 <1>   0.1500 
 36 H        0.6100     9.4440    -0.9850 H     1 <1>   0.0800 
 37 H       -0.0220     9.2710     0.6170 H     1 <1>   0.0800 
 38 H        2.0840     7.6760    -1.8920 H     1 <1>   0.0800 
 39 H        1.6370     6.0300    -1.5320 H     1 <1>   0.0800 
 40 H        2.7970     6.8610    -0.5160 H     1 <1>   0.0800 
 41 H        6.0010    10.2280     1.2390 H     1 <1>   0.0800 
 42 H        4.9220    12.6360    -0.2480 H     1 <1>   0.0800 
 43 H        6.5400    12.4930     0.4040 H     1 <1>   0.0800 
 44 H        5.1640    12.5310     1.4780 H     1 <1>   0.0800 
 45 H        5.4210    10.5670    -1.7130 H     1 <1>   0.0800 
 46 H        5.9200     9.0830    -0.9400 H     1 <1>   0.0800 
 47 H        7.0100    10.4460    -0.9900 H     1 <1>   0.0800 
@<TRIPOS>BOND
  1   1   2  2   
  2   2   3  am  
  3   2   4  1   
  4   3   5  1   
  5   3  27  1   
  6   4   6  1   
  7   4  28  1   
  8   4  29  1   
  9   5   7  1   
 10   5   8  1   
 11   5  30  1   
 12   6   8  1   
 13   7   9  ar  
 14   7  10  ar  
 15   8  11  1   
 16   8  31  1   
 17   9  12  ar  
 18   9  32  1   
 19  10  13  ar  
 20  10  33  1   
 21  11  14  2   
 22  11  15  am  
 23  12  16  ar  
 24  13  16  ar  
 25  13  34  1   
 26  15  17  1   
 27  15  18  1   
 28  16  35  1   
 29  17  19  1   
 30  17  36  1   
 31  17  37  1   
 32  18  38  1   
 33  18  39  1   
 34  18  40  1   
 35  19  20  2   
 36  19  21  1   
 37  20  22  1   
 38  21  23  2   
 39  22  23  1   
 40  23  24  1   
 41  24  25  1   
 42  24  26  1   
 43  24  41  1   
 44  25  42  1   
 45  25  43  1   
 46  25  44  1   
 47  26  45  1   
 48  26  46  1   
 49  26  47  1   
@<TRIPOS>SUBSTRUCTURE
  1 ****  11 GROUP 4 **** **** 0

# MOE 2024.06 (io_trps.svl 2023.06)
