@<TRIPOS>MOLECULE
NONAME
53 54 1 0 0 
SMALL
USER_CHARGES


@<TRIPOS>ATOM
  1 O       -1.3630     0.3130     2.0000 O.2   1 <1>  -0.5700 
  2 C       -1.7970     0.6180     0.9130 C.2   1 <1>   0.5690 
  3 N       -2.5690    -0.2710     0.1940 N.am  1 <1>  -0.6600 
  4 C       -1.4500     2.0330     0.4270 C.3   1 <1>  -0.0190 
  5 C       -2.8230    -1.6370     0.7450 C.3   1 <1>   0.1400 
  6 C       -3.2370    -0.0310    -1.1190 C.3   1 <1>   0.0600 
  7 C       -2.6730     2.9730     0.3720 C.3   1 <1>  -0.1600 
  8 C       -0.5900     2.0540    -0.8630 C.3   1 <1>  -0.1600 
  9 C       -3.9960    -1.6050     1.7280 C.3   1 <1>   0.1200 
 10 C       -2.2820     4.4320     0.0540 C.3   1 <1>   0.2000 
 11 C       -0.7840     3.3280    -1.7040 C.3   1 <1>  -0.1600 
 12 O       -4.3650    -2.9230     2.0880 O.3   1 <1>  -0.3620 
 13 O       -3.3550     5.0230    -0.6370 O.3   1 <1>  -0.5600 
 14 C       -0.9920     4.5470    -0.8030 C.3   1 <1>   0.2000 
 15 C       -5.1210    -3.6140     1.2060 C.ar  1 <1>   0.0820 
 16 C       -4.3840     5.5070     0.1690 C.3   1 <1>   0.0400 
 17 O       -1.0800     5.6620    -1.6110 O.3   1 <1>  -0.6800 
 18 C       -6.4870    -3.3750     1.0690 C.ar  1 <1>  -0.1440 
 19 C       -4.5020    -4.5870     0.4390 C.ar  1 <1>  -0.1500 
 20 C       -7.2010    -4.0950     0.1250 C.ar  1 <1>  -0.1500 
 21 C       -7.2230    -2.3620     1.9360 C.3   1 <1>  -0.0970 
 22 C       -5.2280    -5.3020    -0.4960 C.ar  1 <1>  -0.1500 
 23 C       -6.5800    -5.0530    -0.6630 C.ar  1 <1>  -0.1440 
 24 C       -7.3820    -5.8320    -1.6890 C.3   1 <1>  -0.0970 
 25 H       -0.8190     2.4460     1.1960 H     1 <1>   0.0800 
 26 H       -3.0390    -2.3110    -0.0640 H     1 <1>   0.0800 
 27 H       -1.9430    -1.9910     1.2560 H     1 <1>   0.0800 
 28 H       -2.9630    -0.8090    -1.8110 H     1 <1>   0.0800 
 29 H       -2.9570     0.9090    -1.5500 H     1 <1>   0.0800 
 30 H       -4.3050    -0.0450    -0.9880 H     1 <1>   0.0800 
 31 H       -3.1780     2.9450     1.3210 H     1 <1>   0.0800 
 32 H       -3.3610     2.6310    -0.3770 H     1 <1>   0.0800 
 33 H        0.4440     1.9810    -0.5710 H     1 <1>   0.0800 
 34 H       -0.7890     1.1970    -1.4800 H     1 <1>   0.0800 
 35 H       -4.8450    -1.1150     1.2890 H     1 <1>   0.0800 
 36 H       -3.7060    -1.0910     2.6270 H     1 <1>   0.0800 
 37 H       -2.1130     4.9760     0.9680 H     1 <1>   0.0800 
 38 H       -1.6480     3.2120    -2.3350 H     1 <1>   0.0800 
 39 H        0.0780     3.4790    -2.3310 H     1 <1>   0.0800 
 40 H       -0.1320     4.6680    -0.1670 H     1 <1>   0.0800 
 41 H       -5.1380     5.9320    -0.4690 H     1 <1>   0.0800 
 42 H       -3.9940     6.2680     0.8230 H     1 <1>   0.0800 
 43 H       -4.8080     4.6980     0.7380 H     1 <1>   0.0800 
 44 H       -2.0430     5.8120    -1.7520 H     1 <1>   0.4000 
 45 H       -3.4550    -4.7810     0.5780 H     1 <1>   0.1500 
 46 H       -8.2540    -3.9150     0.0040 H     1 <1>   0.1500 
 47 H       -8.2440    -2.6640     2.0800 H     1 <1>   0.0800 
 48 H       -7.2110    -1.3970     1.4650 H     1 <1>   0.0800 
 49 H       -6.7590    -2.2870     2.9040 H     1 <1>   0.0800 
 50 H       -4.7370    -6.0530    -1.0900 H     1 <1>   0.1500 
 51 H       -6.7480    -6.1660    -2.4900 H     1 <1>   0.0800 
 52 H       -8.1580    -5.2150    -2.1060 H     1 <1>   0.0800 
 53 H       -7.8320    -6.6890    -1.2220 H     1 <1>   0.0800 
@<TRIPOS>BOND
  1   1   2  2   
  2   2   3  am  
  3   2   4  1   
  4   3   5  1   
  5   3   6  1   
  6   4   7  1   
  7   4   8  1   
  8   4  25  1   
  9   5   9  1   
 10   5  26  1   
 11   5  27  1   
 12   6  28  1   
 13   6  29  1   
 14   6  30  1   
 15   7  10  1   
 16   7  31  1   
 17   7  32  1   
 18   8  11  1   
 19   8  33  1   
 20   8  34  1   
 21   9  12  1   
 22   9  35  1   
 23   9  36  1   
 24  10  13  1   
 25  10  14  1   
 26  10  37  1   
 27  11  14  1   
 28  11  38  1   
 29  11  39  1   
 30  12  15  1   
 31  13  16  1   
 32  14  17  1   
 33  14  40  1   
 34  15  18  ar  
 35  15  19  ar  
 36  16  41  1   
 37  16  42  1   
 38  16  43  1   
 39  17  44  1   
 40  18  20  ar  
 41  18  21  1   
 42  19  22  ar  
 43  19  45  1   
 44  20  23  ar  
 45  20  46  1   
 46  21  47  1   
 47  21  48  1   
 48  21  49  1   
 49  22  23  ar  
 50  22  50  1   
 51  23  24  1   
 52  24  51  1   
 53  24  52  1   
 54  24  53  1   
@<TRIPOS>SUBSTRUCTURE
  1 ****   3 GROUP 4 **** **** 0

# MOE 2024.06 (io_trps.svl 2023.06)
