@<TRIPOS>MOLECULE
NONAME
49 51 1 0 0 
SMALL
USER_CHARGES


@<TRIPOS>ATOM
  1 O        1.1270    -1.5330    -2.0970 O.3   1 <1>  -0.6800 
  2 C        0.5630    -2.0660    -0.9460 C.3   1 <1>   0.1200 
  3 C        1.5640    -2.0530     0.2460 C.3   1 <1>   0.0000 
  4 C        2.9650    -2.6390    -0.1040 C.3   1 <1>   0.4230 
  5 C        1.7360    -0.5920     0.7520 C.3   1 <1>  -0.1600 
  6 C        0.9540    -2.8970     1.4010 C.3   1 <1>  -0.1600 
  7 N        2.9150    -4.0910    -0.5790 N.4   1 <1>  -0.9590 
  8 C        3.8100    -1.6680    -0.9890 C.3   1 <1>   0.3430 
  9 C        2.5280     0.3130    -0.1980 C.3   1 <1>   0.3430 
 10 C        1.4780    -4.3480     1.4560 C.3   1 <1>  -0.1600 
 11 C        1.8340    -4.9060     0.0770 C.3   1 <1>   0.3430 
 12 C        2.8230    -4.2710    -2.0680 C.3   1 <1>   0.2630 
 13 N        3.8820    -0.2750    -0.4210 N.4   1 <1>  -0.9590 
 14 C        4.7380     0.6280    -1.2550 C.3   1 <1>   0.4860 
 15 C        4.9940     1.9600    -0.5480 C.ar  1 <1>  -0.1430 
 16 C        5.6060     2.0300     0.7090 C.ar  1 <1>   0.0730 
 17 C        4.6230     3.1310    -1.1950 C.ar  1 <1>  -0.1500 
 18 C        5.9510     0.8280     1.4100 C.1   1 <1>   0.4840 
 19 C        5.8390     3.2750     1.2820 C.ar  1 <1>  -0.1500 
 20 C        4.8560     4.3610    -0.6090 C.ar  1 <1>  -0.1500 
 21 N        5.9830    -0.2500     1.7810 N.1   1 <1>  -0.5570 
 22 C        5.4660     4.4340     0.6290 C.ar  1 <1>  -0.1500 
 23 H        0.4320    -1.3950    -2.7820 H     1 <1>   0.4000 
 24 H       -0.3130    -1.4840    -0.7060 H     1 <1>   0.0800 
 25 H        0.2380    -3.0650    -1.1770 H     1 <1>   0.0800 
 26 H        3.4870    -2.6650     0.8380 H     1 <1>   0.0800 
 27 H        2.2380    -0.5810     1.7040 H     1 <1>   0.0800 
 28 H        0.7670    -0.1500     0.9110 H     1 <1>   0.0800 
 29 H        1.1630    -2.4510     2.3590 H     1 <1>   0.0800 
 30 H       -0.1210    -2.9130     1.3140 H     1 <1>   0.0800 
 31 H        3.7990    -4.5290    -0.2770 H     1 <1>   0.4500 
 32 H        3.3800    -1.6200    -1.9740 H     1 <1>   0.0800 
 33 H        4.8090    -2.0630    -1.0740 H     1 <1>   0.0800 
 34 H        2.6180     1.2970     0.2380 H     1 <1>   0.0800 
 35 H        2.0060     0.4110    -1.1370 H     1 <1>   0.0800 
 36 H        0.7270    -4.9750     1.9060 H     1 <1>   0.0800 
 37 H        2.3470    -4.4050     2.0900 H     1 <1>   0.0800 
 38 H        0.9460    -4.8960    -0.5340 H     1 <1>   0.0800 
 39 H        2.1540    -5.9330     0.1710 H     1 <1>   0.0800 
 40 H        1.9200    -3.8220    -2.4490 H     1 <1>   0.0800 
 41 H        2.8110    -5.3210    -2.3170 H     1 <1>   0.0800 
 42 H        3.6670    -3.8200    -2.5620 H     1 <1>   0.0800 
 43 H        4.3500    -0.3410     0.5010 H     1 <1>   0.4500 
 44 H        5.6880     0.1540    -1.4480 H     1 <1>   0.0800 
 45 H        4.2590     0.8100    -2.2040 H     1 <1>   0.0800 
 46 H        4.1540     3.1090    -2.1660 H     1 <1>   0.1500 
 47 H        6.3110     3.3460     2.2490 H     1 <1>   0.1500 
 48 H        4.5680     5.2680    -1.1160 H     1 <1>   0.1500 
 49 H        5.6500     5.3950     1.0810 H     1 <1>   0.1500 
@<TRIPOS>BOND
  1   1   2  1   
  2   1  23  1   
  3   2   3  1   
  4   2  24  1   
  5   2  25  1   
  6   3   4  1   
  7   3   5  1   
  8   3   6  1   
  9   4   7  1   
 10   4   8  1   
 11   4  26  1   
 12   5   9  1   
 13   5  27  1   
 14   5  28  1   
 15   6  10  1   
 16   6  29  1   
 17   6  30  1   
 18   7  11  1   
 19   7  12  1   
 20   7  31  1   
 21   8  13  1   
 22   8  32  1   
 23   8  33  1   
 24   9  13  1   
 25   9  34  1   
 26   9  35  1   
 27  10  11  1   
 28  10  36  1   
 29  10  37  1   
 30  11  38  1   
 31  11  39  1   
 32  12  40  1   
 33  12  41  1   
 34  12  42  1   
 35  13  14  1   
 36  13  43  1   
 37  14  15  1   
 38  14  44  1   
 39  14  45  1   
 40  15  16  ar  
 41  15  17  ar  
 42  16  18  1   
 43  16  19  ar  
 44  17  20  ar  
 45  17  46  1   
 46  18  21  3   
 47  19  22  ar  
 48  19  47  1   
 49  20  22  ar  
 50  20  48  1   
 51  22  49  1   
@<TRIPOS>SUBSTRUCTURE
  1 ****  13 GROUP 4 **** **** 0

# MOE 2024.06 (io_trps.svl 2023.06)
