@<TRIPOS>MOLECULE
NONAME
35 36 1 0 0 
SMALL
USER_CHARGES


@<TRIPOS>ATOM
  1 F       -2.4050    -0.8710    -3.0180 F     1 <1>  -0.1900 
  2 C       -3.1240    -1.2900    -1.9960 C.ar  1 <1>   0.1900 
  3 C       -3.2010    -0.5700    -0.8040 C.ar  1 <1>   0.4100 
  4 C       -3.8010    -2.4720    -2.1090 C.ar  1 <1>   0.1600 
  5 N       -3.9220    -1.0480     0.1940 N.ar  1 <1>  -0.6200 
  6 N       -2.5550     0.6450    -0.5850 N.pl3 1 <1>  -0.8380 
  7 N       -4.5270    -2.9520    -1.1170 N.ar  1 <1>  -0.6200 
  8 C       -4.5410    -2.1950    -0.0210 C.ar  1 <1>   0.7200 
  9 C       -2.5830     1.7250    -1.6090 C.3   1 <1>   0.1290 
 10 C       -2.2240     1.0960     0.7960 C.3   1 <1>   0.1290 
 11 N       -5.2720    -2.6230     1.0340 N.pl3 1 <1>  -0.8690 
 12 C       -5.5040    -4.0560     1.3230 C.3   1 <1>   0.2090 
 13 C       -6.8580    -4.4840     0.7580 C.3   1 <1>   0.0200 
 14 C       -6.8910    -5.9900     0.5810 C.2   1 <1>   0.0060 
 15 N       -7.4140    -6.8050     1.4230 N.2   1 <1>  -0.5650 
 16 N       -6.3650    -6.6400    -0.4680 N.pl3 1 <1>   0.3140 
 17 C       -7.1810    -7.9840     0.8310 C.2   1 <1>   0.3660 
 18 N       -6.5540    -7.9380    -0.2980 N.2   1 <1>  -0.7070 
 19 C       -5.6620    -6.1010    -1.6420 C.3   1 <1>   0.0160 
 20 H       -3.7440    -3.0320    -3.0250 H     1 <1>   0.1500 
 21 H       -3.2580     1.4730    -2.4080 H     1 <1>   0.0800 
 22 H       -1.5950     1.8630    -2.0140 H     1 <1>   0.0800 
 23 H       -2.9140     2.6480    -1.1650 H     1 <1>   0.0800 
 24 H       -2.0170     0.2460     1.4240 H     1 <1>   0.0800 
 25 H       -3.0540     1.6420     1.2090 H     1 <1>   0.0800 
 26 H       -1.3530     1.7270     0.7780 H     1 <1>   0.0800 
 27 H       -5.1130    -2.0280     1.8470 H     1 <1>   0.4000 
 28 H       -5.4840    -4.2280     2.3860 H     1 <1>   0.0800 
 29 H       -4.7160    -4.6410     0.8790 H     1 <1>   0.0800 
 30 H       -7.0330    -4.0100    -0.1900 H     1 <1>   0.0800 
 31 H       -7.6370    -4.1830     1.4340 H     1 <1>   0.0800 
 32 H       -7.5050    -8.9030     1.2900 H     1 <1>   0.1500 
 33 H       -6.2100    -5.2690    -2.0400 H     1 <1>   0.0800 
 34 H       -5.5830    -6.8700    -2.3890 H     1 <1>   0.0800 
 35 H       -4.6790    -5.7830    -1.3490 H     1 <1>   0.0800 
@<TRIPOS>BOND
  1   1   2  1   
  2   2   3  ar  
  3   2   4  ar  
  4   3   5  ar  
  5   3   6  1   
  6   4   7  ar  
  7   4  20  1   
  8   5   8  ar  
  9   6   9  1   
 10   6  10  1   
 11   7   8  ar  
 12   8  11  1   
 13   9  21  1   
 14   9  22  1   
 15   9  23  1   
 16  10  24  1   
 17  10  25  1   
 18  10  26  1   
 19  11  12  1   
 20  11  27  1   
 21  12  13  1   
 22  12  28  1   
 23  12  29  1   
 24  13  14  1   
 25  13  30  1   
 26  13  31  1   
 27  14  15  2   
 28  14  16  1   
 29  15  17  1   
 30  16  18  1   
 31  16  19  1   
 32  17  18  2   
 33  17  32  1   
 34  19  33  1   
 35  19  34  1   
 36  19  35  1   
@<TRIPOS>SUBSTRUCTURE
  1 ****   7 GROUP 4 **** **** 0

# MOE 2024.06 (io_trps.svl 2023.06)
