@<TRIPOS>MOLECULE
NONAME
40 42 1 0 0 
SMALL
USER_CHARGES


@<TRIPOS>ATOM
  1 CL       1.8110    -3.1240    -2.9910 Cl    1 <1>  -0.1770 
  2 C        1.0590    -4.0350    -1.7090 C.ar  1 <1>   0.1770 
  3 C        1.3880    -5.3660    -1.5430 C.ar  1 <1>  -0.1500 
  4 C        0.1430    -3.4100    -0.8790 C.ar  1 <1>  -0.1500 
  5 C        0.7670    -6.0550    -0.5200 C.ar  1 <1>   0.1900 
  6 C       -0.4650    -4.1240     0.1440 C.ar  1 <1>  -0.1500 
  7 F        1.0610    -7.3160    -0.3540 F     1 <1>  -0.1900 
  8 C       -0.1560    -5.4660     0.3320 C.ar  1 <1>  -0.1440 
  9 C       -0.7970    -6.2810     1.4380 C.3   1 <1>   0.4870 
 10 N       -1.8520    -7.1490     0.8550 N.4   1 <1>  -0.9590 
 11 C       -2.9560    -6.4330     0.1480 C.3   1 <1>   0.3430 
 12 C       -2.4820    -8.1150     1.7850 C.3   1 <1>   0.3430 
 13 C       -4.1960    -7.3280     0.2750 C.3   1 <1>   0.2000 
 14 C       -3.7660    -8.5620     1.0800 C.3   1 <1>  -0.0800 
 15 O       -5.1820    -6.6470     0.9790 O.3   1 <1>  -0.6800 
 16 C       -3.5780    -9.8230     0.1970 C.3   1 <1>  -0.0160 
 17 C       -2.2760    -9.9160    -0.5990 C.ar  1 <1>   0.1670 
 18 N       -1.9930    -8.9170    -1.4240 N.ar  1 <1>  -0.6200 
 19 C       -1.4520   -11.0300    -0.4370 C.ar  1 <1>   0.1600 
 20 C       -0.8680    -9.1250    -2.0960 C.ar  1 <1>   0.1600 
 21 N       -0.3110   -11.2130    -1.0740 N.ar  1 <1>  -0.6200 
 22 C       -0.0510   -10.2340    -1.9210 C.ar  1 <1>   0.1600 
 23 H        2.1030    -5.8420    -2.1890 H     1 <1>   0.1500 
 24 H       -0.0850    -2.3690    -1.0370 H     1 <1>   0.1500 
 25 H       -1.1690    -3.6180     0.7850 H     1 <1>   0.1500 
 26 H       -1.2240    -5.6240     2.1780 H     1 <1>   0.0800 
 27 H       -0.0440    -6.8890     1.9130 H     1 <1>   0.0800 
 28 H       -1.4110    -7.7220     0.1060 H     1 <1>   0.4500 
 29 H       -3.1510    -5.4750     0.6000 H     1 <1>   0.0800 
 30 H       -2.6990    -6.2960    -0.8900 H     1 <1>   0.0800 
 31 H       -1.8290    -8.9480     1.9940 H     1 <1>   0.0800 
 32 H       -2.7340    -7.6180     2.7080 H     1 <1>   0.0800 
 33 H       -4.5970    -7.5740    -0.6940 H     1 <1>   0.0800 
 34 H       -4.5160    -8.8050     1.8140 H     1 <1>   0.0800 
 35 H       -4.9980    -6.5700     1.9350 H     1 <1>   0.4000 
 36 H       -4.4010    -9.8990    -0.4930 H     1 <1>   0.0800 
 37 H       -3.6460   -10.6850     0.8380 H     1 <1>   0.0800 
 38 H       -1.7440   -11.8090     0.2460 H     1 <1>   0.1500 
 39 H       -0.5720    -8.3830    -2.8180 H     1 <1>   0.1500 
 40 H        0.8510   -10.3140    -2.5040 H     1 <1>   0.1500 
@<TRIPOS>BOND
  1   1   2  1   
  2   2   3  ar  
  3   2   4  ar  
  4   3   5  ar  
  5   3  23  1   
  6   4   6  ar  
  7   4  24  1   
  8   5   7  1   
  9   5   8  ar  
 10   6   8  ar  
 11   6  25  1   
 12   8   9  1   
 13   9  10  1   
 14   9  26  1   
 15   9  27  1   
 16  10  11  1   
 17  10  12  1   
 18  10  28  1   
 19  11  13  1   
 20  11  29  1   
 21  11  30  1   
 22  12  14  1   
 23  12  31  1   
 24  12  32  1   
 25  13  14  1   
 26  13  15  1   
 27  13  33  1   
 28  14  16  1   
 29  14  34  1   
 30  15  35  1   
 31  16  17  1   
 32  16  36  1   
 33  16  37  1   
 34  17  18  ar  
 35  17  19  ar  
 36  18  20  ar  
 37  19  21  ar  
 38  19  38  1   
 39  20  22  ar  
 40  20  39  1   
 41  21  22  ar  
 42  22  40  1   
@<TRIPOS>SUBSTRUCTURE
  1 ****  10 GROUP 4 **** **** 0

# MOE 2024.06 (io_trps.svl 2023.06)
