@<TRIPOS>MOLECULE
NONAME
59 62 1 0 0 
SMALL
USER_CHARGES


@<TRIPOS>ATOM
  1 O        0.1780     0.4930     1.2020 O.2   1 <1>  -0.5700 
  2 C        1.3600     0.5180     0.9290 C.2   1 <1>   0.5440 
  3 N        2.0290     1.6260     0.5030 N.am  1 <1>  -0.6600 
  4 C        2.2520    -0.5970     0.9900 C.ar  1 <1>   0.0860 
  5 C        1.4450     2.9690     0.3230 C.3   1 <1>   0.2200 
  6 C        3.4610     1.2950     0.2470 C.3   1 <1>   0.2840 
  7 C        3.5080    -0.1890     0.5880 C.ar  1 <1>   0.1660 
  8 C        2.0650    -1.9190     1.3570 C.ar  1 <1>  -0.1500 
  9 C        1.5810     3.3990    -1.1360 C.3   1 <1>  -0.2400 
 10 C        2.1280     3.9570     1.2660 C.3   1 <1>  -0.2400 
 11 N        4.5860    -0.9500     0.5040 N.ar  1 <1>  -0.6200 
 12 C        3.1720    -2.7410     1.2850 C.ar  1 <1>  -0.1430 
 13 C        4.3950    -2.2200     0.8580 C.ar  1 <1>   0.3930 
 14 C        3.0700    -4.2020     1.6680 C.3   1 <1>   0.4860 
 15 O        5.4390    -3.0700     0.7870 O.3   1 <1>  -0.3630 
 16 N        3.2270    -5.0510     0.4540 N.4   1 <1>  -0.9590 
 17 C        6.7360    -2.6150     0.4370 C.3   1 <1>   0.0400 
 18 C        2.1320    -4.8100    -0.5340 C.3   1 <1>   0.3430 
 19 C        3.1550    -6.5000     0.8140 C.3   1 <1>   0.3430 
 20 C        1.0400    -5.8220    -0.1820 C.3   1 <1>   0.2000 
 21 C        1.8270    -7.0530     0.2640 C.3   1 <1>  -0.0800 
 22 O        0.3220    -5.3420     0.9100 O.3   1 <1>  -0.6800 
 23 C        2.0670    -8.0280    -0.9040 C.3   1 <1>   0.0210 
 24 C        2.7580    -9.2940    -0.4340 C.2   1 <1>   0.1080 
 25 N        3.9390    -9.2970     0.1030 N.2   1 <1>  -0.7070 
 26 C        2.2170   -10.5710    -0.5240 C.2   1 <1>  -0.1500 
 27 N        4.1890   -10.5990     0.3640 N.pl3 1 <1>   0.3000 
 28 C        3.1570   -11.3860    -0.0040 C.2   1 <1>  -0.3320 
 29 C        3.1350   -12.8940     0.1630 C.3   1 <1>  -0.0600 
 30 H        0.3960     2.9240     0.5720 H     1 <1>   0.0800 
 31 H        3.7170     1.4600    -0.7840 H     1 <1>   0.0800 
 32 H        4.1080     1.8570     0.8960 H     1 <1>   0.0800 
 33 H        1.0920    -2.2540     1.6780 H     1 <1>   0.1500 
 34 H        2.6120     3.5170    -1.4130 H     1 <1>   0.0800 
 35 H        1.0830     4.3410    -1.2820 H     1 <1>   0.0800 
 36 H        1.1160     2.6710    -1.7760 H     1 <1>   0.0800 
 37 H        3.1660     4.0800     1.0170 H     1 <1>   0.0800 
 38 H        2.0390     3.6140     2.2810 H     1 <1>   0.0800 
 39 H        1.6480     4.9160     1.1930 H     1 <1>   0.0800 
 40 H        2.1160    -4.3910     2.1320 H     1 <1>   0.0800 
 41 H        3.8470    -4.4340     2.3790 H     1 <1>   0.0800 
 42 H        4.1460    -4.8140     0.0510 H     1 <1>   0.4500 
 43 H        7.4120    -3.4500     0.4640 H     1 <1>   0.0800 
 44 H        7.0470    -1.8680     1.1470 H     1 <1>   0.0800 
 45 H        6.7060    -2.1950    -0.5540 H     1 <1>   0.0800 
 46 H        1.7570    -3.8000    -0.5010 H     1 <1>   0.0800 
 47 H        2.4960    -5.0170    -1.5260 H     1 <1>   0.0800 
 48 H        3.9890    -7.0250     0.3780 H     1 <1>   0.0800 
 49 H        3.1950    -6.6310     1.8830 H     1 <1>   0.0800 
 50 H        0.3560    -5.9970    -0.9960 H     1 <1>   0.0800 
 51 H        1.3030    -7.5900     1.0370 H     1 <1>   0.0800 
 52 H       -0.4800    -5.8840     1.0710 H     1 <1>   0.4000 
 53 H        2.6750    -7.5720    -1.6660 H     1 <1>   0.0800 
 54 H        1.1270    -8.3010    -1.3500 H     1 <1>   0.0800 
 55 H        1.2550   -10.8340    -0.9290 H     1 <1>   0.1500 
 56 H        5.0690   -10.9220     0.7870 H     1 <1>   0.2700 
 57 H        2.2070   -13.2940    -0.2060 H     1 <1>   0.0800 
 58 H        3.2300   -13.1570     1.2020 H     1 <1>   0.0800 
 59 H        3.9430   -13.3420    -0.3880 H     1 <1>   0.0800 
@<TRIPOS>BOND
  1   1   2  2   
  2   2   3  am  
  3   2   4  1   
  4   3   5  1   
  5   3   6  1   
  6   4   7  ar  
  7   4   8  ar  
  8   5   9  1   
  9   5  10  1   
 10   5  30  1   
 11   6   7  1   
 12   6  31  1   
 13   6  32  1   
 14   7  11  ar  
 15   8  12  ar  
 16   8  33  1   
 17   9  34  1   
 18   9  35  1   
 19   9  36  1   
 20  10  37  1   
 21  10  38  1   
 22  10  39  1   
 23  11  13  ar  
 24  12  13  ar  
 25  12  14  1   
 26  13  15  1   
 27  14  16  1   
 28  14  40  1   
 29  14  41  1   
 30  15  17  1   
 31  16  18  1   
 32  16  19  1   
 33  16  42  1   
 34  17  43  1   
 35  17  44  1   
 36  17  45  1   
 37  18  20  1   
 38  18  46  1   
 39  18  47  1   
 40  19  21  1   
 41  19  48  1   
 42  19  49  1   
 43  20  21  1   
 44  20  22  1   
 45  20  50  1   
 46  21  23  1   
 47  21  51  1   
 48  22  52  1   
 49  23  24  1   
 50  23  53  1   
 51  23  54  1   
 52  24  25  2   
 53  24  26  1   
 54  25  27  1   
 55  26  28  2   
 56  26  55  1   
 57  27  28  1   
 58  27  56  1   
 59  28  29  1   
 60  29  57  1   
 61  29  58  1   
 62  29  59  1   
@<TRIPOS>SUBSTRUCTURE
  1 ****  16 GROUP 4 **** **** 0

# MOE 2024.06 (io_trps.svl 2023.06)
