@<TRIPOS>MOLECULE
NONAME
46 50 1 0 0 
SMALL
USER_CHARGES


@<TRIPOS>ATOM
  1 S       -0.6650    -0.7050     1.6710 S.3   1 <1>  -0.0800 
  2 C       -1.6510    -1.4550     0.4340 C.ar  1 <1>   0.0400 
  3 C       -1.2010     0.8760     1.1140 C.2   1 <1>   0.1980 
  4 C       -2.2800    -0.4490    -0.2740 C.ar  1 <1>   0.2270 
  5 C       -1.8160    -2.7980     0.1630 C.ar  1 <1>  -0.1500 
  6 N       -2.0090     0.8520     0.1350 N.2   1 <1>  -0.5650 
  7 C       -0.6560     2.0790     1.8460 C.3   1 <1>  -0.0600 
  8 C       -3.1160    -0.8150    -1.3190 C.ar  1 <1>  -0.1500 
  9 C       -2.6680    -3.1740    -0.8750 C.ar  1 <1>   0.0860 
 10 C       -3.2990    -2.1570    -1.6100 C.ar  1 <1>  -0.1500 
 11 C       -2.8860    -4.5740    -1.1820 C.2   1 <1>   0.5440 
 12 O       -1.9230    -5.2960    -1.3560 O.2   1 <1>  -0.5700 
 13 N       -4.1540    -5.1130    -1.2630 N.am  1 <1>  -0.6600 
 14 C       -5.3580    -4.5020    -0.6370 C.3   1 <1>   0.1400 
 15 C       -4.3920    -6.4780    -1.8110 C.3   1 <1>   0.1400 
 16 C       -5.8330    -5.4020     0.5060 C.3   1 <1>  -0.1600 
 17 C       -4.8620    -7.3980    -0.6840 C.3   1 <1>  -0.1600 
 18 C       -6.0990    -6.8360     0.0260 C.3   1 <1>   0.4610 
 19 O       -7.1310    -6.8120    -0.9450 O.3   1 <1>  -0.5600 
 20 C       -6.5000    -7.7410     1.1930 C.2   1 <1>  -0.1810 
 21 C       -8.4680    -6.7460    -0.5090 C.3   1 <1>   0.1200 
 22 C       -7.7370    -8.2470     1.2800 C.2   1 <1>  -0.1400 
 23 C       -5.6540    -8.1440     2.2810 C.2   1 <1>  -0.1500 
 24 C       -8.8530    -7.9920     0.3040 C.3   1 <1>   0.0200 
 25 S       -7.9300    -9.2630     2.6930 S.3   1 <1>  -0.0800 
 26 C       -6.2650    -8.9560     3.1650 C.2   1 <1>  -0.1100 
 27 H       -1.2980    -3.5450     0.7390 H     1 <1>   0.1500 
 28 H       -0.9350     2.0340     2.8820 H     1 <1>   0.0800 
 29 H       -1.0560     2.9790     1.4140 H     1 <1>   0.0800 
 30 H        0.4150     2.0990     1.7660 H     1 <1>   0.0800 
 31 H       -3.6050    -0.0440    -1.8860 H     1 <1>   0.1500 
 32 H       -3.9430    -2.4390    -2.4260 H     1 <1>   0.1500 
 33 H       -6.1330    -4.4080    -1.3790 H     1 <1>   0.0800 
 34 H       -5.1410    -3.5240    -0.2480 H     1 <1>   0.0800 
 35 H       -3.4940    -6.8740    -2.2550 H     1 <1>   0.0800 
 36 H       -5.1440    -6.4230    -2.5800 H     1 <1>   0.0800 
 37 H       -6.7160    -4.9930     0.9580 H     1 <1>   0.0800 
 38 H       -5.0710    -5.4210     1.2630 H     1 <1>   0.0800 
 39 H       -4.0560    -7.5100     0.0160 H     1 <1>   0.0800 
 40 H       -5.0910    -8.3720    -1.0760 H     1 <1>   0.0800 
 41 H       -9.0950    -6.6630    -1.3790 H     1 <1>   0.0800 
 42 H       -8.5900    -5.8590     0.0880 H     1 <1>   0.0800 
 43 H       -4.6340    -7.8100     2.3500 H     1 <1>   0.1500 
 44 H       -8.9730    -8.8400    -0.3460 H     1 <1>   0.0800 
 45 H       -9.7760    -7.8180     0.8250 H     1 <1>   0.0800 
 46 H       -5.9160    -9.4240     4.0680 H     1 <1>   0.1500 
@<TRIPOS>BOND
  1   1   2  1   
  2   1   3  1   
  3   2   4  ar  
  4   2   5  ar  
  5   3   6  2   
  6   3   7  1   
  7   4   6  1   
  8   4   8  ar  
  9   5   9  ar  
 10   5  27  1   
 11   7  28  1   
 12   7  29  1   
 13   7  30  1   
 14   8  10  ar  
 15   8  31  1   
 16   9  10  ar  
 17   9  11  1   
 18  10  32  1   
 19  11  12  2   
 20  11  13  am  
 21  13  14  1   
 22  13  15  1   
 23  14  16  1   
 24  14  33  1   
 25  14  34  1   
 26  15  17  1   
 27  15  35  1   
 28  15  36  1   
 29  16  18  1   
 30  16  37  1   
 31  16  38  1   
 32  17  18  1   
 33  17  39  1   
 34  17  40  1   
 35  18  19  1   
 36  18  20  1   
 37  19  21  1   
 38  20  22  2   
 39  20  23  1   
 40  21  24  1   
 41  21  41  1   
 42  21  42  1   
 43  22  24  1   
 44  22  25  1   
 45  23  26  2   
 46  23  43  1   
 47  24  44  1   
 48  24  45  1   
 49  25  26  1   
 50  26  46  1   
@<TRIPOS>SUBSTRUCTURE
  1 ****  14 GROUP 4 **** **** 0

# MOE 2024.06 (io_trps.svl 2023.06)
