@<TRIPOS>MOLECULE
NONAME
41 43 1 0 0 
SMALL
USER_CHARGES


@<TRIPOS>ATOM
  1 O       -2.3180    -0.6530    -3.0350 O.2   1 <1>  -0.5700 
  2 C       -2.3920    -0.9680    -1.8800 C.2   1 <1>   0.5690 
  3 N       -2.2840    -0.0400    -0.9140 N.am  1 <1>  -0.7300 
  4 C       -2.6460    -2.4050    -1.5140 C.3   1 <1>  -0.0190 
  5 C       -2.3640    -0.2950     0.5430 C.3   1 <1>   0.2200 
  6 C       -1.4910    -2.9930    -0.6740 C.3   1 <1>   0.1200 
  7 C       -4.0580    -2.5130    -0.9200 C.3   1 <1>   0.3430 
  8 C       -1.2460    -1.2740     0.9810 C.3   1 <1>   0.1200 
  9 C       -3.7940    -0.7650     0.9350 C.3   1 <1>   0.3430 
 10 O       -1.5390    -2.6150     0.6770 O.3   1 <1>  -0.5600 
 11 N       -4.1340    -2.1810     0.5450 N.4   1 <1>  -0.9590 
 12 C       -5.3890    -2.6650     1.1780 C.3   1 <1>   0.4860 
 13 C       -5.4730    -4.1670     0.9940 C.ar  1 <1>  -0.1440 
 14 C       -6.4350    -4.7130     0.1580 C.ar  1 <1>  -0.1500 
 15 C       -4.5790    -5.0050     1.6440 C.ar  1 <1>  -0.1500 
 16 C       -6.5190    -6.0850    -0.0600 C.ar  1 <1>   0.0280 
 17 C       -4.6480    -6.3700     1.4450 C.ar  1 <1>  -0.1500 
 18 C       -5.6060    -6.9010     0.6020 C.ar  1 <1>  -0.1500 
 19 C       -7.5310    -6.6180    -0.9480 C.2   1 <1>  -0.1780 
 20 C       -7.6220    -7.8600    -1.4520 C.2   1 <1>  -0.3000 
 21 H       -2.0550     0.9100    -1.2280 H     1 <1>   0.3700 
 22 H       -2.6590    -2.9450    -2.4440 H     1 <1>   0.0800 
 23 H       -2.1820     0.6460     1.0330 H     1 <1>   0.0800 
 24 H       -0.5340    -2.7060    -1.0810 H     1 <1>   0.0800 
 25 H       -1.5480    -4.0690    -0.6950 H     1 <1>   0.0800 
 26 H       -4.3840    -3.5300    -1.0630 H     1 <1>   0.0800 
 27 H       -4.7280    -1.8770    -1.4780 H     1 <1>   0.0800 
 28 H       -1.1300    -1.2210     2.0500 H     1 <1>   0.0800 
 29 H       -0.3020    -1.0090     0.5340 H     1 <1>   0.0800 
 30 H       -4.5100    -0.0860     0.5010 H     1 <1>   0.0800 
 31 H       -3.8780    -0.6800     2.0060 H     1 <1>   0.0800 
 32 H       -3.3620    -2.7500     0.9460 H     1 <1>   0.4500 
 33 H       -5.3870    -2.4390     2.2320 H     1 <1>   0.0800 
 34 H       -6.2440    -2.1880     0.7260 H     1 <1>   0.0800 
 35 H       -7.1400    -4.0750    -0.3460 H     1 <1>   0.1500 
 36 H       -3.8250    -4.6150     2.3080 H     1 <1>   0.1500 
 37 H       -3.9580    -7.0270     1.9490 H     1 <1>   0.1500 
 38 H       -5.6460    -7.9660     0.4650 H     1 <1>   0.1500 
 39 H       -8.2890    -5.9040    -1.2190 H     1 <1>   0.1500 
 40 H       -8.4130    -8.1780    -2.1080 H     1 <1>   0.1500 
 41 H       -6.9250    -8.6560    -1.2580 H     1 <1>   0.1500 
@<TRIPOS>BOND
  1   1   2  2   
  2   2   3  am  
  3   2   4  1   
  4   3   5  1   
  5   3  21  1   
  6   4   6  1   
  7   4   7  1   
  8   4  22  1   
  9   5   8  1   
 10   5   9  1   
 11   5  23  1   
 12   6  10  1   
 13   6  24  1   
 14   6  25  1   
 15   7  11  1   
 16   7  26  1   
 17   7  27  1   
 18   8  10  1   
 19   8  28  1   
 20   8  29  1   
 21   9  11  1   
 22   9  30  1   
 23   9  31  1   
 24  11  12  1   
 25  11  32  1   
 26  12  13  1   
 27  12  33  1   
 28  12  34  1   
 29  13  14  ar  
 30  13  15  ar  
 31  14  16  ar  
 32  14  35  1   
 33  15  17  ar  
 34  15  36  1   
 35  16  18  ar  
 36  16  19  1   
 37  17  18  ar  
 38  17  37  1   
 39  18  38  1   
 40  19  20  2   
 41  19  39  1   
 42  20  40  1   
 43  20  41  1   
@<TRIPOS>SUBSTRUCTURE
  1 ****   7 GROUP 4 **** **** 0

# MOE 2024.06 (io_trps.svl 2023.06)
