@<TRIPOS>MOLECULE
NONAME
60 64 1 0 0 
SMALL
USER_CHARGES


@<TRIPOS>ATOM
  1 O       -0.7320    -0.5300    -2.0650 O.2   1 <1>  -0.5700 
  2 C       -1.3120    -1.5290    -1.6750 C.2   1 <1>   0.6900 
  3 N       -2.3400    -1.5710    -0.7720 N.am  1 <1>  -0.4770 
  4 N       -1.0210    -2.7820    -2.0890 N.am  1 <1>  -0.5470 
  5 C       -2.7010    -2.9120    -0.6260 C.ar  1 <1>   0.1170 
  6 C       -2.9020    -0.3610    -0.1330 C.3   1 <1>   0.2200 
  7 C       -1.8740    -3.6610    -1.4480 C.ar  1 <1>   0.1170 
  8 C       -3.6660    -3.5580     0.1360 C.ar  1 <1>  -0.1500 
  9 C       -2.7080    -0.4080     1.3910 C.3   1 <1>  -0.1600 
 10 C       -4.3760    -0.1710    -0.5240 C.3   1 <1>  -0.1600 
 11 C       -1.9840    -5.0370    -1.5270 C.ar  1 <1>  -0.1500 
 12 C       -3.7770    -4.9350     0.0580 C.ar  1 <1>  -0.1500 
 13 C       -3.3090     0.8380     2.0630 C.3   1 <1>  -0.1600 
 14 C       -4.9720     1.0740     0.1540 C.3   1 <1>  -0.1600 
 15 C       -2.9410    -5.7100    -0.7660 C.ar  1 <1>   0.0860 
 16 C       -4.7800     1.0160     1.6730 C.3   1 <1>   0.2000 
 17 C       -3.0560    -7.1570    -0.8410 C.2   1 <1>   0.5440 
 18 O       -5.2300     2.1990     2.2110 O.3   1 <1>  -0.6800 
 19 O       -2.5960    -7.7690    -1.7850 O.2   1 <1>  -0.5700 
 20 N       -3.6770    -7.8730     0.1420 N.am  1 <1>  -0.7300 
 21 C       -3.8400    -9.3450     0.1520 C.3   1 <1>   0.2200 
 22 C       -5.2600    -9.6900    -0.2640 C.3   1 <1>  -0.0800 
 23 C       -3.8100    -9.8500     1.5900 C.3   1 <1>   0.1200 
 24 C       -6.0300    -9.5560     1.0560 C.3   1 <1>   0.1200 
 25 C       -5.3460   -11.1120    -0.8510 C.3   1 <1>  -0.0170 
 26 O       -5.0950    -9.6370     2.0940 O.3   1 <1>  -0.5600 
 27 C       -6.7620   -11.4430    -1.2990 C.ar  1 <1>  -0.1430 
 28 C       -7.3000   -10.9080    -2.4510 C.ar  1 <1>  -0.1500 
 29 C       -7.5800   -12.2920    -0.5810 C.ar  1 <1>  -0.1500 
 30 C       -8.5950   -11.2330    -2.8180 C.ar  1 <1>   0.1600 
 31 C       -8.8630   -12.5520    -1.0360 C.ar  1 <1>   0.1600 
 32 N       -9.3910   -12.0400    -2.1360 N.ar  1 <1>  -0.6200 
 33 H       -0.2940    -2.9770    -2.7730 H     1 <1>   0.3700 
 34 H       -2.3580     0.4940    -0.5010 H     1 <1>   0.0800 
 35 H       -4.3180    -2.9940     0.7760 H     1 <1>   0.1500 
 36 H       -3.1810    -1.2820     1.7980 H     1 <1>   0.0800 
 37 H       -1.6560    -0.4580     1.6120 H     1 <1>   0.0800 
 38 H       -4.4470    -0.0620    -1.5920 H     1 <1>   0.0800 
 39 H       -4.9500    -1.0310    -0.2340 H     1 <1>   0.0800 
 40 H       -1.3270    -5.5880    -2.1770 H     1 <1>   0.1500 
 41 H       -4.5350    -5.4210     0.6440 H     1 <1>   0.1500 
 42 H       -2.7460     1.7030     1.7580 H     1 <1>   0.0800 
 43 H       -3.2330     0.7390     3.1320 H     1 <1>   0.0800 
 44 H       -6.0220     1.1350    -0.0720 H     1 <1>   0.0800 
 45 H       -4.4850     1.9500    -0.2400 H     1 <1>   0.0800 
 46 H       -5.3740     0.2200     2.0920 H     1 <1>   0.0800 
 47 H       -4.7150     2.9460     1.8540 H     1 <1>   0.4000 
 48 H       -4.0550    -7.4110     0.9700 H     1 <1>   0.3700 
 49 H       -3.0880    -9.8140    -0.4610 H     1 <1>   0.0800 
 50 H       -5.6270    -8.9940    -0.9970 H     1 <1>   0.0800 
 51 H       -3.0900    -9.3320     2.1990 H     1 <1>   0.0800 
 52 H       -3.6180   -10.9080     1.6190 H     1 <1>   0.0800 
 53 H       -6.7690   -10.3260     1.1930 H     1 <1>   0.0800 
 54 H       -6.5050    -8.5920     1.1220 H     1 <1>   0.0800 
 55 H       -5.0170   -11.8370    -0.1280 H     1 <1>   0.0800 
 56 H       -4.6920   -11.1840    -1.7040 H     1 <1>   0.0800 
 57 H       -6.7240   -10.2420    -3.0680 H     1 <1>   0.1500 
 58 H       -7.2360   -12.7530     0.3260 H     1 <1>   0.1500 
 59 H       -8.9980   -10.8050    -3.7200 H     1 <1>   0.1500 
 60 H       -9.4880   -13.2150    -0.4630 H     1 <1>   0.1500 
@<TRIPOS>BOND
  1   1   2  2   
  2   2   3  am  
  3   2   4  am  
  4   3   5  1   
  5   3   6  1   
  6   4   7  1   
  7   4  33  1   
  8   5   7  ar  
  9   5   8  ar  
 10   6   9  1   
 11   6  10  1   
 12   6  34  1   
 13   7  11  ar  
 14   8  12  ar  
 15   8  35  1   
 16   9  13  1   
 17   9  36  1   
 18   9  37  1   
 19  10  14  1   
 20  10  38  1   
 21  10  39  1   
 22  11  15  ar  
 23  11  40  1   
 24  12  15  ar  
 25  12  41  1   
 26  13  16  1   
 27  13  42  1   
 28  13  43  1   
 29  14  16  1   
 30  14  44  1   
 31  14  45  1   
 32  15  17  1   
 33  16  18  1   
 34  16  46  1   
 35  17  19  2   
 36  17  20  am  
 37  18  47  1   
 38  20  21  1   
 39  20  48  1   
 40  21  22  1   
 41  21  23  1   
 42  21  49  1   
 43  22  24  1   
 44  22  25  1   
 45  22  50  1   
 46  23  26  1   
 47  23  51  1   
 48  23  52  1   
 49  24  26  1   
 50  24  53  1   
 51  24  54  1   
 52  25  27  1   
 53  25  55  1   
 54  25  56  1   
 55  27  28  ar  
 56  27  29  ar  
 57  28  30  ar  
 58  28  57  1   
 59  29  31  ar  
 60  29  58  1   
 61  30  32  ar  
 62  30  59  1   
 63  31  32  ar  
 64  31  60  1   
@<TRIPOS>SUBSTRUCTURE
  1 ****  12 GROUP 4 **** **** 0

# MOE 2024.06 (io_trps.svl 2023.06)
