@<TRIPOS>MOLECULE
NONAME
49 51 1 0 0 
SMALL
USER_CHARGES


@<TRIPOS>ATOM
  1 F       -1.0170    -0.8670    -0.4730 F     1 <1>  -0.1900 
  2 C       -2.1690    -1.4640    -0.3220 C.ar  1 <1>   0.1900 
  3 C       -2.8970    -1.8040    -1.4460 C.ar  1 <1>  -0.1500 
  4 C       -2.6160    -1.7340     0.9570 C.ar  1 <1>  -0.1500 
  5 C       -4.1180    -2.4360    -1.2780 C.ar  1 <1>  -0.1500 
  6 C       -3.8390    -2.3670     1.1110 C.ar  1 <1>  -0.1500 
  7 C       -4.5920    -2.7180    -0.0030 C.ar  1 <1>  -0.1430 
  8 C       -5.9360    -3.4070     0.1740 C.3   1 <1>  -0.0160 
  9 C       -7.0600    -2.3650     0.2720 C.3   1 <1>  -0.0990 
 10 C       -8.4420    -2.9680     0.4860 C.2   1 <1>   0.5690 
 11 O       -8.5710    -4.1650     0.3740 O.2   1 <1>  -0.5700 
 12 N       -9.5000    -2.1520     0.7980 N.am  1 <1>  -0.6600 
 13 C      -10.8660    -2.7160     1.0180 C.3   1 <1>   0.1400 
 14 C       -9.4050    -0.6630     0.8870 C.3   1 <1>   0.1400 
 15 C      -11.8840    -2.1800    -0.0270 C.3   1 <1>   0.0000 
 16 C      -10.7770     0.0110     0.7370 C.3   1 <1>  -0.1600 
 17 C      -13.3080    -2.4780     0.4990 C.3   1 <1>   0.2000 
 18 C      -11.6070    -0.6820    -0.3540 C.3   1 <1>  -0.1600 
 19 C      -11.8190    -3.0450    -1.2980 C.3   1 <1>  -0.1600 
 20 O      -14.2590    -1.7620    -0.2380 O.3   1 <1>  -0.5600 
 21 C      -13.5200    -3.9690     0.2150 C.3   1 <1>  -0.1600 
 22 C      -12.6630    -4.2950    -1.0150 C.3   1 <1>  -0.1600 
 23 C      -15.4630    -1.5250     0.4200 C.3   1 <1>   0.0400 
 24 H       -2.5140    -1.5780    -2.4240 H     1 <1>   0.1500 
 25 H       -2.0210    -1.4560     1.8070 H     1 <1>   0.1500 
 26 H       -4.6980    -2.7080    -2.1430 H     1 <1>   0.1500 
 27 H       -4.2020    -2.5850     2.1010 H     1 <1>   0.1500 
 28 H       -6.1210    -4.0640    -0.6580 H     1 <1>   0.0800 
 29 H       -5.9230    -4.0100     1.0660 H     1 <1>   0.0800 
 30 H       -7.0790    -1.7890    -0.6340 H     1 <1>   0.0800 
 31 H       -6.8420    -1.7050     1.0910 H     1 <1>   0.0800 
 32 H      -10.8380    -3.7910     0.9940 H     1 <1>   0.0800 
 33 H      -11.1810    -2.4330     2.0060 H     1 <1>   0.0800 
 34 H       -8.9660    -0.3870     1.8310 H     1 <1>   0.0800 
 35 H       -8.7660    -0.3050     0.0980 H     1 <1>   0.0800 
 36 H      -11.3050    -0.0220     1.6740 H     1 <1>   0.0800 
 37 H      -10.6350     1.0470     0.4850 H     1 <1>   0.0800 
 38 H      -13.4080    -2.2290     1.5430 H     1 <1>   0.0800 
 39 H      -11.0470    -0.6230    -1.2710 H     1 <1>   0.0800 
 40 H      -12.5170    -0.1340    -0.5140 H     1 <1>   0.0800 
 41 H      -12.2720    -2.5090    -2.1140 H     1 <1>   0.0800 
 42 H      -10.8070    -3.2950    -1.5680 H     1 <1>   0.0800 
 43 H      -13.1620    -4.5410     1.0530 H     1 <1>   0.0800 
 44 H      -14.5550    -4.2120     0.0550 H     1 <1>   0.0800 
 45 H      -12.0270    -5.1400    -0.8130 H     1 <1>   0.0800 
 46 H      -13.2840    -4.5210    -1.8650 H     1 <1>   0.0800 
 47 H      -16.1140    -1.0010    -0.2560 H     1 <1>   0.0800 
 48 H      -15.2770    -0.9170     1.2880 H     1 <1>   0.0800 
 49 H      -15.9110    -2.4620     0.7010 H     1 <1>   0.0800 
@<TRIPOS>BOND
  1   1   2  1   
  2   2   3  ar  
  3   2   4  ar  
  4   3   5  ar  
  5   3  24  1   
  6   4   6  ar  
  7   4  25  1   
  8   5   7  ar  
  9   5  26  1   
 10   6   7  ar  
 11   6  27  1   
 12   7   8  1   
 13   8   9  1   
 14   8  28  1   
 15   8  29  1   
 16   9  10  1   
 17   9  30  1   
 18   9  31  1   
 19  10  11  2   
 20  10  12  am  
 21  12  13  1   
 22  12  14  1   
 23  13  15  1   
 24  13  32  1   
 25  13  33  1   
 26  14  16  1   
 27  14  34  1   
 28  14  35  1   
 29  15  17  1   
 30  15  18  1   
 31  15  19  1   
 32  16  18  1   
 33  16  36  1   
 34  16  37  1   
 35  17  20  1   
 36  17  21  1   
 37  17  38  1   
 38  18  39  1   
 39  18  40  1   
 40  19  22  1   
 41  19  41  1   
 42  19  42  1   
 43  20  23  1   
 44  21  22  1   
 45  21  43  1   
 46  21  44  1   
 47  22  45  1   
 48  22  46  1   
 49  23  47  1   
 50  23  48  1   
 51  23  49  1   
@<TRIPOS>SUBSTRUCTURE
  1 ****  10 GROUP 4 **** **** 0

# MOE 2024.06 (io_trps.svl 2023.06)
