@<TRIPOS>MOLECULE
NONAME
50 53 1 0 0 
SMALL
USER_CHARGES


@<TRIPOS>ATOM
  1 O       -0.3220    -0.9350     1.2910 O.2   1 <1>  -0.5700 
  2 C       -0.5450    -1.9730     0.7220 C.2   1 <1>   0.4230 
  3 C       -1.8740    -2.4020     0.3640 C.ar  1 <1>   0.0860 
  4 C        0.6630    -2.8290     0.3910 C.3   1 <1>  -0.1790 
  5 C       -2.1410    -3.6140    -0.2790 C.ar  1 <1>   0.1600 
  6 C       -2.9830    -1.6090     0.6470 C.ar  1 <1>  -0.1500 
  7 N       -3.3260    -4.0690    -0.6320 N.ar  1 <1>  -0.6200 
  8 C       -4.2270    -2.0660     0.2880 C.ar  1 <1>  -0.1500 
  9 C       -4.3720    -3.3010    -0.3420 C.ar  1 <1>   0.4100 
 10 N       -5.6210    -3.7700    -0.6880 N.pl3 1 <1>  -0.8380 
 11 C       -5.8170    -4.6910    -1.8430 C.3   1 <1>   0.2090 
 12 C       -6.7630    -3.7380     0.2630 C.3   1 <1>   0.2090 
 13 C       -6.0760    -6.1100    -1.3350 C.3   1 <1>  -0.1600 
 14 C       -7.0200    -5.1480     0.7950 C.3   1 <1>  -0.1600 
 15 C       -7.2510    -6.1590    -0.3440 C.3   1 <1>   0.4240 
 16 O       -8.3500    -5.6860    -1.0950 O.3   1 <1>  -0.5600 
 17 C       -7.5010    -7.6050     0.1790 C.ar  1 <1>  -0.1430 
 18 C       -9.6270    -6.0030    -0.6510 C.3   1 <1>   0.1200 
 19 C       -6.5330    -8.3180     0.9000 C.ar  1 <1>   0.0830 
 20 C       -8.7240    -8.2320    -0.0670 C.ar  1 <1>  -0.1430 
 21 C       -9.8200    -7.5010    -0.8140 C.3   1 <1>  -0.0170 
 22 O       -5.3450    -7.7200     1.1750 O.3   1 <1>  -0.3630 
 23 C       -6.7930    -9.6170     1.3340 C.ar  1 <1>  -0.1500 
 24 C       -8.9690    -9.5240     0.3650 C.ar  1 <1>  -0.1500 
 25 C       -4.2400    -8.4180     1.7020 C.3   1 <1>   0.0400 
 26 C       -8.0050   -10.2180     1.0640 C.ar  1 <1>  -0.1500 
 27 H        0.5910    -3.7790     0.8880 H     1 <1>   0.0800 
 28 H        1.5590    -2.3380     0.7250 H     1 <1>   0.0800 
 29 H        0.7330    -2.9760    -0.6710 H     1 <1>   0.0800 
 30 H       -1.3160    -4.2580    -0.5230 H     1 <1>   0.1500 
 31 H       -2.8590    -0.6570     1.1350 H     1 <1>   0.1500 
 32 H       -5.0990    -1.4730     0.4770 H     1 <1>   0.1500 
 33 H       -4.9500    -4.6830    -2.4800 H     1 <1>   0.0800 
 34 H       -6.6560    -4.3490    -2.4250 H     1 <1>   0.0800 
 35 H       -7.6360    -3.3670    -0.2460 H     1 <1>   0.0800 
 36 H       -6.5490    -3.0840     1.0900 H     1 <1>   0.0800 
 37 H       -5.1710    -6.4520    -0.8750 H     1 <1>   0.0800 
 38 H       -6.2830    -6.7620    -2.1610 H     1 <1>   0.0800 
 39 H       -7.8590    -5.1460     1.4620 H     1 <1>   0.0800 
 40 H       -6.1630    -5.4330     1.3720 H     1 <1>   0.0800 
 41 H      -10.3320    -5.4620    -1.2580 H     1 <1>   0.0800 
 42 H       -9.7350    -5.7030     0.3760 H     1 <1>   0.0800 
 43 H       -9.7840    -7.7580    -1.8580 H     1 <1>   0.0800 
 44 H      -10.7850    -7.7770    -0.4280 H     1 <1>   0.0800 
 45 H       -6.0660   -10.1780     1.8870 H     1 <1>   0.1500 
 46 H       -9.9150    -9.9950     0.1600 H     1 <1>   0.1500 
 47 H       -3.4040    -7.7430     1.7280 H     1 <1>   0.0800 
 48 H       -4.0160    -9.2520     1.0600 H     1 <1>   0.0800 
 49 H       -4.4760    -8.7470     2.6980 H     1 <1>   0.0800 
 50 H       -8.1980   -11.2220     1.3990 H     1 <1>   0.1500 
@<TRIPOS>BOND
  1   1   2  2   
  2   2   3  1   
  3   2   4  1   
  4   3   5  ar  
  5   3   6  ar  
  6   4  27  1   
  7   4  28  1   
  8   4  29  1   
  9   5   7  ar  
 10   5  30  1   
 11   6   8  ar  
 12   6  31  1   
 13   7   9  ar  
 14   8   9  ar  
 15   8  32  1   
 16   9  10  1   
 17  10  11  1   
 18  10  12  1   
 19  11  13  1   
 20  11  33  1   
 21  11  34  1   
 22  12  14  1   
 23  12  35  1   
 24  12  36  1   
 25  13  15  1   
 26  13  37  1   
 27  13  38  1   
 28  14  15  1   
 29  14  39  1   
 30  14  40  1   
 31  15  16  1   
 32  15  17  1   
 33  16  18  1   
 34  17  19  ar  
 35  17  20  ar  
 36  18  21  1   
 37  18  41  1   
 38  18  42  1   
 39  19  22  1   
 40  19  23  ar  
 41  20  21  1   
 42  20  24  ar  
 43  21  43  1   
 44  21  44  1   
 45  22  25  1   
 46  23  26  ar  
 47  23  45  1   
 48  24  26  ar  
 49  24  46  1   
 50  25  47  1   
 51  25  48  1   
 52  25  49  1   
 53  26  50  1   
@<TRIPOS>SUBSTRUCTURE
  1 ****  14 GROUP 4 **** **** 0

# MOE 2024.06 (io_trps.svl 2023.06)
