@<TRIPOS>MOLECULE
NONAME
49 52 1 0 0 
SMALL
USER_CHARGES


@<TRIPOS>ATOM
  1 S       -0.6320     1.1460    -0.0650 S.o2  1 <1>   1.5010 
  2 O       -1.0860     2.1440     0.8800 O.2   1 <1>  -0.6500 
  3 O       -0.8600     1.3480    -1.4800 O.2   1 <1>  -0.6500 
  4 N       -1.3770    -0.3180     0.3570 N.am  1 <1>  -0.8490 
  5 C        1.1060     0.8030     0.2350 C.2   1 <1>  -0.0630 
  6 C       -1.0950    -1.3800    -0.6170 C.3   1 <1>   0.1960 
  7 C       -2.8240    -0.1520     0.5200 C.3   1 <1>   0.1960 
  8 C        1.5830     0.1550     1.3660 C.2   1 <1>   0.1390 
  9 C        2.2290     1.0740    -0.4770 C.2   1 <1>  -0.3020 
 10 C       -1.6330    -2.7140    -0.0990 C.3   1 <1>  -0.1600 
 11 C       -3.4340    -1.4380     1.0790 C.3   1 <1>  -0.1600 
 12 N        2.8750     0.0200     1.3620 N.2   1 <1>  -0.7070 
 13 N        3.2750     0.5950     0.2190 N.pl3 1 <1>   0.3140 
 14 C       -3.1410    -2.6390     0.1680 C.3   1 <1>   0.4240 
 15 C        4.6940     0.6620    -0.1500 C.3   1 <1>   0.0160 
 16 O       -3.7240    -2.3860    -1.0880 O.3   1 <1>  -0.5600 
 17 C       -3.6540    -3.9590     0.7850 C.ar  1 <1>  -0.1430 
 18 C       -5.0720    -2.7000    -1.2490 C.3   1 <1>   0.1200 
 19 C       -4.6470    -4.7060     0.1590 C.ar  1 <1>  -0.1430 
 20 C       -3.1340    -4.4260     1.9880 C.ar  1 <1>  -0.1500 
 21 C       -5.2410    -4.2120    -1.1450 C.3   1 <1>  -0.0170 
 22 C       -5.0990    -5.8920     0.7170 C.ar  1 <1>  -0.1500 
 23 C       -3.5860    -5.6070     2.5460 C.ar  1 <1>  -0.1500 
 24 C       -4.5680    -6.3510     1.9170 C.ar  1 <1>   0.0830 
 25 O       -4.9540    -7.4990     2.5290 O.3   1 <1>  -0.3630 
 26 C       -5.9330    -8.3390     1.9600 C.3   1 <1>   0.0400 
 27 H       -0.0320    -1.4690    -0.7660 H     1 <1>   0.0800 
 28 H       -1.5470    -1.1430    -1.5680 H     1 <1>   0.0800 
 29 H       -3.2760     0.0990    -0.4270 H     1 <1>   0.0800 
 30 H       -3.0260     0.6500     1.2110 H     1 <1>   0.0800 
 31 H        0.9500    -0.2010     2.1630 H     1 <1>   0.1500 
 32 H        2.3240     1.5750    -1.4230 H     1 <1>   0.1500 
 33 H       -1.1040    -2.9630     0.8010 H     1 <1>   0.0800 
 34 H       -1.4420    -3.4910    -0.8150 H     1 <1>   0.0800 
 35 H       -4.4920    -1.3200     1.2080 H     1 <1>   0.0800 
 36 H       -3.0140    -1.6110     2.0520 H     1 <1>   0.0800 
 37 H        4.7940     1.0850    -1.1310 H     1 <1>   0.0800 
 38 H        5.1040    -0.3300    -0.1360 H     1 <1>   0.0800 
 39 H        5.2100     1.2730     0.5670 H     1 <1>   0.0800 
 40 H       -5.3780    -2.3530    -2.2200 H     1 <1>   0.0800 
 41 H       -5.6480    -2.1930    -0.4960 H     1 <1>   0.0800 
 42 H       -2.3700    -3.8730     2.5050 H     1 <1>   0.1500 
 43 H       -4.7430    -4.6860    -1.9720 H     1 <1>   0.0800 
 44 H       -6.2860    -4.4550    -1.1950 H     1 <1>   0.0800 
 45 H       -5.8620    -6.4480     0.2070 H     1 <1>   0.1500 
 46 H       -3.1780    -5.9620     3.4760 H     1 <1>   0.1500 
 47 H       -6.0660    -9.1840     2.6110 H     1 <1>   0.0800 
 48 H       -5.5900    -8.6710     0.9960 H     1 <1>   0.0800 
 49 H       -6.8560    -7.7930     1.8760 H     1 <1>   0.0800 
@<TRIPOS>BOND
  1   1   2  2   
  2   1   3  2   
  3   1   4  am  
  4   1   5  1   
  5   4   6  1   
  6   4   7  1   
  7   5   8  1   
  8   5   9  2   
  9   6  10  1   
 10   6  27  1   
 11   6  28  1   
 12   7  11  1   
 13   7  29  1   
 14   7  30  1   
 15   8  12  2   
 16   8  31  1   
 17   9  13  1   
 18   9  32  1   
 19  10  14  1   
 20  10  33  1   
 21  10  34  1   
 22  11  14  1   
 23  11  35  1   
 24  11  36  1   
 25  12  13  1   
 26  13  15  1   
 27  14  16  1   
 28  14  17  1   
 29  15  37  1   
 30  15  38  1   
 31  15  39  1   
 32  16  18  1   
 33  17  19  ar  
 34  17  20  ar  
 35  18  21  1   
 36  18  40  1   
 37  18  41  1   
 38  19  21  1   
 39  19  22  ar  
 40  20  23  ar  
 41  20  42  1   
 42  21  43  1   
 43  21  44  1   
 44  22  24  ar  
 45  22  45  1   
 46  23  24  ar  
 47  23  46  1   
 48  24  25  1   
 49  25  26  1   
 50  26  47  1   
 51  26  48  1   
 52  26  49  1   
@<TRIPOS>SUBSTRUCTURE
  1 ****  10 GROUP 4 **** **** 0

# MOE 2024.06 (io_trps.svl 2023.06)
