@<TRIPOS>MOLECULE
NONAME
52 55 1 0 0 
SMALL
USER_CHARGES


@<TRIPOS>ATOM
  1 O       -2.0240     2.1210    -2.4610 O.2   1 <1>  -0.5700 
  2 C       -2.2120     1.6520    -1.3510 C.2   1 <1>   0.7160 
  3 N       -2.4130     0.2950    -1.2160 N.am  1 <1>  -0.6600 
  4 C       -2.1580     2.5000    -0.2060 C.2   1 <1>  -0.0860 
  5 C       -2.2730    -0.6220    -2.3850 C.3   1 <1>   0.1400 
  6 C       -2.7650    -0.3070     0.1040 C.3   1 <1>   0.1400 
  7 C       -3.2120     3.2410     0.3300 C.2   1 <1>   0.3720 
  8 C       -1.1340     2.7260     0.6560 C.2   1 <1>   0.0870 
  9 C       -1.7130    -1.9630    -1.9110 C.3   1 <1>  -0.1600 
 10 C       -3.4910    -1.6380    -0.0950 C.3   1 <1>  -0.1600 
 11 N       -2.8480     3.8430     1.4090 N.2   1 <1>  -0.4100 
 12 N       -4.5040     3.2990    -0.2080 N.pl3 1 <1>  -0.8210 
 13 O       -1.5920     3.5240     1.5850 O.3   1 <1>  -0.0190 
 14 C        0.2200     2.2330     0.6970 C.ar  1 <1>   0.0530 
 15 C       -2.6520    -2.6630    -0.8970 C.3   1 <1>   0.2000 
 16 C       -4.6160     4.0380    -1.5070 C.3   1 <1>   0.2090 
 17 C       -5.6090     3.6820     0.7290 C.3   1 <1>   0.2090 
 18 C        0.8780     2.0560     1.9140 C.ar  1 <1>  -0.1500 
 19 C        0.9180     1.9050    -0.4660 C.ar  1 <1>  -0.1500 
 20 C       -3.5920    -3.5760    -1.6330 C.1   1 <1>   0.3570 
 21 C       -1.7960    -3.5070     0.0670 C.3   1 <1>  -0.2400 
 22 C       -4.8420     5.5460    -1.2890 C.3   1 <1>   0.1200 
 23 C       -5.7880     5.2100     0.8200 C.3   1 <1>   0.1200 
 24 C        2.1680     1.5620     1.9710 C.ar  1 <1>  -0.1500 
 25 C        2.2080     1.4090    -0.4150 C.ar  1 <1>  -0.1500 
 26 N       -4.3060    -4.2590    -2.1980 N.1   1 <1>  -0.5570 
 27 O       -5.9410     5.7720    -0.4530 O.3   1 <1>  -0.5600 
 28 C        2.8360     1.2350     0.8050 C.ar  1 <1>  -0.1500 
 29 H       -1.6050    -0.1930    -3.1140 H     1 <1>   0.0800 
 30 H       -3.2350    -0.7560    -2.8500 H     1 <1>   0.0800 
 31 H       -3.4070     0.3640     0.6510 H     1 <1>   0.0800 
 32 H       -1.8640    -0.4570     0.6750 H     1 <1>   0.0800 
 33 H       -0.7530    -1.7700    -1.4640 H     1 <1>   0.0800 
 34 H       -1.5390    -2.5990    -2.7620 H     1 <1>   0.0800 
 35 H       -4.4100    -1.4220    -0.6150 H     1 <1>   0.0800 
 36 H       -3.7670    -2.0450     0.8610 H     1 <1>   0.0800 
 37 H       -5.4390     3.6350    -2.0720 H     1 <1>   0.0800 
 38 H       -3.7250     3.9050    -2.0930 H     1 <1>   0.0800 
 39 H       -5.4100     3.2870     1.7100 H     1 <1>   0.0800 
 40 H       -6.5280     3.2430     0.3830 H     1 <1>   0.0800 
 41 H        0.3720     2.3090     2.8290 H     1 <1>   0.1500 
 42 H        0.4550     2.0450    -1.4260 H     1 <1>   0.1500 
 43 H       -1.1340    -2.8800     0.6390 H     1 <1>   0.0800 
 44 H       -1.2030    -4.2170    -0.4820 H     1 <1>   0.0800 
 45 H       -2.4230    -4.0530     0.7510 H     1 <1>   0.0800 
 46 H       -5.0380     6.0300    -2.2290 H     1 <1>   0.0800 
 47 H       -3.9700     5.9940    -0.8430 H     1 <1>   0.0800 
 48 H       -4.9350     5.6610     1.2970 H     1 <1>   0.0800 
 49 H       -6.6670     5.4470     1.3920 H     1 <1>   0.0800 
 50 H        2.6560     1.4340     2.9220 H     1 <1>   0.1500 
 51 H        2.7270     1.1630    -1.3260 H     1 <1>   0.1500 
 52 H        3.8410     0.8510     0.8460 H     1 <1>   0.1500 
@<TRIPOS>BOND
  1   1   2  2   
  2   2   3  am  
  3   2   4  1   
  4   3   5  1   
  5   3   6  1   
  6   4   7  1   
  7   4   8  2   
  8   5   9  1   
  9   5  29  1   
 10   5  30  1   
 11   6  10  1   
 12   6  31  1   
 13   6  32  1   
 14   7  11  2   
 15   7  12  1   
 16   8  13  1   
 17   8  14  1   
 18   9  15  1   
 19   9  33  1   
 20   9  34  1   
 21  10  15  1   
 22  10  35  1   
 23  10  36  1   
 24  11  13  1   
 25  12  16  1   
 26  12  17  1   
 27  14  18  ar  
 28  14  19  ar  
 29  15  20  1   
 30  15  21  1   
 31  16  22  1   
 32  16  37  1   
 33  16  38  1   
 34  17  23  1   
 35  17  39  1   
 36  17  40  1   
 37  18  24  ar  
 38  18  41  1   
 39  19  25  ar  
 40  19  42  1   
 41  20  26  3   
 42  21  43  1   
 43  21  44  1   
 44  21  45  1   
 45  22  27  1   
 46  22  46  1   
 47  22  47  1   
 48  23  27  1   
 49  23  48  1   
 50  23  49  1   
 51  24  28  ar  
 52  24  50  1   
 53  25  28  ar  
 54  25  51  1   
 55  28  52  1   
@<TRIPOS>SUBSTRUCTURE
  1 ****   4 GROUP 4 **** **** 0

# MOE 2024.06 (io_trps.svl 2023.06)
