@<TRIPOS>MOLECULE
NONAME
46 48 1 0 0 
SMALL
USER_CHARGES


@<TRIPOS>ATOM
  1 O        1.3150     0.4330     0.5420 O.3   1 <1>  -0.0190 
  2 N        1.8730    -0.7140     0.6560 N.2   1 <1>  -0.4100 
  3 C        2.1870     1.3230     0.1530 C.2   1 <1>   0.4250 
  4 C        3.0850    -0.4860     0.3280 C.2   1 <1>   0.3350 
  5 N        3.3450     0.7810    -0.0010 N.2   1 <1>  -0.5650 
  6 C        1.8080     2.7020    -0.0510 C.ar  1 <1>   0.0530 
  7 C        4.1760    -1.5290     0.2970 C.3   1 <1>  -0.0590 
  8 C        2.7140     3.6660    -0.4530 C.ar  1 <1>  -0.1500 
  9 C        0.5120     3.1700     0.1380 C.ar  1 <1>  -0.1500 
 10 C        2.3280     4.9850    -0.6440 C.ar  1 <1>   0.4100 
 11 C        0.2160     4.5020    -0.0740 C.ar  1 <1>   0.1600 
 12 N        1.0870     5.4160    -0.4590 N.ar  1 <1>  -0.6200 
 13 N        3.2650     5.9090    -1.0610 N.pl3 1 <1>  -0.8380 
 14 C        3.2380     7.2550    -0.4330 C.3   1 <1>   0.2090 
 15 C        3.6030     5.8940    -2.5090 C.3   1 <1>   0.1290 
 16 C        4.6660     7.7500    -0.2050 C.3   1 <1>  -0.1600 
 17 C        4.6800     9.0750     0.5630 C.3   1 <1>   0.0210 
 18 C        6.1070     9.5610     0.7490 C.2   1 <1>  -0.1810 
 19 C        6.8140    10.4170    -0.0930 C.2   1 <1>   0.1080 
 20 C        6.9700     9.2710     1.7470 C.2   1 <1>  -0.3320 
 21 N        8.0140    10.6500     0.3360 N.2   1 <1>  -0.7070 
 22 C        6.2910    11.0340    -1.3710 C.3   1 <1>  -0.0590 
 23 N        8.1090     9.9410     1.4740 N.pl3 1 <1>   0.3000 
 24 C        6.8020     8.3810     2.9670 C.3   1 <1>  -0.0600 
 25 H        3.7830    -2.4840     0.5910 H     1 <1>   0.0800 
 26 H        4.9620    -1.2470     0.9730 H     1 <1>   0.0800 
 27 H        4.5750    -1.6020    -0.6970 H     1 <1>   0.0800 
 28 H        3.7420     3.4080    -0.6220 H     1 <1>   0.1500 
 29 H       -0.2670     2.4980     0.4510 H     1 <1>   0.1500 
 30 H       -0.7960     4.8370     0.0800 H     1 <1>   0.1500 
 31 H        2.7290     7.1950     0.5150 H     1 <1>   0.0800 
 32 H        2.6930     7.9390    -1.0620 H     1 <1>   0.0800 
 33 H        3.3640     4.9370    -2.9390 H     1 <1>   0.0800 
 34 H        4.6560     6.0760    -2.6400 H     1 <1>   0.0800 
 35 H        3.0420     6.6530    -3.0260 H     1 <1>   0.0800 
 36 H        5.1600     7.8860    -1.1490 H     1 <1>   0.0800 
 37 H        5.2070     7.0120     0.3600 H     1 <1>   0.0800 
 38 H        4.2210     8.9420     1.5260 H     1 <1>   0.0800 
 39 H        4.1130     9.8190     0.0310 H     1 <1>   0.0800 
 40 H        5.8160    10.2840    -1.9750 H     1 <1>   0.0800 
 41 H        7.1050    11.4630    -1.9260 H     1 <1>   0.0800 
 42 H        5.5840    11.8060    -1.1350 H     1 <1>   0.0800 
 43 H        8.9660     9.9340     2.0390 H     1 <1>   0.2700 
 44 H        5.8340     7.9150     2.9660 H     1 <1>   0.0800 
 45 H        6.9000     8.9630     3.8660 H     1 <1>   0.0800 
 46 H        7.5490     7.6070     2.9660 H     1 <1>   0.0800 
@<TRIPOS>BOND
  1   1   2  1   
  2   1   3  1   
  3   2   4  2   
  4   3   5  2   
  5   3   6  1   
  6   4   5  1   
  7   4   7  1   
  8   6   8  ar  
  9   6   9  ar  
 10   7  25  1   
 11   7  26  1   
 12   7  27  1   
 13   8  10  ar  
 14   8  28  1   
 15   9  11  ar  
 16   9  29  1   
 17  10  12  ar  
 18  10  13  1   
 19  11  12  ar  
 20  11  30  1   
 21  13  14  1   
 22  13  15  1   
 23  14  16  1   
 24  14  31  1   
 25  14  32  1   
 26  15  33  1   
 27  15  34  1   
 28  15  35  1   
 29  16  17  1   
 30  16  36  1   
 31  16  37  1   
 32  17  18  1   
 33  17  38  1   
 34  17  39  1   
 35  18  19  1   
 36  18  20  2   
 37  19  21  2   
 38  19  22  1   
 39  20  23  1   
 40  20  24  1   
 41  21  23  1   
 42  22  40  1   
 43  22  41  1   
 44  22  42  1   
 45  23  43  1   
 46  24  44  1   
 47  24  45  1   
 48  24  46  1   
@<TRIPOS>SUBSTRUCTURE
  1 ****  13 GROUP 4 **** **** 0

# MOE 2024.06 (io_trps.svl 2023.06)
