@<TRIPOS>MOLECULE
NONAME
50 52 1 0 0 
SMALL
USER_CHARGES


@<TRIPOS>ATOM
  1 S        0.8950     1.3800    -1.3560 S.o2  1 <1>   1.3330 
  2 O        1.3170     2.7490    -1.5620 O.2   1 <1>  -0.6500 
  3 O        1.0010     0.4140    -2.4180 O.2   1 <1>  -0.6500 
  4 N        1.7660     0.7890    -0.0220 N.am  1 <1>  -0.8490 
  5 C       -0.7930     1.4220    -0.7290 C.3   1 <1>  -0.0550 
  6 C        3.1930     1.1260    -0.1060 C.3   1 <1>   0.1160 
  7 C        1.6530    -0.6730     0.1280 C.3   1 <1>   0.1160 
  8 C       -1.1560     2.5900     0.2270 C.3   1 <1>  -0.0800 
  9 C       -1.3870     3.9060    -0.5360 C.3   1 <1>   0.2000 
 10 C       -0.0880     2.9250     1.2800 C.3   1 <1>   0.3430 
 11 O       -2.6830     4.3480    -0.3180 O.3   1 <1>  -0.6800 
 12 C       -0.3710     4.9200     0.0040 C.3   1 <1>   0.3430 
 13 N        0.6260     4.1100     0.7560 N.4   1 <1>  -0.9590 
 14 C        1.4460     4.8600     1.7420 C.3   1 <1>   0.4860 
 15 C        1.9780     6.1260     1.0990 C.ar  1 <1>  -0.1440 
 16 C        2.9060     6.0470     0.0550 C.ar  1 <1>   0.0820 
 17 C        1.5220     7.3620     1.5470 C.ar  1 <1>  -0.1500 
 18 O        3.2960     4.8050    -0.3390 O.3   1 <1>  -0.3630 
 19 C        3.3850     7.2100    -0.5520 C.ar  1 <1>  -0.1500 
 20 C        2.0060     8.4940     0.9250 C.ar  1 <1>   0.0820 
 21 C        3.9880     4.6290    -1.5610 C.3   1 <1>   0.0400 
 22 C        2.9100     8.4190    -0.0930 C.ar  1 <1>   0.0820 
 23 O        1.7020     9.7700     1.1810 O.3   1 <1>  -0.3630 
 24 O        3.2170     9.6450    -0.5240 O.3   1 <1>  -0.3620 
 25 C        2.4690    10.5610     0.2740 C.3   1 <1>   0.4000 
 26 H       -1.4650     1.4580    -1.5670 H     1 <1>   0.0800 
 27 H       -0.9920     0.4960    -0.2280 H     1 <1>   0.0800 
 28 H        3.7280     0.7100     0.7320 H     1 <1>   0.0800 
 29 H        3.3250     2.1920    -0.0870 H     1 <1>   0.0800 
 30 H        3.6180     0.7400    -1.0190 H     1 <1>   0.0800 
 31 H        2.1660    -0.9960     1.0180 H     1 <1>   0.0800 
 32 H        2.0870    -1.1760    -0.7220 H     1 <1>   0.0800 
 33 H        0.6220    -0.9700     0.2090 H     1 <1>   0.0800 
 34 H       -2.0550     2.3000     0.7420 H     1 <1>   0.0800 
 35 H       -1.2580     3.7910    -1.6000 H     1 <1>   0.0800 
 36 H        0.5830     2.1030     1.4670 H     1 <1>   0.0800 
 37 H       -0.5780     3.1850     2.2050 H     1 <1>   0.0800 
 38 H       -2.9180     4.4150     0.6290 H     1 <1>   0.4000 
 39 H       -0.8620     5.6160     0.6630 H     1 <1>   0.0800 
 40 H        0.1060     5.4550    -0.8020 H     1 <1>   0.0800 
 41 H        1.3000     3.7890     0.0230 H     1 <1>   0.4500 
 42 H        0.8490     5.1170     2.6010 H     1 <1>   0.0800 
 43 H        2.2750     4.2510     2.0680 H     1 <1>   0.0800 
 44 H        0.8140     7.4680     2.3490 H     1 <1>   0.1500 
 45 H        4.1010     7.2080    -1.3510 H     1 <1>   0.1500 
 46 H        4.0900     3.5760    -1.7480 H     1 <1>   0.0800 
 47 H        4.9620     5.0790    -1.4820 H     1 <1>   0.0800 
 48 H        3.4190     5.0800    -2.3560 H     1 <1>   0.0800 
 49 H        3.1420    11.1930     0.8250 H     1 <1>   0.0800 
 50 H        1.8100    11.1330    -0.3550 H     1 <1>   0.0800 
@<TRIPOS>BOND
  1   1   2  2   
  2   1   3  2   
  3   1   4  am  
  4   1   5  1   
  5   4   6  1   
  6   4   7  1   
  7   5   8  1   
  8   5  26  1   
  9   5  27  1   
 10   6  28  1   
 11   6  29  1   
 12   6  30  1   
 13   7  31  1   
 14   7  32  1   
 15   7  33  1   
 16   8   9  1   
 17   8  10  1   
 18   8  34  1   
 19   9  11  1   
 20   9  12  1   
 21   9  35  1   
 22  10  13  1   
 23  10  36  1   
 24  10  37  1   
 25  11  38  1   
 26  12  13  1   
 27  12  39  1   
 28  12  40  1   
 29  13  14  1   
 30  13  41  1   
 31  14  15  1   
 32  14  42  1   
 33  14  43  1   
 34  15  16  ar  
 35  15  17  ar  
 36  16  18  1   
 37  16  19  ar  
 38  17  20  ar  
 39  17  44  1   
 40  18  21  1   
 41  19  22  ar  
 42  19  45  1   
 43  20  22  ar  
 44  20  23  1   
 45  21  46  1   
 46  21  47  1   
 47  21  48  1   
 48  22  24  1   
 49  23  25  1   
 50  24  25  1   
 51  25  49  1   
 52  25  50  1   
@<TRIPOS>SUBSTRUCTURE
  1 ****  13 GROUP 4 **** **** 0

# MOE 2024.06 (io_trps.svl 2023.06)
