@<TRIPOS>MOLECULE
NONAME
50 54 1 0 0 
SMALL
USER_CHARGES


@<TRIPOS>ATOM
  1 O        0.8460    -0.3610     1.0290 O.3   1 <1>  -0.5600 
  2 C        1.9420    -0.9690     0.3790 C.3   1 <1>   0.4240 
  3 C       -0.4270    -0.6220     0.5390 C.3   1 <1>   0.1200 
  4 C        1.6180    -2.4300    -0.0460 C.ar  1 <1>  -0.1440 
  5 C        3.0570    -0.9290     1.4380 C.3   1 <1>  -0.1600 
  6 C        2.3020    -0.0690    -0.8200 C.3   1 <1>  -0.1600 
  7 C       -0.7380    -2.0870     0.7960 C.3   1 <1>  -0.0160 
  8 C        2.5700    -3.2610    -0.6540 C.ar  1 <1>   0.0830 
  9 C        0.3410    -2.9480     0.1720 C.ar  1 <1>  -0.1440 
 10 C        3.4050     0.5060     1.8330 C.3   1 <1>   0.2090 
 11 C        2.6760     1.3470    -0.3810 C.3   1 <1>   0.2090 
 12 O        3.8150    -2.7720    -0.9040 O.3   1 <1>  -0.3630 
 13 C        2.2390    -4.5700    -1.0000 C.ar  1 <1>  -0.1500 
 14 C        0.0240    -4.2500    -0.1780 C.ar  1 <1>  -0.1500 
 15 N        3.7910     1.2610     0.6070 N.pl3 1 <1>  -0.8380 
 16 C        4.7390    -3.4480    -1.7300 C.3   1 <1>   0.0400 
 17 C        0.9730    -5.0630    -0.7620 C.ar  1 <1>  -0.1500 
 18 C        5.0120     1.8400     0.4030 C.2   1 <1>   0.2710 
 19 N        5.0410     2.9460    -0.3540 N.2   1 <1>  -0.6210 
 20 C        6.1630     1.3160     0.9400 C.2   1 <1>  -0.1410 
 21 C        6.1740     3.5300    -0.5630 C.2   1 <1>   0.9190 
 22 C        7.3380     1.9760     0.6800 C.cat 1 <1>   0.7910 
 23 N        7.3450     3.0790    -0.0630 N.pl3 1 <1>  -0.6690 
 24 N        6.1770     4.6320    -1.3090 N.pl3 1 <1>  -0.8500 
 25 N        8.6140     1.7480     1.0300 N.pl3 1 <1>  -0.3930 
 26 C        8.6560     3.4750    -0.1330 C.2   1 <1>   0.5030 
 27 N        9.4410     2.6960     0.5130 N.2   1 <1>  -0.2600 
 28 H       -0.4630    -0.3920    -0.5110 H     1 <1>   0.0800 
 29 H       -1.1210     0.0100     1.0650 H     1 <1>   0.0800 
 30 H        3.9490    -1.3970     1.0750 H     1 <1>   0.0800 
 31 H        2.7340    -1.4790     2.3030 H     1 <1>   0.0800 
 32 H        1.4860    -0.0360    -1.5150 H     1 <1>   0.0800 
 33 H        3.1420    -0.4720    -1.3490 H     1 <1>   0.0800 
 34 H       -1.6970    -2.3230     0.3720 H     1 <1>   0.0800 
 35 H       -0.7800    -2.2660     1.8550 H     1 <1>   0.0800 
 36 H        4.1970     0.5110     2.5590 H     1 <1>   0.0800 
 37 H        2.5490     0.9800     2.2840 H     1 <1>   0.0800 
 38 H        1.8310     1.8330     0.0750 H     1 <1>   0.0800 
 39 H        2.9660     1.9190    -1.2440 H     1 <1>   0.0800 
 40 H        2.9530    -5.2290    -1.4540 H     1 <1>   0.1500 
 41 H       -0.9630    -4.6370     0.0040 H     1 <1>   0.1500 
 42 H        5.5930    -2.8110    -1.8670 H     1 <1>   0.0800 
 43 H        4.2770    -3.6480    -2.6810 H     1 <1>   0.0800 
 44 H        5.0380    -4.3600    -1.2460 H     1 <1>   0.0800 
 45 H        0.7240    -6.0750    -1.0300 H     1 <1>   0.1500 
 46 H        6.1530     0.4190     1.5240 H     1 <1>   0.1500 
 47 H        5.2730     4.9580    -1.6570 H     1 <1>   0.4000 
 48 H        6.9730     5.2240    -1.5150 H     1 <1>   0.4000 
 49 H        8.9450     0.9660     1.6070 H     1 <1>   0.4500 
 50 H        8.9720     4.3500    -0.6800 H     1 <1>   0.1500 
@<TRIPOS>BOND
  1   1   2  1   
  2   1   3  1   
  3   2   4  1   
  4   2   5  1   
  5   2   6  1   
  6   3   7  1   
  7   3  28  1   
  8   3  29  1   
  9   4   8  ar  
 10   4   9  ar  
 11   5  10  1   
 12   5  30  1   
 13   5  31  1   
 14   6  11  1   
 15   6  32  1   
 16   6  33  1   
 17   7   9  1   
 18   7  34  1   
 19   7  35  1   
 20   8  12  1   
 21   8  13  ar  
 22   9  14  ar  
 23  10  15  1   
 24  10  36  1   
 25  10  37  1   
 26  11  15  1   
 27  11  38  1   
 28  11  39  1   
 29  12  16  1   
 30  13  17  ar  
 31  13  40  1   
 32  14  17  ar  
 33  14  41  1   
 34  15  18  1   
 35  16  42  1   
 36  16  43  1   
 37  16  44  1   
 38  17  45  1   
 39  18  19  1   
 40  18  20  2   
 41  19  21  2   
 42  20  22  1   
 43  20  46  1   
 44  21  23  1   
 45  21  24  1   
 46  22  23  ar  
 47  22  25  ar  
 48  23  26  1   
 49  24  47  1   
 50  24  48  1   
 51  25  27  1   
 52  25  49  1   
 53  26  27  2   
 54  26  50  1   
@<TRIPOS>SUBSTRUCTURE
  1 ****  15 GROUP 4 **** **** 0

# MOE 2024.06 (io_trps.svl 2023.06)
