@<TRIPOS>MOLECULE
NONAME
54 56 1 0 0 
SMALL
USER_CHARGES


@<TRIPOS>ATOM
  1 O        3.0570     2.2050     1.8220 O.co2 1 <1>  -0.9000 
  2 C        2.2610     1.3370     1.4370 C.2   1 <1>   0.9060 
  3 O        1.8140     0.4910     2.2120 O.co2 1 <1>  -0.9000 
  4 C        2.0670     1.1050    -0.0680 C.3   1 <1>  -0.1060 
  5 C        2.8600    -0.1940    -0.3230 C.3   1 <1>   0.2000 
  6 C        2.6970     2.2480    -0.9300 C.3   1 <1>  -0.1600 
  7 C        0.5580     0.9350    -0.3850 C.3   1 <1>  -0.0160 
  8 O        2.8480    -0.5080    -1.6850 O.3   1 <1>  -0.6800 
  9 C        4.3330    -0.0210     0.1320 C.3   1 <1>   0.3430 
 10 C        4.2150     2.1170    -1.1490 C.3   1 <1>   0.3430 
 11 C       -0.2320     2.2350    -0.2840 C.ar  1 <1>  -0.1440 
 12 N        4.8340     1.3940    -0.0070 N.4   1 <1>  -0.9590 
 13 C       -0.6230     2.9150    -1.4290 C.ar  1 <1>  -0.1500 
 14 C       -0.5740     2.7500     0.9570 C.ar  1 <1>  -0.1500 
 15 C        6.3220     1.5010     0.0780 C.3   1 <1>   0.5240 
 16 C       -1.3400     4.0950    -1.3340 C.ar  1 <1>  -0.1500 
 17 C       -1.2890     3.9300     1.0540 C.ar  1 <1>  -0.1500 
 18 C        6.8480     2.9320    -0.0550 C.2   1 <1>   0.3350 
 19 C       -1.6730     4.6050    -0.0920 C.ar  1 <1>  -0.1500 
 20 N        7.2230     3.4680    -1.1490 N.2   1 <1>  -0.4100 
 21 N        6.9450     3.7420     0.9890 N.2   1 <1>  -0.5650 
 22 O        7.5860     4.6840    -0.8720 O.3   1 <1>  -0.0190 
 23 C        7.3890     4.7890     0.4200 C.2   1 <1>   0.2980 
 24 C        7.7050     6.1010     1.1160 C.3   1 <1>   0.0200 
 25 C        6.5480     7.1180     1.0450 C.3   1 <1>  -0.0800 
 26 C        6.2630     7.5800    -0.3920 C.3   1 <1>  -0.2400 
 27 C        6.8620     8.3390     1.9190 C.3   1 <1>  -0.2400 
 28 H        2.4200    -1.0240     0.2060 H     1 <1>   0.0800 
 29 H        2.4870     3.1990    -0.4700 H     1 <1>   0.0800 
 30 H        2.2380     2.2700    -1.9010 H     1 <1>   0.0800 
 31 H        0.4340     0.5420    -1.3770 H     1 <1>   0.0800 
 32 H        0.1240     0.2160     0.2910 H     1 <1>   0.0800 
 33 H        1.9350    -0.7200    -1.9660 H     1 <1>   0.4000 
 34 H        4.9460    -0.7010    -0.4340 H     1 <1>   0.0800 
 35 H        4.3910    -0.2970     1.1730 H     1 <1>   0.0800 
 36 H        4.6410     3.1020    -1.2540 H     1 <1>   0.0800 
 37 H        4.3970     1.5650    -2.0560 H     1 <1>   0.0800 
 38 H        4.4320     1.8960     0.8330 H     1 <1>   0.4500 
 39 H       -0.3710     2.5300    -2.4010 H     1 <1>   0.1500 
 40 H       -0.2810     2.2330     1.8570 H     1 <1>   0.1500 
 41 H        6.6540     1.1090     1.0240 H     1 <1>   0.0800 
 42 H        6.7630     0.9120    -0.7060 H     1 <1>   0.0800 
 43 H       -1.6380     4.6170    -2.2260 H     1 <1>   0.1500 
 44 H       -1.5420     4.3200     2.0240 H     1 <1>   0.1500 
 45 H       -2.2280     5.5230    -0.0150 H     1 <1>   0.1500 
 46 H        7.9110     5.8810     2.1490 H     1 <1>   0.0800 
 47 H        8.5970     6.5230     0.6890 H     1 <1>   0.0800 
 48 H        5.6600     6.6460     1.4350 H     1 <1>   0.0800 
 49 H        7.1420     8.0120    -0.8360 H     1 <1>   0.0800 
 50 H        5.4810     8.3190    -0.3960 H     1 <1>   0.0800 
 51 H        5.9360     6.7560    -1.0010 H     1 <1>   0.0800 
 52 H        7.7440     8.8450     1.5660 H     1 <1>   0.0800 
 53 H        7.0210     8.0400     2.9400 H     1 <1>   0.0800 
 54 H        6.0400     9.0330     1.9000 H     1 <1>   0.0800 
@<TRIPOS>BOND
  1   1   2  ar  
  2   2   3  ar  
  3   2   4  1   
  4   4   5  1   
  5   4   6  1   
  6   4   7  1   
  7   5   8  1   
  8   5   9  1   
  9   5  28  1   
 10   6  10  1   
 11   6  29  1   
 12   6  30  1   
 13   7  11  1   
 14   7  31  1   
 15   7  32  1   
 16   8  33  1   
 17   9  12  1   
 18   9  34  1   
 19   9  35  1   
 20  10  12  1   
 21  10  36  1   
 22  10  37  1   
 23  11  13  ar  
 24  11  14  ar  
 25  12  15  1   
 26  12  38  1   
 27  13  16  ar  
 28  13  39  1   
 29  14  17  ar  
 30  14  40  1   
 31  15  18  1   
 32  15  41  1   
 33  15  42  1   
 34  16  19  ar  
 35  16  43  1   
 36  17  19  ar  
 37  17  44  1   
 38  18  20  2   
 39  18  21  1   
 40  19  45  1   
 41  20  22  1   
 42  21  23  2   
 43  22  23  1   
 44  23  24  1   
 45  24  25  1   
 46  24  46  1   
 47  24  47  1   
 48  25  26  1   
 49  25  27  1   
 50  25  48  1   
 51  26  49  1   
 52  26  50  1   
 53  26  51  1   
 54  27  52  1   
 55  27  53  1   
 56  27  54  1   
@<TRIPOS>SUBSTRUCTURE
  1 ****   6 GROUP 4 **** **** 0

# MOE 2024.06 (io_trps.svl 2023.06)
