@<TRIPOS>MOLECULE
NONAME
60 63 1 0 0 
SMALL
USER_CHARGES


@<TRIPOS>ATOM
  1 O       -0.9510     0.3350    -1.2130 O.2   1 <1>  -0.5700 
  2 C       -1.9940     0.7010    -0.7020 C.2   1 <1>   0.5440 
  3 N       -2.9550    -0.2580    -0.4160 N.am  1 <1>  -0.6600 
  4 C       -2.1660     2.1120    -0.4210 C.ar  1 <1>   0.0860 
  5 C       -4.4390    -0.1250    -0.5670 C.3   1 <1>   0.2200 
  6 C       -2.5150    -1.6670    -0.2010 C.3   1 <1>   0.0600 
  7 C       -2.4850     2.5790     0.8530 C.ar  1 <1>  -0.1500 
  8 C       -1.9990     3.0720    -1.4210 C.ar  1 <1>  -0.1500 
  9 C       -4.9100     0.8310    -1.6710 C.3   1 <1>  -0.1600 
 10 C       -5.1090     0.2960     0.7410 C.3   1 <1>  -0.1600 
 11 C       -2.7240     3.9170     1.0910 C.ar  1 <1>  -0.1500 
 12 C       -2.2280     4.4130    -1.1830 C.ar  1 <1>  -0.1500 
 13 C       -6.0360     1.6920    -1.0810 C.3   1 <1>  -0.0800 
 14 C       -6.2090     1.3090     0.3890 C.3   1 <1>  -0.0800 
 15 C       -2.6400     4.8580     0.0720 C.ar  1 <1>   0.1000 
 16 C       -5.7450     3.1960    -1.0840 C.3   1 <1>  -0.1600 
 17 C       -6.1400     2.6220     1.1910 C.3   1 <1>  -0.1600 
 18 N       -2.9590     6.1820     0.3550 N.pl3 1 <1>  -0.8380 
 19 C       -6.3750     3.7590     0.1910 C.3   1 <1>   0.4230 
 20 C       -2.0290     6.8880     1.2800 C.3   1 <1>   0.2090 
 21 C       -3.4090     7.1340    -0.6970 C.3   1 <1>   0.2090 
 22 N       -7.8430     4.0020     0.0110 N.4   1 <1>  -0.9590 
 23 C       -1.9700     8.3330     0.7960 C.3   1 <1>  -0.1600 
 24 C       -2.3960     8.2670    -0.6640 C.3   1 <1>  -0.1600 
 25 C       -8.1400     4.9630    -1.0980 C.3   1 <1>   0.2630 
 26 C       -8.4860     4.5160     1.2630 C.3   1 <1>   0.2630 
 27 H       -4.8350    -1.0940    -0.8250 H     1 <1>   0.0800 
 28 H       -3.0970    -2.1200     0.5820 H     1 <1>   0.0800 
 29 H       -1.4770    -1.6970     0.0840 H     1 <1>   0.0800 
 30 H       -2.6380    -2.2270    -1.1110 H     1 <1>   0.0800 
 31 H       -2.5360     1.8730     1.6630 H     1 <1>   0.1500 
 32 H       -1.6840     2.7440    -2.3970 H     1 <1>   0.1500 
 33 H       -4.1170     1.4300    -2.0710 H     1 <1>   0.0800 
 34 H       -5.3010     0.2450    -2.4840 H     1 <1>   0.0800 
 35 H       -5.5440    -0.5660     1.2160 H     1 <1>   0.0800 
 36 H       -4.3870     0.7070     1.4170 H     1 <1>   0.0800 
 37 H       -2.9810     4.2510     2.0790 H     1 <1>   0.1500 
 38 H       -2.0730     5.1160    -1.9790 H     1 <1>   0.1500 
 39 H       -6.9550     1.5000    -1.6100 H     1 <1>   0.0800 
 40 H       -7.1740     0.8470     0.5170 H     1 <1>   0.0800 
 41 H       -6.0410     3.6740    -1.9970 H     1 <1>   0.0800 
 42 H       -4.6890     3.3410    -0.9880 H     1 <1>   0.0800 
 43 H       -5.1510     2.7550     1.5830 H     1 <1>   0.0800 
 44 H       -6.8080     2.6120     2.0300 H     1 <1>   0.0800 
 45 H       -5.8750     4.6650     0.5010 H     1 <1>   0.0800 
 46 H       -2.3880     6.8320     2.2930 H     1 <1>   0.0800 
 47 H       -1.0520     6.4370     1.2210 H     1 <1>   0.0800 
 48 H       -3.4740     6.6840    -1.6710 H     1 <1>   0.0800 
 49 H       -4.3800     7.5090    -0.4230 H     1 <1>   0.0800 
 50 H       -8.2550     3.0880    -0.2250 H     1 <1>   0.4500 
 51 H       -2.6740     8.9190     1.3590 H     1 <1>   0.0800 
 52 H       -0.9880     8.7520     0.9180 H     1 <1>   0.0800 
 53 H       -1.5550     8.0020    -1.2810 H     1 <1>   0.0800 
 54 H       -2.8150     9.1940    -1.0140 H     1 <1>   0.0800 
 55 H       -7.6180     5.8920    -0.9360 H     1 <1>   0.0800 
 56 H       -9.1980     5.1660    -1.1430 H     1 <1>   0.0800 
 57 H       -7.8370     4.5560    -2.0480 H     1 <1>   0.0800 
 58 H       -8.0070     5.4280     1.5810 H     1 <1>   0.0800 
 59 H       -8.4130     3.7930     2.0580 H     1 <1>   0.0800 
 60 H       -9.5310     4.7180     1.0900 H     1 <1>   0.0800 
@<TRIPOS>BOND
  1   1   2  2   
  2   2   3  am  
  3   2   4  1   
  4   3   5  1   
  5   3   6  1   
  6   4   7  ar  
  7   4   8  ar  
  8   5   9  1   
  9   5  10  1   
 10   5  27  1   
 11   6  28  1   
 12   6  29  1   
 13   6  30  1   
 14   7  11  ar  
 15   7  31  1   
 16   8  12  ar  
 17   8  32  1   
 18   9  13  1   
 19   9  33  1   
 20   9  34  1   
 21  10  14  1   
 22  10  35  1   
 23  10  36  1   
 24  11  15  ar  
 25  11  37  1   
 26  12  15  ar  
 27  12  38  1   
 28  13  14  1   
 29  13  16  1   
 30  13  39  1   
 31  14  17  1   
 32  14  40  1   
 33  15  18  1   
 34  16  19  1   
 35  16  41  1   
 36  16  42  1   
 37  17  19  1   
 38  17  43  1   
 39  17  44  1   
 40  18  20  1   
 41  18  21  1   
 42  19  22  1   
 43  19  45  1   
 44  20  23  1   
 45  20  46  1   
 46  20  47  1   
 47  21  24  1   
 48  21  48  1   
 49  21  49  1   
 50  22  25  1   
 51  22  26  1   
 52  22  50  1   
 53  23  24  1   
 54  23  51  1   
 55  23  52  1   
 56  24  53  1   
 57  24  54  1   
 58  25  55  1   
 59  25  56  1   
 60  25  57  1   
 61  26  58  1   
 62  26  59  1   
 63  26  60  1   
@<TRIPOS>SUBSTRUCTURE
  1 ****  11 GROUP 4 **** **** 0

# MOE 2024.06 (io_trps.svl 2023.06)
