@<TRIPOS>MOLECULE
NONAME
50 53 1 0 0 
SMALL
USER_CHARGES


@<TRIPOS>ATOM
  1 O        4.9510    -1.5010    -0.0970 O.2   1 <1>  -0.5700 
  2 C        3.7650    -1.6610    -0.3340 C.2   1 <1>   0.5440 
  3 N        3.1890    -0.7260    -1.1630 N.am  1 <1>  -0.6600 
  4 C        2.9940    -2.7230     0.2910 C.ar  1 <1>   0.0860 
  5 C        3.8970    -0.2910    -2.4120 C.3   1 <1>   0.1400 
  6 C        2.1710     0.2150    -0.6290 C.3   1 <1>   0.1400 
  7 C        1.7830    -3.1570    -0.2440 C.ar  1 <1>  -0.1500 
  8 C        3.4590    -3.3480     1.4660 C.ar  1 <1>  -0.1500 
  9 C        4.7320     0.9940    -2.2190 C.3   1 <1>   0.3430 
 10 C        2.8140     1.1640     0.3950 C.3   1 <1>  -0.1600 
 11 C        1.0520    -4.1640     0.3800 C.ar  1 <1>   0.0000 
 12 C        2.7450    -4.3490     2.0930 C.ar  1 <1>  -0.1500 
 13 N        5.0250     1.2260    -0.7690 N.4   1 <1>  -0.9590 
 14 C        3.9570     2.0460    -0.1270 C.3   1 <1>   0.3430 
 15 C        1.5380    -4.7440     1.5360 C.ar  1 <1>   0.1400 
 16 C       -0.1690    -4.8260     0.1350 C.2   1 <1>  -0.1500 
 17 C        6.4210     1.7010    -0.5330 C.3   1 <1>   0.3430 
 18 O        0.6990    -5.6790     1.9770 O.3   1 <1>  -0.2800 
 19 C       -0.3220    -5.7210     1.1290 C.2   1 <1>  -0.0400 
 20 C        6.9000     1.3470     0.8800 C.3   1 <1>   0.0960 
 21 C       -1.4290    -6.7150     1.4030 C.3   1 <1>  -0.0600 
 22 N        8.3080     1.7450     1.0120 N.pl3 1 <1>   0.0480 
 23 C        8.8120     2.9240     1.3830 C.2   1 <1>   0.0360 
 24 C        9.4020     1.0350     0.7300 C.2   1 <1>   0.0360 
 25 N       10.0960     2.9330     1.3200 N.2   1 <1>  -0.3380 
 26 N       10.4740     1.7240     0.9010 N.2   1 <1>  -0.3380 
 27 H        3.1830    -0.1470    -3.2050 H     1 <1>   0.0800 
 28 H        4.5580    -1.0820    -2.7250 H     1 <1>   0.0800 
 29 H        1.3840    -0.3460    -0.1500 H     1 <1>   0.0800 
 30 H        1.7270     0.7740    -1.4360 H     1 <1>   0.0800 
 31 H        1.3940    -2.7270    -1.1490 H     1 <1>   0.1500 
 32 H        4.4000    -3.0360     1.8840 H     1 <1>   0.1500 
 33 H        4.1980     1.8360    -2.6270 H     1 <1>   0.0800 
 34 H        5.6480     0.8890    -2.7760 H     1 <1>   0.0800 
 35 H        3.1620     0.5940     1.2390 H     1 <1>   0.0800 
 36 H        2.0440     1.8140     0.7700 H     1 <1>   0.0800 
 37 H        3.0940    -4.8280     2.9900 H     1 <1>   0.1500 
 38 H        4.9450     0.2610    -0.3690 H     1 <1>   0.4500 
 39 H        4.3680     2.5950     0.7040 H     1 <1>   0.0800 
 40 H        3.5710     2.7620    -0.8350 H     1 <1>   0.0800 
 41 H       -0.8170    -4.6220    -0.6970 H     1 <1>   0.1500 
 42 H        6.4780     2.7670    -0.6870 H     1 <1>   0.0800 
 43 H        7.0800     1.2200    -1.2380 H     1 <1>   0.0800 
 44 H        6.8270     0.2860     1.0430 H     1 <1>   0.0800 
 45 H        6.3220     1.8650     1.6230 H     1 <1>   0.0800 
 46 H       -2.1880    -6.6470     0.6460 H     1 <1>   0.0800 
 47 H       -1.8690    -6.5110     2.3620 H     1 <1>   0.0800 
 48 H       -1.0270    -7.7120     1.4090 H     1 <1>   0.0800 
 49 H        8.2150     3.7620     1.6950 H     1 <1>   0.1500 
 50 H        9.3840     0.0120     0.3980 H     1 <1>   0.1500 
@<TRIPOS>BOND
  1   1   2  2   
  2   2   3  am  
  3   2   4  1   
  4   3   5  1   
  5   3   6  1   
  6   4   7  ar  
  7   4   8  ar  
  8   5   9  1   
  9   5  27  1   
 10   5  28  1   
 11   6  10  1   
 12   6  29  1   
 13   6  30  1   
 14   7  11  ar  
 15   7  31  1   
 16   8  12  ar  
 17   8  32  1   
 18   9  13  1   
 19   9  33  1   
 20   9  34  1   
 21  10  14  1   
 22  10  35  1   
 23  10  36  1   
 24  11  15  ar  
 25  11  16  1   
 26  12  15  ar  
 27  12  37  1   
 28  13  14  1   
 29  13  17  1   
 30  13  38  1   
 31  14  39  1   
 32  14  40  1   
 33  15  18  1   
 34  16  19  2   
 35  16  41  1   
 36  17  20  1   
 37  17  42  1   
 38  17  43  1   
 39  18  19  1   
 40  19  21  1   
 41  20  22  1   
 42  20  44  1   
 43  20  45  1   
 44  21  46  1   
 45  21  47  1   
 46  21  48  1   
 47  22  23  1   
 48  22  24  1   
 49  23  25  2   
 50  23  49  1   
 51  24  26  2   
 52  24  50  1   
 53  25  26  1   
@<TRIPOS>SUBSTRUCTURE
  1 ****   2 GROUP 4 **** **** 0

# MOE 2024.06 (io_trps.svl 2023.06)
