@<TRIPOS>MOLECULE
NONAME
50 53 1 0 0 
SMALL
USER_CHARGES


@<TRIPOS>ATOM
  1 O        2.8550    -1.4520    -2.5600 O.2   1 <1>  -0.5700 
  2 C        2.2490    -1.7170    -1.5340 C.2   1 <1>   0.5440 
  3 N        1.8390    -0.6490    -0.7520 N.am  1 <1>  -0.6600 
  4 C        2.0270    -3.1240    -1.1910 C.ar  1 <1>   0.3960 
  5 C        1.1980    -0.7370     0.5810 C.3   1 <1>   0.1400 
  6 C        2.1680     0.7550    -1.0830 C.3   1 <1>   0.1400 
  7 N        0.9470    -3.5120    -0.4900 N.ar  1 <1>  -0.6200 
  8 C        2.9790    -4.0530    -1.6260 C.ar  1 <1>   0.1600 
  9 C        1.0330     0.7070     1.0430 C.3   1 <1>  -0.1600 
 10 C        2.0630     1.4980     0.2420 C.3   1 <1>  -0.1600 
 11 C        0.8950    -4.8070    -0.2680 C.ar  1 <1>   0.4100 
 12 N        2.9480    -5.3600    -1.4030 N.ar  1 <1>  -0.6200 
 13 N       -0.2160    -5.1850     0.4390 N.pl3 1 <1>  -0.8690 
 14 C        1.8810    -5.7030    -0.7110 C.ar  1 <1>   0.1600 
 15 C       -0.9840    -6.4040     0.0850 C.3   1 <1>   0.2090 
 16 C       -0.8260    -7.4490     1.1810 C.3   1 <1>  -0.0170 
 17 C       -1.5080    -8.7210     0.7400 C.ar  1 <1>   0.4770 
 18 N       -0.7830    -9.5260    -0.0280 N.ar  1 <1>  -0.6200 
 19 N       -2.7570    -8.8860     1.1460 N.ar  1 <1>  -0.6200 
 20 C       -1.3730   -10.6330    -0.4260 C.ar  1 <1>   0.1670 
 21 C       -3.3080   -10.0010     0.7330 C.ar  1 <1>   0.1670 
 22 C       -2.6680   -10.9120    -0.0530 C.ar  1 <1>  -0.1430 
 23 C       -0.5550   -11.5610    -1.3010 C.3   1 <1>  -0.0970 
 24 C       -4.7140   -10.4280     1.0610 C.3   1 <1>  -0.0170 
 25 C       -3.5630   -12.0900    -0.3670 C.3   1 <1>  -0.0170 
 26 C       -4.7810   -11.8800     0.5520 C.3   1 <1>  -0.1600 
 27 H        1.8430    -1.2800     1.2510 H     1 <1>   0.0800 
 28 H        0.2420    -1.2290     0.5150 H     1 <1>   0.0800 
 29 H        1.4430     1.1260    -1.7860 H     1 <1>   0.0800 
 30 H        3.1560     0.8370    -1.5060 H     1 <1>   0.0800 
 31 H        3.8180    -3.6850    -2.1920 H     1 <1>   0.1500 
 32 H        1.1740     0.8060     2.1040 H     1 <1>   0.0800 
 33 H        0.0420     1.0410     0.7900 H     1 <1>   0.0800 
 34 H        1.7760     2.5250     0.1030 H     1 <1>   0.0800 
 35 H        3.0180     1.4630     0.7380 H     1 <1>   0.0800 
 36 H       -0.8130    -4.3760     0.6340 H     1 <1>   0.4000 
 37 H        1.7610    -6.7420    -0.4690 H     1 <1>   0.1500 
 38 H       -0.6360    -6.8040    -0.8540 H     1 <1>   0.0800 
 39 H       -2.0260    -6.1540    -0.0270 H     1 <1>   0.0800 
 40 H       -1.2700    -7.0950     2.0930 H     1 <1>   0.0800 
 41 H        0.2140    -7.6490     1.3560 H     1 <1>   0.0800 
 42 H       -0.2240   -11.0290    -2.1740 H     1 <1>   0.0800 
 43 H       -1.1260   -12.4140    -1.6130 H     1 <1>   0.0800 
 44 H        0.3070   -11.8980    -0.7560 H     1 <1>   0.0800 
 45 H       -5.4080    -9.7980     0.5350 H     1 <1>   0.0800 
 46 H       -4.8950   -10.3690     2.1190 H     1 <1>   0.0800 
 47 H       -3.0740   -13.0250    -0.1570 H     1 <1>   0.0800 
 48 H       -3.8570   -12.0550    -1.4020 H     1 <1>   0.0800 
 49 H       -5.7060   -12.0760     0.0370 H     1 <1>   0.0800 
 50 H       -4.7030   -12.5470     1.3930 H     1 <1>   0.0800 
@<TRIPOS>BOND
  1   1   2  2   
  2   2   3  am  
  3   2   4  1   
  4   3   5  1   
  5   3   6  1   
  6   4   7  ar  
  7   4   8  ar  
  8   5   9  1   
  9   5  27  1   
 10   5  28  1   
 11   6  10  1   
 12   6  29  1   
 13   6  30  1   
 14   7  11  ar  
 15   8  12  ar  
 16   8  31  1   
 17   9  10  1   
 18   9  32  1   
 19   9  33  1   
 20  10  34  1   
 21  10  35  1   
 22  11  13  1   
 23  11  14  ar  
 24  12  14  ar  
 25  13  15  1   
 26  13  36  1   
 27  14  37  1   
 28  15  16  1   
 29  15  38  1   
 30  15  39  1   
 31  16  17  1   
 32  16  40  1   
 33  16  41  1   
 34  17  18  ar  
 35  17  19  ar  
 36  18  20  ar  
 37  19  21  ar  
 38  20  22  ar  
 39  20  23  1   
 40  21  22  ar  
 41  21  24  1   
 42  22  25  1   
 43  23  42  1   
 44  23  43  1   
 45  23  44  1   
 46  24  26  1   
 47  24  45  1   
 48  24  46  1   
 49  25  26  1   
 50  25  47  1   
 51  25  48  1   
 52  26  49  1   
 53  26  50  1   
@<TRIPOS>SUBSTRUCTURE
  1 ****  13 GROUP 4 **** **** 0

# MOE 2024.06 (io_trps.svl 2023.06)
