@<TRIPOS>MOLECULE
NONAME
39 40 1 0 0 
SMALL
USER_CHARGES


@<TRIPOS>ATOM
  1 S        0.0790    -1.2470     1.6440 S.3   1 <1>  -0.0800 
  2 C       -0.7840    -2.5500     0.8420 C.2   1 <1>  -0.1400 
  3 C        1.1690    -2.3820     2.4190 C.2   1 <1>  -0.1100 
  4 C       -0.2430    -3.7400     1.1690 C.2   1 <1>  -0.1500 
  5 C       -1.9440    -2.1430    -0.0490 C.3   1 <1>   0.3200 
  6 C        0.8680    -3.6450     2.0670 C.2   1 <1>  -0.1500 
  7 N       -2.6820    -3.3400    -0.4780 N.am  1 <1>  -0.7300 
  8 C       -3.2220    -3.5520    -1.7000 C.2   1 <1>   0.5690 
  9 O       -3.1880    -2.7150    -2.5710 O.2   1 <1>  -0.5700 
 10 C       -3.8910    -4.9050    -1.9700 C.3   1 <1>   0.1710 
 11 N       -4.3450    -5.6290    -0.7400 N.3   1 <1>  -0.8100 
 12 C       -4.5490    -7.0690    -1.0400 C.3   1 <1>   0.1100 
 13 C       -5.5440    -4.9840    -0.1790 C.3   1 <1>   0.0300 
 14 C       -4.6690    -7.9580     0.2120 C.3   1 <1>   0.2000 
 15 O       -4.1070    -9.2050    -0.1010 O.3   1 <1>  -0.5600 
 16 C       -6.1290    -8.1700     0.6720 C.3   1 <1>   0.1200 
 17 C       -4.1490   -10.1180     0.9570 C.3   1 <1>   0.1200 
 18 O       -6.1870    -9.0910     1.7250 O.3   1 <1>  -0.5600 
 19 C       -5.6010   -10.3230     1.4180 C.3   1 <1>   0.1200 
 20 H        1.9300    -1.9770     3.0630 H     1 <1>   0.1500 
 21 H       -0.5750    -4.6990     0.8120 H     1 <1>   0.1500 
 22 H       -1.5750    -1.6080    -0.9080 H     1 <1>   0.0800 
 23 H       -2.6100    -1.4980     0.4980 H     1 <1>   0.0800 
 24 H        1.3830    -4.5280     2.4030 H     1 <1>   0.1500 
 25 H       -2.8090    -4.0810     0.2170 H     1 <1>   0.3700 
 26 H       -3.1630    -5.5020    -2.4890 H     1 <1>   0.0800 
 27 H       -4.7230    -4.7530    -2.6350 H     1 <1>   0.0800 
 28 H       -3.6880    -7.4180    -1.5850 H     1 <1>   0.0800 
 29 H       -5.4110    -7.1980    -1.6710 H     1 <1>   0.0800 
 30 H       -5.4040    -3.9180    -0.1180 H     1 <1>   0.0800 
 31 H       -5.7220    -5.3400     0.8190 H     1 <1>   0.0800 
 32 H       -6.4060    -5.1830    -0.7930 H     1 <1>   0.0800 
 33 H       -4.0850    -7.5260     1.0060 H     1 <1>   0.0800 
 34 H       -6.7290    -8.5420    -0.1400 H     1 <1>   0.0800 
 35 H       -6.5610    -7.2550     1.0270 H     1 <1>   0.0800 
 36 H       -3.5450    -9.7410     1.7650 H     1 <1>   0.0800 
 37 H       -3.7300   -11.0460     0.6120 H     1 <1>   0.0800 
 38 H       -5.6330   -10.9340     2.3030 H     1 <1>   0.0800 
 39 H       -6.1800   -10.7980     0.6450 H     1 <1>   0.0800 
@<TRIPOS>BOND
  1   1   2  1   
  2   1   3  1   
  3   2   4  2   
  4   2   5  1   
  5   3   6  2   
  6   3  20  1   
  7   4   6  1   
  8   4  21  1   
  9   5   7  1   
 10   5  22  1   
 11   5  23  1   
 12   6  24  1   
 13   7   8  am  
 14   7  25  1   
 15   8   9  2   
 16   8  10  1   
 17  10  11  1   
 18  10  26  1   
 19  10  27  1   
 20  11  12  1   
 21  11  13  1   
 22  12  14  1   
 23  12  28  1   
 24  12  29  1   
 25  13  30  1   
 26  13  31  1   
 27  13  32  1   
 28  14  15  1   
 29  14  16  1   
 30  14  33  1   
 31  15  17  1   
 32  16  18  1   
 33  16  34  1   
 34  16  35  1   
 35  17  19  1   
 36  17  36  1   
 37  17  37  1   
 38  18  19  1   
 39  19  38  1   
 40  19  39  1   
@<TRIPOS>SUBSTRUCTURE
  1 ****  11 GROUP 4 **** **** 0

# MOE 2024.06 (io_trps.svl 2023.06)
