@<TRIPOS>MOLECULE
NONAME
43 45 1 0 0 
SMALL
USER_CHARGES


@<TRIPOS>ATOM
  1 O       -1.7980     0.5150    -2.6890 O.2   1 <1>  -0.5700 
  2 C       -1.8340     1.0200    -1.5840 C.2   1 <1>   0.6160 
  3 N       -2.1320     0.2350    -0.4900 N.am  1 <1>  -0.6600 
  4 C       -1.5960     2.4400    -1.4540 C.2   1 <1>  -0.0140 
  5 C       -2.1670    -1.2540    -0.5850 C.3   1 <1>   0.1400 
  6 C       -2.5660     0.8190     0.8150 C.3   1 <1>   0.1400 
  7 C       -0.4690     2.9320    -0.6900 C.ar  1 <1>   0.0280 
  8 C       -2.4270     3.3430    -2.0500 C.2   1 <1>  -0.1360 
  9 C       -3.6040    -1.7740    -0.3870 C.3   1 <1>  -0.0800 
 10 C       -3.4300    -0.1650     1.6150 C.3   1 <1>  -0.1600 
 11 C       -0.3190     4.3210    -0.5280 C.ar  1 <1>   0.1170 
 12 C        0.4960     2.1010    -0.1080 C.ar  1 <1>  -0.1500 
 13 C       -2.2560     4.7420    -1.9060 C.2   1 <1>   0.6160 
 14 C       -4.3630    -0.9460     0.6850 C.3   1 <1>   0.2000 
 15 C       -3.5920    -3.2890    -0.1140 C.3   1 <1>   0.1200 
 16 N       -1.2270     5.1780    -1.1360 N.am  1 <1>  -0.5470 
 17 C        0.7360     4.8300     0.2230 C.ar  1 <1>  -0.1500 
 18 C        1.5430     2.6120     0.6330 C.ar  1 <1>  -0.1440 
 19 O       -2.9880     5.5650    -2.4220 O.2   1 <1>  -0.5700 
 20 O       -5.1730    -1.7420     1.4760 O.3   1 <1>  -0.6800 
 21 O       -2.8540    -3.9430    -1.0870 O.3   1 <1>  -0.6800 
 22 C        1.6570     3.9850     0.8020 C.ar  1 <1>  -0.1500 
 23 C        2.5760     1.6950     1.2620 C.3   1 <1>  -0.0970 
 24 H       -1.7860    -1.5860    -1.5370 H     1 <1>   0.0800 
 25 H       -1.5220    -1.6610     0.1740 H     1 <1>   0.0800 
 26 H       -1.7010     1.0960     1.3930 H     1 <1>   0.0800 
 27 H       -3.1410     1.7090     0.6230 H     1 <1>   0.0800 
 28 H       -3.2570     3.0300    -2.6540 H     1 <1>   0.1500 
 29 H       -4.1250    -1.6190    -1.3150 H     1 <1>   0.0800 
 30 H       -4.0060     0.3890     2.3350 H     1 <1>   0.0800 
 31 H       -2.7860    -0.8420     2.1460 H     1 <1>   0.0800 
 32 H        0.4270     1.0370    -0.2430 H     1 <1>   0.1500 
 33 H       -5.0100    -0.2460     0.1810 H     1 <1>   0.0800 
 34 H       -4.5910    -3.6940    -0.1230 H     1 <1>   0.0800 
 35 H       -3.1340    -3.5010     0.8360 H     1 <1>   0.0800 
 36 H       -1.1330     6.1900    -1.0640 H     1 <1>   0.3700 
 37 H        0.8330     5.8930     0.3490 H     1 <1>   0.1500 
 38 H       -4.6360    -2.2510     2.1110 H     1 <1>   0.4000 
 39 H       -3.2850    -3.8650    -1.9610 H     1 <1>   0.4000 
 40 H        2.4700     4.3880     1.3810 H     1 <1>   0.1500 
 41 H        3.5590     1.9580     0.9150 H     1 <1>   0.0800 
 42 H        2.3890     0.6670     1.0070 H     1 <1>   0.0800 
 43 H        2.5490     1.7920     2.3330 H     1 <1>   0.0800 
@<TRIPOS>BOND
  1   1   2  2   
  2   2   3  am  
  3   2   4  1   
  4   3   5  1   
  5   3   6  1   
  6   4   7  1   
  7   4   8  2   
  8   5   9  1   
  9   5  24  1   
 10   5  25  1   
 11   6  10  1   
 12   6  26  1   
 13   6  27  1   
 14   7  11  ar  
 15   7  12  ar  
 16   8  13  1   
 17   8  28  1   
 18   9  14  1   
 19   9  15  1   
 20   9  29  1   
 21  10  14  1   
 22  10  30  1   
 23  10  31  1   
 24  11  16  1   
 25  11  17  ar  
 26  12  18  ar  
 27  12  32  1   
 28  13  16  am  
 29  13  19  2   
 30  14  20  1   
 31  14  33  1   
 32  15  21  1   
 33  15  34  1   
 34  15  35  1   
 35  16  36  1   
 36  17  22  ar  
 37  17  37  1   
 38  18  22  ar  
 39  18  23  1   
 40  20  38  1   
 41  21  39  1   
 42  22  40  1   
 43  23  41  1   
 44  23  42  1   
 45  23  43  1   
@<TRIPOS>SUBSTRUCTURE
  1 ****   2 GROUP 4 **** **** 0

# MOE 2024.06 (io_trps.svl 2023.06)
