@<TRIPOS>MOLECULE
NONAME
51 54 1 0 0 
SMALL
USER_CHARGES


@<TRIPOS>ATOM
  1 O        0.2730     1.6720    -1.3900 O.2   1 <1>  -0.5700 
  2 C       -0.2200     2.7750    -1.3620 C.2   1 <1>   0.5690 
  3 N       -0.8930     3.2800    -0.2810 N.am  1 <1>  -0.5090 
  4 C       -0.0760     3.6630    -2.5910 C.3   1 <1>   0.1810 
  5 C       -1.4680     4.6650    -0.3140 C.3   1 <1>   0.3640 
  6 C       -0.8710     2.6070     1.0420 C.3   1 <1>   0.0490 
  7 O        0.1370     4.9970    -2.2100 O.3   1 <1>  -0.5600 
  8 C       -2.9920     4.6050    -0.4220 C.ar  1 <1>  -0.1440 
  9 C       -0.9200     5.5760    -1.4540 C.3   1 <1>   0.2610 
 10 C       -1.4040     1.2130     1.1450 C.3   1 <1>  -0.2000 
 11 C       -2.1420     2.3400     1.7900 C.3   1 <1>  -0.2000 
 12 C       -3.6380     3.6380    -1.1840 C.ar  1 <1>   0.1600 
 13 C       -3.7650     5.5410     0.2390 C.ar  1 <1>  -0.1500 
 14 C       -0.4780     6.9210    -0.8650 C.2   1 <1>   0.5690 
 15 N       -4.9480     3.5420    -1.3420 N.ar  1 <1>  -0.6200 
 16 C       -5.1320     5.4510     0.0910 C.ar  1 <1>  -0.1500 
 17 O       -1.2430     7.5340    -0.1580 O.2   1 <1>  -0.5700 
 18 N        0.7680     7.3880    -1.1410 N.am  1 <1>  -0.7300 
 19 C       -5.6640     4.4490    -0.7000 C.ar  1 <1>   0.1600 
 20 C        1.3720     8.6340    -0.6190 C.3   1 <1>   0.1400 
 21 C        2.6810     8.3270     0.1260 C.3   1 <1>  -0.0800 
 22 C        2.4580     7.4050     1.3380 C.3   1 <1>  -0.1600 
 23 C        3.3450     9.6280     0.6030 C.3   1 <1>  -0.1600 
 24 C        3.7460     7.2500     2.1560 C.3   1 <1>   0.1200 
 25 C        4.5810     9.3320     1.4600 C.3   1 <1>   0.1200 
 26 O        4.2180     8.5090     2.5240 O.3   1 <1>  -0.5600 
 27 H       -0.9590     3.6070    -3.2020 H     1 <1>   0.0800 
 28 H        0.7740     3.3440    -3.1660 H     1 <1>   0.0800 
 29 H       -1.2270     5.1250     0.6290 H     1 <1>   0.0800 
 30 H        0.0170     2.8440     1.6050 H     1 <1>   0.1000 
 31 H       -1.7150     5.7860    -2.1480 H     1 <1>   0.0800 
 32 H       -1.8160     0.7540     0.2640 H     1 <1>   0.1000 
 33 H       -0.8850     0.5100     1.7720 H     1 <1>   0.1000 
 34 H       -2.1330     2.3960     2.8640 H     1 <1>   0.1000 
 35 H       -3.1020     2.5920     1.3770 H     1 <1>   0.1000 
 36 H       -3.0530     2.8930    -1.6950 H     1 <1>   0.1500 
 37 H       -3.3290     6.3180     0.8460 H     1 <1>   0.1500 
 38 H       -5.7810     6.1530     0.5820 H     1 <1>   0.1500 
 39 H        1.3560     6.8100    -1.7510 H     1 <1>   0.3700 
 40 H       -6.7340     4.3900    -0.8090 H     1 <1>   0.1500 
 41 H        1.5670     9.2990    -1.4430 H     1 <1>   0.0800 
 42 H        0.6810     9.1240     0.0480 H     1 <1>   0.0800 
 43 H        3.3560     7.8430    -0.5590 H     1 <1>   0.0800 
 44 H        2.1320     6.4330     1.0120 H     1 <1>   0.0800 
 45 H        1.6930     7.8110     1.9760 H     1 <1>   0.0800 
 46 H        2.6540    10.2030     1.1940 H     1 <1>   0.0800 
 47 H        3.6360    10.2270    -0.2420 H     1 <1>   0.0800 
 48 H        4.5120     6.7470     1.5900 H     1 <1>   0.0800 
 49 H        3.5550     6.6950     3.0580 H     1 <1>   0.0800 
 50 H        4.9820    10.2420     1.8730 H     1 <1>   0.0800 
 51 H        5.3480     8.8380     0.8880 H     1 <1>   0.0800 
@<TRIPOS>BOND
  1   1   2  2   
  2   2   3  am  
  3   2   4  1   
  4   3   5  1   
  5   3   6  1   
  6   4   7  1   
  7   4  27  1   
  8   4  28  1   
  9   5   8  1   
 10   5   9  1   
 11   5  29  1   
 12   6  10  1   
 13   6  11  1   
 14   6  30  1   
 15   7   9  1   
 16   8  12  ar  
 17   8  13  ar  
 18   9  14  1   
 19   9  31  1   
 20  10  11  1   
 21  10  32  1   
 22  10  33  1   
 23  11  34  1   
 24  11  35  1   
 25  12  15  ar  
 26  12  36  1   
 27  13  16  ar  
 28  13  37  1   
 29  14  17  2   
 30  14  18  am  
 31  15  19  ar  
 32  16  19  ar  
 33  16  38  1   
 34  18  20  1   
 35  18  39  1   
 36  19  40  1   
 37  20  21  1   
 38  20  41  1   
 39  20  42  1   
 40  21  22  1   
 41  21  23  1   
 42  21  43  1   
 43  22  24  1   
 44  22  44  1   
 45  22  45  1   
 46  23  25  1   
 47  23  46  1   
 48  23  47  1   
 49  24  26  1   
 50  24  48  1   
 51  24  49  1   
 52  25  26  1   
 53  25  50  1   
 54  25  51  1   
@<TRIPOS>SUBSTRUCTURE
  1 ****   5 GROUP 4 **** **** 0

# MOE 2024.06 (io_trps.svl 2023.06)
