@<TRIPOS>MOLECULE
NONAME
59 63 1 0 0 
SMALL
USER_CHARGES


@<TRIPOS>ATOM
  1 O       -4.6960     2.1910    -1.3420 O.2   1 <1>  -0.5700 
  2 C       -3.9440     1.7090    -0.5150 C.2   1 <1>   0.5440 
  3 N       -2.7560     2.3560    -0.2320 N.am  1 <1>  -0.6600 
  4 C       -4.3250     0.4760     0.1290 C.ar  1 <1>   0.0860 
  5 C       -2.5040     3.7540    -0.6860 C.3   1 <1>   0.1400 
  6 C       -1.5620     1.6790     0.3490 C.3   1 <1>   0.1400 
  7 C       -4.8060    -0.5890    -0.6270 C.ar  1 <1>   0.1600 
  8 C       -4.2540     0.2860     1.5060 C.ar  1 <1>  -0.1500 
  9 C       -1.3680     3.7710    -1.7140 C.3   1 <1>  -0.1600 
 10 C       -0.4140     1.6870    -0.6660 C.3   1 <1>  -0.1600 
 11 N       -5.1770    -1.7700    -0.1600 N.ar  1 <1>  -0.6200 
 12 C       -4.6410    -0.9320     2.0110 C.ar  1 <1>  -0.1500 
 13 C       -0.1000     3.1050    -1.1630 C.3   1 <1>  -0.1600 
 14 C       -5.0930    -1.9310     1.1540 C.ar  1 <1>   0.4100 
 15 N       -5.4900    -3.1350     1.6670 N.pl3 1 <1>  -0.8690 
 16 C       -6.0000    -4.2800     0.8710 C.3   1 <1>   0.2890 
 17 C       -7.5210    -4.3420     0.8960 C.3   1 <1>  -0.0800 
 18 C       -5.6530    -5.5760     1.5910 C.3   1 <1>   0.1200 
 19 C       -7.8200    -5.1210     2.1820 C.3   1 <1>   0.1200 
 20 C       -8.2560    -2.9900     0.8010 C.3   1 <1>  -0.0170 
 21 O       -6.6240    -5.7220     2.5840 O.3   1 <1>  -0.5600 
 22 C       -9.7630    -3.1920     0.6850 C.ar  1 <1>  -0.1440 
 23 C      -10.3840    -3.5600    -0.5320 C.ar  1 <1>   0.0000 
 24 C      -10.5630    -3.0240     1.7760 C.ar  1 <1>  -0.1500 
 25 C      -11.7870    -3.7490    -0.5220 C.ar  1 <1>   0.3100 
 26 C       -9.6980    -3.7480    -1.7550 C.ar  1 <1>  -0.1500 
 27 C      -11.9450    -3.2280     1.6750 C.ar  1 <1>   0.1600 
 28 N      -12.5510    -3.5800     0.5860 N.ar  1 <1>  -0.6200 
 29 C      -12.4290    -4.1280    -1.7120 C.ar  1 <1>  -0.1500 
 30 C      -10.3540    -4.1150    -2.8980 C.ar  1 <1>  -0.1500 
 31 C      -11.7370    -4.3110    -2.8780 C.ar  1 <1>  -0.1500 
 32 H       -3.3920     4.1810    -1.1200 H     1 <1>   0.0800 
 33 H       -2.2340     4.3530     0.1660 H     1 <1>   0.0800 
 34 H       -1.2640     2.2020     1.2420 H     1 <1>   0.0800 
 35 H       -1.7850     0.6600     0.6130 H     1 <1>   0.0800 
 36 H       -4.8830    -0.4420    -1.6910 H     1 <1>   0.1500 
 37 H       -3.9080     1.0790     2.1460 H     1 <1>   0.1500 
 38 H       -1.6990     3.2540    -2.5980 H     1 <1>   0.0800 
 39 H       -1.1540     4.7880    -1.9900 H     1 <1>   0.0800 
 40 H        0.4640     1.2600    -0.2140 H     1 <1>   0.0800 
 41 H       -0.6870     1.0650    -1.5010 H     1 <1>   0.0800 
 42 H       -4.6020    -1.1260     3.0650 H     1 <1>   0.1500 
 43 H        0.2870     3.6930    -0.3480 H     1 <1>   0.0800 
 44 H        0.6530     3.0640    -1.9310 H     1 <1>   0.0800 
 45 H       -5.5610    -3.2710     2.6780 H     1 <1>   0.4000 
 46 H       -5.6010    -4.2610    -0.1290 H     1 <1>   0.0800 
 47 H       -7.8320    -4.9580     0.0720 H     1 <1>   0.0800 
 48 H       -4.6750    -5.5530     2.0370 H     1 <1>   0.0800 
 49 H       -5.7360    -6.4150     0.9240 H     1 <1>   0.0800 
 50 H       -8.5600    -5.8860     2.0200 H     1 <1>   0.0800 
 51 H       -8.1380    -4.4690     2.9770 H     1 <1>   0.0800 
 52 H       -7.8960    -2.4300    -0.0430 H     1 <1>   0.0800 
 53 H       -8.0400    -2.3980     1.6740 H     1 <1>   0.0800 
 54 H      -10.1620    -2.7370     2.7310 H     1 <1>   0.1500 
 55 H       -8.6350    -3.5960    -1.7940 H     1 <1>   0.1500 
 56 H      -12.5400    -3.0850     2.5610 H     1 <1>   0.1500 
 57 H      -13.4930    -4.2700    -1.6740 H     1 <1>   0.1500 
 58 H       -9.8190    -4.2550    -3.8210 H     1 <1>   0.1500 
 59 H      -12.2420    -4.6020    -3.7830 H     1 <1>   0.1500 
@<TRIPOS>BOND
  1   1   2  2   
  2   2   3  am  
  3   2   4  1   
  4   3   5  1   
  5   3   6  1   
  6   4   7  ar  
  7   4   8  ar  
  8   5   9  1   
  9   5  32  1   
 10   5  33  1   
 11   6  10  1   
 12   6  34  1   
 13   6  35  1   
 14   7  11  ar  
 15   7  36  1   
 16   8  12  ar  
 17   8  37  1   
 18   9  13  1   
 19   9  38  1   
 20   9  39  1   
 21  10  13  1   
 22  10  40  1   
 23  10  41  1   
 24  11  14  ar  
 25  12  14  ar  
 26  12  42  1   
 27  13  43  1   
 28  13  44  1   
 29  14  15  1   
 30  15  16  1   
 31  15  45  1   
 32  16  17  1   
 33  16  18  1   
 34  16  46  1   
 35  17  19  1   
 36  17  20  1   
 37  17  47  1   
 38  18  21  1   
 39  18  48  1   
 40  18  49  1   
 41  19  21  1   
 42  19  50  1   
 43  19  51  1   
 44  20  22  1   
 45  20  52  1   
 46  20  53  1   
 47  22  23  ar  
 48  22  24  ar  
 49  23  25  ar  
 50  23  26  ar  
 51  24  27  ar  
 52  24  54  1   
 53  25  28  ar  
 54  25  29  ar  
 55  26  30  ar  
 56  26  55  1   
 57  27  28  ar  
 58  27  56  1   
 59  29  31  ar  
 60  29  57  1   
 61  30  31  ar  
 62  30  58  1   
 63  31  59  1   
@<TRIPOS>SUBSTRUCTURE
  1 ****  11 GROUP 4 **** **** 0

# MOE 2024.06 (io_trps.svl 2023.06)
