@<TRIPOS>MOLECULE
NONAME
49 51 1 0 0 
SMALL
USER_CHARGES


@<TRIPOS>ATOM
  1 S       -1.5820    -0.0230     1.6050 S.3   1 <1>  -0.0800 
  2 C       -2.1100    -1.6920     1.7020 C.2   1 <1>  -0.1100 
  3 C       -1.5290    -0.0970    -0.1450 C.2   1 <1>  -0.1100 
  4 C       -2.2390    -2.2280     0.4720 C.2   1 <1>  -0.1810 
  5 C       -1.8970    -1.3150    -0.5820 C.2   1 <1>  -0.1500 
  6 C       -2.6930    -3.6440     0.1870 C.3   1 <1>   0.5240 
  7 N       -4.1790    -3.6490     0.1900 N.4   1 <1>  -0.9590 
  8 C       -4.7290    -5.0380     0.3740 C.3   1 <1>   0.3430 
  9 C       -4.7340    -2.9950    -1.0320 C.3   1 <1>   0.3430 
 10 C       -6.2260    -5.0900     0.7530 C.3   1 <1>   0.1400 
 11 C       -5.9150    -2.0940    -0.6730 C.3   1 <1>  -0.1600 
 12 N       -7.0780    -4.2120    -0.1120 N.am  1 <1>  -0.6600 
 13 C       -6.9880    -2.7580     0.1930 C.3   1 <1>   0.1400 
 14 C       -7.9740    -4.6500    -1.0670 C.2   1 <1>   0.5690 
 15 O       -8.4320    -3.8710    -1.8680 O.2   1 <1>  -0.5700 
 16 C       -8.3850    -6.1150    -1.2120 C.3   1 <1>   0.1810 
 17 O       -8.7510    -6.6810     0.0380 O.3   1 <1>  -0.3630 
 18 C       -8.9570    -8.0140     0.1670 C.ar  1 <1>   0.0830 
 19 C       -9.0070    -8.8990    -0.9060 C.ar  1 <1>  -0.1500 
 20 C       -9.1180    -8.4980     1.4550 C.ar  1 <1>  -0.1500 
 21 C       -9.1980   -10.2510    -0.6780 C.ar  1 <1>  -0.1500 
 22 C       -9.3090    -9.8500     1.6780 C.ar  1 <1>  -0.1500 
 23 C       -9.3470   -10.7340     0.6120 C.ar  1 <1>  -0.1430 
 24 C       -9.5590   -12.2180     0.8550 C.3   1 <1>  -0.0970 
 25 H       -2.2670    -2.0840     2.6930 H     1 <1>   0.1500 
 26 H       -1.2170     0.7930    -0.6660 H     1 <1>   0.1500 
 27 H       -1.9270    -1.5980    -1.6210 H     1 <1>   0.1500 
 28 H       -2.3230    -4.2890     0.9680 H     1 <1>   0.0800 
 29 H       -2.3040    -3.9870    -0.7580 H     1 <1>   0.0800 
 30 H       -4.4570    -3.0650     0.9870 H     1 <1>   0.4500 
 31 H       -4.1760    -5.5450     1.1470 H     1 <1>   0.0800 
 32 H       -4.5910    -5.5980    -0.5370 H     1 <1>   0.0800 
 33 H       -5.0640    -3.7460    -1.7320 H     1 <1>   0.0800 
 34 H       -3.9830    -2.3960    -1.5180 H     1 <1>   0.0800 
 35 H       -6.3480    -4.7950     1.7810 H     1 <1>   0.0800 
 36 H       -6.5430    -6.1140     0.6900 H     1 <1>   0.0800 
 37 H       -6.3800    -1.7830    -1.5920 H     1 <1>   0.0800 
 38 H       -5.5630    -1.1990    -0.1890 H     1 <1>   0.0800 
 39 H       -7.9400    -2.2850     0.0130 H     1 <1>   0.0800 
 40 H       -6.7610    -2.6230     1.2370 H     1 <1>   0.0800 
 41 H       -7.5650    -6.6770    -1.6170 H     1 <1>   0.0800 
 42 H       -9.2350    -6.1860    -1.8670 H     1 <1>   0.0800 
 43 H       -8.9070    -8.5630    -1.9200 H     1 <1>   0.1500 
 44 H       -9.0950    -7.8140     2.2830 H     1 <1>   0.1500 
 45 H       -9.2350   -10.9300    -1.5130 H     1 <1>   0.1500 
 46 H       -9.4320   -10.2110     2.6840 H     1 <1>   0.1500 
 47 H       -9.0690   -12.7990     0.0950 H     1 <1>   0.0800 
 48 H      -10.6100   -12.4420     0.8400 H     1 <1>   0.0800 
 49 H       -9.1570   -12.5040     1.8110 H     1 <1>   0.0800 
@<TRIPOS>BOND
  1   1   2  1   
  2   1   3  1   
  3   2   4  2   
  4   2  25  1   
  5   3   5  2   
  6   3  26  1   
  7   4   5  1   
  8   4   6  1   
  9   5  27  1   
 10   6   7  1   
 11   6  28  1   
 12   6  29  1   
 13   7   8  1   
 14   7   9  1   
 15   7  30  1   
 16   8  10  1   
 17   8  31  1   
 18   8  32  1   
 19   9  11  1   
 20   9  33  1   
 21   9  34  1   
 22  10  12  1   
 23  10  35  1   
 24  10  36  1   
 25  11  13  1   
 26  11  37  1   
 27  11  38  1   
 28  12  13  1   
 29  12  14  am  
 30  13  39  1   
 31  13  40  1   
 32  14  15  2   
 33  14  16  1   
 34  16  17  1   
 35  16  41  1   
 36  16  42  1   
 37  17  18  1   
 38  18  19  ar  
 39  18  20  ar  
 40  19  21  ar  
 41  19  43  1   
 42  20  22  ar  
 43  20  44  1   
 44  21  23  ar  
 45  21  45  1   
 46  22  23  ar  
 47  22  46  1   
 48  23  24  1   
 49  24  47  1   
 50  24  48  1   
 51  24  49  1   
@<TRIPOS>SUBSTRUCTURE
  1 ****  10 GROUP 4 **** **** 0

# MOE 2024.06 (io_trps.svl 2023.06)
