@<TRIPOS>MOLECULE
NONAME
51 53 1 0 0 
SMALL
USER_CHARGES


@<TRIPOS>ATOM
  1 O       -0.8600     1.1730    -2.1140 O.co2 1 <1>  -0.9000 
  2 C       -1.0700     1.2770    -0.9010 C.2   1 <1>   0.9060 
  3 O       -1.4910     0.3500    -0.2070 O.co2 1 <1>  -0.9000 
  4 C       -0.8840     2.6290    -0.2440 C.3   1 <1>  -0.1060 
  5 C       -2.2820     3.0160     0.3130 C.3   1 <1>   0.2000 
  6 C       -0.5230     3.6020    -1.3700 C.3   1 <1>   0.3430 
  7 C        0.2530     2.5310     0.8230 C.3   1 <1>  -0.0650 
  8 O       -2.3350     2.7540     1.6650 O.3   1 <1>  -0.6800 
  9 C       -2.6580     4.4880     0.1190 C.3   1 <1>  -0.1600 
 10 N       -0.4900     5.0530    -0.9380 N.4   1 <1>  -0.9590 
 11 C        1.6490     2.2310     0.2480 C.3   1 <1>  -0.1950 
 12 C       -1.4130     5.3540     0.2080 C.3   1 <1>   0.3430 
 13 C        0.9070     5.4740    -0.6570 C.3   1 <1>   0.3430 
 14 C        2.0530     0.8230    -0.0490 C.3   1 <1>  -0.2000 
 15 C        2.6810     1.5630     1.0990 C.3   1 <1>  -0.2000 
 16 C        1.0090     6.9950    -0.5870 C.3   1 <1>  -0.1600 
 17 C        2.4580     7.4210    -0.3640 C.3   1 <1>   0.1200 
 18 O        2.4730     8.8230    -0.2940 O.3   1 <1>  -0.3630 
 19 C        3.6250     9.5080    -0.0870 C.ar  1 <1>   0.0830 
 20 C        3.5270    10.8900    -0.0280 C.ar  1 <1>  -0.1500 
 21 C        4.8710     8.9040     0.0670 C.ar  1 <1>  -0.1500 
 22 C        4.6530    11.6660     0.1810 C.ar  1 <1>  -0.1500 
 23 C        5.9970     9.6820     0.2760 C.ar  1 <1>  -0.1500 
 24 C        5.8890    11.0620     0.3330 C.ar  1 <1>  -0.1500 
 25 H       -3.0510     2.4120    -0.1460 H     1 <1>   0.0800 
 26 H       -1.2710     3.4840    -2.1390 H     1 <1>   0.0800 
 27 H        0.4140     3.3070    -1.8120 H     1 <1>   0.0800 
 28 H        0.3040     3.4320     1.4040 H     1 <1>   0.0800 
 29 H        0.0080     1.7380     1.5110 H     1 <1>   0.0800 
 30 H       -2.2310     1.7790     1.7720 H     1 <1>   0.4000 
 31 H       -3.1190     4.6240    -0.8420 H     1 <1>   0.0800 
 32 H       -3.3750     4.7850     0.8650 H     1 <1>   0.0800 
 33 H       -0.8180     5.5870    -1.7520 H     1 <1>   0.4500 
 34 H        2.0140     2.9780    -0.4300 H     1 <1>   0.1000 
 35 H       -0.9220     5.1430     1.1440 H     1 <1>   0.0800 
 36 H       -1.6870     6.3970     0.1970 H     1 <1>   0.0800 
 37 H        1.2400     5.0410     0.2720 H     1 <1>   0.0800 
 38 H        1.5520     5.1150    -1.4430 H     1 <1>   0.0800 
 39 H        1.3490     0.0320     0.1550 H     1 <1>   0.1000 
 40 H        2.6250     0.6330    -0.9400 H     1 <1>   0.1000 
 41 H        3.7120     1.8550     1.0100 H     1 <1>   0.1000 
 42 H        2.4270     1.2440     2.0960 H     1 <1>   0.1000 
 43 H        0.4210     7.3720     0.2300 H     1 <1>   0.0800 
 44 H        0.6640     7.4250    -1.5110 H     1 <1>   0.0800 
 45 H        3.0870     7.1180    -1.1840 H     1 <1>   0.0800 
 46 H        2.8400     7.0340     0.5660 H     1 <1>   0.0800 
 47 H        2.5650    11.3540    -0.1470 H     1 <1>   0.1500 
 48 H        4.9900     7.8390     0.0270 H     1 <1>   0.1500 
 49 H        4.5680    12.7380     0.2250 H     1 <1>   0.1500 
 50 H        6.9600     9.2160     0.3940 H     1 <1>   0.1500 
 51 H        6.7660    11.6640     0.4960 H     1 <1>   0.1500 
@<TRIPOS>BOND
  1   1   2  ar  
  2   2   3  ar  
  3   2   4  1   
  4   4   5  1   
  5   4   6  1   
  6   4   7  1   
  7   5   8  1   
  8   5   9  1   
  9   5  25  1   
 10   6  10  1   
 11   6  26  1   
 12   6  27  1   
 13   7  11  1   
 14   7  28  1   
 15   7  29  1   
 16   8  30  1   
 17   9  12  1   
 18   9  31  1   
 19   9  32  1   
 20  10  12  1   
 21  10  13  1   
 22  10  33  1   
 23  11  14  1   
 24  11  15  1   
 25  11  34  1   
 26  12  35  1   
 27  12  36  1   
 28  13  16  1   
 29  13  37  1   
 30  13  38  1   
 31  14  15  1   
 32  14  39  1   
 33  14  40  1   
 34  15  41  1   
 35  15  42  1   
 36  16  17  1   
 37  16  43  1   
 38  16  44  1   
 39  17  18  1   
 40  17  45  1   
 41  17  46  1   
 42  18  19  1   
 43  19  20  ar  
 44  19  21  ar  
 45  20  22  ar  
 46  20  47  1   
 47  21  23  ar  
 48  21  48  1   
 49  22  24  ar  
 50  22  49  1   
 51  23  24  ar  
 52  23  50  1   
 53  24  51  1   
@<TRIPOS>SUBSTRUCTURE
  1 ****  13 GROUP 4 **** **** 0

# MOE 2024.06 (io_trps.svl 2023.06)
