@<TRIPOS>MOLECULE
NONAME
51 53 1 0 0 
SMALL
USER_CHARGES


@<TRIPOS>ATOM
  1 O       -1.3980    -0.4540    -0.7940 O.2   1 <1>  -0.5700 
  2 C       -0.3660    -0.6500    -1.3920 C.2   1 <1>   0.5690 
  3 N        0.7490     0.0750    -1.1260 N.am  1 <1>  -0.7300 
  4 C       -0.3210    -1.7490    -2.4660 C.3   1 <1>   0.2610 
  5 C        0.8890     1.0320    -0.0250 C.3   1 <1>   0.3210 
  6 O        0.9450    -2.3960    -2.4870 O.3   1 <1>  -0.3630 
  7 C       -0.5570    -1.1890    -3.8720 C.3   1 <1>  -0.2400 
  8 C        2.3710     1.1790     0.2610 C.2   1 <1>  -0.1810 
  9 C        1.3960    -3.1170    -1.4260 C.ar  1 <1>   0.0820 
 10 C        3.1530     0.2840     0.9850 C.2   1 <1>   0.1080 
 11 C        3.2240     2.1610    -0.1120 C.2   1 <1>  -0.3320 
 12 C        0.5880    -3.4990    -0.3520 C.ar  1 <1>  -0.1500 
 13 C        2.7460    -3.4650    -1.4450 C.ar  1 <1>  -0.1500 
 14 N        4.3840     0.6690     1.0670 N.2   1 <1>  -0.7070 
 15 C        2.6900    -1.0050     1.6290 C.3   1 <1>  -0.0590 
 16 N        4.4410     1.8350     0.3910 N.pl3 1 <1>   0.3140 
 17 C        2.9410     3.4090    -0.9370 C.3   1 <1>  -0.0600 
 18 C        1.1760    -4.2170     0.6690 C.ar  1 <1>   0.0820 
 19 C        3.3150    -4.1900    -0.4060 C.ar  1 <1>  -0.1500 
 20 C        5.7150     2.6070     0.2570 C.3   1 <1>   0.1760 
 21 O        0.6060    -4.6760     1.7890 O.3   1 <1>  -0.3630 
 22 C        2.4980    -4.5530     0.6450 C.ar  1 <1>   0.0820 
 23 C        6.7700     1.7870    -0.4990 C.3   1 <1>  -0.2400 
 24 C        6.2390     3.0320     1.6360 C.3   1 <1>  -0.2400 
 25 C        1.6280    -5.3490     2.5220 C.3   1 <1>   0.4000 
 26 O        2.8210    -5.2400     1.7480 O.3   1 <1>  -0.3620 
 27 H        1.6390    -0.1950    -1.5540 H     1 <1>   0.3700 
 28 H       -1.0710    -2.4890    -2.2540 H     1 <1>   0.0800 
 29 H        0.3710     0.6720     0.8470 H     1 <1>   0.0800 
 30 H        0.4600     1.9750    -0.3120 H     1 <1>   0.0800 
 31 H        0.1970    -0.4610    -4.1150 H     1 <1>   0.0800 
 32 H       -1.5200    -0.7110    -3.9130 H     1 <1>   0.0800 
 33 H       -0.5380    -1.9840    -4.5950 H     1 <1>   0.0800 
 34 H       -0.4560    -3.2630    -0.2820 H     1 <1>   0.1500 
 35 H        3.3510    -3.1620    -2.2810 H     1 <1>   0.1500 
 36 H        1.7430    -1.3170     1.2350 H     1 <1>   0.0800 
 37 H        2.6040    -0.8630     2.6890 H     1 <1>   0.0800 
 38 H        3.4140    -1.7760     1.4400 H     1 <1>   0.0800 
 39 H        1.9160     3.4330    -1.2570 H     1 <1>   0.0800 
 40 H        3.5650     3.4220    -1.8120 H     1 <1>   0.0800 
 41 H        3.1360     4.2900    -0.3520 H     1 <1>   0.0800 
 42 H        4.3550    -4.4610    -0.4080 H     1 <1>   0.1500 
 43 H        5.5070     3.4940    -0.3110 H     1 <1>   0.0800 
 44 H        7.0110     0.8950     0.0510 H     1 <1>   0.0800 
 45 H        7.6670     2.3640    -0.6300 H     1 <1>   0.0800 
 46 H        6.3950     1.5090    -1.4680 H     1 <1>   0.0800 
 47 H        6.4730     2.1650     2.2280 H     1 <1>   0.0800 
 48 H        5.4950     3.6150     2.1490 H     1 <1>   0.0800 
 49 H        7.1280     3.6270     1.5300 H     1 <1>   0.0800 
 50 H        1.3660    -6.3850     2.6380 H     1 <1>   0.0800 
 51 H        1.7690    -4.8640     3.4720 H     1 <1>   0.0800 
@<TRIPOS>BOND
  1   1   2  2   
  2   2   3  am  
  3   2   4  1   
  4   3   5  1   
  5   3  27  1   
  6   4   6  1   
  7   4   7  1   
  8   4  28  1   
  9   5   8  1   
 10   5  29  1   
 11   5  30  1   
 12   6   9  1   
 13   7  31  1   
 14   7  32  1   
 15   7  33  1   
 16   8  10  1   
 17   8  11  2   
 18   9  12  ar  
 19   9  13  ar  
 20  10  14  2   
 21  10  15  1   
 22  11  16  1   
 23  11  17  1   
 24  12  18  ar  
 25  12  34  1   
 26  13  19  ar  
 27  13  35  1   
 28  14  16  1   
 29  15  36  1   
 30  15  37  1   
 31  15  38  1   
 32  16  20  1   
 33  17  39  1   
 34  17  40  1   
 35  17  41  1   
 36  18  21  1   
 37  18  22  ar  
 38  19  22  ar  
 39  19  42  1   
 40  20  23  1   
 41  20  24  1   
 42  20  43  1   
 43  21  25  1   
 44  22  26  1   
 45  23  44  1   
 46  23  45  1   
 47  23  46  1   
 48  24  47  1   
 49  24  48  1   
 50  24  49  1   
 51  25  26  1   
 52  25  50  1   
 53  25  51  1   
@<TRIPOS>SUBSTRUCTURE
  1 ****  15 GROUP 4 **** **** 0

# MOE 2024.06 (io_trps.svl 2023.06)
