@<TRIPOS>MOLECULE
NONAME
50 53 1 0 0 
SMALL
USER_CHARGES


@<TRIPOS>ATOM
  1 O        2.3840    -0.7610     1.6220 O.2   1 <1>  -0.5700 
  2 C        3.2400    -1.2050     0.8850 C.2   1 <1>   0.5690 
  3 N        4.5580    -1.2520     1.2920 N.am  1 <1>  -0.6600 
  4 C        2.8140    -1.7480    -0.5050 C.3   1 <1>   0.2610 
  5 C        5.6810    -1.6270     0.3630 C.3   1 <1>   0.1400 
  6 C        4.9200    -0.8300     2.6760 C.3   1 <1>   0.1400 
  7 O        3.1640    -0.8630    -1.5320 O.3   1 <1>  -0.5600 
  8 C        1.3080    -1.9290    -0.7090 C.3   1 <1>  -0.1600 
  9 C        7.0140    -0.9100     0.6350 C.3   1 <1>   0.1400 
 10 C        5.2480     0.6680     2.7150 C.3   1 <1>  -0.1600 
 11 C        2.1700     0.0970    -1.6800 C.3   1 <1>   0.1200 
 12 C        0.8640    -0.5950    -1.2950 C.3   1 <1>  -0.1600 
 13 N        6.8210     0.5600     0.7790 N.am  1 <1>  -0.6600 
 14 C        6.6370     1.0270     2.1790 C.3   1 <1>   0.1400 
 15 C        6.7480     1.3570    -0.3380 C.2   1 <1>   0.5690 
 16 O        6.9520     0.9020    -1.4420 O.2   1 <1>  -0.5700 
 17 C        6.3820     2.8280    -0.2530 C.3   1 <1>   0.0820 
 18 C        7.5240     3.6770     0.2730 C.2   1 <1>   0.1080 
 19 N        7.4130     4.4350     1.3150 N.2   1 <1>  -0.7070 
 20 C        8.8040     3.7400    -0.3130 C.ar  1 <1>   0.0000 
 21 N        8.6240     5.0240     1.4470 N.pl3 1 <1>   0.3000 
 22 C        9.4980     4.6280     0.4810 C.ar  1 <1>  -0.1520 
 23 C        9.4480     3.1550    -1.4140 C.ar  1 <1>  -0.1500 
 24 C       10.8320     4.9580     0.2170 C.ar  1 <1>  -0.1500 
 25 C       10.7580     3.4730    -1.6800 C.ar  1 <1>  -0.1500 
 26 C       11.4530     4.3770    -0.8630 C.ar  1 <1>  -0.1500 
 27 H        3.3220    -2.6780    -0.6810 H     1 <1>   0.0800 
 28 H        5.4060    -1.3950    -0.6500 H     1 <1>   0.0800 
 29 H        5.8400    -2.6880     0.4220 H     1 <1>   0.0800 
 30 H        5.7460    -1.4140     3.0410 H     1 <1>   0.0800 
 31 H        4.0850    -1.0180     3.3300 H     1 <1>   0.0800 
 32 H        0.7930    -2.1750     0.2030 H     1 <1>   0.0800 
 33 H        1.1460    -2.7160    -1.4230 H     1 <1>   0.0800 
 34 H        7.6850    -1.1030    -0.1850 H     1 <1>   0.0800 
 35 H        7.4750    -1.3110     1.5190 H     1 <1>   0.0800 
 36 H        5.2030     0.9900     3.7390 H     1 <1>   0.0800 
 37 H        4.4930     1.2170     2.1810 H     1 <1>   0.0800 
 38 H        2.1700     0.4440    -2.6990 H     1 <1>   0.0800 
 39 H        2.3900     0.9110    -1.0100 H     1 <1>   0.0800 
 40 H        0.3440    -0.0030    -0.5620 H     1 <1>   0.0800 
 41 H        0.2310    -0.7320    -2.1540 H     1 <1>   0.0800 
 42 H        7.3920     0.5760     2.8000 H     1 <1>   0.0800 
 43 H        6.7740     2.0900     2.2470 H     1 <1>   0.0800 
 44 H        5.5210     2.9420     0.3770 H     1 <1>   0.0800 
 45 H        6.1170     3.1790    -1.2320 H     1 <1>   0.0800 
 46 H        8.8350     5.6960     2.1920 H     1 <1>   0.2700 
 47 H        8.9080     2.4620    -2.0360 H     1 <1>   0.1500 
 48 H       11.3540     5.6530     0.8500 H     1 <1>   0.1500 
 49 H       11.2640     3.0300    -2.5190 H     1 <1>   0.1500 
 50 H       12.4780     4.6080    -1.0940 H     1 <1>   0.1500 
@<TRIPOS>BOND
  1   1   2  2   
  2   2   3  am  
  3   2   4  1   
  4   3   5  1   
  5   3   6  1   
  6   4   7  1   
  7   4   8  1   
  8   4  27  1   
  9   5   9  1   
 10   5  28  1   
 11   5  29  1   
 12   6  10  1   
 13   6  30  1   
 14   6  31  1   
 15   7  11  1   
 16   8  12  1   
 17   8  32  1   
 18   8  33  1   
 19   9  13  1   
 20   9  34  1   
 21   9  35  1   
 22  10  14  1   
 23  10  36  1   
 24  10  37  1   
 25  11  12  1   
 26  11  38  1   
 27  11  39  1   
 28  12  40  1   
 29  12  41  1   
 30  13  14  1   
 31  13  15  am  
 32  14  42  1   
 33  14  43  1   
 34  15  16  2   
 35  15  17  1   
 36  17  18  1   
 37  17  44  1   
 38  17  45  1   
 39  18  19  2   
 40  18  20  1   
 41  19  21  1   
 42  20  22  ar  
 43  20  23  ar  
 44  21  22  1   
 45  21  46  1   
 46  22  24  ar  
 47  23  25  ar  
 48  23  47  1   
 49  24  26  ar  
 50  24  48  1   
 51  25  26  ar  
 52  25  49  1   
 53  26  50  1   
@<TRIPOS>SUBSTRUCTURE
  1 ****  15 GROUP 4 **** **** 0

# MOE 2024.06 (io_trps.svl 2023.06)
