@<TRIPOS>MOLECULE
NONAME
50 54 1 0 0 
SMALL
USER_CHARGES


@<TRIPOS>ATOM
  1 O        2.1860     0.2800    -1.1570 O.3   1 <1>  -0.6800 
  2 C        1.5570     0.1140     0.0670 C.3   1 <1>   0.4240 
  3 C        0.6510     1.3360     0.3400 C.ar  1 <1>  -0.1440 
  4 C        2.6880    -0.0310     1.1160 C.3   1 <1>  -0.0800 
  5 C        0.7110    -1.1750    -0.0240 C.3   1 <1>  -0.1600 
  6 C        0.3540     2.2750    -0.6440 C.ar  1 <1>  -0.1500 
  7 C        0.0920     1.5200     1.6020 C.ar  1 <1>  -0.1500 
  8 C        3.6150    -1.2370     0.8560 C.3   1 <1>  -0.0800 
  9 C        3.6280     1.1720     1.1160 C.3   1 <1>   0.2090 
 10 C        1.4520    -2.4720     0.3710 C.3   1 <1>  -0.1600 
 11 C       -0.4510     3.3670    -0.3730 C.ar  1 <1>  -0.1500 
 12 C       -0.7130     2.6120     1.8770 C.ar  1 <1>  -0.1500 
 13 C        2.9510    -2.3880     0.0660 C.3   1 <1>  -0.1600 
 14 C        4.8580    -0.6690     0.1570 C.3   1 <1>   0.2090 
 15 N        4.6850     0.8130     0.1360 N.pl3 1 <1>  -0.8220 
 16 C       -0.9840     3.5390     0.8900 C.ar  1 <1>  -0.1500 
 17 C        5.8360     1.6250     0.0670 C.2   1 <1>   0.2700 
 18 N        7.0380     1.1740     0.1620 N.2   1 <1>  -0.3380 
 19 N        5.8820     2.9650    -0.0990 N.pl3 1 <1>   0.5930 
 20 N        7.8390     2.2310     0.0800 N.2   1 <1>   0.0000 
 21 N        7.1690     3.3090    -0.0690 N.2   1 <1>  -0.4180 
 22 C        4.8260     3.8990    -0.2980 C.ar  1 <1>  -0.0230 
 23 C        3.8390     3.6690    -1.2530 C.ar  1 <1>  -0.1500 
 24 C        4.7610     5.0640     0.4620 C.ar  1 <1>  -0.1500 
 25 C        2.8100     4.5740    -1.4350 C.ar  1 <1>  -0.1500 
 26 C        3.7300     5.9680     0.2810 C.ar  1 <1>  -0.1500 
 27 C        2.7520     5.7230    -0.6660 C.ar  1 <1>  -0.1500 
 28 H        3.1200     0.5320    -0.9570 H     1 <1>   0.4000 
 29 H        2.2450    -0.1350     2.0870 H     1 <1>   0.0800 
 30 H       -0.1440    -1.0840     0.6210 H     1 <1>   0.0800 
 31 H        0.3300    -1.2630    -1.0270 H     1 <1>   0.0800 
 32 H        0.7460     2.1650    -1.6400 H     1 <1>   0.1500 
 33 H        0.2680     0.8110     2.3900 H     1 <1>   0.1500 
 34 H        3.9280    -1.6230     1.8110 H     1 <1>   0.0800 
 35 H        4.0730     1.2950     2.0890 H     1 <1>   0.0800 
 36 H        3.1200     2.0820     0.8430 H     1 <1>   0.0800 
 37 H        1.3240    -2.6480     1.4250 H     1 <1>   0.0800 
 38 H        1.0170    -3.3060    -0.1530 H     1 <1>   0.0800 
 39 H       -0.6640     4.0810    -1.1490 H     1 <1>   0.1500 
 40 H       -1.1330     2.7380     2.8600 H     1 <1>   0.1500 
 41 H        3.0670    -2.2330    -0.9940 H     1 <1>   0.0800 
 42 H        3.4310    -3.3200     0.3100 H     1 <1>   0.0800 
 43 H        4.9450    -1.0270    -0.8550 H     1 <1>   0.0800 
 44 H        5.7450    -0.9480     0.7000 H     1 <1>   0.0800 
 45 H       -1.6100     4.3890     1.1010 H     1 <1>   0.1500 
 46 H        3.8690     2.7760    -1.8560 H     1 <1>   0.1500 
 47 H        5.5210     5.2660     1.1980 H     1 <1>   0.1500 
 48 H        2.0510     4.3840    -2.1740 H     1 <1>   0.1500 
 49 H        3.6880     6.8640     0.8760 H     1 <1>   0.1500 
 50 H        1.9480     6.4250    -0.8060 H     1 <1>   0.1500 
@<TRIPOS>BOND
  1   1   2  1   
  2   1  28  1   
  3   2   3  1   
  4   2   4  1   
  5   2   5  1   
  6   3   6  ar  
  7   3   7  ar  
  8   4   8  1   
  9   4   9  1   
 10   4  29  1   
 11   5  10  1   
 12   5  30  1   
 13   5  31  1   
 14   6  11  ar  
 15   6  32  1   
 16   7  12  ar  
 17   7  33  1   
 18   8  13  1   
 19   8  14  1   
 20   8  34  1   
 21   9  15  1   
 22   9  35  1   
 23   9  36  1   
 24  10  13  1   
 25  10  37  1   
 26  10  38  1   
 27  11  16  ar  
 28  11  39  1   
 29  12  16  ar  
 30  12  40  1   
 31  13  41  1   
 32  13  42  1   
 33  14  15  1   
 34  14  43  1   
 35  14  44  1   
 36  15  17  1   
 37  16  45  1   
 38  17  18  2   
 39  17  19  1   
 40  18  20  1   
 41  19  21  1   
 42  19  22  1   
 43  20  21  2   
 44  22  23  ar  
 45  22  24  ar  
 46  23  25  ar  
 47  23  46  1   
 48  24  26  ar  
 49  24  47  1   
 50  25  27  ar  
 51  25  48  1   
 52  26  27  ar  
 53  26  49  1   
 54  27  50  1   
@<TRIPOS>SUBSTRUCTURE
  1 ****   9 GROUP 4 **** **** 0

# MOE 2024.06 (io_trps.svl 2023.06)
