@<TRIPOS>MOLECULE
NONAME
49 52 1 0 0 
SMALL
USER_CHARGES


@<TRIPOS>ATOM
  1 O       -0.6140     0.2020     1.0090 O.2   1 <1>  -0.5700 
  2 C       -1.5220     0.7950     0.4770 C.2   1 <1>   0.5690 
  3 N       -2.5930     0.1320    -0.0480 N.am  1 <1>  -0.6600 
  4 C       -1.4470     2.3070     0.3820 C.3   1 <1>  -0.0990 
  5 C       -3.7630     0.7210    -0.7510 C.3   1 <1>   0.1400 
  6 C       -2.7180    -1.3470     0.0060 C.3   1 <1>   0.1400 
  7 C       -0.3020     2.8830     1.2290 C.3   1 <1>   0.0960 
  8 C       -4.8130    -0.3880    -0.7300 C.3   1 <1>   0.2000 
  9 C       -3.9830    -1.6770    -0.7990 C.3   1 <1>  -0.0800 
 10 N       -0.2160     4.3450     1.0560 N.pl3 1 <1>   0.3140 
 11 O       -5.4790    -0.3230     0.4860 O.3   1 <1>  -0.6800 
 12 C       -4.7260    -2.9430    -0.3210 C.3   1 <1>  -0.0160 
 13 N       -1.1340     5.1680     1.5120 N.2   1 <1>  -0.4180 
 14 C        0.7010     5.0740     0.4380 C.2   1 <1>   0.0060 
 15 C       -4.0010    -4.2830    -0.5060 C.ar  1 <1>  -0.1440 
 16 N       -0.7630     6.3500     1.1720 N.2   1 <1>   0.0000 
 17 N        0.3810     6.3080     0.4990 N.2   1 <1>  -0.3380 
 18 C        1.9470     4.5420    -0.2480 C.3   1 <1>  -0.0600 
 19 C       -4.5340    -5.4550     0.0860 C.ar  1 <1>   0.0000 
 20 C       -2.8520    -4.4270    -1.2330 C.ar  1 <1>  -0.1500 
 21 C       -3.8310    -6.6720    -0.0930 C.ar  1 <1>   0.3100 
 22 C       -5.7310    -5.4950     0.8420 C.ar  1 <1>  -0.1500 
 23 C       -2.2380    -5.6800    -1.3520 C.ar  1 <1>   0.1600 
 24 N       -2.6860    -6.7670    -0.8130 N.ar  1 <1>  -0.6200 
 25 C       -4.3340    -7.8450     0.4920 C.ar  1 <1>  -0.1500 
 26 C       -6.1960    -6.6560     1.3980 C.ar  1 <1>  -0.1500 
 27 C       -5.4900    -7.8480     1.2240 C.ar  1 <1>  -0.1500 
 28 H       -1.3050     2.5740    -0.6480 H     1 <1>   0.0800 
 29 H       -2.3750     2.7230     0.7290 H     1 <1>   0.0800 
 30 H       -4.1260     1.6130    -0.2700 H     1 <1>   0.0800 
 31 H       -3.4860     0.9430    -1.7670 H     1 <1>   0.0800 
 32 H       -1.8420    -1.8150    -0.4080 H     1 <1>   0.0800 
 33 H       -2.8250    -1.6530     1.0340 H     1 <1>   0.0800 
 34 H        0.6330     2.4390     0.9420 H     1 <1>   0.0800 
 35 H       -0.4730     2.6720     2.2690 H     1 <1>   0.0800 
 36 H       -5.5370    -0.3010    -1.5210 H     1 <1>   0.0800 
 37 H       -3.7020    -1.8080    -1.8290 H     1 <1>   0.0800 
 38 H       -4.8190    -0.2690     1.2060 H     1 <1>   0.4000 
 39 H       -5.6670    -3.0010    -0.8390 H     1 <1>   0.0800 
 40 H       -4.9430    -2.8250     0.7260 H     1 <1>   0.0800 
 41 H        2.4940     5.3550    -0.6900 H     1 <1>   0.0800 
 42 H        1.6780     3.8480    -1.0230 H     1 <1>   0.0800 
 43 H        2.5830     4.0520     0.4670 H     1 <1>   0.0800 
 44 H       -2.3740    -3.6120    -1.7380 H     1 <1>   0.1500 
 45 H       -6.2980    -4.5950     0.9880 H     1 <1>   0.1500 
 46 H       -1.3320    -5.7420    -1.9310 H     1 <1>   0.1500 
 47 H       -3.7750    -8.7500     0.3410 H     1 <1>   0.1500 
 48 H       -7.1070    -6.6670     1.9710 H     1 <1>   0.1500 
 49 H       -5.8640    -8.7550     1.6660 H     1 <1>   0.1500 
@<TRIPOS>BOND
  1   1   2  2   
  2   2   3  am  
  3   2   4  1   
  4   3   5  1   
  5   3   6  1   
  6   4   7  1   
  7   4  28  1   
  8   4  29  1   
  9   5   8  1   
 10   5  30  1   
 11   5  31  1   
 12   6   9  1   
 13   6  32  1   
 14   6  33  1   
 15   7  10  1   
 16   7  34  1   
 17   7  35  1   
 18   8   9  1   
 19   8  11  1   
 20   8  36  1   
 21   9  12  1   
 22   9  37  1   
 23  10  13  1   
 24  10  14  1   
 25  11  38  1   
 26  12  15  1   
 27  12  39  1   
 28  12  40  1   
 29  13  16  2   
 30  14  17  2   
 31  14  18  1   
 32  15  19  ar  
 33  15  20  ar  
 34  16  17  1   
 35  18  41  1   
 36  18  42  1   
 37  18  43  1   
 38  19  21  ar  
 39  19  22  ar  
 40  20  23  ar  
 41  20  44  1   
 42  21  24  ar  
 43  21  25  ar  
 44  22  26  ar  
 45  22  45  1   
 46  23  24  ar  
 47  23  46  1   
 48  25  27  ar  
 49  25  47  1   
 50  26  27  ar  
 51  26  48  1   
 52  27  49  1   
@<TRIPOS>SUBSTRUCTURE
  1 ****   6 GROUP 4 **** **** 0

# MOE 2024.06 (io_trps.svl 2023.06)
