@<TRIPOS>MOLECULE
NONAME
43 45 1 0 0 
SMALL
USER_CHARGES


@<TRIPOS>ATOM
  1 F       -0.7840     0.4130    -0.0940 F     1 <1>  -0.3400 
  2 C       -1.9450    -0.2310    -0.0890 C.3   1 <1>   1.1640 
  3 F       -2.6200     0.2190     0.9590 F     1 <1>  -0.3400 
  4 F       -2.6010     0.1680    -1.1680 F     1 <1>  -0.3400 
  5 C       -1.7680    -1.7630    -0.0510 C.ar  1 <1>  -0.1440 
  6 C       -0.5300    -2.3730    -0.0240 C.ar  1 <1>  -0.1500 
  7 C       -2.9050    -2.5810    -0.0420 C.ar  1 <1>  -0.1500 
  8 C       -0.3970    -3.7700     0.0100 C.ar  1 <1>   0.3610 
  9 C       -2.7950    -3.9470    -0.0090 C.ar  1 <1>  -0.1500 
 10 N        0.8480    -4.3600     0.0360 N.ar  1 <1>  -0.1790 
 11 C       -1.5420    -4.5890     0.0190 C.ar  1 <1>   0.0000 
 12 C        1.0150    -5.6950     0.0700 C.ar  1 <1>   0.2180 
 13 C       -1.3800    -6.0080     0.0540 C.ar  1 <1>   0.1000 
 14 C       -0.0810    -6.5180     0.0790 C.ar  1 <1>  -0.1500 
 15 C        2.4310    -6.2480     0.0960 C.3   1 <1>  -0.0970 
 16 N       -2.4520    -6.8240     0.0640 N.pl3 1 <1>  -0.8690 
 17 C       -2.5490    -8.3230     0.0950 C.3   1 <1>   0.2700 
 18 C       -4.0030    -8.8260     0.0550 C.2   1 <1>   0.5690 
 19 O       -4.8950    -8.0040     0.0430 O.2   1 <1>  -0.5700 
 20 N       -4.2710   -10.1690     0.0330 N.am  1 <1>  -0.6600 
 21 C       -3.2820   -11.2710     0.0490 C.3   1 <1>   0.1400 
 22 C       -5.6520   -10.6950    -0.0230 C.3   1 <1>   0.1400 
 23 C       -4.1130   -12.5330     0.2540 C.3   1 <1>  -0.1600 
 24 C       -5.4910   -12.1850    -0.3020 C.3   1 <1>  -0.1600 
 25 H        0.3620    -1.7700    -0.0300 H     1 <1>   0.1500 
 26 H       -3.8860    -2.1280    -0.0620 H     1 <1>   0.1500 
 27 H       -3.6930    -4.5420    -0.0030 H     1 <1>   0.1500 
 28 H        1.6640    -3.7460     0.0290 H     1 <1>   0.4570 
 29 H        0.0520    -7.5830     0.1060 H     1 <1>   0.1500 
 30 H        2.9540    -5.9010     0.9700 H     1 <1>   0.0800 
 31 H        2.9710    -5.9430    -0.7830 H     1 <1>   0.0800 
 32 H        2.4180    -7.3240     0.1220 H     1 <1>   0.0800 
 33 H       -3.4160    -6.4450     0.0460 H     1 <1>   0.4000 
 34 H       -2.0890    -8.6850     0.9960 H     1 <1>   0.0800 
 35 H       -2.0260    -8.7270    -0.7520 H     1 <1>   0.0800 
 36 H       -2.5660   -11.1450     0.8430 H     1 <1>   0.0800 
 37 H       -2.7790   -11.3090    -0.9020 H     1 <1>   0.0800 
 38 H       -6.2210   -10.2030    -0.7950 H     1 <1>   0.0800 
 39 H       -6.1270   -10.5360     0.9300 H     1 <1>   0.0800 
 40 H       -4.1870   -12.7370     1.3080 H     1 <1>   0.0800 
 41 H       -3.6760   -13.3850    -0.2370 H     1 <1>   0.0800 
 42 H       -5.5080   -12.3440    -1.3660 H     1 <1>   0.0800 
 43 H       -6.2760   -12.7630     0.1510 H     1 <1>   0.0800 
@<TRIPOS>BOND
  1   1   2  1   
  2   2   3  1   
  3   2   4  1   
  4   2   5  1   
  5   5   6  ar  
  6   5   7  ar  
  7   6   8  ar  
  8   6  25  1   
  9   7   9  ar  
 10   7  26  1   
 11   8  10  ar  
 12   8  11  ar  
 13   9  11  ar  
 14   9  27  1   
 15  10  12  ar  
 16  10  28  1   
 17  11  13  ar  
 18  12  14  ar  
 19  12  15  1   
 20  13  14  ar  
 21  13  16  1   
 22  14  29  1   
 23  15  30  1   
 24  15  31  1   
 25  15  32  1   
 26  16  17  1   
 27  16  33  1   
 28  17  18  1   
 29  17  34  1   
 30  17  35  1   
 31  18  19  2   
 32  18  20  am  
 33  20  21  1   
 34  20  22  1   
 35  21  23  1   
 36  21  36  1   
 37  21  37  1   
 38  22  24  1   
 39  22  38  1   
 40  22  39  1   
 41  23  24  1   
 42  23  40  1   
 43  23  41  1   
 44  24  42  1   
 45  24  43  1   
@<TRIPOS>SUBSTRUCTURE
  1 ****  13 GROUP 4 **** **** 0

# MOE 2024.06 (io_trps.svl 2023.06)
