@<TRIPOS>MOLECULE
NONAME
41 42 1 0 0 
SMALL
USER_CHARGES


@<TRIPOS>ATOM
  1 CL      -0.3780    -0.4600    -0.8770 Cl    1 <1>  -0.1400 
  2 C       -1.7130    -1.2680    -0.0810 C.2   1 <1>   0.1540 
  3 C       -2.6540    -0.4760     0.6490 C.2   1 <1>   0.6160 
  4 C       -1.8340    -2.6190    -0.1690 C.2   1 <1>  -0.1500 
  5 O       -2.6230     0.7390     0.7660 O.2   1 <1>  -0.5700 
  6 N       -3.6760    -1.1500     1.2640 N.am  1 <1>  -0.5390 
  7 C       -2.9220    -3.2890     0.4710 C.2   1 <1>   0.0140 
  8 C       -3.8050    -2.5160     1.1870 C.2   1 <1>  -0.0410 
  9 C       -3.0360    -4.7240     0.3580 C.2   1 <1>   0.6160 
 10 O       -2.0510    -5.4170     0.5320 O.2   1 <1>  -0.5700 
 11 N       -4.2270    -5.3430     0.0460 N.am  1 <1>  -0.6600 
 12 C       -5.3810    -4.6890    -0.6270 C.3   1 <1>   0.1400 
 13 C       -4.3310    -6.8200    -0.1060 C.3   1 <1>   0.1400 
 14 C       -6.4250    -5.7960    -0.7460 C.3   1 <1>   0.2000 
 15 C       -5.5890    -7.0600    -0.9510 C.3   1 <1>  -0.0800 
 16 O       -7.0950    -5.8860     0.4650 O.3   1 <1>  -0.6800 
 17 C       -6.3400    -8.3740    -0.6380 C.3   1 <1>  -0.0550 
 18 S       -5.4460    -9.8620    -1.0940 S.o2  1 <1>   1.3330 
 19 O       -4.9140    -9.6640    -2.4240 O.2   1 <1>  -0.6500 
 20 O       -6.2750   -11.0120    -0.8160 O.2   1 <1>  -0.6500 
 21 N       -4.1460    -9.8930    -0.0020 N.am  1 <1>  -0.8490 
 22 C       -4.4780   -10.5100     1.2870 C.3   1 <1>   0.1160 
 23 C       -2.9520   -10.5290    -0.5670 C.3   1 <1>   0.1160 
 24 H       -1.1180    -3.2110    -0.7140 H     1 <1>   0.1500 
 25 H       -4.3150    -0.5520     1.7950 H     1 <1>   0.3700 
 26 H       -4.6270    -2.9670     1.7210 H     1 <1>   0.1500 
 27 H       -5.7650    -3.8520    -0.0720 H     1 <1>   0.0800 
 28 H       -5.0780    -4.3640    -1.6070 H     1 <1>   0.0800 
 29 H       -3.4550    -7.2220    -0.5900 H     1 <1>   0.0800 
 30 H       -4.4260    -7.2650     0.8700 H     1 <1>   0.0800 
 31 H       -7.1450    -5.6220    -1.5280 H     1 <1>   0.0800 
 32 H       -5.2830    -7.0810    -1.9830 H     1 <1>   0.0800 
 33 H       -6.4360    -5.8970     1.1880 H     1 <1>   0.4000 
 34 H       -7.2650    -8.3620    -1.1810 H     1 <1>   0.0800 
 35 H       -6.5870    -8.4140     0.4040 H     1 <1>   0.0800 
 36 H       -3.6510   -10.4120     1.9690 H     1 <1>   0.0800 
 37 H       -4.7030   -11.5570     1.1560 H     1 <1>   0.0800 
 38 H       -5.3360   -10.0260     1.7210 H     1 <1>   0.0800 
 39 H       -2.1460   -10.5120     0.1470 H     1 <1>   0.0800 
 40 H       -2.6300    -9.9950    -1.4460 H     1 <1>   0.0800 
 41 H       -3.1650   -11.5490    -0.8410 H     1 <1>   0.0800 
@<TRIPOS>BOND
  1   1   2  1   
  2   2   3  1   
  3   2   4  2   
  4   3   5  2   
  5   3   6  am  
  6   4   7  1   
  7   4  24  1   
  8   6   8  1   
  9   6  25  1   
 10   7   8  2   
 11   7   9  1   
 12   8  26  1   
 13   9  10  2   
 14   9  11  am  
 15  11  12  1   
 16  11  13  1   
 17  12  14  1   
 18  12  27  1   
 19  12  28  1   
 20  13  15  1   
 21  13  29  1   
 22  13  30  1   
 23  14  15  1   
 24  14  16  1   
 25  14  31  1   
 26  15  17  1   
 27  15  32  1   
 28  16  33  1   
 29  17  18  1   
 30  17  34  1   
 31  17  35  1   
 32  18  19  2   
 33  18  20  2   
 34  18  21  am  
 35  21  22  1   
 36  21  23  1   
 37  22  36  1   
 38  22  37  1   
 39  22  38  1   
 40  23  39  1   
 41  23  40  1   
 42  23  41  1   
@<TRIPOS>SUBSTRUCTURE
  1 ****  11 GROUP 4 **** **** 0

# MOE 2024.06 (io_trps.svl 2023.06)
