@<TRIPOS>MOLECULE
NONAME
57 59 1 0 0 
SMALL
USER_CHARGES


@<TRIPOS>ATOM
  1 O        2.8750     0.0770    -1.8790 O.2   1 <1>  -0.5700 
  2 C        2.8920    -0.8660    -1.1250 C.2   1 <1>   0.5690 
  3 N        1.9690    -1.0490    -0.1320 N.am  1 <1>  -0.6600 
  4 C        3.9900    -1.8950    -1.2660 C.3   1 <1>  -0.0990 
  5 C        2.1150    -2.1390     0.8690 C.3   1 <1>   0.1400 
  6 C        0.8600    -0.0860     0.1050 C.3   1 <1>   0.0600 
  7 C        3.4150    -3.3070    -1.0880 C.3   1 <1>  -0.0800 
  8 C        2.6730    -3.4450     0.2550 C.3   1 <1>  -0.0800 
  9 C        4.5030    -4.3950    -1.1050 C.3   1 <1>  -0.1600 
 10 C        3.6700    -4.1430     1.1870 C.3   1 <1>  -0.1600 
 11 C        4.4890    -5.0520     0.2780 C.3   1 <1>   0.2200 
 12 N        5.8320    -5.3910     0.8440 N.am  1 <1>  -0.6600 
 13 C        6.9960    -4.6440     0.7300 C.2   1 <1>   0.5440 
 14 C        5.9220    -6.7970     1.3330 C.3   1 <1>   0.0600 
 15 O        8.0570    -5.2350     0.6500 O.2   1 <1>  -0.5700 
 16 C        7.0180    -3.1960     0.7200 C.ar  1 <1>   0.0860 
 17 C        7.4230    -2.4910    -0.4130 C.ar  1 <1>  -0.1500 
 18 C        6.6610    -2.4560     1.8480 C.ar  1 <1>  -0.1500 
 19 C        7.4050    -1.1090    -0.4480 C.ar  1 <1>   0.0820 
 20 C        6.6310    -1.0730     1.8250 C.ar  1 <1>  -0.1500 
 21 O        7.7980    -0.5030    -1.5930 O.3   1 <1>  -0.3620 
 22 C        6.9680    -0.3910     0.6690 C.ar  1 <1>   0.0820 
 23 C        8.9890     0.2490    -1.5220 C.3   1 <1>   0.0400 
 24 O        6.8430     0.9540     0.6640 O.3   1 <1>  -0.3630 
 25 C        5.8040     1.5000    -0.1210 C.3   1 <1>   0.2000 
 26 C        6.2490     2.8860    -0.5800 C.3   1 <1>  -0.2400 
 27 C        4.5420     1.5750     0.7390 C.3   1 <1>  -0.2400 
 28 H        4.4550    -1.7950    -2.2300 H     1 <1>   0.0800 
 29 H        4.7220    -1.6950    -0.5100 H     1 <1>   0.0800 
 30 H        2.7740    -1.7820     1.6410 H     1 <1>   0.0800 
 31 H        1.1610    -2.3450     1.3230 H     1 <1>   0.0800 
 32 H       -0.0820    -0.6050     0.0880 H     1 <1>   0.0800 
 33 H        0.8460     0.6730    -0.6580 H     1 <1>   0.0800 
 34 H        0.9890     0.3890     1.0610 H     1 <1>   0.0800 
 35 H        2.7180    -3.4800    -1.8920 H     1 <1>   0.0800 
 36 H        1.8470    -4.1180     0.0970 H     1 <1>   0.0800 
 37 H        5.4580    -3.9840    -1.3640 H     1 <1>   0.0800 
 38 H        4.2580    -5.1360    -1.8450 H     1 <1>   0.0800 
 39 H        3.1680    -4.7050     1.9540 H     1 <1>   0.0800 
 40 H        4.3040    -3.4120     1.6420 H     1 <1>   0.0800 
 41 H        3.9280    -5.9660     0.1680 H     1 <1>   0.0800 
 42 H        5.0880    -7.0190     1.9750 H     1 <1>   0.0800 
 43 H        6.8300    -6.9450     1.8930 H     1 <1>   0.0800 
 44 H        5.9200    -7.4720     0.4950 H     1 <1>   0.0800 
 45 H        7.7550    -3.0340    -1.2790 H     1 <1>   0.1500 
 46 H        6.4000    -2.9820     2.7500 H     1 <1>   0.1500 
 47 H        6.3380    -0.5150     2.6960 H     1 <1>   0.1500 
 48 H        9.2040     0.6310    -2.5030 H     1 <1>   0.0800 
 49 H        9.7860    -0.3960    -1.1930 H     1 <1>   0.0800 
 50 H        8.8590     1.0620    -0.8320 H     1 <1>   0.0800 
 51 H        5.6370     0.8690    -0.9790 H     1 <1>   0.0800 
 52 H        6.4530     3.5150     0.2670 H     1 <1>   0.0800 
 53 H        5.4740     3.3390    -1.1700 H     1 <1>   0.0800 
 54 H        7.1310     2.8030    -1.1880 H     1 <1>   0.0800 
 55 H        4.7070     2.2030     1.5950 H     1 <1>   0.0800 
 56 H        4.2550     0.5930     1.0630 H     1 <1>   0.0800 
 57 H        3.7350     1.9840     0.1590 H     1 <1>   0.0800 
@<TRIPOS>BOND
  1   1   2  2   
  2   2   3  am  
  3   2   4  1   
  4   3   5  1   
  5   3   6  1   
  6   4   7  1   
  7   4  28  1   
  8   4  29  1   
  9   5   8  1   
 10   5  30  1   
 11   5  31  1   
 12   6  32  1   
 13   6  33  1   
 14   6  34  1   
 15   7   8  1   
 16   7   9  1   
 17   7  35  1   
 18   8  10  1   
 19   8  36  1   
 20   9  11  1   
 21   9  37  1   
 22   9  38  1   
 23  10  11  1   
 24  10  39  1   
 25  10  40  1   
 26  11  12  1   
 27  11  41  1   
 28  12  13  am  
 29  12  14  1   
 30  13  15  2   
 31  13  16  1   
 32  14  42  1   
 33  14  43  1   
 34  14  44  1   
 35  16  17  ar  
 36  16  18  ar  
 37  17  19  ar  
 38  17  45  1   
 39  18  20  ar  
 40  18  46  1   
 41  19  21  1   
 42  19  22  ar  
 43  20  22  ar  
 44  20  47  1   
 45  21  23  1   
 46  22  24  1   
 47  23  48  1   
 48  23  49  1   
 49  23  50  1   
 50  24  25  1   
 51  25  26  1   
 52  25  27  1   
 53  25  51  1   
 54  26  52  1   
 55  26  53  1   
 56  26  54  1   
 57  27  55  1   
 58  27  56  1   
 59  27  57  1   
@<TRIPOS>SUBSTRUCTURE
  1 ****   4 GROUP 4 **** **** 0

# MOE 2024.06 (io_trps.svl 2023.06)
