@<TRIPOS>MOLECULE
NONAME
50 52 1 0 0 
SMALL
USER_CHARGES


@<TRIPOS>ATOM
  1 O       -1.1840     0.5180    -2.1690 O.2   1 <1>  -0.5700 
  2 C       -1.8810     0.9880    -1.3000 C.2   1 <1>   0.5690 
  3 N       -2.7870     0.1990    -0.6340 N.am  1 <1>  -0.6600 
  4 C       -1.7650     2.4820    -1.0080 C.3   1 <1>   0.0440 
  5 C       -3.8580     0.6340     0.2990 C.3   1 <1>   0.1400 
  6 C       -2.8700    -1.2620    -0.8710 C.3   1 <1>   0.1400 
  7 C       -0.3550     2.9240    -0.5810 C.ar  1 <1>  -0.1440 
  8 C       -4.6410    -0.6380     0.6320 C.3   1 <1>   0.2000 
  9 C       -3.7160    -1.8020     0.2820 C.3   1 <1>  -0.0800 
 10 C        0.0540     2.7900     0.7480 C.ar  1 <1>  -0.1440 
 11 C        0.5320     3.4710    -1.5100 C.ar  1 <1>  -0.1440 
 12 O       -4.9770    -0.6910     1.9750 O.3   1 <1>  -0.6800 
 13 C       -4.4880    -3.0920    -0.0470 C.3   1 <1>  -0.0170 
 14 C        1.3140     3.2200     1.1310 C.ar  1 <1>  -0.1500 
 15 C       -0.8320     2.1690     1.8190 C.3   1 <1>  -0.0970 
 16 C        1.7870     3.8940    -1.1030 C.ar  1 <1>  -0.1500 
 17 C        0.1870     3.6180    -2.9880 C.3   1 <1>  -0.0970 
 18 C       -3.5490    -4.2450    -0.3610 C.ar  1 <1>   0.1670 
 19 C        2.1850     3.7780     0.2150 C.ar  1 <1>  -0.1430 
 20 N       -3.1030    -4.3210    -1.6040 N.ar  1 <1>  -0.6200 
 21 C       -3.1990    -5.1520     0.6380 C.ar  1 <1>   0.1600 
 22 C        3.5630     4.2440     0.6460 C.3   1 <1>  -0.0970 
 23 C       -2.2890    -5.3480    -1.7790 C.ar  1 <1>   0.1600 
 24 N       -2.3850    -6.1800     0.4670 N.ar  1 <1>  -0.6200 
 25 C       -1.9410    -6.2470    -0.7770 C.ar  1 <1>   0.1600 
 26 H       -2.0710     3.0020    -1.8930 H     1 <1>   0.0800 
 27 H       -2.4630     2.7760    -0.2540 H     1 <1>   0.0800 
 28 H       -3.4190     1.0540     1.1850 H     1 <1>   0.0800 
 29 H       -4.4980     1.3550    -0.1790 H     1 <1>   0.0800 
 30 H       -3.3500    -1.4380    -1.8200 H     1 <1>   0.0800 
 31 H       -1.8880    -1.7070    -0.8880 H     1 <1>   0.0800 
 32 H       -5.5480    -0.6690     0.0520 H     1 <1>   0.0800 
 33 H       -3.0450    -1.9870     1.1030 H     1 <1>   0.0800 
 34 H       -4.1720    -0.7030     2.5290 H     1 <1>   0.4000 
 35 H       -5.1350    -2.9280    -0.8910 H     1 <1>   0.0800 
 36 H       -5.1100    -3.3540     0.7900 H     1 <1>   0.0800 
 37 H        1.6300     3.1200     2.1530 H     1 <1>   0.1500 
 38 H       -0.3230     2.1290     2.7650 H     1 <1>   0.0800 
 39 H       -1.0870     1.1640     1.5390 H     1 <1>   0.0800 
 40 H       -1.7260     2.7510     1.9470 H     1 <1>   0.0800 
 41 H        2.4680     4.3170    -1.8190 H     1 <1>   0.1500 
 42 H        1.0470     3.9180    -3.5580 H     1 <1>   0.0800 
 43 H       -0.5790     4.3610    -3.1170 H     1 <1>   0.0800 
 44 H       -0.1560     2.6790    -3.3830 H     1 <1>   0.0800 
 45 H       -3.6090    -5.0200     1.6240 H     1 <1>   0.1500 
 46 H        3.5440     4.5740     1.6690 H     1 <1>   0.0800 
 47 H        3.8920     5.0620     0.0310 H     1 <1>   0.0800 
 48 H        4.2640     3.4340     0.5540 H     1 <1>   0.0800 
 49 H       -1.8750    -5.4860    -2.7620 H     1 <1>   0.1500 
 50 H       -1.2700    -7.0520    -1.0170 H     1 <1>   0.1500 
@<TRIPOS>BOND
  1   1   2  2   
  2   2   3  am  
  3   2   4  1   
  4   3   5  1   
  5   3   6  1   
  6   4   7  1   
  7   4  26  1   
  8   4  27  1   
  9   5   8  1   
 10   5  28  1   
 11   5  29  1   
 12   6   9  1   
 13   6  30  1   
 14   6  31  1   
 15   7  10  ar  
 16   7  11  ar  
 17   8   9  1   
 18   8  12  1   
 19   8  32  1   
 20   9  13  1   
 21   9  33  1   
 22  10  14  ar  
 23  10  15  1   
 24  11  16  ar  
 25  11  17  1   
 26  12  34  1   
 27  13  18  1   
 28  13  35  1   
 29  13  36  1   
 30  14  19  ar  
 31  14  37  1   
 32  15  38  1   
 33  15  39  1   
 34  15  40  1   
 35  16  19  ar  
 36  16  41  1   
 37  17  42  1   
 38  17  43  1   
 39  17  44  1   
 40  18  20  ar  
 41  18  21  ar  
 42  19  22  1   
 43  20  23  ar  
 44  21  24  ar  
 45  21  45  1   
 46  22  46  1   
 47  22  47  1   
 48  22  48  1   
 49  23  25  ar  
 50  23  49  1   
 51  24  25  ar  
 52  25  50  1   
@<TRIPOS>SUBSTRUCTURE
  1 ****   3 GROUP 4 **** **** 0

# MOE 2024.06 (io_trps.svl 2023.06)
