@<TRIPOS>MOLECULE
NONAME
48 49 1 0 0 
SMALL
USER_CHARGES


@<TRIPOS>ATOM
  1 F        0.5700     0.2880     0.2100 F     1 <1>  -0.1900 
  2 C        1.5990     1.0920     0.2690 C.ar  1 <1>   0.1900 
  3 C        2.7460     0.6600     0.9060 C.ar  1 <1>  -0.1500 
  4 C        1.5000     2.3430    -0.3090 C.ar  1 <1>  -0.1500 
  5 C        3.8310     1.5180     0.9640 C.ar  1 <1>  -0.1500 
  6 C        2.5900     3.1950    -0.2470 C.ar  1 <1>  -0.1500 
  7 C        3.7620     2.7830     0.3920 C.ar  1 <1>   0.0830 
  8 O        4.8730     3.5540     0.4960 O.3   1 <1>  -0.3630 
  9 C        4.9220     4.8490    -0.0450 C.3   1 <1>   0.1200 
 10 C        6.3130     5.4090     0.2520 C.3   1 <1>  -0.1600 
 11 C        6.4640     6.8190    -0.3160 C.3   1 <1>   0.3430 
 12 N        7.7840     7.3970     0.0650 N.4   1 <1>  -0.9590 
 13 C        7.7850     8.8830    -0.1820 C.3   1 <1>   0.3430 
 14 C        8.9210     6.7370    -0.6490 C.3   1 <1>   0.3430 
 15 C        9.1050     9.5580     0.2310 C.3   1 <1>   0.2000 
 16 C       10.2490     7.3330    -0.1760 C.3   1 <1>  -0.1600 
 17 O        9.0390    10.8640    -0.2380 O.3   1 <1>  -0.5600 
 18 C       10.3140     8.8520    -0.4020 C.3   1 <1>  -0.1600 
 19 C        9.9040    11.7770     0.3650 C.3   1 <1>   0.1200 
 20 C        9.6170    13.1520    -0.2350 C.3   1 <1>  -0.1600 
 21 C       10.5250    14.2260     0.3730 C.3   1 <1>  -0.2400 
 22 H        2.7850    -0.3210     1.3440 H     1 <1>   0.1500 
 23 H        0.5870     2.6380    -0.7950 H     1 <1>   0.1500 
 24 H        4.7380     1.2110     1.4530 H     1 <1>   0.1500 
 25 H        2.5050     4.1650    -0.6980 H     1 <1>   0.1500 
 26 H        4.1530     5.4400     0.4240 H     1 <1>   0.0800 
 27 H        4.7480     4.7770    -1.1060 H     1 <1>   0.0800 
 28 H        7.0370     4.7480    -0.1880 H     1 <1>   0.0800 
 29 H        6.4470     5.4320     1.3190 H     1 <1>   0.0800 
 30 H        5.6750     7.4380     0.0800 H     1 <1>   0.0800 
 31 H        6.3670     6.7970    -1.3900 H     1 <1>   0.0800 
 32 H        7.9190     7.2460     1.0730 H     1 <1>   0.4500 
 33 H        6.9800     9.3460     0.3640 H     1 <1>   0.0800 
 34 H        7.6330     9.0680    -1.2320 H     1 <1>   0.0800 
 35 H        8.8200     6.8860    -1.7130 H     1 <1>   0.0800 
 36 H        8.9200     5.6770    -0.4540 H     1 <1>   0.0800 
 37 H        9.1790     9.5760     1.3050 H     1 <1>   0.0800 
 38 H       11.0520     6.8630    -0.7170 H     1 <1>   0.0800 
 39 H       10.3920     7.1080     0.8670 H     1 <1>   0.0800 
 40 H       11.2270     9.2310     0.0220 H     1 <1>   0.0800 
 41 H       10.3240     9.0510    -1.4610 H     1 <1>   0.0800 
 42 H       10.9220    11.4900     0.1650 H     1 <1>   0.0800 
 43 H        9.7240    11.7860     1.4270 H     1 <1>   0.0800 
 44 H        8.5890    13.4140    -0.0500 H     1 <1>   0.0800 
 45 H        9.7760    13.1160    -1.2980 H     1 <1>   0.0800 
 46 H       10.3710    14.2950     1.4360 H     1 <1>   0.0800 
 47 H       10.3040    15.1840    -0.0650 H     1 <1>   0.0800 
 48 H       11.5600    13.9970     0.1850 H     1 <1>   0.0800 
@<TRIPOS>BOND
  1   1   2  1   
  2   2   3  ar  
  3   2   4  ar  
  4   3   5  ar  
  5   3  22  1   
  6   4   6  ar  
  7   4  23  1   
  8   5   7  ar  
  9   5  24  1   
 10   6   7  ar  
 11   6  25  1   
 12   7   8  1   
 13   8   9  1   
 14   9  10  1   
 15   9  26  1   
 16   9  27  1   
 17  10  11  1   
 18  10  28  1   
 19  10  29  1   
 20  11  12  1   
 21  11  30  1   
 22  11  31  1   
 23  12  13  1   
 24  12  14  1   
 25  12  32  1   
 26  13  15  1   
 27  13  33  1   
 28  13  34  1   
 29  14  16  1   
 30  14  35  1   
 31  14  36  1   
 32  15  17  1   
 33  15  18  1   
 34  15  37  1   
 35  16  18  1   
 36  16  38  1   
 37  16  39  1   
 38  17  19  1   
 39  18  40  1   
 40  18  41  1   
 41  19  20  1   
 42  19  42  1   
 43  19  43  1   
 44  20  21  1   
 45  20  44  1   
 46  20  45  1   
 47  21  46  1   
 48  21  47  1   
 49  21  48  1   
@<TRIPOS>SUBSTRUCTURE
  1 ****  11 GROUP 4 **** **** 0

# MOE 2024.06 (io_trps.svl 2023.06)
