@<TRIPOS>MOLECULE
NONAME
46 48 1 0 0 
SMALL
USER_CHARGES


@<TRIPOS>ATOM
  1 F       -1.4640     2.5250     2.6920 F     1 <1>  -0.1900 
  2 C       -0.9270     2.7440     1.5220 C.ar  1 <1>   0.1900 
  3 C       -1.6810     2.5280     0.3720 C.ar  1 <1>   0.0860 
  4 C        0.3790     3.1940     1.4980 C.ar  1 <1>  -0.1500 
  5 C       -1.0550     2.7900    -0.8540 C.ar  1 <1>  -0.1440 
  6 C       -3.0480     2.0620     0.4620 C.2   1 <1>   0.5440 
  7 C        0.9740     3.4460     0.2770 C.ar  1 <1>  -0.1500 
  8 C        0.2560     3.2430    -0.8910 C.ar  1 <1>  -0.1500 
  9 C       -1.8090     2.5770    -2.1610 C.3   1 <1>  -0.0960 
 10 O       -3.2900     0.8920     0.2270 O.2   1 <1>  -0.5700 
 11 N       -4.0850     2.9210     0.7670 N.am  1 <1>  -0.6600 
 12 C       -5.4970     2.4460     0.9080 C.3   1 <1>   0.1400 
 13 C       -3.9330     4.3900     0.9360 C.3   1 <1>   0.1400 
 14 C       -6.4140     3.1300    -0.1380 C.3   1 <1>   0.0000 
 15 C       -4.8040     5.1160    -0.0950 C.3   1 <1>  -0.1600 
 16 C       -7.8780     2.6850     0.0230 C.3   1 <1>   0.2000 
 17 C       -6.2730     4.6640    -0.0220 C.3   1 <1>  -0.1600 
 18 C       -6.0880     2.6150    -1.5510 C.3   1 <1>  -0.1600 
 19 O       -8.2470     2.6050     1.3680 O.3   1 <1>  -0.5600 
 20 C       -7.9750     1.3210    -0.6680 C.3   1 <1>  -0.1600 
 21 C       -6.8220     1.2760    -1.6800 C.3   1 <1>  -0.1600 
 22 C       -9.6160     2.5010     1.5980 C.3   1 <1>   0.0400 
 23 H        0.9150     3.3420     2.4190 H     1 <1>   0.1500 
 24 H        1.9920     3.7960     0.2320 H     1 <1>   0.1500 
 25 H        0.7340     3.4410    -1.8360 H     1 <1>   0.1500 
 26 H       -1.1830     2.7820    -3.0110 H     1 <1>   0.0800 
 27 H       -2.6640     3.2280    -2.2020 H     1 <1>   0.0800 
 28 H       -2.1480     1.5580    -2.2280 H     1 <1>   0.0800 
 29 H       -5.5510     1.3760     0.8080 H     1 <1>   0.0800 
 30 H       -5.8350     2.6890     1.9000 H     1 <1>   0.0800 
 31 H       -4.2460     4.6570     1.9320 H     1 <1>   0.0800 
 32 H       -2.9080     4.6920     0.8170 H     1 <1>   0.0800 
 33 H       -4.7460     6.1750     0.0800 H     1 <1>   0.0800 
 34 H       -4.4110     4.9270    -1.0780 H     1 <1>   0.0800 
 35 H       -8.5180     3.3940    -0.4750 H     1 <1>   0.0800 
 36 H       -6.8400     5.1510    -0.7960 H     1 <1>   0.0800 
 37 H       -6.6830     4.9740     0.9250 H     1 <1>   0.0800 
 38 H       -6.4790     3.2970    -2.2850 H     1 <1>   0.0800 
 39 H       -5.0320     2.4990    -1.7190 H     1 <1>   0.0800 
 40 H       -7.8490     0.5300     0.0520 H     1 <1>   0.0800 
 41 H       -8.9240     1.2140    -1.1620 H     1 <1>   0.0800 
 42 H       -6.1510     0.4720    -1.4260 H     1 <1>   0.0800 
 43 H       -7.1790     1.1260    -2.6840 H     1 <1>   0.0800 
 44 H       -9.7740     2.4710     2.6610 H     1 <1>   0.0800 
 45 H       -9.9870     1.5950     1.1530 H     1 <1>   0.0800 
 46 H      -10.1130     3.3610     1.1820 H     1 <1>   0.0800 
@<TRIPOS>BOND
  1   1   2  1   
  2   2   3  ar  
  3   2   4  ar  
  4   3   5  ar  
  5   3   6  1   
  6   4   7  ar  
  7   4  23  1   
  8   5   8  ar  
  9   5   9  1   
 10   6  10  2   
 11   6  11  am  
 12   7   8  ar  
 13   7  24  1   
 14   8  25  1   
 15   9  26  1   
 16   9  27  1   
 17   9  28  1   
 18  11  12  1   
 19  11  13  1   
 20  12  14  1   
 21  12  29  1   
 22  12  30  1   
 23  13  15  1   
 24  13  31  1   
 25  13  32  1   
 26  14  16  1   
 27  14  17  1   
 28  14  18  1   
 29  15  17  1   
 30  15  33  1   
 31  15  34  1   
 32  16  19  1   
 33  16  20  1   
 34  16  35  1   
 35  17  36  1   
 36  17  37  1   
 37  18  21  1   
 38  18  38  1   
 39  18  39  1   
 40  19  22  1   
 41  20  21  1   
 42  20  40  1   
 43  20  41  1   
 44  21  42  1   
 45  21  43  1   
 46  22  44  1   
 47  22  45  1   
 48  22  46  1   
@<TRIPOS>SUBSTRUCTURE
  1 ****  11 GROUP 4 **** **** 0

# MOE 2024.06 (io_trps.svl 2023.06)
