@<TRIPOS>MOLECULE
NONAME
40 41 1 0 0 
SMALL
USER_CHARGES


@<TRIPOS>ATOM
  1 O       -0.7810     1.0550     1.2840 O.2   1 <1>  -0.5700 
  2 C       -1.2530     2.0790     0.9070 C.2   1 <1>   0.4480 
  3 C       -2.1250     2.1600    -0.3280 C.3   1 <1>  -0.0990 
  4 C       -0.9610     3.4020     1.5850 C.3   1 <1>  -0.0990 
  5 C       -1.6010     3.2430    -1.2960 C.3   1 <1>  -0.1600 
  6 C       -0.4640     4.4380     0.5550 C.3   1 <1>  -0.1600 
  7 C       -1.4500     4.6410    -0.6310 C.3   1 <1>   0.6470 
  8 N       -0.8160     5.5700    -1.6310 N.4   1 <1>  -0.9590 
  9 C       -2.8100     5.2440    -0.1790 C.ar  1 <1>  -0.1430 
 10 C       -0.4760     6.9230    -1.0740 C.3   1 <1>   0.2630 
 11 C       -1.6540     5.7920    -2.8560 C.3   1 <1>   0.2630 
 12 C       -2.8780     6.1590     0.8720 C.ar  1 <1>  -0.1500 
 13 C       -4.0130     4.9190    -0.8100 C.ar  1 <1>  -0.1500 
 14 C       -4.0720     6.7240     1.2810 C.ar  1 <1>   0.0820 
 15 C       -5.2150     5.4750    -0.4060 C.ar  1 <1>  -0.1500 
 16 O       -4.0000     7.6030     2.3080 O.3   1 <1>  -0.3630 
 17 C       -5.2520     6.3780     0.6370 C.ar  1 <1>  -0.1500 
 18 C       -5.1610     8.1950     2.8520 C.3   1 <1>   0.0400 
 19 H       -3.1340     2.3710    -0.0210 H     1 <1>   0.0800 
 20 H       -2.1250     1.2010    -0.8160 H     1 <1>   0.0800 
 21 H       -0.2110     3.2460     2.3410 H     1 <1>   0.0800 
 22 H       -1.8550     3.7450     2.0750 H     1 <1>   0.0800 
 23 H       -2.2450     3.2650    -2.1520 H     1 <1>   0.0800 
 24 H       -0.6350     2.9180    -1.6430 H     1 <1>   0.0800 
 25 H        0.4760     4.0820     0.1700 H     1 <1>   0.0800 
 26 H       -0.2570     5.3490     1.0800 H     1 <1>   0.0800 
 27 H        0.0610     5.1190    -1.9210 H     1 <1>   0.4500 
 28 H       -1.3680     7.4240    -0.7350 H     1 <1>   0.0800 
 29 H       -0.0130     7.5330    -1.8330 H     1 <1>   0.0800 
 30 H        0.2110     6.8390    -0.2480 H     1 <1>   0.0800 
 31 H       -2.6000     6.2350    -2.5870 H     1 <1>   0.0800 
 32 H       -1.8400     4.8630    -3.3690 H     1 <1>   0.0800 
 33 H       -1.1500     6.4570    -3.5380 H     1 <1>   0.0800 
 34 H       -2.0110     6.4760     1.4180 H     1 <1>   0.1500 
 35 H       -4.0640     4.2280    -1.6310 H     1 <1>   0.1500 
 36 H       -6.1300     5.2050    -0.9060 H     1 <1>   0.1500 
 37 H       -6.1970     6.7960     0.9320 H     1 <1>   0.1500 
 38 H       -4.8630     8.8310     3.6660 H     1 <1>   0.0800 
 39 H       -5.8120     7.4190     3.2160 H     1 <1>   0.0800 
 40 H       -5.6460     8.7800     2.0920 H     1 <1>   0.0800 
@<TRIPOS>BOND
  1   1   2  2   
  2   2   3  1   
  3   2   4  1   
  4   3   5  1   
  5   3  19  1   
  6   3  20  1   
  7   4   6  1   
  8   4  21  1   
  9   4  22  1   
 10   5   7  1   
 11   5  23  1   
 12   5  24  1   
 13   6   7  1   
 14   6  25  1   
 15   6  26  1   
 16   7   8  1   
 17   7   9  1   
 18   8  10  1   
 19   8  11  1   
 20   8  27  1   
 21   9  12  ar  
 22   9  13  ar  
 23  10  28  1   
 24  10  29  1   
 25  10  30  1   
 26  11  31  1   
 27  11  32  1   
 28  11  33  1   
 29  12  14  ar  
 30  12  34  1   
 31  13  15  ar  
 32  13  35  1   
 33  14  16  1   
 34  14  17  ar  
 35  15  17  ar  
 36  15  36  1   
 37  16  18  1   
 38  17  37  1   
 39  18  38  1   
 40  18  39  1   
 41  18  40  1   
@<TRIPOS>SUBSTRUCTURE
  1 ****   9 GROUP 4 **** **** 0

# MOE 2024.06 (io_trps.svl 2023.06)
