@<TRIPOS>MOLECULE
NONAME
47 48 1 0 0 
SMALL
USER_CHARGES


@<TRIPOS>ATOM
  1 O        0.8480     1.4310     1.8980 O.2   1 <1>  -0.5700 
  2 C        0.9310     2.3850     1.1680 C.2   1 <1>   0.4230 
  3 C        2.1700     2.7950     0.5550 C.ar  1 <1>   0.0860 
  4 C       -0.3520     3.1550     0.9180 C.3   1 <1>  -0.1790 
  5 C        2.2940     3.9490    -0.2240 C.ar  1 <1>   0.1600 
  6 C        3.3320     2.0450     0.7180 C.ar  1 <1>  -0.1500 
  7 N        3.3940     4.3880    -0.8060 N.ar  1 <1>  -0.6200 
  8 C        4.4850     2.4790     0.1140 C.ar  1 <1>  -0.1500 
  9 C        4.4880     3.6470    -0.6450 C.ar  1 <1>   0.4100 
 10 N        5.6480     4.0830    -1.2530 N.pl3 1 <1>  -0.8380 
 11 C        5.8400     5.5240    -1.5680 C.3   1 <1>   0.2090 
 12 C        6.4010     3.1420    -2.1310 C.3   1 <1>   0.1290 
 13 C        5.9130     6.3380    -0.2670 C.3   1 <1>  -0.0800 
 14 C        6.1830     7.8190    -0.5140 C.3   1 <1>   0.3430 
 15 C        7.0130     5.8740     0.6910 C.3   1 <1>  -0.1600 
 16 N        7.3490     8.1820     0.3500 N.4   1 <1>  -0.9590 
 17 C        7.4380     7.1410     1.4040 C.3   1 <1>   0.3430 
 18 C        7.2700     9.5600     0.9360 C.3   1 <1>   0.3430 
 19 C        7.3640    10.6640    -0.1240 C.3   1 <1>   0.1200 
 20 O        7.3290    11.8780     0.5450 O.3   1 <1>  -0.5600 
 21 C        7.4240    12.9970    -0.2810 C.3   1 <1>   0.0400 
 22 H       -0.5660     3.1900    -0.1340 H     1 <1>   0.0800 
 23 H       -0.2680     4.1520     1.3090 H     1 <1>   0.0800 
 24 H       -1.1720     2.6640     1.4130 H     1 <1>   0.0800 
 25 H        1.4210     4.5570    -0.3770 H     1 <1>   0.1500 
 26 H        3.3160     1.1440     1.3090 H     1 <1>   0.1500 
 27 H        5.3990     1.9280     0.2260 H     1 <1>   0.1500 
 28 H        5.0220     5.8660    -2.1810 H     1 <1>   0.0800 
 29 H        6.7520     5.6490    -2.1270 H     1 <1>   0.0800 
 30 H        5.9840     2.1510    -2.0750 H     1 <1>   0.0800 
 31 H        7.4320     3.1030    -1.8240 H     1 <1>   0.0800 
 32 H        6.3470     3.4690    -3.1550 H     1 <1>   0.0800 
 33 H        4.9620     6.2740     0.2320 H     1 <1>   0.0800 
 34 H        5.3120     8.3900    -0.2340 H     1 <1>   0.0800 
 35 H        6.4070     8.0060    -1.5520 H     1 <1>   0.0800 
 36 H        7.8500     5.4690     0.1490 H     1 <1>   0.0800 
 37 H        6.6550     5.1270     1.3780 H     1 <1>   0.0800 
 38 H        8.2050     8.1050    -0.2160 H     1 <1>   0.4500 
 39 H        8.4340     7.0600     1.8110 H     1 <1>   0.0800 
 40 H        6.7390     7.3570     2.1970 H     1 <1>   0.0800 
 41 H        8.0800     9.6990     1.6330 H     1 <1>   0.0800 
 42 H        6.3410     9.6740     1.4720 H     1 <1>   0.0800 
 43 H        6.5280    10.6270    -0.8010 H     1 <1>   0.0800 
 44 H        8.2950    10.6000    -0.6610 H     1 <1>   0.0800 
 45 H        7.3830    13.8760     0.3390 H     1 <1>   0.0800 
 46 H        6.5970    13.0060    -0.9700 H     1 <1>   0.0800 
 47 H        8.3610    12.9760    -0.8110 H     1 <1>   0.0800 
@<TRIPOS>BOND
  1   1   2  2   
  2   2   3  1   
  3   2   4  1   
  4   3   5  ar  
  5   3   6  ar  
  6   4  22  1   
  7   4  23  1   
  8   4  24  1   
  9   5   7  ar  
 10   5  25  1   
 11   6   8  ar  
 12   6  26  1   
 13   7   9  ar  
 14   8   9  ar  
 15   8  27  1   
 16   9  10  1   
 17  10  11  1   
 18  10  12  1   
 19  11  13  1   
 20  11  28  1   
 21  11  29  1   
 22  12  30  1   
 23  12  31  1   
 24  12  32  1   
 25  13  14  1   
 26  13  15  1   
 27  13  33  1   
 28  14  16  1   
 29  14  34  1   
 30  14  35  1   
 31  15  17  1   
 32  15  36  1   
 33  15  37  1   
 34  16  17  1   
 35  16  18  1   
 36  16  38  1   
 37  17  39  1   
 38  17  40  1   
 39  18  19  1   
 40  18  41  1   
 41  18  42  1   
 42  19  20  1   
 43  19  43  1   
 44  19  44  1   
 45  20  21  1   
 46  21  45  1   
 47  21  46  1   
 48  21  47  1   
@<TRIPOS>SUBSTRUCTURE
  1 ****  13 GROUP 4 **** **** 0

# MOE 2024.06 (io_trps.svl 2023.06)
