@<TRIPOS>MOLECULE
NONAME
50 54 1 0 0 
SMALL
USER_CHARGES


@<TRIPOS>ATOM
  1 O       -4.6350     3.3370    -2.8760 O.2   1 <1>  -0.5700 
  2 C       -3.8850     2.5590    -2.2910 C.2   1 <1>   0.5440 
  3 N       -4.1820     1.2060    -2.4450 N.am  1 <1>  -0.6600 
  4 C       -2.7610     3.0610    -1.5550 C.ar  1 <1>   0.0860 
  5 C       -5.6170     0.8050    -2.4130 C.3   1 <1>   0.1400 
  6 C       -3.2520     0.1330    -1.9550 C.3   1 <1>   0.1400 
  7 C       -2.4870     2.7330    -0.2010 C.ar  1 <1>  -0.1710 
  8 C       -1.8720     3.9320    -2.2060 C.ar  1 <1>  -0.1500 
  9 C       -6.0650     0.5280    -0.9580 C.3   1 <1>   0.4230 
 10 C       -3.8720    -0.7150    -0.8190 C.3   1 <1>   0.3430 
 11 O       -3.2750     2.0340     0.4690 O.3   1 <1>  -0.8290 
 12 C       -1.2920     3.2190     0.4290 C.ar  1 <1>   0.0000 
 13 C       -0.7460     4.4180    -1.6060 C.ar  1 <1>  -0.1500 
 14 N       -4.9280     0.0550    -0.0960 N.4   1 <1>  -0.9590 
 15 C       -7.2340    -0.4820    -0.9400 C.3   1 <1>   0.1200 
 16 C       -0.4160     4.0640    -0.2820 C.ar  1 <1>   0.0000 
 17 C       -0.9570     2.8840     1.7480 C.ar  1 <1>  -0.1500 
 18 C       -5.3610    -0.3950     1.2500 C.3   1 <1>   0.5180 
 19 O       -7.5910    -0.8390     0.3670 O.3   1 <1>  -0.5600 
 20 C        0.7530     4.5270     0.3450 C.ar  1 <1>  -0.1500 
 21 C        0.1910     3.3450     2.3470 C.ar  1 <1>  -0.1500 
 22 C       -4.1570    -0.9380     2.0470 C.3   1 <1>  -0.1950 
 23 C       -6.5450    -1.3830     1.1320 C.3   1 <1>   0.1200 
 24 C        1.0550     4.1750     1.6360 C.ar  1 <1>  -0.1500 
 25 C       -3.6590    -2.3540     1.9980 C.3   1 <1>  -0.2000 
 26 C       -4.2930    -1.8210     3.2520 C.3   1 <1>  -0.2000 
 27 H       -6.2400     1.5720    -2.8390 H     1 <1>   0.0800 
 28 H       -5.7380    -0.0760    -3.0170 H     1 <1>   0.0800 
 29 H       -2.9870    -0.5080    -2.7760 H     1 <1>   0.0800 
 30 H       -2.3370     0.5670    -1.5930 H     1 <1>   0.0800 
 31 H       -2.1070     4.2150    -3.2170 H     1 <1>   0.1500 
 32 H       -6.4270     1.4590    -0.5520 H     1 <1>   0.0800 
 33 H       -3.0810    -0.9870    -0.1420 H     1 <1>   0.0800 
 34 H       -4.2940    -1.6160    -1.2270 H     1 <1>   0.0800 
 35 H       -0.0890     5.0830    -2.1360 H     1 <1>   0.1500 
 36 H       -4.3910     0.9420     0.1110 H     1 <1>   0.4500 
 37 H       -6.9720    -1.3790    -1.4740 H     1 <1>   0.0800 
 38 H       -8.1010    -0.0480    -1.4060 H     1 <1>   0.0800 
 39 H       -1.6350     2.2480     2.2860 H     1 <1>   0.1500 
 40 H       -5.7260     0.4680     1.7830 H     1 <1>   0.0800 
 41 H        1.4130     5.1690    -0.2070 H     1 <1>   0.1500 
 42 H        0.4240     3.0720     3.3600 H     1 <1>   0.1500 
 43 H       -3.4120    -0.1620     2.1420 H     1 <1>   0.1000 
 44 H       -6.9420    -1.5970     2.1070 H     1 <1>   0.0800 
 45 H       -6.2330    -2.3060     0.6770 H     1 <1>   0.0800 
 46 H        1.9510     4.5330     2.1100 H     1 <1>   0.1500 
 47 H       -4.1920    -3.1130     1.4520 H     1 <1>   0.1000 
 48 H       -2.5950    -2.5260     2.0000 H     1 <1>   0.1000 
 49 H       -3.6610    -1.6220     4.1020 H     1 <1>   0.1000 
 50 H       -5.2470    -2.2210     3.5460 H     1 <1>   0.1000 
@<TRIPOS>BOND
  1   1   2  2   
  2   2   3  am  
  3   2   4  1   
  4   3   5  1   
  5   3   6  1   
  6   4   7  ar  
  7   4   8  ar  
  8   5   9  1   
  9   5  27  1   
 10   5  28  1   
 11   6  10  1   
 12   6  29  1   
 13   6  30  1   
 14   7  11  1   
 15   7  12  ar  
 16   8  13  ar  
 17   8  31  1   
 18   9  14  1   
 19   9  15  1   
 20   9  32  1   
 21  10  14  1   
 22  10  33  1   
 23  10  34  1   
 24  12  16  ar  
 25  12  17  ar  
 26  13  16  ar  
 27  13  35  1   
 28  14  18  1   
 29  14  36  1   
 30  15  19  1   
 31  15  37  1   
 32  15  38  1   
 33  16  20  ar  
 34  17  21  ar  
 35  17  39  1   
 36  18  22  1   
 37  18  23  1   
 38  18  40  1   
 39  19  23  1   
 40  20  24  ar  
 41  20  41  1   
 42  21  24  ar  
 43  21  42  1   
 44  22  25  1   
 45  22  26  1   
 46  22  43  1   
 47  23  44  1   
 48  23  45  1   
 49  24  46  1   
 50  25  26  1   
 51  25  47  1   
 52  25  48  1   
 53  26  49  1   
 54  26  50  1   
@<TRIPOS>SUBSTRUCTURE
  1 ****  11 GROUP 4 **** **** 0

# MOE 2024.06 (io_trps.svl 2023.06)
