@<TRIPOS>MOLECULE
NONAME
50 53 1 0 0 
SMALL
USER_CHARGES


@<TRIPOS>ATOM
  1 O        0.7560     0.0290     3.8830 O.3   1 <1>  -0.6800 
  2 C        0.6560    -0.2900     2.5350 C.3   1 <1>   0.2000 
  3 C        1.1640    -1.7190     2.3550 C.3   1 <1>  -0.0800 
  4 C        1.6760     0.5690     1.7710 C.3   1 <1>   0.3430 
  5 C        2.6830    -1.5260     2.4010 C.3   1 <1>   0.3430 
  6 C        0.6670    -2.3450     1.0320 C.3   1 <1>  -0.0170 
  7 N        2.9260    -0.2470     1.6930 N.4   1 <1>  -0.9590 
  8 C        1.4860    -3.5810     0.6760 C.ar  1 <1>  -0.1440 
  9 C        4.1380     0.5000     2.1090 C.3   1 <1>   0.5240 
 10 C        2.6160    -3.5430    -0.1790 C.ar  1 <1>   0.0000 
 11 C        1.1510    -4.7840     1.2270 C.ar  1 <1>  -0.1500 
 12 C        4.5820     1.3110     0.8950 C.2   1 <1>   0.1080 
 13 C        3.3590    -4.7400    -0.3330 C.ar  1 <1>   0.3100 
 14 C        3.0670    -2.3970    -0.8780 C.ar  1 <1>  -0.1500 
 15 C        1.9300    -5.9180     0.9740 C.ar  1 <1>   0.1600 
 16 N        4.2390     0.9960    -0.3260 N.2   1 <1>  -0.7070 
 17 C        5.3730     2.4520     0.9370 C.2   1 <1>  -0.1500 
 18 N        2.9980    -5.9130     0.2420 N.ar  1 <1>  -0.6200 
 19 C        4.5300    -4.7220    -1.1050 C.ar  1 <1>  -0.1500 
 20 C        4.2140    -2.4130    -1.6230 C.ar  1 <1>  -0.1500 
 21 N        4.8150     1.9400    -1.1010 N.pl3 1 <1>   0.3140 
 22 C        5.5000     2.8260    -0.3530 C.2   1 <1>  -0.3020 
 23 C        4.9610    -3.5870    -1.7340 C.ar  1 <1>  -0.1500 
 24 C        4.6810     1.9560    -2.5730 C.3   1 <1>   0.0960 
 25 C        3.4140     2.7050    -3.0040 C.3   1 <1>  -0.2400 
 26 H        0.0140    -0.3550     4.3970 H     1 <1>   0.4000 
 27 H       -0.3590    -0.1260     2.2120 H     1 <1>   0.0800 
 28 H        0.8540    -2.3550     3.1670 H     1 <1>   0.0800 
 29 H        1.8350     1.5030     2.2840 H     1 <1>   0.0800 
 30 H        1.3190     0.7690     0.7750 H     1 <1>   0.0800 
 31 H        3.2200    -2.3450     1.9510 H     1 <1>   0.0800 
 32 H        2.9850    -1.4290     3.4320 H     1 <1>   0.0800 
 33 H        0.6810    -1.6360     0.2260 H     1 <1>   0.0800 
 34 H       -0.3640    -2.6340     1.1540 H     1 <1>   0.0800 
 35 H        3.1300    -0.4090     0.6890 H     1 <1>   0.4500 
 36 H        3.9270     1.1410     2.9480 H     1 <1>   0.0800 
 37 H        4.9250    -0.1870     2.3720 H     1 <1>   0.0800 
 38 H        0.2970    -4.8970     1.8700 H     1 <1>   0.1500 
 39 H        2.5050    -1.4870    -0.8470 H     1 <1>   0.1500 
 40 H        1.6290    -6.8500     1.4220 H     1 <1>   0.1500 
 41 H        5.7890     2.9270     1.8100 H     1 <1>   0.1500 
 42 H        5.0820    -5.6410    -1.1880 H     1 <1>   0.1500 
 43 H        4.5530    -1.5290    -2.1370 H     1 <1>   0.1500 
 44 H        6.0330     3.6610    -0.7730 H     1 <1>   0.1500 
 45 H        5.8640    -3.5880    -2.3220 H     1 <1>   0.1500 
 46 H        5.5510     2.4280    -2.9920 H     1 <1>   0.0800 
 47 H        4.6430     0.9390    -2.9210 H     1 <1>   0.0800 
 48 H        3.4500     3.7270    -2.6670 H     1 <1>   0.0800 
 49 H        2.5410     2.2260    -2.5980 H     1 <1>   0.0800 
 50 H        3.3360     2.7030    -4.0760 H     1 <1>   0.0800 
@<TRIPOS>BOND
  1   1   2  1   
  2   1  26  1   
  3   2   3  1   
  4   2   4  1   
  5   2  27  1   
  6   3   5  1   
  7   3   6  1   
  8   3  28  1   
  9   4   7  1   
 10   4  29  1   
 11   4  30  1   
 12   5   7  1   
 13   5  31  1   
 14   5  32  1   
 15   6   8  1   
 16   6  33  1   
 17   6  34  1   
 18   7   9  1   
 19   7  35  1   
 20   8  10  ar  
 21   8  11  ar  
 22   9  12  1   
 23   9  36  1   
 24   9  37  1   
 25  10  13  ar  
 26  10  14  ar  
 27  11  15  ar  
 28  11  38  1   
 29  12  16  2   
 30  12  17  1   
 31  13  18  ar  
 32  13  19  ar  
 33  14  20  ar  
 34  14  39  1   
 35  15  18  ar  
 36  15  40  1   
 37  16  21  1   
 38  17  22  2   
 39  17  41  1   
 40  19  23  ar  
 41  19  42  1   
 42  20  23  ar  
 43  20  43  1   
 44  21  22  1   
 45  21  24  1   
 46  22  44  1   
 47  23  45  1   
 48  24  25  1   
 49  24  46  1   
 50  24  47  1   
 51  25  48  1   
 52  25  49  1   
 53  25  50  1   
@<TRIPOS>SUBSTRUCTURE
  1 ****  14 GROUP 4 **** **** 0

# MOE 2024.06 (io_trps.svl 2023.06)
