@<TRIPOS>MOLECULE
NONAME
39 41 1 0 0 
SMALL
USER_CHARGES


@<TRIPOS>ATOM
  1 CL      -3.2260     0.7800    -2.3830 Cl    1 <1>  -0.1230 
  2 C       -3.1290     0.3910    -0.6720 C.2   1 <1>   0.1230 
  3 C       -3.1490    -0.8850    -0.0970 C.2   1 <1>   0.2030 
  4 C       -3.0190     1.2870     0.3260 C.2   1 <1>  -0.3320 
  5 N       -3.0540    -0.7660     1.2220 N.2   1 <1>  -0.7070 
  6 C       -3.2540    -2.1480    -0.8080 C.2   1 <1>   0.7160 
  7 N       -2.9750     0.5560     1.4600 N.pl3 1 <1>   0.3000 
  8 C       -2.9510     2.8050     0.2850 C.3   1 <1>  -0.0600 
  9 O       -3.4050    -2.2280    -2.0140 O.2   1 <1>  -0.5700 
 10 N       -3.2000    -3.3130    -0.0980 N.am  1 <1>  -0.7300 
 11 C       -3.2650    -4.6870    -0.6430 C.3   1 <1>   0.2200 
 12 C       -4.6170    -5.3300    -0.3660 C.3   1 <1>  -0.0800 
 13 C       -2.3500    -5.5930     0.1700 C.3   1 <1>   0.1200 
 14 C       -4.4520    -5.8740     1.0560 C.3   1 <1>   0.1200 
 15 C       -5.8480    -4.4250    -0.5590 C.3   1 <1>  -0.0160 
 16 O       -3.0780    -5.9340     1.3110 O.3   1 <1>  -0.5600 
 17 C       -7.1340    -5.2070    -0.3390 C.ar  1 <1>  -0.1430 
 18 C       -7.6800    -5.9990    -1.3280 C.ar  1 <1>  -0.1500 
 19 C       -7.8200    -5.1680     0.8580 C.ar  1 <1>  -0.1500 
 20 C       -8.8490    -6.6980    -1.0790 C.ar  1 <1>   0.1600 
 21 C       -8.9820    -5.9070     1.0060 C.ar  1 <1>   0.1600 
 22 N       -9.5120    -6.6740     0.0660 N.ar  1 <1>  -0.6200 
 23 H       -2.8910     0.9380     2.4120 H     1 <1>   0.2700 
 24 H       -3.0040     3.1530    -0.7320 H     1 <1>   0.0800 
 25 H       -2.0260     3.1490     0.7130 H     1 <1>   0.0800 
 26 H       -3.7720     3.2310     0.8330 H     1 <1>   0.0800 
 27 H       -3.0940    -3.2320     0.9190 H     1 <1>   0.3700 
 28 H       -3.0120    -4.6910    -1.6900 H     1 <1>   0.0800 
 29 H       -4.7170    -6.1770    -1.0230 H     1 <1>   0.0800 
 30 H       -1.4310    -5.1110     0.4550 H     1 <1>   0.0800 
 31 H       -2.1380    -6.5000    -0.3670 H     1 <1>   0.0800 
 32 H       -4.8740    -6.8580     1.1610 H     1 <1>   0.0800 
 33 H       -4.8860    -5.2110     1.7850 H     1 <1>   0.0800 
 34 H       -5.8420    -4.0210    -1.5570 H     1 <1>   0.0800 
 35 H       -5.8160    -3.5950     0.1250 H     1 <1>   0.0800 
 36 H       -7.2080    -6.0770    -2.2910 H     1 <1>   0.1500 
 37 H       -7.4630    -4.5710     1.6780 H     1 <1>   0.1500 
 38 H       -9.2600    -7.3110    -1.8620 H     1 <1>   0.1500 
 39 H       -9.5030    -5.8650     1.9470 H     1 <1>   0.1500 
@<TRIPOS>BOND
  1   1   2  1   
  2   2   3  1   
  3   2   4  2   
  4   3   5  2   
  5   3   6  1   
  6   4   7  1   
  7   4   8  1   
  8   5   7  1   
  9   6   9  2   
 10   6  10  am  
 11   7  23  1   
 12   8  24  1   
 13   8  25  1   
 14   8  26  1   
 15  10  11  1   
 16  10  27  1   
 17  11  12  1   
 18  11  13  1   
 19  11  28  1   
 20  12  14  1   
 21  12  15  1   
 22  12  29  1   
 23  13  16  1   
 24  13  30  1   
 25  13  31  1   
 26  14  16  1   
 27  14  32  1   
 28  14  33  1   
 29  15  17  1   
 30  15  34  1   
 31  15  35  1   
 32  17  18  ar  
 33  17  19  ar  
 34  18  20  ar  
 35  18  36  1   
 36  19  21  ar  
 37  19  37  1   
 38  20  22  ar  
 39  20  38  1   
 40  21  22  ar  
 41  21  39  1   
@<TRIPOS>SUBSTRUCTURE
  1 ****  10 GROUP 4 **** **** 0

# MOE 2024.06 (io_trps.svl 2023.06)
