@<TRIPOS>MOLECULE
NONAME
47 48 1 0 0 
SMALL
USER_CHARGES


@<TRIPOS>ATOM
  1 S        1.4060    -0.3160     0.7250 S.o2  1 <1>   1.3330 
  2 O        1.5060     0.1490     2.0890 O.2   1 <1>  -0.6500 
  3 O        2.3290    -1.3210     0.2460 O.2   1 <1>  -0.6500 
  4 N       -0.1680    -0.9060     0.4810 N.am  1 <1>  -0.8490 
  5 C        1.4510     1.1230    -0.3440 C.3   1 <1>  -0.0550 
  6 C       -0.2910    -1.7560    -0.7080 C.3   1 <1>   0.1160 
  7 C       -0.6820    -1.6160     1.6560 C.3   1 <1>   0.1160 
  8 C        2.7830     1.8970    -0.2830 C.3   1 <1>  -0.0800 
  9 C        2.6730     3.2300    -1.0040 C.3   1 <1>   0.2200 
 10 C        3.8780     1.2070    -1.0970 C.3   1 <1>   0.1200 
 11 N        3.7070     4.1450    -0.4810 N.am  1 <1>  -0.7300 
 12 C        2.9950     2.8520    -2.4500 C.3   1 <1>   0.1200 
 13 O        3.7090     1.6480    -2.4090 O.3   1 <1>  -0.5600 
 14 C        3.5020     5.4020    -0.0160 C.2   1 <1>   0.5690 
 15 O        2.4070     5.9090    -0.0150 O.2   1 <1>  -0.5700 
 16 C        4.6850     6.1970     0.5140 C.3   1 <1>   0.0440 
 17 C        5.9950     5.4050     0.4670 C.ar  1 <1>  -0.1440 
 18 C        6.7700     5.3190    -0.6880 C.ar  1 <1>  -0.1440 
 19 C        6.3970     4.7290     1.6100 C.ar  1 <1>  -0.1500 
 20 C        7.9310     4.5610    -0.6740 C.ar  1 <1>  -0.1500 
 21 C        6.3810     6.0330    -1.9760 C.3   1 <1>  -0.0970 
 22 C        7.5560     3.9760     1.6150 C.ar  1 <1>  -0.1500 
 23 C        8.3250     3.8920     0.4700 C.ar  1 <1>  -0.1500 
 24 H        1.2550     0.8260    -1.3560 H     1 <1>   0.0800 
 25 H        0.6600     1.7810    -0.0380 H     1 <1>   0.0800 
 26 H       -1.3220    -2.0240    -0.8650 H     1 <1>   0.0800 
 27 H        0.2900    -2.6560    -0.5910 H     1 <1>   0.0800 
 28 H        0.0590    -1.2310    -1.5800 H     1 <1>   0.0800 
 29 H       -1.6850    -1.9630     1.4730 H     1 <1>   0.0800 
 30 H       -0.7070    -0.9540     2.5050 H     1 <1>   0.0800 
 31 H       -0.0510    -2.4570     1.8910 H     1 <1>   0.0800 
 32 H        3.0710     2.0290     0.7460 H     1 <1>   0.0800 
 33 H        1.6990     3.6830    -0.9150 H     1 <1>   0.0800 
 34 H        3.8280     0.1330    -1.0780 H     1 <1>   0.0800 
 35 H        4.8540     1.5240    -0.7700 H     1 <1>   0.0800 
 36 H        4.6710     3.7930    -0.4970 H     1 <1>   0.3700 
 37 H        3.5850     3.6010    -2.9470 H     1 <1>   0.0800 
 38 H        2.0920     2.6720    -3.0060 H     1 <1>   0.0800 
 39 H        4.7720     7.1040    -0.0530 H     1 <1>   0.0800 
 40 H        4.4660     6.4800     1.5260 H     1 <1>   0.0800 
 41 H        5.8060     4.7810     2.5090 H     1 <1>   0.1500 
 42 H        8.5420     4.4870    -1.5570 H     1 <1>   0.1500 
 43 H        7.0430     5.7660    -2.7800 H     1 <1>   0.0800 
 44 H        6.4350     7.0970    -1.8370 H     1 <1>   0.0800 
 45 H        5.3810     5.7660    -2.2680 H     1 <1>   0.0800 
 46 H        7.8600     3.4570     2.5070 H     1 <1>   0.1500 
 47 H        9.2280     3.3070     0.4690 H     1 <1>   0.1500 
@<TRIPOS>BOND
  1   1   2  2   
  2   1   3  2   
  3   1   4  am  
  4   1   5  1   
  5   4   6  1   
  6   4   7  1   
  7   5   8  1   
  8   5  24  1   
  9   5  25  1   
 10   6  26  1   
 11   6  27  1   
 12   6  28  1   
 13   7  29  1   
 14   7  30  1   
 15   7  31  1   
 16   8   9  1   
 17   8  10  1   
 18   8  32  1   
 19   9  11  1   
 20   9  12  1   
 21   9  33  1   
 22  10  13  1   
 23  10  34  1   
 24  10  35  1   
 25  11  14  am  
 26  11  36  1   
 27  12  13  1   
 28  12  37  1   
 29  12  38  1   
 30  14  15  2   
 31  14  16  1   
 32  16  17  1   
 33  16  39  1   
 34  16  40  1   
 35  17  18  ar  
 36  17  19  ar  
 37  18  20  ar  
 38  18  21  1   
 39  19  22  ar  
 40  19  41  1   
 41  20  23  ar  
 42  20  42  1   
 43  21  43  1   
 44  21  44  1   
 45  21  45  1   
 46  22  23  ar  
 47  22  46  1   
 48  23  47  1   
@<TRIPOS>SUBSTRUCTURE
  1 ****   8 GROUP 4 **** **** 0

# MOE 2024.06 (io_trps.svl 2023.06)
