@<TRIPOS>MOLECULE
NONAME
36 37 1 0 0 
SMALL
USER_CHARGES


@<TRIPOS>ATOM
  1 S        1.2170     1.1690    -2.3630 S.3   1 <1>  -0.0800 
  2 C        1.1510    -0.5000    -1.9090 C.2   1 <1>   0.4620 
  3 C        1.6470     1.5120    -0.7200 C.2   1 <1>   0.1980 
  4 N        1.4230    -0.6900    -0.6700 N.2   1 <1>  -0.3380 
  5 N        0.8340    -1.4280    -2.8520 N.pl3 1 <1>  -0.8840 
  6 N        1.7050     0.4660     0.0030 N.2   1 <1>  -0.3380 
  7 C        1.8900     2.9600    -0.3500 C.3   1 <1>   0.0200 
  8 C        2.5480     3.0790     1.0260 C.3   1 <1>   0.2090 
  9 N        2.7460     4.5110     1.3730 N.pl3 1 <1>  -0.8690 
 10 C        3.8490     5.2290     0.9910 C.ar  1 <1>   0.4100 
 11 N        4.6260     4.7090     0.0500 N.ar  1 <1>  -0.6200 
 12 C        4.1130     6.4590     1.5880 C.ar  1 <1>  -0.1500 
 13 C        5.6820     5.4240    -0.2990 C.ar  1 <1>   0.1600 
 14 C        5.2110     7.1910     1.2080 C.ar  1 <1>  -0.1500 
 15 C        6.0350     6.6690     0.2150 C.ar  1 <1>   0.0860 
 16 C        7.2090     7.3520    -0.2750 C.2   1 <1>   0.5440 
 17 O        8.2320     6.7150    -0.4450 O.2   1 <1>  -0.5700 
 18 N        7.2100     8.7030    -0.5710 N.am  1 <1>  -0.6600 
 19 C        8.4820     9.4390    -0.8130 C.3   1 <1>   0.0600 
 20 C        5.9800     9.4810    -0.8850 C.3   1 <1>   0.0600 
 21 H        0.8140    -2.4180    -2.6050 H     1 <1>   0.4000 
 22 H        0.6550    -1.1850    -3.8270 H     1 <1>   0.4000 
 23 H        0.9530     3.4830    -0.3470 H     1 <1>   0.0800 
 24 H        2.5330     3.4020    -1.0880 H     1 <1>   0.0800 
 25 H        3.4970     2.5680     1.0200 H     1 <1>   0.0800 
 26 H        1.9230     2.6140     1.7700 H     1 <1>   0.0800 
 27 H        2.2730     4.8090     2.2280 H     1 <1>   0.4000 
 28 H        3.4480     6.8240     2.3480 H     1 <1>   0.1500 
 29 H        6.3260     5.0010    -1.0520 H     1 <1>   0.1500 
 30 H        5.4410     8.1390     1.6620 H     1 <1>   0.1500 
 31 H        9.3150     8.9040    -0.3880 H     1 <1>   0.0800 
 32 H        8.4360    10.4130    -0.3590 H     1 <1>   0.0800 
 33 H        8.6430     9.5440    -1.8720 H     1 <1>   0.0800 
 34 H        5.1340     8.8280    -1.0160 H     1 <1>   0.0800 
 35 H        6.1220    10.0320    -1.7990 H     1 <1>   0.0800 
 36 H        5.7740    10.1720    -0.0870 H     1 <1>   0.0800 
@<TRIPOS>BOND
  1   1   2  1   
  2   1   3  1   
  3   2   4  2   
  4   2   5  1   
  5   3   6  2   
  6   3   7  1   
  7   4   6  1   
  8   5  21  1   
  9   5  22  1   
 10   7   8  1   
 11   7  23  1   
 12   7  24  1   
 13   8   9  1   
 14   8  25  1   
 15   8  26  1   
 16   9  10  1   
 17   9  27  1   
 18  10  11  ar  
 19  10  12  ar  
 20  11  13  ar  
 21  12  14  ar  
 22  12  28  1   
 23  13  15  ar  
 24  13  29  1   
 25  14  15  ar  
 26  14  30  1   
 27  15  16  1   
 28  16  17  2   
 29  16  18  am  
 30  18  19  1   
 31  18  20  1   
 32  19  31  1   
 33  19  32  1   
 34  19  33  1   
 35  20  34  1   
 36  20  35  1   
 37  20  36  1   
@<TRIPOS>SUBSTRUCTURE
  1 ****  11 GROUP 4 **** **** 0

# MOE 2024.06 (io_trps.svl 2023.06)
