@<TRIPOS>MOLECULE
NONAME
53 56 1 0 0 
SMALL
USER_CHARGES


@<TRIPOS>ATOM
  1 S       -0.8350     0.5810     0.4150 S.o2  1 <1>   1.0900 
  2 O       -1.2280     1.7300     1.1940 O.2   1 <1>  -0.6500 
  3 O        0.5530     0.2470     0.1930 O.2   1 <1>  -0.6500 
  4 C       -1.6470    -0.8800     0.9940 C.3   1 <1>  -0.0550 
  5 C       -1.6570     0.5830    -1.1710 C.3   1 <1>  -0.0550 
  6 C       -1.8230    -1.7310    -0.2600 C.3   1 <1>   0.1760 
  7 C       -2.3140    -0.7930    -1.3830 C.3   1 <1>  -0.1600 
  8 N       -2.7640    -2.8540    -0.0220 N.pl3 1 <1>   0.3140 
  9 N       -3.9950    -2.6300     0.4730 N.2   1 <1>  -0.7070 
 10 C       -2.5450    -4.1780    -0.2310 C.2   1 <1>  -0.3320 
 11 C       -4.5310    -3.8050     0.5830 C.2   1 <1>   0.1080 
 12 C       -3.6700    -4.8200     0.1570 C.2   1 <1>   0.0630 
 13 C       -1.2520    -4.7630    -0.7830 C.3   1 <1>  -0.0600 
 14 C       -5.9390    -3.9840     1.1080 C.3   1 <1>  -0.0590 
 15 N       -3.8900    -6.2200     0.0990 N.am  1 <1>  -0.4930 
 16 C       -4.4130    -7.0580     1.0490 C.2   1 <1>   0.5440 
 17 O       -4.7850    -6.6090     2.1170 O.2   1 <1>  -0.5700 
 18 C       -4.5280    -8.4750     0.7720 C.ar  1 <1>   0.0860 
 19 C       -3.5690    -9.1680     0.0280 C.ar  1 <1>  -0.1500 
 20 C       -5.6180    -9.2100     1.2380 C.ar  1 <1>  -0.1500 
 21 C       -3.7040   -10.5160    -0.2460 C.ar  1 <1>  -0.1500 
 22 C       -5.7530   -10.5570     0.9650 C.ar  1 <1>  -0.1500 
 23 C       -4.7990   -11.2390     0.2170 C.ar  1 <1>   0.1170 
 24 N       -4.9360   -12.6090    -0.0520 N.am  1 <1>  -0.4770 
 25 C       -6.0850   -13.2860    -0.3520 C.2   1 <1>   0.5690 
 26 C       -3.8040   -13.5440     0.1190 C.3   1 <1>   0.1400 
 27 O       -7.1780   -12.8070    -0.5270 O.2   1 <1>  -0.5700 
 28 C       -5.8450   -14.7680    -0.4410 C.3   1 <1>  -0.0990 
 29 C       -4.3170   -14.8950    -0.3960 C.3   1 <1>  -0.1600 
 30 H       -2.6080    -0.6210     1.3990 H     1 <1>   0.0800 
 31 H       -1.0650    -1.3870     1.7380 H     1 <1>   0.0800 
 32 H       -0.9470     0.7860    -1.9510 H     1 <1>   0.0800 
 33 H       -2.4120     1.3470    -1.1950 H     1 <1>   0.0800 
 34 H       -0.8630    -2.1300    -0.5350 H     1 <1>   0.0800 
 35 H       -2.0700    -1.1940    -2.3510 H     1 <1>   0.0800 
 36 H       -3.3840    -0.6760    -1.3150 H     1 <1>   0.0800 
 37 H       -1.0590    -4.3780    -1.7680 H     1 <1>   0.0800 
 38 H       -1.3160    -5.8340    -0.8420 H     1 <1>   0.0800 
 39 H       -0.4280    -4.5130    -0.1390 H     1 <1>   0.0800 
 40 H       -6.5200    -3.1040     0.9050 H     1 <1>   0.0800 
 41 H       -5.9050    -4.1440     2.1700 H     1 <1>   0.0800 
 42 H       -6.4060    -4.8290     0.6390 H     1 <1>   0.0800 
 43 H       -3.6090    -6.6510    -0.7770 H     1 <1>   0.3700 
 44 H       -2.7010    -8.6470    -0.3360 H     1 <1>   0.1500 
 45 H       -6.3700    -8.7080     1.8240 H     1 <1>   0.1500 
 46 H       -2.9530   -11.0120    -0.8330 H     1 <1>   0.1500 
 47 H       -6.6110   -11.0900     1.3340 H     1 <1>   0.1500 
 48 H       -3.5560   -13.6040     1.1650 H     1 <1>   0.0800 
 49 H       -2.9440   -13.2220    -0.4410 H     1 <1>   0.0800 
 50 H       -6.2550   -15.1650    -1.3520 H     1 <1>   0.0800 
 51 H       -6.3010   -15.2450     0.4060 H     1 <1>   0.0800 
 52 H       -3.9960   -15.7060     0.2330 H     1 <1>   0.0800 
 53 H       -3.9380   -15.0560    -1.3900 H     1 <1>   0.0800 
@<TRIPOS>BOND
  1   1   2  2   
  2   1   3  2   
  3   1   4  1   
  4   1   5  1   
  5   4   6  1   
  6   4  30  1   
  7   4  31  1   
  8   5   7  1   
  9   5  32  1   
 10   5  33  1   
 11   6   7  1   
 12   6   8  1   
 13   6  34  1   
 14   7  35  1   
 15   7  36  1   
 16   8   9  1   
 17   8  10  1   
 18   9  11  2   
 19  10  12  2   
 20  10  13  1   
 21  11  12  1   
 22  11  14  1   
 23  12  15  1   
 24  13  37  1   
 25  13  38  1   
 26  13  39  1   
 27  14  40  1   
 28  14  41  1   
 29  14  42  1   
 30  15  16  am  
 31  15  43  1   
 32  16  17  2   
 33  16  18  1   
 34  18  19  ar  
 35  18  20  ar  
 36  19  21  ar  
 37  19  44  1   
 38  20  22  ar  
 39  20  45  1   
 40  21  23  ar  
 41  21  46  1   
 42  22  23  ar  
 43  22  47  1   
 44  23  24  1   
 45  24  25  am  
 46  24  26  1   
 47  25  27  2   
 48  25  28  1   
 49  26  29  1   
 50  26  48  1   
 51  26  49  1   
 52  28  29  1   
 53  28  50  1   
 54  28  51  1   
 55  29  52  1   
 56  29  53  1   
@<TRIPOS>SUBSTRUCTURE
  1 ****  15 GROUP 4 **** **** 0

# MOE 2024.06 (io_trps.svl 2023.06)
