@<TRIPOS>MOLECULE
NONAME
53 55 1 0 0 
SMALL
USER_CHARGES


@<TRIPOS>ATOM
  1 O       -1.0770    -0.0940     2.7020 O.2   1 <1>  -0.5700 
  2 C       -1.9190     0.6730     2.2820 C.2   1 <1>   0.7160 
  3 N       -3.2130     0.2430     2.0850 N.am  1 <1>  -0.6600 
  4 C       -1.5740     2.0210     1.9170 C.2   1 <1>  -0.0860 
  5 C       -3.5290    -1.2160     2.0500 C.3   1 <1>   0.3210 
  6 C       -4.3200     1.1420     1.6360 C.3   1 <1>   0.1400 
  7 C       -1.0670     2.5130     0.7530 C.2   1 <1>  -0.3320 
  8 C       -1.8310     3.1630     2.6730 C.2   1 <1>   0.1390 
  9 C       -3.6850    -1.6940     0.6060 C.2   1 <1>   0.0460 
 10 C       -4.1190     1.5930     0.1750 C.3   1 <1>   0.3430 
 11 N       -1.1120     3.8710     0.8070 N.pl3 1 <1>   0.5930 
 12 C       -0.5580     1.7120    -0.4410 C.3   1 <1>  -0.0600 
 13 N       -1.5880     4.2540     2.0260 N.2   1 <1>  -0.7070 
 14 N       -4.8150    -1.4630    -0.1070 N.2   1 <1>  -0.5650 
 15 C       -2.7860    -2.3860    -0.1320 C.2   1 <1>  -0.3320 
 16 N       -5.3070     2.3020    -0.3910 N.4   1 <1>  -0.9590 
 17 C       -0.8970     4.7940    -0.2660 C.ar  1 <1>   0.2870 
 18 C       -4.5870    -2.0500    -1.2380 C.2   1 <1>   0.0360 
 19 N       -3.3710    -2.6260    -1.3190 N.pl3 1 <1>   0.0330 
 20 C       -1.3810    -2.8650     0.2020 C.3   1 <1>  -0.0600 
 21 C       -6.3620     1.3120    -0.7740 C.3   1 <1>   0.2630 
 22 C       -4.8730     3.1190    -1.5670 C.3   1 <1>   0.2630 
 23 N       -1.5650     4.6070    -1.4170 N.ar  1 <1>  -0.6200 
 24 C       -0.0140     5.8530    -0.0690 C.ar  1 <1>  -0.1500 
 25 C       -1.3180     5.4880    -2.3760 C.ar  1 <1>   0.1600 
 26 C        0.2230     6.7590    -1.0770 C.ar  1 <1>  -0.1500 
 27 C       -0.4520     6.5600    -2.2610 C.ar  1 <1>  -0.1500 
 28 H       -4.4420    -1.4030     2.5870 H     1 <1>   0.0800 
 29 H       -2.7540    -1.7830     2.5340 H     1 <1>   0.0800 
 30 H       -4.3580     2.0040     2.2780 H     1 <1>   0.0800 
 31 H       -5.2530     0.6140     1.7260 H     1 <1>   0.0800 
 32 H       -2.2090     3.1400     3.6830 H     1 <1>   0.1500 
 33 H       -3.8880     0.7340    -0.4340 H     1 <1>   0.0800 
 34 H       -3.2800     2.2620     0.1380 H     1 <1>   0.0800 
 35 H       -0.5500     0.6600    -0.2180 H     1 <1>   0.0800 
 36 H        0.4480     2.0100    -0.6820 H     1 <1>   0.0800 
 37 H       -1.1790     1.8750    -1.3040 H     1 <1>   0.0800 
 38 H       -5.6780     2.9450     0.3240 H     1 <1>   0.4500 
 39 H       -5.2870    -2.0960    -2.0550 H     1 <1>   0.1500 
 40 H       -2.9840    -3.1530    -2.1080 H     1 <1>   0.2700 
 41 H       -1.0740    -2.5140     1.1710 H     1 <1>   0.0800 
 42 H       -0.6790    -2.4940    -0.5240 H     1 <1>   0.0800 
 43 H       -1.3450    -3.9400     0.2030 H     1 <1>   0.0800 
 44 H       -5.9780     0.6240    -1.5100 H     1 <1>   0.0800 
 45 H       -7.2220     1.8160    -1.1850 H     1 <1>   0.0800 
 46 H       -6.6740     0.7410     0.0850 H     1 <1>   0.0800 
 47 H       -4.4710     2.4820    -2.3380 H     1 <1>   0.0800 
 48 H       -4.1090     3.8230    -1.2730 H     1 <1>   0.0800 
 49 H       -5.7080     3.6680    -1.9710 H     1 <1>   0.0800 
 50 H        0.4790     5.9610     0.8820 H     1 <1>   0.1500 
 51 H       -1.8340     5.3530    -3.3120 H     1 <1>   0.1500 
 52 H        0.9020     7.5850    -0.9470 H     1 <1>   0.1500 
 53 H       -0.3070     7.2320    -3.0890 H     1 <1>   0.1500 
@<TRIPOS>BOND
  1   1   2  2   
  2   2   3  am  
  3   2   4  1   
  4   3   5  1   
  5   3   6  1   
  6   4   7  2   
  7   4   8  1   
  8   5   9  1   
  9   5  28  1   
 10   5  29  1   
 11   6  10  1   
 12   6  30  1   
 13   6  31  1   
 14   7  11  1   
 15   7  12  1   
 16   8  13  2   
 17   8  32  1   
 18   9  14  1   
 19   9  15  2   
 20  10  16  1   
 21  10  33  1   
 22  10  34  1   
 23  11  13  1   
 24  11  17  1   
 25  12  35  1   
 26  12  36  1   
 27  12  37  1   
 28  14  18  2   
 29  15  19  1   
 30  15  20  1   
 31  16  21  1   
 32  16  22  1   
 33  16  38  1   
 34  17  23  ar  
 35  17  24  ar  
 36  18  19  1   
 37  18  39  1   
 38  19  40  1   
 39  20  41  1   
 40  20  42  1   
 41  20  43  1   
 42  21  44  1   
 43  21  45  1   
 44  21  46  1   
 45  22  47  1   
 46  22  48  1   
 47  22  49  1   
 48  23  25  ar  
 49  24  26  ar  
 50  24  50  1   
 51  25  27  ar  
 52  25  51  1   
 53  26  27  ar  
 54  26  52  1   
 55  27  53  1   
@<TRIPOS>SUBSTRUCTURE
  1 ****  10 GROUP 4 **** **** 0

# MOE 2024.06 (io_trps.svl 2023.06)
