@<TRIPOS>MOLECULE
NONAME
45 47 1 0 0 
SMALL
USER_CHARGES


@<TRIPOS>ATOM
  1 O        0.2930    -0.9780    -1.3100 O.2   1 <1>  -0.5700 
  2 C        1.2800    -1.0290    -0.6180 C.2   1 <1>   0.5690 
  3 N        2.1340     0.0230    -0.4270 N.am  1 <1>  -0.4940 
  4 C        1.5880    -2.3400     0.0750 C.3   1 <1>  -0.0990 
  5 C        2.0590     1.3320    -0.9730 C.2   1 <1>  -0.0880 
  6 C        0.3940    -3.2870    -0.0710 C.3   1 <1>   0.3430 
  7 N        2.9290     2.3480    -0.7080 N.pl3 1 <1>   0.3140 
  8 C        1.1510     1.8410    -1.8400 C.2   1 <1>  -0.1500 
  9 N        0.6460    -4.6100     0.5810 N.4   1 <1>  -0.9590 
 10 N        2.5990     3.4740    -1.3780 N.2   1 <1>  -0.7070 
 11 C        4.1000     2.3260     0.1910 C.3   1 <1>   0.0960 
 12 C        1.5370     3.1580    -2.0500 C.2   1 <1>   0.1390 
 13 C       -0.5690    -5.4770     0.7120 C.3   1 <1>   0.4230 
 14 C        1.6450    -5.4770    -0.1330 C.3   1 <1>   0.3430 
 15 C        5.3090     1.6700    -0.4920 C.3   1 <1>  -0.1600 
 16 C        0.0760    -6.8140     1.0110 C.3   1 <1>  -0.1600 
 17 C       -1.1790    -5.7480    -0.6760 C.3   1 <1>  -0.1600 
 18 C        0.9210    -6.8220    -0.2520 C.3   1 <1>  -0.0800 
 19 C        6.5190     1.6150     0.4480 C.3   1 <1>  -0.2400 
 20 C       -0.1470    -6.6730    -1.3480 C.3   1 <1>  -0.1600 
 21 H        2.9420    -0.1510     0.1700 H     1 <1>   0.3700 
 22 H        2.4610    -2.7640    -0.3840 H     1 <1>   0.0800 
 23 H        1.7760    -2.1470     1.1150 H     1 <1>   0.0800 
 24 H        0.1840    -3.4290    -1.1200 H     1 <1>   0.0800 
 25 H       -0.4730    -2.8220     0.3720 H     1 <1>   0.0800 
 26 H        0.3030     1.3570    -2.2890 H     1 <1>   0.1500 
 27 H        0.9850    -4.4510     1.5370 H     1 <1>   0.4500 
 28 H        4.3380     3.3420     0.4530 H     1 <1>   0.0800 
 29 H        3.8360     1.8000     1.0890 H     1 <1>   0.0800 
 30 H        1.0180     3.8460    -2.6960 H     1 <1>   0.1500 
 31 H       -1.2740    -5.1300     1.4510 H     1 <1>   0.0800 
 32 H        1.8870    -5.0870    -1.1090 H     1 <1>   0.0800 
 33 H        2.5430    -5.5800     0.4540 H     1 <1>   0.0800 
 34 H        5.0590     0.6720    -0.8060 H     1 <1>   0.0800 
 35 H        5.5690     2.2430    -1.3660 H     1 <1>   0.0800 
 36 H        0.6550    -6.8080     1.9200 H     1 <1>   0.0800 
 37 H       -0.6390    -7.6210     1.0400 H     1 <1>   0.0800 
 38 H       -2.1080    -6.2790    -0.5560 H     1 <1>   0.0800 
 39 H       -1.3790    -4.8580    -1.2440 H     1 <1>   0.0800 
 40 H        1.5740    -7.6680    -0.3840 H     1 <1>   0.0800 
 41 H        6.2960     1.0350     1.3270 H     1 <1>   0.0800 
 42 H        6.8050     2.6080     0.7500 H     1 <1>   0.0800 
 43 H        7.3560     1.1630    -0.0560 H     1 <1>   0.0800 
 44 H        0.2540    -6.2450    -2.2520 H     1 <1>   0.0800 
 45 H       -0.5910    -7.6280    -1.5790 H     1 <1>   0.0800 
@<TRIPOS>BOND
  1   1   2  2   
  2   2   3  am  
  3   2   4  1   
  4   3   5  1   
  5   3  21  1   
  6   4   6  1   
  7   4  22  1   
  8   4  23  1   
  9   5   7  1   
 10   5   8  2   
 11   6   9  1   
 12   6  24  1   
 13   6  25  1   
 14   7  10  1   
 15   7  11  1   
 16   8  12  1   
 17   8  26  1   
 18   9  13  1   
 19   9  14  1   
 20   9  27  1   
 21  10  12  2   
 22  11  15  1   
 23  11  28  1   
 24  11  29  1   
 25  12  30  1   
 26  13  16  1   
 27  13  17  1   
 28  13  31  1   
 29  14  18  1   
 30  14  32  1   
 31  14  33  1   
 32  15  19  1   
 33  15  34  1   
 34  15  35  1   
 35  16  18  1   
 36  16  36  1   
 37  16  37  1   
 38  17  20  1   
 39  17  38  1   
 40  17  39  1   
 41  18  20  1   
 42  18  40  1   
 43  19  41  1   
 44  19  42  1   
 45  19  43  1   
 46  20  44  1   
 47  20  45  1   
@<TRIPOS>SUBSTRUCTURE
  1 ****   2 GROUP 4 **** **** 0

# MOE 2024.06 (io_trps.svl 2023.06)
