@<TRIPOS>MOLECULE
NONAME
49 53 1 0 0 
SMALL
USER_CHARGES


@<TRIPOS>ATOM
  1 S       -0.5840     0.1650    -1.4430 S.o2  1 <1>   1.4150 
  2 O       -1.1530    -1.0560    -1.9700 O.2   1 <1>  -0.6500 
  3 O       -0.4800     1.3320    -2.2900 O.2   1 <1>  -0.6500 
  4 N       -1.5030     0.6030    -0.0890 N.am  1 <1>  -0.8490 
  5 C        1.0540    -0.1600    -0.7410 C.3   1 <1>  -0.0770 
  6 C       -2.7200     1.3390    -0.4910 C.3   1 <1>   0.1960 
  7 C       -1.8640    -0.5520     0.7420 C.3   1 <1>   0.1960 
  8 C        2.1140    -0.9500    -1.4530 C.3   1 <1>  -0.2000 
  9 C        1.4930    -1.4920    -0.2000 C.3   1 <1>  -0.2000 
 10 C       -3.4890     1.8880     0.7270 C.3   1 <1>   0.1430 
 11 C       -2.5740    -0.0900     2.0200 C.3   1 <1>  -0.1600 
 12 C       -4.7270     2.6130     0.2330 C.ar  1 <1>   0.1670 
 13 C       -3.8290     0.7340     1.6920 C.3   1 <1>  -0.1600 
 14 C       -2.6950     3.0240     1.4300 C.3   1 <1>  -0.1600 
 15 N       -5.8030     2.0380    -0.2470 N.ar  1 <1>  -0.6200 
 16 C       -4.5900     3.9630     0.3280 C.ar  1 <1>  -0.1440 
 17 C       -3.2470     4.3560     0.8920 C.3   1 <1>  -0.0170 
 18 C       -6.7850     2.8640    -0.6330 C.ar  1 <1>   0.6200 
 19 C       -5.6370     4.7420    -0.0890 C.ar  1 <1>   0.1600 
 20 N       -6.7360     4.2030    -0.5670 N.ar  1 <1>  -0.6200 
 21 C       -7.9990     2.2600    -1.1650 C.ar  1 <1>   0.0000 
 22 C       -7.9770     1.0270    -1.8240 C.ar  1 <1>  -0.1500 
 23 C       -9.2440     2.8850    -1.0430 C.ar  1 <1>  -0.1500 
 24 C       -9.1280     0.4500    -2.3300 C.ar  1 <1>  -0.1500 
 25 C      -10.3990     2.3150    -1.5470 C.ar  1 <1>  -0.1500 
 26 C      -10.3430     1.0940    -2.1920 C.ar  1 <1>  -0.1500 
 27 H        1.4200     0.6950    -0.2070 H     1 <1>   0.1000 
 28 H       -3.3650     0.6870    -1.0590 H     1 <1>   0.0800 
 29 H       -2.4550     2.1680    -1.1250 H     1 <1>   0.0800 
 30 H       -0.9770    -1.0970     1.0160 H     1 <1>   0.0800 
 31 H       -2.5080    -1.2170     0.1890 H     1 <1>   0.0800 
 32 H        3.1290    -0.5920    -1.4250 H     1 <1>   0.1000 
 33 H        1.8650    -1.4140    -2.3930 H     1 <1>   0.1000 
 34 H        0.8360    -2.3410    -0.2920 H     1 <1>   0.1000 
 35 H        2.0790    -1.5170     0.7030 H     1 <1>   0.1000 
 36 H       -1.8890     0.4940     2.6100 H     1 <1>   0.0800 
 37 H       -2.8530    -0.9510     2.6010 H     1 <1>   0.0800 
 38 H       -4.5500     0.0890     1.2210 H     1 <1>   0.0800 
 39 H       -4.2770     1.1150     2.5930 H     1 <1>   0.0800 
 40 H       -1.6340     2.9430     1.2720 H     1 <1>   0.0800 
 41 H       -2.8800     2.9900     2.4900 H     1 <1>   0.0800 
 42 H       -2.6200     4.7350     0.1040 H     1 <1>   0.0800 
 43 H       -3.3400     5.0900     1.6740 H     1 <1>   0.0800 
 44 H       -5.5750     5.8150    -0.0340 H     1 <1>   0.1500 
 45 H       -7.0400     0.5110    -1.9420 H     1 <1>   0.1500 
 46 H       -9.3060     3.8360    -0.5430 H     1 <1>   0.1500 
 47 H       -9.0770    -0.5010    -2.8310 H     1 <1>   0.1500 
 48 H      -11.3410     2.8220    -1.4370 H     1 <1>   0.1500 
 49 H      -11.2400     0.6470    -2.5850 H     1 <1>   0.1500 
@<TRIPOS>BOND
  1   1   2  2   
  2   1   3  2   
  3   1   4  am  
  4   1   5  1   
  5   4   6  1   
  6   4   7  1   
  7   5   8  1   
  8   5   9  1   
  9   5  27  1   
 10   6  10  1   
 11   6  28  1   
 12   6  29  1   
 13   7  11  1   
 14   7  30  1   
 15   7  31  1   
 16   8   9  1   
 17   8  32  1   
 18   8  33  1   
 19   9  34  1   
 20   9  35  1   
 21  10  12  1   
 22  10  13  1   
 23  10  14  1   
 24  11  13  1   
 25  11  36  1   
 26  11  37  1   
 27  12  15  ar  
 28  12  16  ar  
 29  13  38  1   
 30  13  39  1   
 31  14  17  1   
 32  14  40  1   
 33  14  41  1   
 34  15  18  ar  
 35  16  17  1   
 36  16  19  ar  
 37  17  42  1   
 38  17  43  1   
 39  18  20  ar  
 40  18  21  1   
 41  19  20  ar  
 42  19  44  1   
 43  21  22  ar  
 44  21  23  ar  
 45  22  24  ar  
 46  22  45  1   
 47  23  25  ar  
 48  23  46  1   
 49  24  26  ar  
 50  24  47  1   
 51  25  26  ar  
 52  25  48  1   
 53  26  49  1   
@<TRIPOS>SUBSTRUCTURE
  1 ****  12 GROUP 4 **** **** 0

# MOE 2024.06 (io_trps.svl 2023.06)
