@<TRIPOS>MOLECULE
NONAME
64 67 1 0 0 
SMALL
USER_CHARGES


@<TRIPOS>ATOM
  1 O       -0.6650     0.2140    -2.0080 O.2   1 <1>  -0.5700 
  2 C       -1.6080     0.8140    -1.5530 C.2   1 <1>   0.5690 
  3 N       -2.7780     0.1800    -1.2390 N.am  1 <1>  -0.6600 
  4 C       -1.4470     2.3020    -1.3160 C.3   1 <1>  -0.0990 
  5 C       -4.0100     0.8010    -0.6870 C.3   1 <1>   0.1400 
  6 C       -2.9470    -1.2830    -1.3850 C.3   1 <1>   0.1400 
  7 C       -0.9160     2.5770     0.0970 C.3   1 <1>  -0.0990 
  8 C       -5.0140    -0.3470    -0.5700 C.3   1 <1>   0.2000 
  9 C       -4.1810    -1.6270    -0.5510 C.3   1 <1>  -0.0800 
 10 C       -0.8440     4.0610     0.3660 C.2   1 <1>   0.5690 
 11 O       -5.7640    -0.2540     0.5920 O.3   1 <1>  -0.6800 
 12 C       -4.9520    -2.8520    -1.0720 C.3   1 <1>  -0.0160 
 13 O       -1.8290     4.6190     0.7820 O.2   1 <1>  -0.5700 
 14 N        0.3190     4.7090     0.1120 N.am  1 <1>  -0.7300 
 15 C       -4.0950    -4.1110    -0.9960 C.ar  1 <1>  -0.1440 
 16 C        0.5470     6.1520     0.2970 C.3   1 <1>   0.2200 
 17 C       -3.8830    -4.8100     0.2170 C.ar  1 <1>   0.0000 
 18 C       -3.4940    -4.6000    -2.1180 C.ar  1 <1>  -0.1500 
 19 C        0.8800     6.7550    -1.0750 C.3   1 <1>  -0.1600 
 20 C        1.6410     6.3160     1.3580 C.3   1 <1>  -0.1600 
 21 C       -3.0480    -5.9540     0.1790 C.ar  1 <1>   0.3100 
 22 C       -4.4480    -4.4440     1.4610 C.ar  1 <1>  -0.1500 
 23 C       -2.6920    -5.7450    -2.0480 C.ar  1 <1>   0.1600 
 24 C        0.8170     8.2910    -1.0700 C.3   1 <1>  -0.1600 
 25 C        2.0790     7.7660     1.6240 C.3   1 <1>  -0.1600 
 26 N       -2.4640    -6.4080    -0.9590 N.ar  1 <1>  -0.6200 
 27 C       -2.8080    -6.6590     1.3690 C.ar  1 <1>  -0.1500 
 28 C       -4.1950    -5.1550     2.6020 C.ar  1 <1>  -0.1500 
 29 C        2.1210     8.9910    -0.6580 C.3   1 <1>  -0.1600 
 30 C        2.9250     8.3430     0.4800 C.3   1 <1>  -0.1600 
 31 C       -3.3630    -6.2760     2.5590 C.ar  1 <1>  -0.1500 
 32 H       -0.7540     2.6900    -2.0410 H     1 <1>   0.0800 
 33 H       -2.3830     2.8070    -1.4650 H     1 <1>   0.0800 
 34 H       -3.7970     1.2280     0.2770 H     1 <1>   0.0800 
 35 H       -4.3820     1.5580    -1.3550 H     1 <1>   0.0800 
 36 H       -3.1050    -1.5110    -2.4250 H     1 <1>   0.0800 
 37 H       -2.0740    -1.8100    -1.0350 H     1 <1>   0.0800 
 38 H        0.0580     2.1370     0.2140 H     1 <1>   0.0800 
 39 H       -1.5680     2.1320     0.8260 H     1 <1>   0.0800 
 40 H       -5.6880    -0.3290    -1.4100 H     1 <1>   0.0800 
 41 H       -3.8380    -1.8120     0.4510 H     1 <1>   0.0800 
 42 H       -5.1810    -0.2590     1.3760 H     1 <1>   0.4000 
 43 H       -5.2500    -2.6780    -2.0910 H     1 <1>   0.0800 
 44 H       -5.8560    -2.9890    -0.5040 H     1 <1>   0.0800 
 45 H        1.1180     4.1920    -0.2520 H     1 <1>   0.3700 
 46 H       -0.3600     6.6050     0.6630 H     1 <1>   0.0800 
 47 H       -3.6110    -4.1260    -3.0760 H     1 <1>   0.1500 
 48 H        1.8400     6.4180    -1.4210 H     1 <1>   0.0800 
 49 H        0.1350     6.4090    -1.7710 H     1 <1>   0.0800 
 50 H        1.2590     5.9130     2.2800 H     1 <1>   0.0800 
 51 H        2.5030     5.7350     1.0810 H     1 <1>   0.0800 
 52 H       -5.0950    -3.5890     1.5170 H     1 <1>   0.1500 
 53 H       -2.2350    -6.0960    -2.9570 H     1 <1>   0.1500 
 54 H        0.5640     8.6280    -2.0600 H     1 <1>   0.0800 
 55 H        0.0190     8.6120    -0.4230 H     1 <1>   0.0800 
 56 H        1.2270     8.3940     1.8230 H     1 <1>   0.0800 
 57 H        2.6850     7.7630     2.5130 H     1 <1>   0.0800 
 58 H       -2.1660    -7.5190     1.3100 H     1 <1>   0.1500 
 59 H       -4.6310    -4.8650     3.5430 H     1 <1>   0.1500 
 60 H        2.7650     9.0570    -1.5190 H     1 <1>   0.0800 
 61 H        1.8770    10.0000    -0.3750 H     1 <1>   0.0800 
 62 H        3.5820     9.0950     0.8840 H     1 <1>   0.0800 
 63 H        3.5570     7.5700     0.0770 H     1 <1>   0.0800 
 64 H       -3.1700    -6.8270     3.4630 H     1 <1>   0.1500 
@<TRIPOS>BOND
  1   1   2  2   
  2   2   3  am  
  3   2   4  1   
  4   3   5  1   
  5   3   6  1   
  6   4   7  1   
  7   4  32  1   
  8   4  33  1   
  9   5   8  1   
 10   5  34  1   
 11   5  35  1   
 12   6   9  1   
 13   6  36  1   
 14   6  37  1   
 15   7  10  1   
 16   7  38  1   
 17   7  39  1   
 18   8   9  1   
 19   8  11  1   
 20   8  40  1   
 21   9  12  1   
 22   9  41  1   
 23  10  13  2   
 24  10  14  am  
 25  11  42  1   
 26  12  15  1   
 27  12  43  1   
 28  12  44  1   
 29  14  16  1   
 30  14  45  1   
 31  15  17  ar  
 32  15  18  ar  
 33  16  19  1   
 34  16  20  1   
 35  16  46  1   
 36  17  21  ar  
 37  17  22  ar  
 38  18  23  ar  
 39  18  47  1   
 40  19  24  1   
 41  19  48  1   
 42  19  49  1   
 43  20  25  1   
 44  20  50  1   
 45  20  51  1   
 46  21  26  ar  
 47  21  27  ar  
 48  22  28  ar  
 49  22  52  1   
 50  23  26  ar  
 51  23  53  1   
 52  24  29  1   
 53  24  54  1   
 54  24  55  1   
 55  25  30  1   
 56  25  56  1   
 57  25  57  1   
 58  27  31  ar  
 59  27  58  1   
 60  28  31  ar  
 61  28  59  1   
 62  29  30  1   
 63  29  60  1   
 64  29  61  1   
 65  30  62  1   
 66  30  63  1   
 67  31  64  1   
@<TRIPOS>SUBSTRUCTURE
  1 ****   3 GROUP 4 **** **** 0

# MOE 2024.06 (io_trps.svl 2023.06)
