@<TRIPOS>MOLECULE
NONAME
58 60 1 0 0 
SMALL
USER_CHARGES


@<TRIPOS>ATOM
  1 O        0.8230     0.2440    -0.8100 O.3   1 <1>  -0.5600 
  2 C        2.0610    -0.4000    -0.6840 C.3   1 <1>   0.3440 
  3 C        0.8810     1.6140    -1.0960 C.3   1 <1>   0.2000 
  4 C        1.8440    -1.8760    -0.3890 C.ar  1 <1>  -0.1440 
  5 C        2.8640     0.2410     0.4710 C.3   1 <1>   0.3430 
  6 C       -0.5580     2.1300    -1.3110 C.3   1 <1>  -0.0800 
  7 C        1.5990     2.3430     0.0630 C.3   1 <1>   0.3430 
  8 C        0.7910    -2.3040     0.4100 C.ar  1 <1>  -0.1500 
  9 C        2.7220    -2.8180    -0.9070 C.ar  1 <1>  -0.1500 
 10 N        2.9470     1.7430     0.3730 N.4   1 <1>  -0.9590 
 11 C       -1.2580     1.3790    -2.4560 C.3   1 <1>  -0.2400 
 12 C       -0.5880     3.6380    -1.6190 C.3   1 <1>  -0.2400 
 13 C        0.6250    -3.6480     0.6930 C.ar  1 <1>  -0.1500 
 14 C        2.5570    -4.1630    -0.6240 C.ar  1 <1>  -0.1500 
 15 C        3.5500     2.3590     1.5810 C.3   1 <1>   0.5240 
 16 C        1.5090    -4.5780     0.1780 C.ar  1 <1>  -0.1500 
 17 C        3.7640     3.8190     1.2620 C.2   1 <1>  -0.1810 
 18 C        2.9770     4.8780     1.7060 C.2   1 <1>   0.1080 
 19 C        4.7110     4.3910     0.4820 C.2   1 <1>  -0.3320 
 20 N        3.3780     6.0060     1.2250 N.2   1 <1>  -0.7070 
 21 C        1.7790     4.8200     2.6320 C.3   1 <1>  -0.0590 
 22 N        4.4600     5.7220     0.4830 N.pl3 1 <1>   0.3140 
 23 C        5.8710     3.7550    -0.2750 C.3   1 <1>  -0.0600 
 24 C        5.1950     6.7960    -0.2100 C.3   1 <1>   0.0960 
 25 C        4.4500     7.1790    -1.4860 C.3   1 <1>   0.1200 
 26 O        5.2180     8.0780    -2.2090 O.3   1 <1>  -0.6800 
 27 H        2.5880    -0.2940    -1.6170 H     1 <1>   0.0800 
 28 H        1.4350     1.7450    -2.0100 H     1 <1>   0.0800 
 29 H        3.8520    -0.1870     0.4860 H     1 <1>   0.0800 
 30 H        2.3770    -0.0360     1.3910 H     1 <1>   0.0800 
 31 H       -1.1200     1.9620    -0.4080 H     1 <1>   0.0800 
 32 H        0.9670     2.2890     0.9340 H     1 <1>   0.0800 
 33 H        1.7150     3.3840    -0.1930 H     1 <1>   0.0800 
 34 H        0.0860    -1.5960     0.8110 H     1 <1>   0.1500 
 35 H        3.5420    -2.5230    -1.5390 H     1 <1>   0.1500 
 36 H        3.5690     2.0090    -0.4010 H     1 <1>   0.4500 
 37 H       -0.7270     1.5090    -3.3830 H     1 <1>   0.0800 
 38 H       -2.2630     1.7400    -2.5850 H     1 <1>   0.0800 
 39 H       -1.3130     0.3250    -2.2410 H     1 <1>   0.0800 
 40 H       -0.0070     3.8610    -2.4970 H     1 <1>   0.0800 
 41 H       -0.2150     4.2200    -0.7960 H     1 <1>   0.0800 
 42 H       -1.6010     3.9550    -1.8020 H     1 <1>   0.0800 
 43 H       -0.1950    -3.9720     1.3110 H     1 <1>   0.1500 
 44 H        3.2390    -4.8900    -1.0290 H     1 <1>   0.1500 
 45 H        2.9010     2.2470     2.4330 H     1 <1>   0.0800 
 46 H        4.5000     1.9010     1.8030 H     1 <1>   0.0800 
 47 H        1.3790    -5.6240     0.3980 H     1 <1>   0.1500 
 48 H        1.7810     3.9260     3.2260 H     1 <1>   0.0800 
 49 H        0.8730     4.8720     2.0590 H     1 <1>   0.0800 
 50 H        1.8070     5.6660     3.2960 H     1 <1>   0.0800 
 51 H        5.8910     2.6900    -0.1370 H     1 <1>   0.0800 
 52 H        6.8050     4.1540     0.0820 H     1 <1>   0.0800 
 53 H        5.7910     3.9650    -1.3280 H     1 <1>   0.0800 
 54 H        5.2550     7.6410     0.4510 H     1 <1>   0.0800 
 55 H        6.1840     6.4540    -0.4440 H     1 <1>   0.0800 
 56 H        3.5010     7.6370    -1.2620 H     1 <1>   0.0800 
 57 H        4.2980     6.3130    -2.1070 H     1 <1>   0.0800 
 58 H        5.1920     8.9690    -1.8050 H     1 <1>   0.4000 
@<TRIPOS>BOND
  1   1   2  1   
  2   1   3  1   
  3   2   4  1   
  4   2   5  1   
  5   2  27  1   
  6   3   6  1   
  7   3   7  1   
  8   3  28  1   
  9   4   8  ar  
 10   4   9  ar  
 11   5  10  1   
 12   5  29  1   
 13   5  30  1   
 14   6  11  1   
 15   6  12  1   
 16   6  31  1   
 17   7  10  1   
 18   7  32  1   
 19   7  33  1   
 20   8  13  ar  
 21   8  34  1   
 22   9  14  ar  
 23   9  35  1   
 24  10  15  1   
 25  10  36  1   
 26  11  37  1   
 27  11  38  1   
 28  11  39  1   
 29  12  40  1   
 30  12  41  1   
 31  12  42  1   
 32  13  16  ar  
 33  13  43  1   
 34  14  16  ar  
 35  14  44  1   
 36  15  17  1   
 37  15  45  1   
 38  15  46  1   
 39  16  47  1   
 40  17  18  1   
 41  17  19  2   
 42  18  20  2   
 43  18  21  1   
 44  19  22  1   
 45  19  23  1   
 46  20  22  1   
 47  21  48  1   
 48  21  49  1   
 49  21  50  1   
 50  22  24  1   
 51  23  51  1   
 52  23  52  1   
 53  23  53  1   
 54  24  25  1   
 55  24  54  1   
 56  24  55  1   
 57  25  26  1   
 58  25  56  1   
 59  25  57  1   
 60  26  58  1   
@<TRIPOS>SUBSTRUCTURE
  1 ****  10 GROUP 4 **** **** 0

# MOE 2024.06 (io_trps.svl 2023.06)
