@<TRIPOS>MOLECULE
NONAME
43 45 1 0 0 
SMALL
USER_CHARGES


@<TRIPOS>ATOM
  1 S       -2.7670    -3.1170    -2.5550 S.3   1 <1>  -0.0890 
  2 C       -2.8190    -2.2930    -1.0180 C.2   1 <1>  -0.1490 
  3 C       -4.2860    -2.3610    -2.9740 C.2   1 <1>   0.2200 
  4 C       -3.9200    -1.5270    -0.9720 C.2   1 <1>   0.0370 
  5 C       -1.7150    -2.5770    -0.0220 C.3   1 <1>   0.0100 
  6 N       -4.7550    -1.5990    -2.0680 N.2   1 <1>  -0.5710 
  7 C       -4.3720    -0.6170     0.1510 C.3   1 <1>  -0.0680 
  8 C       -2.1880    -3.6160     1.0080 C.3   1 <1>   0.1590 
  9 N       -2.5140    -4.9460     0.4000 N.pl3 1 <1>  -0.5970 
 10 C       -3.7820    -5.3180     0.0910 C.cat 1 <1>   1.0680 
 11 C       -1.3050    -5.7960     0.1900 C.3   1 <1>   0.0780 
 12 N       -4.7440    -4.4410    -0.1860 N.pl3 1 <1>  -0.7040 
 13 N       -4.2730    -6.5700     0.0220 N.pl3 1 <1>  -0.7680 
 14 C       -5.9020    -5.1280    -0.4660 C.ar  1 <1>   0.3010 
 15 C       -5.6040    -6.4680    -0.3210 C.ar  1 <1>   0.6140 
 16 C       -3.6950    -7.8790     0.3930 C.3   1 <1>   0.3470 
 17 C       -7.1750    -4.7490    -0.8290 C.ar  1 <1>  -0.1180 
 18 N       -6.4460    -7.4790    -0.4740 N.ar  1 <1>  -0.5840 
 19 C       -3.3420    -8.6670    -0.8670 C.3   1 <1>  -0.2480 
 20 C       -8.0930    -5.7750    -1.0100 C.ar  1 <1>  -0.1880 
 21 C       -7.6670    -7.1000    -0.8160 C.ar  1 <1>   0.1510 
 22 C       -9.4640    -5.5100    -1.3850 C.2   1 <1>   0.9770 
 23 O       -9.8460    -4.3400    -1.5250 O.co2 1 <1>  -0.9030 
 24 O      -10.2550    -6.4470    -1.5630 O.co2 1 <1>  -0.9030 
 25 H       -4.7080    -2.5920    -3.9380 H     1 <1>   0.1410 
 26 H       -1.4720    -1.6660     0.4950 H     1 <1>   0.0710 
 27 H       -0.8240    -2.9070    -0.5260 H     1 <1>   0.0710 
 28 H       -3.6730    -0.6270     0.9660 H     1 <1>   0.0710 
 29 H       -5.3370    -0.9280     0.5100 H     1 <1>   0.0710 
 30 H       -4.4550     0.3900    -0.2180 H     1 <1>   0.0710 
 31 H       -3.0550    -3.2320     1.5190 H     1 <1>   0.0710 
 32 H       -1.4180    -3.7480     1.7510 H     1 <1>   0.0710 
 33 H       -0.4770    -5.1920    -0.1400 H     1 <1>   0.0710 
 34 H       -1.4860    -6.5350    -0.5680 H     1 <1>   0.0710 
 35 H       -1.0300    -6.2810     1.1110 H     1 <1>   0.0710 
 36 H       -4.5950    -3.4500    -0.4030 H     1 <1>   0.4440 
 37 H       -4.4130    -8.4360     0.9720 H     1 <1>   0.0710 
 38 H       -2.8240    -7.7460     1.0090 H     1 <1>   0.0710 
 39 H       -7.4520    -3.7160    -0.9660 H     1 <1>   0.1410 
 40 H       -4.2340    -8.9040    -1.4200 H     1 <1>   0.0710 
 41 H       -2.8700    -9.5930    -0.5900 H     1 <1>   0.0710 
 42 H       -2.6720    -8.1200    -1.5020 H     1 <1>   0.0710 
 43 H       -8.4020    -7.8790    -0.9610 H     1 <1>   0.1410 
@<TRIPOS>BOND
  1   1   2  1   
  2   1   3  1   
  3   2   4  2   
  4   2   5  1   
  5   3   6  2   
  6   3  25  1   
  7   4   6  1   
  8   4   7  1   
  9   5   8  1   
 10   5  26  1   
 11   5  27  1   
 12   7  28  1   
 13   7  29  1   
 14   7  30  1   
 15   8   9  1   
 16   8  31  1   
 17   8  32  1   
 18   9  10  ar  
 19   9  11  1   
 20  10  12  ar  
 21  10  13  ar  
 22  11  33  1   
 23  11  34  1   
 24  11  35  1   
 25  12  14  1   
 26  12  36  1   
 27  13  15  1   
 28  13  16  1   
 29  14  15  ar  
 30  14  17  ar  
 31  15  18  ar  
 32  16  19  1   
 33  16  37  1   
 34  16  38  1   
 35  17  20  ar  
 36  17  39  1   
 37  18  21  ar  
 38  19  40  1   
 39  19  41  1   
 40  19  42  1   
 41  20  21  ar  
 42  20  22  1   
 43  21  43  1   
 44  22  23  ar  
 45  22  24  ar  
@<TRIPOS>SUBSTRUCTURE
  1 ****  12 GROUP 4 **** **** 0

# MOE 2024.06 (io_trps.svl 2023.06)
