@<TRIPOS>MOLECULE
NONAME
51 53 1 0 0 
SMALL
USER_CHARGES


@<TRIPOS>ATOM
  1 CL       2.0100    -2.3640     1.6810 Cl    1 <1>  -0.1770 
  2 C        1.0270    -3.5430     0.8510 C.ar  1 <1>   0.1770 
  3 C        1.5830    -4.2910    -0.1710 C.ar  1 <1>  -0.1500 
  4 C       -0.2930    -3.7100     1.2280 C.ar  1 <1>  -0.1500 
  5 C        0.7980    -5.2260    -0.8240 C.ar  1 <1>  -0.1500 
  6 C       -1.0760    -4.6460     0.5720 C.ar  1 <1>  -0.1500 
  7 C       -0.5270    -5.4120    -0.4560 C.ar  1 <1>   0.0830 
  8 O       -1.2130    -6.3580    -1.1400 O.3   1 <1>  -0.3630 
  9 C       -2.5360    -6.7250    -0.7780 C.3   1 <1>   0.1810 
 10 C       -3.0250    -7.9330    -1.5820 C.2   1 <1>   0.5690 
 11 O       -2.7730    -7.9800    -2.7650 O.2   1 <1>  -0.5700 
 12 N       -3.7340    -8.9470    -0.9780 N.am  1 <1>  -0.6600 
 13 C       -3.9060   -10.2620    -1.6660 C.3   1 <1>   0.1400 
 14 C       -4.5060    -8.8050     0.2840 C.3   1 <1>   0.1400 
 15 C       -3.6020   -11.4880    -0.7650 C.3   1 <1>   0.0000 
 16 C       -4.0930    -9.9030     1.2550 C.3   1 <1>  -0.1600 
 17 C       -4.2940   -11.2790     0.6120 C.3   1 <1>   0.2000 
 18 C       -4.2890   -12.7170    -1.4120 C.3   1 <1>   0.1200 
 19 C       -2.0700   -11.8070    -0.6930 C.3   1 <1>  -0.0170 
 20 O       -3.8770   -12.2280     1.5190 O.3   1 <1>  -0.6800 
 21 O       -3.7870   -12.9800    -2.6830 O.3   1 <1>  -0.6800 
 22 C       -1.1850   -10.9680     0.2260 C.ar  1 <1>  -0.1430 
 23 C       -0.6730    -9.7570    -0.2100 C.ar  1 <1>  -0.1500 
 24 C       -0.8490   -11.4210     1.4950 C.ar  1 <1>  -0.1500 
 25 C        0.1170    -8.9840     0.6220 C.ar  1 <1>  -0.1500 
 26 C       -0.0600   -10.6500     2.3310 C.ar  1 <1>  -0.1500 
 27 C        0.4170    -9.4260     1.8970 C.ar  1 <1>  -0.1500 
 28 H        2.6100    -4.1420    -0.4470 H     1 <1>   0.1500 
 29 H       -0.6980    -3.1110     2.0240 H     1 <1>   0.1500 
 30 H        1.2070    -5.8190    -1.6230 H     1 <1>   0.1500 
 31 H       -2.1000    -4.7610     0.8730 H     1 <1>   0.1500 
 32 H       -2.5180    -6.9660     0.2670 H     1 <1>   0.0800 
 33 H       -3.1800    -5.8860    -0.9630 H     1 <1>   0.0800 
 34 H       -4.9260   -10.3130    -2.0060 H     1 <1>   0.0800 
 35 H       -3.2790   -10.3060    -2.5410 H     1 <1>   0.0800 
 36 H       -4.3560    -7.8420     0.7370 H     1 <1>   0.0800 
 37 H       -5.5550    -8.8980     0.0590 H     1 <1>   0.0800 
 38 H       -4.7040    -9.8330     2.1370 H     1 <1>   0.0800 
 39 H       -3.0720    -9.7430     1.5440 H     1 <1>   0.0800 
 40 H       -5.3550   -11.4230     0.4880 H     1 <1>   0.0800 
 41 H       -5.3520   -12.5720    -1.5000 H     1 <1>   0.0800 
 42 H       -4.1200   -13.5960    -0.8110 H     1 <1>   0.0800 
 43 H       -1.9520   -12.8330    -0.3920 H     1 <1>   0.0800 
 44 H       -1.6560   -11.7520    -1.6850 H     1 <1>   0.0800 
 45 H       -2.9470   -12.0340     1.7530 H     1 <1>   0.4000 
 46 H       -4.0440   -12.2900    -3.3250 H     1 <1>   0.4000 
 47 H       -0.8800    -9.4110    -1.2080 H     1 <1>   0.1500 
 48 H       -1.1850   -12.3830     1.8410 H     1 <1>   0.1500 
 49 H        0.5000    -8.0410     0.2720 H     1 <1>   0.1500 
 50 H        0.1880   -11.0040     3.3160 H     1 <1>   0.1500 
 51 H        1.0300    -8.8230     2.5450 H     1 <1>   0.1500 
@<TRIPOS>BOND
  1   1   2  1   
  2   2   3  ar  
  3   2   4  ar  
  4   3   5  ar  
  5   3  28  1   
  6   4   6  ar  
  7   4  29  1   
  8   5   7  ar  
  9   5  30  1   
 10   6   7  ar  
 11   6  31  1   
 12   7   8  1   
 13   8   9  1   
 14   9  10  1   
 15   9  32  1   
 16   9  33  1   
 17  10  11  2   
 18  10  12  am  
 19  12  13  1   
 20  12  14  1   
 21  13  15  1   
 22  13  34  1   
 23  13  35  1   
 24  14  16  1   
 25  14  36  1   
 26  14  37  1   
 27  15  17  1   
 28  15  18  1   
 29  15  19  1   
 30  16  17  1   
 31  16  38  1   
 32  16  39  1   
 33  17  20  1   
 34  17  40  1   
 35  18  21  1   
 36  18  41  1   
 37  18  42  1   
 38  19  22  1   
 39  19  43  1   
 40  19  44  1   
 41  20  45  1   
 42  21  46  1   
 43  22  23  ar  
 44  22  24  ar  
 45  23  25  ar  
 46  23  47  1   
 47  24  26  ar  
 48  24  48  1   
 49  25  27  ar  
 50  25  49  1   
 51  26  27  ar  
 52  26  50  1   
 53  27  51  1   
@<TRIPOS>SUBSTRUCTURE
  1 ****  23 GROUP 4 **** **** 0

# MOE 2024.06 (io_trps.svl 2023.06)
