@<TRIPOS>MOLECULE
NONAME
54 56 1 0 0 
SMALL
USER_CHARGES


@<TRIPOS>ATOM
  1 S        0.2140    -0.4170    -0.1400 S.3   1 <1>  -0.4600 
  2 C       -1.2180     0.5650     0.3810 C.3   1 <1>   0.0700 
  3 C        1.5840     0.3280     0.7770 C.3   1 <1>   0.0700 
  4 C       -2.4680    -0.0340    -0.2630 C.3   1 <1>   0.1400 
  5 C        2.8510    -0.4400     0.4110 C.3   1 <1>  -0.2400 
  6 N       -3.6910     0.7270     0.1370 N.am  1 <1>  -0.6600 
  7 C       -4.7370     0.1160     0.8160 C.2   1 <1>   0.7160 
  8 C       -3.7840     2.1130    -0.4110 C.3   1 <1>   0.2200 
  9 O       -5.3920     0.7970     1.5910 O.2   1 <1>  -0.5700 
 10 C       -5.0830    -1.2960     0.6530 C.2   1 <1>   0.2030 
 11 C       -3.5900     3.1720     0.6840 C.3   1 <1>  -0.1600 
 12 C       -5.0970     2.3340    -1.1770 C.3   1 <1>  -0.1600 
 13 N       -4.7710    -2.0900    -0.3610 N.2   1 <1>  -0.7070 
 14 C       -5.8360    -2.0130     1.5800 C.2   1 <1>  -0.1500 
 15 C       -3.6390     4.5880     0.0880 C.3   1 <1>  -0.1600 
 16 C       -5.1460     3.7480    -1.7760 C.3   1 <1>  -0.1600 
 17 N       -5.3100    -3.2770    -0.0750 N.pl3 1 <1>   0.3140 
 18 C       -5.9680    -3.2790     1.1070 C.2   1 <1>  -0.2370 
 19 C       -4.9420     4.8150    -0.6910 C.3   1 <1>  -0.1600 
 20 C       -5.1340    -4.4010    -1.0040 C.3   1 <1>   0.0960 
 21 C       -6.6700    -4.3800     1.6990 C.2   1 <1>   0.7150 
 22 C       -4.5480    -5.5950    -0.2550 C.3   1 <1>   0.2000 
 23 O       -7.4160    -4.1870     2.6340 O.2   1 <1>  -0.5700 
 24 N       -6.5850    -5.6750     1.2990 N.am  1 <1>  -0.7300 
 25 O       -3.9070    -6.4200    -1.1710 O.3   1 <1>  -0.6800 
 26 C       -5.6020    -6.4360     0.4800 C.3   1 <1>   0.1400 
 27 H       -1.0420     1.5730     0.0540 H     1 <1>   0.0800 
 28 H       -1.2720     0.5130     1.4540 H     1 <1>   0.0800 
 29 H        1.3580     0.2450     1.8250 H     1 <1>   0.0800 
 30 H        1.6480     1.3620     0.4860 H     1 <1>   0.0800 
 31 H       -2.5390    -1.0580     0.0560 H     1 <1>   0.0800 
 32 H       -2.3750    -0.0240    -1.3350 H     1 <1>   0.0800 
 33 H        2.7440    -1.4760     0.6780 H     1 <1>   0.0800 
 34 H        3.6940    -0.0320     0.9380 H     1 <1>   0.0800 
 35 H        3.0350    -0.3680    -0.6460 H     1 <1>   0.0800 
 36 H       -2.9890     2.2410    -1.1250 H     1 <1>   0.0800 
 37 H       -2.6460     3.0250     1.1750 H     1 <1>   0.0800 
 38 H       -4.3690     3.0840     1.4200 H     1 <1>   0.0800 
 39 H       -5.9360     2.2170    -0.5130 H     1 <1>   0.0800 
 40 H       -5.1800     1.6070    -1.9650 H     1 <1>   0.0800 
 41 H       -6.2360    -1.6110     2.4960 H     1 <1>   0.1500 
 42 H       -2.8000     4.7290    -0.5710 H     1 <1>   0.0800 
 43 H       -3.5630     5.3130     0.8800 H     1 <1>   0.0800 
 44 H       -6.0970     3.9010    -2.2570 H     1 <1>   0.0800 
 45 H       -4.3790     3.8470    -2.5240 H     1 <1>   0.0800 
 46 H       -4.9260     5.7920    -1.1440 H     1 <1>   0.0800 
 47 H       -5.7730     4.7850    -0.0060 H     1 <1>   0.0800 
 48 H       -4.4540    -4.0840    -1.7740 H     1 <1>   0.0800 
 49 H       -6.0850    -4.6410    -1.4400 H     1 <1>   0.0800 
 50 H       -3.7920    -5.2610     0.4360 H     1 <1>   0.0800 
 51 H       -7.2130    -6.2690     1.8480 H     1 <1>   0.3700 
 52 H       -4.5100    -6.7170    -1.8810 H     1 <1>   0.4000 
 53 H       -5.0900    -7.1300     1.1250 H     1 <1>   0.0800 
 54 H       -6.1590    -7.0050    -0.2450 H     1 <1>   0.0800 
@<TRIPOS>BOND
  1   1   2  1   
  2   1   3  1   
  3   2   4  1   
  4   2  27  1   
  5   2  28  1   
  6   3   5  1   
  7   3  29  1   
  8   3  30  1   
  9   4   6  1   
 10   4  31  1   
 11   4  32  1   
 12   5  33  1   
 13   5  34  1   
 14   5  35  1   
 15   6   7  am  
 16   6   8  1   
 17   7   9  2   
 18   7  10  1   
 19   8  11  1   
 20   8  12  1   
 21   8  36  1   
 22  10  13  2   
 23  10  14  1   
 24  11  15  1   
 25  11  37  1   
 26  11  38  1   
 27  12  16  1   
 28  12  39  1   
 29  12  40  1   
 30  13  17  1   
 31  14  18  2   
 32  14  41  1   
 33  15  19  1   
 34  15  42  1   
 35  15  43  1   
 36  16  19  1   
 37  16  44  1   
 38  16  45  1   
 39  17  18  1   
 40  17  20  1   
 41  18  21  1   
 42  19  46  1   
 43  19  47  1   
 44  20  22  1   
 45  20  48  1   
 46  20  49  1   
 47  21  23  2   
 48  21  24  am  
 49  22  25  1   
 50  22  26  1   
 51  22  50  1   
 52  24  26  1   
 53  24  51  1   
 54  25  52  1   
 55  26  53  1   
 56  26  54  1   
@<TRIPOS>SUBSTRUCTURE
  1 ****  10 GROUP 4 **** **** 0

# MOE 2024.06 (io_trps.svl 2023.06)
