@<TRIPOS>MOLECULE
NONAME
40 42 1 0 0 
SMALL
USER_CHARGES


@<TRIPOS>ATOM
  1 F        0.3270    -0.6320    -0.4410 F     1 <1>  -0.1900 
  2 C       -0.3650    -1.7360    -0.3050 C.ar  1 <1>   0.1900 
  3 C        0.1270    -2.9760    -0.7260 C.ar  1 <1>   0.0830 
  4 C       -1.6080    -1.6140     0.2820 C.ar  1 <1>  -0.1500 
  5 O        1.3330    -3.2240    -1.3160 O.3   1 <1>  -0.3630 
  6 C       -0.6810    -4.0850    -0.5340 C.ar  1 <1>  -0.1500 
  7 C       -2.3860    -2.7420     0.4600 C.ar  1 <1>  -0.1500 
  8 C        2.2500    -2.2060    -1.6470 C.3   1 <1>   0.0400 
  9 C       -1.9460    -4.0040     0.0540 C.ar  1 <1>   0.0530 
 10 C       -2.7500    -5.1900     0.2330 C.2   1 <1>   0.0870 
 11 O       -2.1680    -6.3570     0.3710 O.3   1 <1>  -0.0190 
 12 C       -4.0880    -5.4140     0.2910 C.2   1 <1>  -0.2330 
 13 N       -3.0200    -7.3350     0.5210 N.2   1 <1>  -0.4100 
 14 C       -4.1940    -6.7980     0.4720 C.2   1 <1>   0.3720 
 15 C       -5.1510    -4.4690     0.1820 C.2   1 <1>   1.0330 
 16 N       -5.3700    -7.5640     0.6180 N.pl3 1 <1>  -0.8210 
 17 O       -5.4880    -3.7720     1.1540 O.co2 1 <1>  -0.9000 
 18 O       -5.7470    -4.3100    -0.8990 O.co2 1 <1>  -0.9000 
 19 C       -5.2770    -9.0390     0.4680 C.3   1 <1>   0.2090 
 20 C       -6.6050    -7.0840    -0.0440 C.3   1 <1>   0.2090 
 21 C       -6.5360    -9.4750    -0.2840 C.3   1 <1>  -0.0800 
 22 C       -7.5060    -8.3050    -0.1190 C.3   1 <1>  -0.1600 
 23 C       -7.0780   -10.8110     0.2340 C.3   1 <1>   0.1200 
 24 O       -8.2260   -11.1390    -0.4650 O.3   1 <1>  -0.6800 
 25 H       -1.9670    -0.6510     0.5980 H     1 <1>   0.1500 
 26 H       -0.3170    -5.0440    -0.8570 H     1 <1>   0.1500 
 27 H       -3.3510    -2.6390     0.9260 H     1 <1>   0.1500 
 28 H        3.0960    -2.6610    -2.1290 H     1 <1>   0.0800 
 29 H        2.5660    -1.7130    -0.7450 H     1 <1>   0.0800 
 30 H        1.7760    -1.5130    -2.3200 H     1 <1>   0.0800 
 31 H       -5.2390    -9.4750     1.4510 H     1 <1>   0.0800 
 32 H       -4.3970    -9.3290    -0.0810 H     1 <1>   0.0800 
 33 H       -6.3710    -6.7300    -1.0350 H     1 <1>   0.0800 
 34 H       -7.0640    -6.2910     0.5240 H     1 <1>   0.0800 
 35 H       -6.2710    -9.5770    -1.3220 H     1 <1>   0.0800 
 36 H       -8.2010    -8.2240    -0.9340 H     1 <1>   0.0800 
 37 H       -8.0440    -8.3830     0.8090 H     1 <1>   0.0800 
 38 H       -7.3260   -10.7480     1.2800 H     1 <1>   0.0800 
 39 H       -6.3610   -11.6010     0.0840 H     1 <1>   0.0800 
 40 H       -8.8640   -10.4010    -0.4200 H     1 <1>   0.4000 
@<TRIPOS>BOND
  1   1   2  1   
  2   2   3  ar  
  3   2   4  ar  
  4   3   5  1   
  5   3   6  ar  
  6   4   7  ar  
  7   4  25  1   
  8   5   8  1   
  9   6   9  ar  
 10   6  26  1   
 11   7   9  ar  
 12   7  27  1   
 13   8  28  1   
 14   8  29  1   
 15   8  30  1   
 16   9  10  1   
 17  10  11  1   
 18  10  12  2   
 19  11  13  1   
 20  12  14  1   
 21  12  15  1   
 22  13  14  2   
 23  14  16  1   
 24  15  17  ar  
 25  15  18  ar  
 26  16  19  1   
 27  16  20  1   
 28  19  21  1   
 29  19  31  1   
 30  19  32  1   
 31  20  22  1   
 32  20  33  1   
 33  20  34  1   
 34  21  22  1   
 35  21  23  1   
 36  21  35  1   
 37  22  36  1   
 38  22  37  1   
 39  23  24  1   
 40  23  38  1   
 41  23  39  1   
 42  24  40  1   
@<TRIPOS>SUBSTRUCTURE
  1 ****  12 GROUP 4 **** **** 0

# MOE 2024.06 (io_trps.svl 2023.06)
