@<TRIPOS>MOLECULE
NONAME
42 43 1 0 0 
SMALL
USER_CHARGES


@<TRIPOS>ATOM
  1 O        0.1080    -0.7800    -1.0490 O.2   1 <1>  -0.5700 
  2 C        1.1780    -1.1340    -0.5990 C.2   1 <1>   0.6900 
  3 N        1.2770    -2.2510     0.2020 N.am  1 <1>  -0.4200 
  4 N        2.3120    -0.4420    -0.9130 N.am  1 <1>  -0.5390 
  5 C        2.5200    -2.7410     0.5550 C.2   1 <1>   0.6160 
  6 C        0.0500    -2.9580     0.6490 C.3   1 <1>   0.1400 
  7 C        3.5690    -0.8460    -0.5110 C.2   1 <1>  -0.0290 
  8 O        2.5920    -3.8180     1.1180 O.2   1 <1>  -0.5700 
  9 C        3.6780    -1.9830     0.2110 C.2   1 <1>  -0.1360 
 10 C       -0.2280    -4.1320    -0.3000 C.3   1 <1>   0.3430 
 11 C        4.7380     0.0250    -0.9240 C.3   1 <1>  -0.1020 
 12 N       -1.4020    -4.9630     0.1250 N.4   1 <1>  -0.9590 
 13 C       -1.4320    -6.2330    -0.6800 C.3   1 <1>   0.3430 
 14 C       -2.6930    -4.2200    -0.0020 C.3   1 <1>   0.3430 
 15 C       -2.5990    -7.1560    -0.2790 C.3   1 <1>   0.2000 
 16 C       -3.8480    -5.1000     0.4760 C.3   1 <1>  -0.1600 
 17 O       -2.6160    -8.2100    -1.1750 O.3   1 <1>  -0.6800 
 18 C       -3.9500    -6.4190    -0.3230 C.3   1 <1>  -0.0800 
 19 C       -5.0950    -7.3140     0.1860 C.3   1 <1>   0.1200 
 20 O       -6.2750    -6.5930     0.1580 O.3   1 <1>  -0.6800 
 21 H        2.1680     0.3960    -1.4810 H     1 <1>   0.3700 
 22 H        0.2020    -3.3210     1.6510 H     1 <1>   0.0800 
 23 H       -0.7780    -2.2710     0.6570 H     1 <1>   0.0800 
 24 H        4.6190    -2.3700     0.5540 H     1 <1>   0.1500 
 25 H        0.6530    -4.7530    -0.3230 H     1 <1>   0.0800 
 26 H       -0.3970    -3.7460    -1.2930 H     1 <1>   0.0800 
 27 H        4.6210     1.0150    -0.5210 H     1 <1>   0.0800 
 28 H        4.7920     0.0890    -1.9960 H     1 <1>   0.0800 
 29 H        5.6640    -0.3840    -0.5600 H     1 <1>   0.0800 
 30 H       -1.2720    -5.2240     1.1130 H     1 <1>   0.4500 
 31 H       -1.5420    -5.9890    -1.7240 H     1 <1>   0.0800 
 32 H       -0.5070    -6.7700    -0.5520 H     1 <1>   0.0800 
 33 H       -2.6670    -3.3180     0.5880 H     1 <1>   0.0800 
 34 H       -2.8570    -3.9430    -1.0320 H     1 <1>   0.0800 
 35 H       -2.4150    -7.5630     0.7010 H     1 <1>   0.0800 
 36 H       -3.7390    -5.3050     1.5260 H     1 <1>   0.0800 
 37 H       -4.7600    -4.5400     0.3550 H     1 <1>   0.0800 
 38 H       -3.2850    -8.8840    -0.9370 H     1 <1>   0.4000 
 39 H       -4.1580    -6.1710    -1.3510 H     1 <1>   0.0800 
 40 H       -4.9220    -7.6310     1.2010 H     1 <1>   0.0800 
 41 H       -5.2210    -8.1760    -0.4460 H     1 <1>   0.0800 
 42 H       -7.0400    -7.1510     0.4110 H     1 <1>   0.4000 
@<TRIPOS>BOND
  1   1   2  2   
  2   2   3  am  
  3   2   4  am  
  4   3   5  am  
  5   3   6  1   
  6   4   7  1   
  7   4  21  1   
  8   5   8  2   
  9   5   9  1   
 10   6  10  1   
 11   6  22  1   
 12   6  23  1   
 13   7   9  2   
 14   7  11  1   
 15   9  24  1   
 16  10  12  1   
 17  10  25  1   
 18  10  26  1   
 19  11  27  1   
 20  11  28  1   
 21  11  29  1   
 22  12  13  1   
 23  12  14  1   
 24  12  30  1   
 25  13  15  1   
 26  13  31  1   
 27  13  32  1   
 28  14  16  1   
 29  14  33  1   
 30  14  34  1   
 31  15  17  1   
 32  15  18  1   
 33  15  35  1   
 34  16  18  1   
 35  16  36  1   
 36  16  37  1   
 37  17  38  1   
 38  18  19  1   
 39  18  39  1   
 40  19  20  1   
 41  19  40  1   
 42  19  41  1   
 43  20  42  1   
@<TRIPOS>SUBSTRUCTURE
  1 ****  10 GROUP 4 **** **** 0

# MOE 2024.06 (io_trps.svl 2023.06)
