@<TRIPOS>MOLECULE
NONAME
46 48 1 0 0 
SMALL
USER_CHARGES


@<TRIPOS>ATOM
  1 S        0.3370     0.8190    -1.4340 S.o2  1 <1>   1.5010 
  2 O       -0.5380     1.8960    -1.0270 O.2   1 <1>  -0.6500 
  3 O        0.4580     0.4730    -2.8320 O.2   1 <1>  -0.6500 
  4 N        1.8810     1.2740    -0.9020 N.am  1 <1>  -0.8490 
  5 C        0.0250    -0.6450    -0.4330 C.2   1 <1>  -0.0630 
  6 C        1.9040     1.8250     0.4800 C.3   1 <1>   0.2760 
  7 C        2.6780     1.9500    -1.9410 C.3   1 <1>   0.1960 
  8 C        0.8060    -1.7990    -0.3700 C.2   1 <1>   0.1080 
  9 C       -0.9780    -0.8880     0.4490 C.2   1 <1>  -0.3020 
 10 C        1.7600     3.3580     0.5500 C.3   1 <1>   0.1200 
 11 C        3.1770     1.3520     1.2300 C.3   1 <1>   0.3430 
 12 C        3.8990     2.7470    -1.4410 C.3   1 <1>  -0.0800 
 13 N        0.3430    -2.6580     0.4830 N.2   1 <1>  -0.7070 
 14 C        2.0620    -2.1070    -1.1650 C.3   1 <1>  -0.0590 
 15 N       -0.7680    -2.1040     0.9790 N.pl3 1 <1>   0.3140 
 16 O        3.0040     3.9830     0.4390 O.3   1 <1>  -0.5600 
 17 N        4.2410     0.9140     0.2790 N.4   1 <1>  -0.9590 
 18 C        3.5000     4.1090    -0.8510 C.3   1 <1>   0.1200 
 19 C        4.8830     1.9790    -0.5390 C.3   1 <1>   0.3430 
 20 C       -1.6040    -2.8040     1.9610 C.3   1 <1>   0.0160 
 21 C        5.2610    -0.0730     0.8090 C.3   1 <1>   0.2370 
 22 C        5.8370    -0.9320    -0.3220 C.2   1 <1>   0.9060 
 23 O        5.1560    -1.0010    -1.3570 O.co2 1 <1>  -0.9000 
 24 O        6.9460    -1.4460    -0.1920 O.co2 1 <1>  -0.9000 
 25 H        1.0660     1.4200     1.0220 H     1 <1>   0.0800 
 26 H        3.0190     1.1970    -2.6350 H     1 <1>   0.0800 
 27 H        2.0390     2.6180    -2.4970 H     1 <1>   0.0800 
 28 H       -1.8130    -0.2640     0.7120 H     1 <1>   0.1500 
 29 H        1.3700     3.6280     1.5160 H     1 <1>   0.0800 
 30 H        1.0840     3.7370    -0.1980 H     1 <1>   0.0800 
 31 H        2.9040     0.5190     1.8540 H     1 <1>   0.0800 
 32 H        3.5450     2.1380     1.8680 H     1 <1>   0.0800 
 33 H        4.4570     2.9940    -2.3260 H     1 <1>   0.0800 
 34 H        2.3060    -1.3290    -1.8620 H     1 <1>   0.0800 
 35 H        1.9200    -3.0190    -1.7150 H     1 <1>   0.0800 
 36 H        2.8920    -2.2450    -0.4970 H     1 <1>   0.0800 
 37 H        3.7520     0.3460    -0.4490 H     1 <1>   0.4500 
 38 H        2.7650     4.6070    -1.4620 H     1 <1>   0.0800 
 39 H        4.3670     4.7450    -0.7890 H     1 <1>   0.0800 
 40 H        5.4040     2.6700     0.1030 H     1 <1>   0.0800 
 41 H        5.6150     1.5090    -1.1790 H     1 <1>   0.0800 
 42 H       -2.3180    -2.1230     2.3820 H     1 <1>   0.0800 
 43 H       -0.9730    -3.1990     2.7350 H     1 <1>   0.0800 
 44 H       -2.1140    -3.6110     1.4690 H     1 <1>   0.0800 
 45 H        6.0710     0.4370     1.2960 H     1 <1>   0.0800 
 46 H        4.7990    -0.7430     1.5090 H     1 <1>   0.0800 
@<TRIPOS>BOND
  1   1   2  2   
  2   1   3  2   
  3   1   4  am  
  4   1   5  1   
  5   4   6  1   
  6   4   7  1   
  7   5   8  1   
  8   5   9  2   
  9   6  10  1   
 10   6  11  1   
 11   6  25  1   
 12   7  12  1   
 13   7  26  1   
 14   7  27  1   
 15   8  13  2   
 16   8  14  1   
 17   9  15  1   
 18   9  28  1   
 19  10  16  1   
 20  10  29  1   
 21  10  30  1   
 22  11  17  1   
 23  11  31  1   
 24  11  32  1   
 25  12  18  1   
 26  12  19  1   
 27  12  33  1   
 28  13  15  1   
 29  14  34  1   
 30  14  35  1   
 31  14  36  1   
 32  15  20  1   
 33  16  18  1   
 34  17  19  1   
 35  17  21  1   
 36  17  37  1   
 37  18  38  1   
 38  18  39  1   
 39  19  40  1   
 40  19  41  1   
 41  20  42  1   
 42  20  43  1   
 43  20  44  1   
 44  21  22  1   
 45  21  45  1   
 46  21  46  1   
 47  22  23  ar  
 48  22  24  ar  
@<TRIPOS>SUBSTRUCTURE
  1 ****   4 GROUP 4 **** **** 0

# MOE 2024.06 (io_trps.svl 2023.06)
