@<TRIPOS>MOLECULE
NONAME
49 51 1 0 0 
SMALL
USER_CHARGES


@<TRIPOS>ATOM
  1 S       -0.5740    -0.5040    -0.0510 S.3   1 <1>  -0.4600 
  2 C       -1.4490     1.0720    -0.1270 C.3   1 <1>   0.0700 
  3 C       -1.5320    -1.4450     1.1560 C.3   1 <1>   0.0700 
  4 C       -2.8990     0.7770    -0.5140 C.3   1 <1>  -0.1600 
  5 C       -2.9750    -1.5060     0.6540 C.3   1 <1>  -0.1600 
  6 C       -3.5990    -0.1090     0.5320 C.3   1 <1>   0.4230 
  7 N       -5.0520    -0.2390     0.2380 N.4   1 <1>  -0.9590 
  8 C       -5.3850    -0.8260    -1.1060 C.3   1 <1>   0.3430 
  9 C       -5.8290     0.9930     0.5470 C.3   1 <1>   0.3430 
 10 C       -6.8680    -1.2320    -1.2250 C.3   1 <1>   0.1400 
 11 C       -7.0480     0.6480     1.4090 C.3   1 <1>  -0.1600 
 12 N       -7.5300    -1.4070     0.1060 N.am  1 <1>  -0.6600 
 13 C       -8.1250    -0.1930     0.7070 C.3   1 <1>   0.1400 
 14 C       -7.2740    -2.5150     0.8730 C.2   1 <1>   0.6160 
 15 O       -6.1770    -2.5500     1.4060 O.2   1 <1>  -0.5700 
 16 C       -8.2540    -3.5350     1.1180 C.2   1 <1>   0.0290 
 17 C       -8.9770    -4.0870     0.0100 C.2   1 <1>   0.6160 
 18 C       -8.5100    -4.0080     2.3820 C.2   1 <1>  -0.1500 
 19 O       -8.7370    -3.7730    -1.1520 O.2   1 <1>  -0.5700 
 20 N       -9.9650    -5.0330     0.2590 N.am  1 <1>  -0.4690 
 21 C       -9.4980    -4.9880     2.5920 C.2   1 <1>  -0.1500 
 22 C      -10.2060    -5.4770     1.5380 C.2   1 <1>  -0.0410 
 23 C      -10.7430    -5.5960    -0.8770 C.3   1 <1>   0.0600 
 24 H       -0.9510     1.6720    -0.8700 H     1 <1>   0.0800 
 25 H       -1.3640     1.5390     0.8390 H     1 <1>   0.0800 
 26 H       -1.4450    -0.9450     2.1060 H     1 <1>   0.0800 
 27 H       -1.0900    -2.4250     1.2170 H     1 <1>   0.0800 
 28 H       -2.8970     0.2980    -1.4760 H     1 <1>   0.0800 
 29 H       -3.4100     1.7180    -0.6020 H     1 <1>   0.0800 
 30 H       -3.5410    -2.0920     1.3560 H     1 <1>   0.0800 
 31 H       -2.9780    -2.0140    -0.2930 H     1 <1>   0.0800 
 32 H       -3.4960     0.3700     1.4930 H     1 <1>   0.0800 
 33 H       -5.4180    -0.9670     0.8910 H     1 <1>   0.4500 
 34 H       -4.7950    -1.7140    -1.2570 H     1 <1>   0.0800 
 35 H       -5.1350    -0.1350    -1.8930 H     1 <1>   0.0800 
 36 H       -6.1420     1.4760    -0.3650 H     1 <1>   0.0800 
 37 H       -5.2080     1.6820     1.0950 H     1 <1>   0.0800 
 38 H       -6.9290    -2.1520    -1.7820 H     1 <1>   0.0800 
 39 H       -7.4000    -0.4900    -1.7940 H     1 <1>   0.0800 
 40 H       -7.5070     1.5690     1.7210 H     1 <1>   0.0800 
 41 H       -6.7260     0.1460     2.3050 H     1 <1>   0.0800 
 42 H       -8.6120     0.3860    -0.0600 H     1 <1>   0.0800 
 43 H       -8.8770    -0.4820     1.4230 H     1 <1>   0.0800 
 44 H       -7.9650    -3.6370     3.2340 H     1 <1>   0.1500 
 45 H       -9.6790    -5.3380     3.5940 H     1 <1>   0.1500 
 46 H      -10.9690    -6.2250     1.6780 H     1 <1>   0.1500 
 47 H      -11.2070    -4.7960    -1.4270 H     1 <1>   0.0800 
 48 H      -11.5060    -6.2650    -0.5210 H     1 <1>   0.0800 
 49 H      -10.0810    -6.1340    -1.5330 H     1 <1>   0.0800 
@<TRIPOS>BOND
  1   1   2  1   
  2   1   3  1   
  3   2   4  1   
  4   2  24  1   
  5   2  25  1   
  6   3   5  1   
  7   3  26  1   
  8   3  27  1   
  9   4   6  1   
 10   4  28  1   
 11   4  29  1   
 12   5   6  1   
 13   5  30  1   
 14   5  31  1   
 15   6   7  1   
 16   6  32  1   
 17   7   8  1   
 18   7   9  1   
 19   7  33  1   
 20   8  10  1   
 21   8  34  1   
 22   8  35  1   
 23   9  11  1   
 24   9  36  1   
 25   9  37  1   
 26  10  12  1   
 27  10  38  1   
 28  10  39  1   
 29  11  13  1   
 30  11  40  1   
 31  11  41  1   
 32  12  13  1   
 33  12  14  am  
 34  13  42  1   
 35  13  43  1   
 36  14  15  2   
 37  14  16  1   
 38  16  17  1   
 39  16  18  2   
 40  17  19  2   
 41  17  20  am  
 42  18  21  1   
 43  18  44  1   
 44  20  22  1   
 45  20  23  1   
 46  21  22  2   
 47  21  45  1   
 48  22  46  1   
 49  23  47  1   
 50  23  48  1   
 51  23  49  1   
@<TRIPOS>SUBSTRUCTURE
  1 ****  14 GROUP 4 **** **** 0

# MOE 2024.06 (io_trps.svl 2023.06)
