@<TRIPOS>MOLECULE
NONAME
51 53 1 0 0 
SMALL
USER_CHARGES


@<TRIPOS>ATOM
  1 S       -1.0190     0.4460     1.2010 S.3   1 <1>  -0.3320 
  2 C       -0.6340     1.8230     0.0990 C.ar  1 <1>   0.1020 
  3 C       -1.8120    -0.8450     0.1540 C.3   1 <1>   0.1500 
  4 C       -0.7640     3.1240     0.5700 C.ar  1 <1>  -0.1440 
  5 C       -0.2140     1.5680    -1.1980 C.ar  1 <1>  -0.1500 
  6 C       -3.1160    -0.2660    -0.4030 C.3   1 <1>  -0.1600 
  7 C       -2.0760    -2.0550     1.0500 C.3   1 <1>  -0.1600 
  8 C       -0.4870     4.1730    -0.2940 C.ar  1 <1>  -0.1500 
  9 C       -1.2000     3.4200     1.9980 C.3   1 <1>  -0.0970 
 10 C        0.0580     2.6260    -2.0480 C.ar  1 <1>  -0.1500 
 11 C       -3.9370    -1.3400    -1.1100 C.3   1 <1>   0.3430 
 12 C       -2.9080    -3.1060     0.3210 C.3   1 <1>   0.3430 
 13 C       -0.0820     3.9260    -1.5960 C.ar  1 <1>  -0.1500 
 14 N       -4.1690    -2.4850    -0.1850 N.4   1 <1>  -0.9590 
 15 C       -5.1070    -3.5230    -0.7660 C.3   1 <1>   0.4040 
 16 C       -5.6900    -4.4760     0.2950 C.2   1 <1>   0.5690 
 17 O       -5.6570    -4.1090     1.4460 O.2   1 <1>  -0.5700 
 18 N       -6.2000    -5.6840    -0.0560 N.am  1 <1>  -0.7300 
 19 C       -6.8090    -6.6460     0.8980 C.3   1 <1>   0.3200 
 20 C       -7.9730    -7.3550     0.2360 C.2   1 <1>  -0.0400 
 21 O       -8.3160    -8.5320     0.7100 O.3   1 <1>  -0.2800 
 22 C       -8.7750    -7.0190    -0.7990 C.2   1 <1>  -0.1500 
 23 C       -9.3440    -9.0070     0.0040 C.2   1 <1>  -0.0920 
 24 C       -9.6600    -8.0870    -0.9480 C.2   1 <1>  -0.1500 
 25 C       -9.9610   -10.2990     0.2720 C.2   1 <1>   1.0320 
 26 O      -10.9230   -10.6780    -0.4270 O.co2 1 <1>  -0.9000 
 27 O       -9.5580   -11.0520     1.1790 O.co2 1 <1>  -0.9000 
 28 H       -1.1220    -1.1000    -0.6310 H     1 <1>   0.0800 
 29 H       -0.0820     0.5650    -1.5490 H     1 <1>   0.1500 
 30 H       -2.8940     0.5220    -1.1010 H     1 <1>   0.0800 
 31 H       -3.6980     0.1610     0.3950 H     1 <1>   0.0800 
 32 H       -2.5940    -1.7490     1.9420 H     1 <1>   0.0800 
 33 H       -1.1380    -2.4880     1.3490 H     1 <1>   0.0800 
 34 H       -0.5830     5.1910     0.0410 H     1 <1>   0.1500 
 35 H       -0.5170     2.9640     2.6920 H     1 <1>   0.0800 
 36 H       -2.1860     3.0280     2.1710 H     1 <1>   0.0800 
 37 H       -1.2170     4.4780     2.1860 H     1 <1>   0.0800 
 38 H        0.3840     2.4420    -3.0570 H     1 <1>   0.1500 
 39 H       -3.4070    -1.6790    -1.9860 H     1 <1>   0.0800 
 40 H       -4.8790    -0.9180    -1.4230 H     1 <1>   0.0800 
 41 H       -3.1400    -3.9090     1.0050 H     1 <1>   0.0800 
 42 H       -2.3410    -3.5110    -0.5010 H     1 <1>   0.0800 
 43 H        0.1290     4.7500    -2.2560 H     1 <1>   0.1500 
 44 H       -4.6570    -2.1370     0.6600 H     1 <1>   0.4500 
 45 H       -4.5920    -4.1030    -1.5110 H     1 <1>   0.0800 
 46 H       -5.9350    -3.0260    -1.2400 H     1 <1>   0.0800 
 47 H       -6.2470    -6.0270    -1.0190 H     1 <1>   0.3700 
 48 H       -7.1510    -6.1460     1.7880 H     1 <1>   0.0800 
 49 H       -6.0720    -7.3780     1.1800 H     1 <1>   0.0800 
 50 H       -8.7780    -6.1320    -1.4040 H     1 <1>   0.1500 
 51 H      -10.4490    -8.1780    -1.6750 H     1 <1>   0.1500 
@<TRIPOS>BOND
  1   1   2  1   
  2   1   3  1   
  3   2   4  ar  
  4   2   5  ar  
  5   3   6  1   
  6   3   7  1   
  7   3  28  1   
  8   4   8  ar  
  9   4   9  1   
 10   5  10  ar  
 11   5  29  1   
 12   6  11  1   
 13   6  30  1   
 14   6  31  1   
 15   7  12  1   
 16   7  32  1   
 17   7  33  1   
 18   8  13  ar  
 19   8  34  1   
 20   9  35  1   
 21   9  36  1   
 22   9  37  1   
 23  10  13  ar  
 24  10  38  1   
 25  11  14  1   
 26  11  39  1   
 27  11  40  1   
 28  12  14  1   
 29  12  41  1   
 30  12  42  1   
 31  13  43  1   
 32  14  15  1   
 33  14  44  1   
 34  15  16  1   
 35  15  45  1   
 36  15  46  1   
 37  16  17  2   
 38  16  18  am  
 39  18  19  1   
 40  18  47  1   
 41  19  20  1   
 42  19  48  1   
 43  19  49  1   
 44  20  21  1   
 45  20  22  2   
 46  21  23  1   
 47  22  24  1   
 48  22  50  1   
 49  23  24  2   
 50  23  25  1   
 51  24  51  1   
 52  25  26  ar  
 53  25  27  ar  
@<TRIPOS>SUBSTRUCTURE
  1 ****  14 GROUP 4 **** **** 0

# MOE 2024.06 (io_trps.svl 2023.06)
