@<TRIPOS>MOLECULE
NONAME
46 48 1 0 0 
SMALL
USER_CHARGES


@<TRIPOS>ATOM
  1 O       -0.6610    -0.4770    -0.7800 O.co2 1 <1>  -0.9000 
  2 C       -0.5810    -1.7150    -0.7470 C.2   1 <1>   1.0330 
  3 O       -1.6180    -2.3660    -0.5060 O.co2 1 <1>  -0.9000 
  4 C        0.6660    -2.3910    -0.9590 C.2   1 <1>  -0.2330 
  5 C        0.7680    -3.7380    -1.3020 C.2   1 <1>   0.3720 
  6 C        1.9650    -1.9870    -0.8980 C.2   1 <1>   0.0870 
  7 N        1.9920    -4.1090    -1.4290 N.2   1 <1>  -0.4100 
  8 N       -0.3190    -4.5810    -1.4720 N.pl3 1 <1>  -0.8520 
  9 O        2.7000    -3.0380    -1.1890 O.3   1 <1>  -0.0190 
 10 C        2.6290    -0.7440    -0.5830 C.ar  1 <1>   0.0530 
 11 C       -0.2840    -5.8080    -0.6650 C.3   1 <1>   0.2090 
 12 C        3.8640    -0.4320    -1.1560 C.ar  1 <1>  -0.1500 
 13 C        2.0960     0.1840     0.3120 C.ar  1 <1>  -0.1500 
 14 C       -1.7100    -6.3350    -0.5180 C.3   1 <1>  -0.1600 
 15 C        4.5290     0.7420    -0.8530 C.ar  1 <1>  -0.1500 
 16 C        2.7490     1.3630     0.6180 C.ar  1 <1>  -0.1500 
 17 C       -1.7460    -7.6360     0.3000 C.3   1 <1>  -0.1600 
 18 C        3.9790     1.6510     0.0350 C.ar  1 <1>   0.0820 
 19 C       -3.1790    -8.1630     0.4950 C.3   1 <1>  -0.0800 
 20 O        4.6860     2.7810     0.2790 O.3   1 <1>  -0.3630 
 21 C       -3.2350    -9.4370     1.3450 C.3   1 <1>   0.1200 
 22 C       -3.8560    -8.5740    -0.8060 C.3   1 <1>  -0.1600 
 23 C        4.1700     3.7990     1.1060 C.3   1 <1>   0.0400 
 24 O       -3.9080   -10.3980     0.5920 O.3   1 <1>  -0.5600 
 25 C       -4.6670    -9.7900    -0.3950 C.3   1 <1>   0.1200 
 26 H       -1.1490    -4.0100    -1.1990 H     1 <1>   0.4000 
 27 H        0.1350    -5.5920     0.3040 H     1 <1>   0.0800 
 28 H        0.3380    -6.5340    -1.1600 H     1 <1>   0.0800 
 29 H        4.3050    -1.1230    -1.8510 H     1 <1>   0.1500 
 30 H        1.1460    -0.0220     0.7730 H     1 <1>   0.1500 
 31 H       -2.1120    -6.5060    -1.5010 H     1 <1>   0.0800 
 32 H       -2.3070    -5.5840    -0.0290 H     1 <1>   0.0800 
 33 H        5.4780     0.9630    -1.3050 H     1 <1>   0.1500 
 34 H        2.2820     2.0380     1.3080 H     1 <1>   0.1500 
 35 H       -1.3100    -7.4510     1.2670 H     1 <1>   0.0800 
 36 H       -1.1510    -8.3870    -0.1920 H     1 <1>   0.0800 
 37 H       -3.7700    -7.4080     0.9860 H     1 <1>   0.0800 
 38 H       -3.7870    -9.2750     2.2550 H     1 <1>   0.0800 
 39 H       -2.2570    -9.8220     1.5750 H     1 <1>   0.0800 
 40 H       -3.1320    -8.8770    -1.5420 H     1 <1>   0.0800 
 41 H       -4.4750    -7.7950    -1.2150 H     1 <1>   0.0800 
 42 H        4.8830     4.6040     1.1310 H     1 <1>   0.0800 
 43 H        4.0280     3.4050     2.0970 H     1 <1>   0.0800 
 44 H        3.2400     4.1460     0.6920 H     1 <1>   0.0800 
 45 H       -4.8200   -10.4820    -1.2050 H     1 <1>   0.0800 
 46 H       -5.6110    -9.5030     0.0380 H     1 <1>   0.0800 
@<TRIPOS>BOND
  1   1   2  ar  
  2   2   3  ar  
  3   2   4  1   
  4   4   5  1   
  5   4   6  2   
  6   5   7  2   
  7   5   8  1   
  8   6   9  1   
  9   6  10  1   
 10   7   9  1   
 11   8  11  1   
 12   8  26  1   
 13  10  12  ar  
 14  10  13  ar  
 15  11  14  1   
 16  11  27  1   
 17  11  28  1   
 18  12  15  ar  
 19  12  29  1   
 20  13  16  ar  
 21  13  30  1   
 22  14  17  1   
 23  14  31  1   
 24  14  32  1   
 25  15  18  ar  
 26  15  33  1   
 27  16  18  ar  
 28  16  34  1   
 29  17  19  1   
 30  17  35  1   
 31  17  36  1   
 32  18  20  1   
 33  19  21  1   
 34  19  22  1   
 35  19  37  1   
 36  20  23  1   
 37  21  24  1   
 38  21  38  1   
 39  21  39  1   
 40  22  25  1   
 41  22  40  1   
 42  22  41  1   
 43  23  42  1   
 44  23  43  1   
 45  23  44  1   
 46  24  25  1   
 47  25  45  1   
 48  25  46  1   
@<TRIPOS>SUBSTRUCTURE
  1 ****   4 GROUP 4 **** **** 0

# MOE 2024.06 (io_trps.svl 2023.06)
