@<TRIPOS>MOLECULE
NONAME
53 56 1 0 0 
SMALL
USER_CHARGES


@<TRIPOS>ATOM
  1 O       -0.8350     1.1680     1.2540 O.2   1 <1>  -0.5700 
  2 C       -1.8320     1.3460     0.5900 C.2   1 <1>   0.5440 
  3 N       -1.9260     2.5530    -0.0180 N.am  1 <1>  -0.8000 
  4 C       -2.8410     0.3200     0.4480 C.ar  1 <1>   0.0860 
  5 C       -4.1580     0.6220     0.1100 C.ar  1 <1>   0.1600 
  6 C       -2.5490    -1.0260     0.6420 C.ar  1 <1>  -0.1500 
  7 N       -5.1410    -0.2430    -0.0560 N.ar  1 <1>  -0.6200 
  8 C       -3.5590    -1.9420     0.4790 C.ar  1 <1>  -0.1500 
  9 C       -4.8460    -1.5260     0.1380 C.ar  1 <1>   0.4100 
 10 N       -5.8720    -2.4400    -0.0150 N.pl3 1 <1>  -0.8380 
 11 C       -5.9860    -3.6280     0.8810 C.3   1 <1>   0.2090 
 12 C       -7.0790    -2.0660    -0.8110 C.3   1 <1>   0.2090 
 13 C       -7.4270    -3.8190     1.3570 C.3   1 <1>  -0.1600 
 14 C       -7.9120    -3.3090    -1.1000 C.3   1 <1>  -0.1600 
 15 C       -8.4570    -3.9070     0.2100 C.3   1 <1>   0.4240 
 16 O       -9.5200    -3.0850     0.6310 O.3   1 <1>  -0.5600 
 17 C       -8.9140    -5.3710     0.0080 C.ar  1 <1>  -0.1440 
 18 C      -10.7870    -3.3260     0.1020 C.3   1 <1>   0.1200 
 19 C      -10.2390    -5.7470     0.1860 C.ar  1 <1>  -0.1440 
 20 C       -8.0000    -6.3500    -0.3570 C.ar  1 <1>  -0.1500 
 21 C      -11.2630    -4.6980     0.5680 C.3   1 <1>  -0.0170 
 22 C      -10.6270    -7.0670     0.0210 C.ar  1 <1>  -0.1500 
 23 C       -8.3690    -7.6720    -0.5390 C.ar  1 <1>   0.0830 
 24 C       -9.7060    -8.0490    -0.3320 C.ar  1 <1>   0.0830 
 25 O       -7.3500    -8.5000    -0.9080 O.3   1 <1>  -0.3630 
 26 O      -10.0810    -9.3560    -0.4620 O.3   1 <1>  -0.3620 
 27 C       -7.5780    -9.6640    -1.6720 C.3   1 <1>   0.0400 
 28 C      -11.3380    -9.8230    -0.0230 C.3   1 <1>   0.0400 
 29 H       -1.1520     3.2090     0.1020 H     1 <1>   0.3700 
 30 H       -2.5990     2.7820    -0.7480 H     1 <1>   0.3700 
 31 H       -4.4180     1.6560    -0.0270 H     1 <1>   0.1500 
 32 H       -1.5510    -1.3300     0.9090 H     1 <1>   0.1500 
 33 H       -3.3630    -2.9880     0.6060 H     1 <1>   0.1500 
 34 H       -5.3530    -3.4980     1.7420 H     1 <1>   0.0800 
 35 H       -5.6520    -4.5000     0.3470 H     1 <1>   0.0800 
 36 H       -6.7660    -1.6110    -1.7360 H     1 <1>   0.0800 
 37 H       -7.6620    -1.3470    -0.2590 H     1 <1>   0.0800 
 38 H       -7.6610    -2.9830     1.9920 H     1 <1>   0.0800 
 39 H       -7.4820    -4.7040     1.9630 H     1 <1>   0.0800 
 40 H       -7.2850    -4.0160    -1.6080 H     1 <1>   0.0800 
 41 H       -8.7150    -3.0660    -1.7680 H     1 <1>   0.0800 
 42 H      -10.7430    -3.2770    -0.9710 H     1 <1>   0.0800 
 43 H      -11.4460    -2.5560     0.4630 H     1 <1>   0.0800 
 44 H       -6.9680    -6.1000    -0.5140 H     1 <1>   0.1500 
 45 H      -12.2110    -4.9160     0.1120 H     1 <1>   0.0800 
 46 H      -11.3930    -4.6870     1.6360 H     1 <1>   0.0800 
 47 H      -11.6600    -7.3110     0.1740 H     1 <1>   0.1500 
 48 H       -6.6460    -9.9650    -2.1120 H     1 <1>   0.0800 
 49 H       -8.2970    -9.4440    -2.4410 H     1 <1>   0.0800 
 50 H       -7.9400   -10.4390    -1.0210 H     1 <1>   0.0800 
 51 H      -11.3510   -10.8930    -0.1290 H     1 <1>   0.0800 
 52 H      -12.1070    -9.3870    -0.6360 H     1 <1>   0.0800 
 53 H      -11.4680    -9.5570     1.0110 H     1 <1>   0.0800 
@<TRIPOS>BOND
  1   1   2  2   
  2   2   3  am  
  3   2   4  1   
  4   3  29  1   
  5   3  30  1   
  6   4   5  ar  
  7   4   6  ar  
  8   5   7  ar  
  9   5  31  1   
 10   6   8  ar  
 11   6  32  1   
 12   7   9  ar  
 13   8   9  ar  
 14   8  33  1   
 15   9  10  1   
 16  10  11  1   
 17  10  12  1   
 18  11  13  1   
 19  11  34  1   
 20  11  35  1   
 21  12  14  1   
 22  12  36  1   
 23  12  37  1   
 24  13  15  1   
 25  13  38  1   
 26  13  39  1   
 27  14  15  1   
 28  14  40  1   
 29  14  41  1   
 30  15  16  1   
 31  15  17  1   
 32  16  18  1   
 33  17  19  ar  
 34  17  20  ar  
 35  18  21  1   
 36  18  42  1   
 37  18  43  1   
 38  19  21  1   
 39  19  22  ar  
 40  20  23  ar  
 41  20  44  1   
 42  21  45  1   
 43  21  46  1   
 44  22  24  ar  
 45  22  47  1   
 46  23  24  ar  
 47  23  25  1   
 48  24  26  1   
 49  25  27  1   
 50  26  28  1   
 51  27  48  1   
 52  27  49  1   
 53  27  50  1   
 54  28  51  1   
 55  28  52  1   
 56  28  53  1   
@<TRIPOS>SUBSTRUCTURE
  1 ****  11 GROUP 4 **** **** 0

# MOE 2024.06 (io_trps.svl 2023.06)
