@<TRIPOS>MOLECULE
NONAME
46 48 1 0 0 
SMALL
USER_CHARGES


@<TRIPOS>ATOM
  1 O        0.7310     0.0430    -0.7990 O.3   1 <1>  -0.3630 
  2 C        1.5710    -0.9580    -0.4120 C.ar  1 <1>   0.3920 
  3 C        1.2260     1.3330    -1.1010 C.3   1 <1>   0.0400 
  4 N        2.8570    -0.6690    -0.2780 N.ar  1 <1>  -0.6200 
  5 C        1.0160    -2.2490    -0.1690 C.ar  1 <1>   0.4100 
  6 C        3.5660    -1.7160     0.1130 C.ar  1 <1>   0.1600 
  7 N        1.7480    -3.2850     0.2340 N.ar  1 <1>  -0.6200 
  8 N       -0.3520    -2.5080    -0.3000 N.pl3 1 <1>  -0.8380 
  9 C        3.0320    -2.9700     0.3600 C.ar  1 <1>   0.1600 
 10 C       -0.7810    -3.8020    -0.8740 C.3   1 <1>   0.2090 
 11 C       -1.1810    -2.0400     0.8350 C.3   1 <1>   0.2090 
 12 C       -1.4510    -4.6070     0.2630 C.3   1 <1>   0.4230 
 13 C       -2.5790    -2.7270     0.8750 C.3   1 <1>  -0.1600 
 14 N       -0.9880    -6.0510     0.3150 N.4   1 <1>  -0.9590 
 15 C       -2.9990    -4.2060     0.3410 C.3   1 <1>   0.0000 
 16 C       -1.3060    -6.7650    -0.9370 C.3   1 <1>   0.3430 
 17 C        0.4670    -6.1470     0.6570 C.3   1 <1>   0.2630 
 18 C       -3.4930    -5.6370    -0.2420 C.3   1 <1>  -0.1600 
 19 C       -4.5350    -3.7720     0.5030 C.3   1 <1>   0.1200 
 20 C       -2.6930    -6.3250    -1.3740 C.3   1 <1>  -0.1600 
 21 O       -5.0360    -3.3010    -0.7110 O.3   1 <1>  -0.6800 
 22 H        0.3990     1.9530    -1.3940 H     1 <1>   0.0800 
 23 H        1.9330     1.2540    -1.9080 H     1 <1>   0.0800 
 24 H        1.7010     1.7390    -0.2240 H     1 <1>   0.0800 
 25 H        4.6230    -1.5650     0.2440 H     1 <1>   0.1500 
 26 H        3.7000    -3.7510     0.6770 H     1 <1>   0.1500 
 27 H       -1.4870    -3.6100    -1.6630 H     1 <1>   0.0800 
 28 H        0.0600    -4.3180    -1.2980 H     1 <1>   0.0800 
 29 H       -0.6530    -2.2420     1.7530 H     1 <1>   0.0800 
 30 H       -1.2980    -0.9690     0.7660 H     1 <1>   0.0800 
 31 H       -1.0160    -4.2280     1.1710 H     1 <1>   0.0800 
 32 H       -2.8580    -2.6520     1.9150 H     1 <1>   0.0800 
 33 H       -3.1490    -1.9760     0.3490 H     1 <1>   0.0800 
 34 H       -1.5300    -6.4940     1.0670 H     1 <1>   0.4500 
 35 H       -0.5890    -6.5280    -1.7070 H     1 <1>   0.0800 
 36 H       -1.2900    -7.8300    -0.7660 H     1 <1>   0.0800 
 37 H        1.0690    -5.7170    -0.1270 H     1 <1>   0.0800 
 38 H        0.7560    -7.1770     0.7900 H     1 <1>   0.0800 
 39 H        0.6720    -5.6090     1.5690 H     1 <1>   0.0800 
 40 H       -3.5840    -6.3230     0.5850 H     1 <1>   0.0800 
 41 H       -4.4730    -5.6490    -0.7000 H     1 <1>   0.0800 
 42 H       -4.7590    -3.0130     1.2380 H     1 <1>   0.0800 
 43 H       -5.1800    -4.5740     0.8320 H     1 <1>   0.0800 
 44 H       -2.6140    -5.6600    -2.2170 H     1 <1>   0.0800 
 45 H       -3.2270    -7.1940    -1.7210 H     1 <1>   0.0800 
 46 H       -4.6610    -2.4290    -0.9460 H     1 <1>   0.4000 
@<TRIPOS>BOND
  1   1   2  1   
  2   1   3  1   
  3   2   4  ar  
  4   2   5  ar  
  5   3  22  1   
  6   3  23  1   
  7   3  24  1   
  8   4   6  ar  
  9   5   7  ar  
 10   5   8  1   
 11   6   9  ar  
 12   6  25  1   
 13   7   9  ar  
 14   8  10  1   
 15   8  11  1   
 16   9  26  1   
 17  10  12  1   
 18  10  27  1   
 19  10  28  1   
 20  11  13  1   
 21  11  29  1   
 22  11  30  1   
 23  12  14  1   
 24  12  15  1   
 25  12  31  1   
 26  13  15  1   
 27  13  32  1   
 28  13  33  1   
 29  14  16  1   
 30  14  17  1   
 31  14  34  1   
 32  15  18  1   
 33  15  19  1   
 34  16  20  1   
 35  16  35  1   
 36  16  36  1   
 37  17  37  1   
 38  17  38  1   
 39  17  39  1   
 40  18  20  1   
 41  18  40  1   
 42  18  41  1   
 43  19  21  1   
 44  19  42  1   
 45  19  43  1   
 46  20  44  1   
 47  20  45  1   
 48  21  46  1   
@<TRIPOS>SUBSTRUCTURE
  1 ****   8 GROUP 4 **** **** 0

# MOE 2024.06 (io_trps.svl 2023.06)
