@<TRIPOS>MOLECULE
NONAME
47 48 1 0 0 
SMALL
USER_CHARGES


@<TRIPOS>ATOM
  1 F        1.4290    -5.4400     1.9870 F     1 <1>  -0.1900 
  2 C        1.7330    -4.5450     1.0860 C.ar  1 <1>   0.1900 
  3 C        0.7840    -3.6020     0.7130 C.ar  1 <1>  -0.1440 
  4 C        3.0050    -4.5940     0.5420 C.ar  1 <1>  -0.1500 
  5 C        1.1930    -2.6850    -0.2460 C.ar  1 <1>   0.1900 
  6 C       -0.6210    -3.5620     1.3280 C.3   1 <1>   0.0440 
  7 C        3.3690    -3.6630    -0.4190 C.ar  1 <1>  -0.1500 
  8 F        0.3650    -1.7560    -0.6430 F     1 <1>  -0.1900 
  9 C        2.4550    -2.7000    -0.8160 C.ar  1 <1>  -0.1500 
 10 C       -1.7420    -3.5830     0.2930 C.2   1 <1>   0.5690 
 11 O       -2.5350    -2.6680     0.3110 O.2   1 <1>  -0.5700 
 12 N       -1.8950    -4.5940    -0.6210 N.am  1 <1>  -0.6600 
 13 C       -1.2180    -5.9290    -0.5310 C.3   1 <1>   0.3210 
 14 C       -2.6240    -4.3390    -1.9110 C.3   1 <1>   0.1400 
 15 C       -2.2060    -7.0460    -0.1980 C.2   1 <1>   0.0460 
 16 C       -4.1490    -4.5800    -1.8600 C.3   1 <1>   0.3430 
 17 N       -3.1610    -7.4210    -1.0780 N.2   1 <1>  -0.5650 
 18 C       -2.2680    -7.8070     0.9230 C.2   1 <1>  -0.3320 
 19 N       -4.7790    -4.0210    -0.6240 N.4   1 <1>  -0.9590 
 20 C       -3.7580    -8.4090    -0.4930 C.2   1 <1>   0.0360 
 21 N       -3.2650    -8.6910     0.7290 N.pl3 1 <1>   0.0330 
 22 C       -1.4370    -7.8050     2.1970 C.3   1 <1>  -0.0600 
 23 C       -4.9610    -5.0930     0.3950 C.3   1 <1>   0.2630 
 24 C       -6.0430    -3.2840    -0.8990 C.3   1 <1>   0.2630 
 25 H        3.7000    -5.3480     0.8670 H     1 <1>   0.1500 
 26 H       -0.7070    -2.6550     1.9000 H     1 <1>   0.0800 
 27 H       -0.7780    -4.3750     2.0100 H     1 <1>   0.0800 
 28 H        4.3550    -3.6870    -0.8520 H     1 <1>   0.1500 
 29 H        2.7160    -1.9640    -1.5570 H     1 <1>   0.1500 
 30 H       -0.4520    -5.9190     0.2170 H     1 <1>   0.0800 
 31 H       -0.7400    -6.1560    -1.4680 H     1 <1>   0.0800 
 32 H       -2.2070    -4.9520    -2.6900 H     1 <1>   0.0800 
 33 H       -2.4570    -3.3150    -2.2000 H     1 <1>   0.0800 
 34 H       -4.3500    -5.6350    -1.9270 H     1 <1>   0.0800 
 35 H       -4.5860    -4.1200    -2.7300 H     1 <1>   0.0800 
 36 H       -4.0730    -3.3530    -0.2360 H     1 <1>   0.4500 
 37 H       -4.5680    -8.9730    -0.9230 H     1 <1>   0.1500 
 38 H       -3.5690    -9.4410     1.3590 H     1 <1>   0.2700 
 39 H       -0.7030    -7.0220     2.1810 H     1 <1>   0.0800 
 40 H       -0.9230    -8.7440     2.3040 H     1 <1>   0.0800 
 41 H       -2.0690    -7.6580     3.0550 H     1 <1>   0.0800 
 42 H       -5.6250    -5.8560     0.0230 H     1 <1>   0.0800 
 43 H       -5.3680    -4.6820     1.3030 H     1 <1>   0.0800 
 44 H       -4.0110    -5.5500     0.6210 H     1 <1>   0.0800 
 45 H       -6.7820    -3.9500    -1.3120 H     1 <1>   0.0800 
 46 H       -5.8610    -2.4850    -1.5990 H     1 <1>   0.0800 
 47 H       -6.4290    -2.8580     0.0130 H     1 <1>   0.0800 
@<TRIPOS>BOND
  1   1   2  1   
  2   2   3  ar  
  3   2   4  ar  
  4   3   5  ar  
  5   3   6  1   
  6   4   7  ar  
  7   4  25  1   
  8   5   8  1   
  9   5   9  ar  
 10   6  10  1   
 11   6  26  1   
 12   6  27  1   
 13   7   9  ar  
 14   7  28  1   
 15   9  29  1   
 16  10  11  2   
 17  10  12  am  
 18  12  13  1   
 19  12  14  1   
 20  13  15  1   
 21  13  30  1   
 22  13  31  1   
 23  14  16  1   
 24  14  32  1   
 25  14  33  1   
 26  15  17  1   
 27  15  18  2   
 28  16  19  1   
 29  16  34  1   
 30  16  35  1   
 31  17  20  2   
 32  18  21  1   
 33  18  22  1   
 34  19  23  1   
 35  19  24  1   
 36  19  36  1   
 37  20  21  1   
 38  20  37  1   
 39  21  38  1   
 40  22  39  1   
 41  22  40  1   
 42  22  41  1   
 43  23  42  1   
 44  23  43  1   
 45  23  44  1   
 46  24  45  1   
 47  24  46  1   
 48  24  47  1   
@<TRIPOS>SUBSTRUCTURE
  1 ****  12 GROUP 4 **** **** 0

# MOE 2024.06 (io_trps.svl 2023.06)
