@<TRIPOS>MOLECULE
NONAME
45 46 1 0 0 
SMALL
USER_CHARGES


@<TRIPOS>ATOM
  1 O        3.3580    -1.4150     1.1760 O.2   1 <1>  -0.5700 
  2 C        2.7310    -1.5460     0.1480 C.2   1 <1>   0.5690 
  3 N        2.5560    -0.5390    -0.7590 N.am  1 <1>  -0.4940 
  4 C        2.1350    -2.9200    -0.2110 C.3   1 <1>   0.3950 
  5 C        2.9560     0.7980    -0.7390 C.2   1 <1>   0.2040 
  6 N        2.2150    -3.2250    -1.6870 N.3   1 <1>  -0.8100 
  7 C        0.6880    -2.9770     0.2940 C.ar  1 <1>  -0.1430 
  8 O        3.1800     1.4000    -1.8820 O.3   1 <1>  -0.0190 
  9 C        3.1820     1.6970     0.2420 C.2   1 <1>  -0.1810 
 10 C        1.5280    -4.4850    -2.0270 C.3   1 <1>   0.0300 
 11 C        3.6150    -3.3150    -2.1380 C.3   1 <1>   0.0300 
 12 C       -0.3290    -2.2850    -0.3480 C.ar  1 <1>  -0.1500 
 13 C        0.3790    -3.7240     1.4220 C.ar  1 <1>  -0.1500 
 14 N        3.5610     2.6390    -1.7200 N.2   1 <1>  -0.4100 
 15 C        3.5740     2.8420    -0.4510 C.2   1 <1>   0.1080 
 16 C        3.0420     1.5480     1.7490 C.3   1 <1>  -0.0590 
 17 C       -1.6290    -2.3410     0.1250 C.ar  1 <1>  -0.1500 
 18 C       -0.9200    -3.7810     1.8950 C.ar  1 <1>  -0.1500 
 19 C        3.9670     4.1720     0.1700 C.3   1 <1>   0.0210 
 20 C       -1.9320    -3.0920     1.2480 C.ar  1 <1>  -0.1430 
 21 C        2.7450     5.0740     0.3760 C.3   1 <1>  -0.2400 
 22 C       -3.3560    -3.1530     1.7690 C.3   1 <1>  -0.0970 
 23 H        2.1880    -0.8780    -1.6520 H     1 <1>   0.3700 
 24 H        2.7070    -3.6620     0.3170 H     1 <1>   0.0800 
 25 H        0.4730    -4.4110    -1.8250 H     1 <1>   0.0800 
 26 H        1.9350    -5.3040    -1.4590 H     1 <1>   0.0800 
 27 H        1.6440    -4.6950    -3.0770 H     1 <1>   0.0800 
 28 H        4.1380    -2.3900    -1.9610 H     1 <1>   0.0800 
 29 H        3.6470    -3.5130    -3.1960 H     1 <1>   0.0800 
 30 H        4.1300    -4.1080    -1.6210 H     1 <1>   0.0800 
 31 H       -0.1130    -1.7030    -1.2270 H     1 <1>   0.1500 
 32 H        1.1500    -4.2640     1.9450 H     1 <1>   0.1500 
 33 H        2.3130     0.7940     1.9820 H     1 <1>   0.0800 
 34 H        2.7210     2.4710     2.1940 H     1 <1>   0.0800 
 35 H        3.9850     1.2590     2.1760 H     1 <1>   0.0800 
 36 H       -2.4020    -1.7970    -0.3880 H     1 <1>   0.1500 
 37 H       -1.1400    -4.3640     2.7720 H     1 <1>   0.1500 
 38 H        4.6680     4.6630    -0.4810 H     1 <1>   0.0800 
 39 H        4.4590     3.9980     1.1100 H     1 <1>   0.0800 
 40 H        2.2690     5.2630    -0.5710 H     1 <1>   0.0800 
 41 H        3.0450     6.0120     0.8070 H     1 <1>   0.0800 
 42 H        2.0350     4.6000     1.0280 H     1 <1>   0.0800 
 43 H       -4.0580    -3.0140     0.9660 H     1 <1>   0.0800 
 44 H       -3.5080    -2.3810     2.5020 H     1 <1>   0.0800 
 45 H       -3.5480    -4.1080     2.2250 H     1 <1>   0.0800 
@<TRIPOS>BOND
  1   1   2  2   
  2   2   3  am  
  3   2   4  1   
  4   3   5  1   
  5   3  23  1   
  6   4   6  1   
  7   4   7  1   
  8   4  24  1   
  9   5   8  1   
 10   5   9  2   
 11   6  10  1   
 12   6  11  1   
 13   7  12  ar  
 14   7  13  ar  
 15   8  14  1   
 16   9  15  1   
 17   9  16  1   
 18  10  25  1   
 19  10  26  1   
 20  10  27  1   
 21  11  28  1   
 22  11  29  1   
 23  11  30  1   
 24  12  17  ar  
 25  12  31  1   
 26  13  18  ar  
 27  13  32  1   
 28  14  15  2   
 29  15  19  1   
 30  16  33  1   
 31  16  34  1   
 32  16  35  1   
 33  17  20  ar  
 34  17  36  1   
 35  18  20  ar  
 36  18  37  1   
 37  19  21  1   
 38  19  38  1   
 39  19  39  1   
 40  20  22  1   
 41  21  40  1   
 42  21  41  1   
 43  21  42  1   
 44  22  43  1   
 45  22  44  1   
 46  22  45  1   
@<TRIPOS>SUBSTRUCTURE
  1 ****   3 GROUP 4 **** **** 0

# MOE 2024.06 (io_trps.svl 2023.06)
