@<TRIPOS>MOLECULE
NONAME
64 67 1 0 0 
SMALL
USER_CHARGES


@<TRIPOS>ATOM
  1 O       -1.7480    -0.1270    -0.2140 O.3   1 <1>  -0.6800 
  2 C       -2.6290    -1.1920    -0.1260 C.3   1 <1>   0.2000 
  3 C       -1.8760    -2.5140    -0.3630 C.3   1 <1>   0.2090 
  4 C       -3.7200    -0.9820    -1.1800 C.3   1 <1>  -0.1600 
  5 N       -2.8350    -3.6690    -0.4010 N.pl3 1 <1>  -0.8380 
  6 C       -4.6470    -2.2070    -1.2510 C.3   1 <1>  -0.1600 
  7 C       -2.7080    -4.8100     0.3270 C.ar  1 <1>   0.4100 
  8 C       -3.8690    -3.5110    -1.4720 C.3   1 <1>   0.2090 
  9 N       -3.1650    -5.9320    -0.2010 N.ar  1 <1>  -0.6200 
 10 C       -2.1110    -4.8010     1.6040 C.ar  1 <1>  -0.1500 
 11 C       -3.0230    -7.0460     0.4830 C.ar  1 <1>   0.7710 
 12 C       -1.9800    -5.9650     2.2840 C.ar  1 <1>   0.2110 
 13 N       -2.4440    -7.0930     1.6950 N.ar  1 <1>  -0.1790 
 14 N       -3.4950    -8.1510    -0.1050 N.pl3 1 <1>  -0.8690 
 15 C       -3.5740    -9.5770     0.2850 C.3   1 <1>   0.2090 
 16 C       -5.0400   -10.0140     0.1920 C.3   1 <1>  -0.1600 
 17 C       -5.2820   -11.4960     0.5480 C.3   1 <1>  -0.0800 
 18 C       -4.6220   -12.4560    -0.4620 C.3   1 <1>  -0.1600 
 19 C       -6.7960   -11.7710     0.6020 C.3   1 <1>  -0.1600 
 20 C       -4.9830   -13.9210    -0.1970 C.3   1 <1>   0.3430 
 21 C       -7.1160   -13.2440     0.8550 C.3   1 <1>   0.3430 
 22 N       -6.4610   -14.0820    -0.1890 N.4   1 <1>  -0.9590 
 23 C       -6.8550   -15.5130    -0.0690 C.3   1 <1>   0.4870 
 24 C       -8.3440   -15.6240    -0.3290 C.ar  1 <1>  -0.1430 
 25 C       -8.8430   -15.4880    -1.6170 C.ar  1 <1>  -0.1500 
 26 C       -9.2210   -15.8560     0.7220 C.ar  1 <1>  -0.1500 
 27 C      -10.2040   -15.5690    -1.8490 C.ar  1 <1>  -0.1500 
 28 C      -10.5830   -15.9370     0.4870 C.ar  1 <1>  -0.1500 
 29 C      -11.0740   -15.7910    -0.7970 C.ar  1 <1>  -0.1500 
 30 H       -1.1790    -0.0720     0.5780 H     1 <1>   0.4000 
 31 H       -3.0630    -1.1870     0.8600 H     1 <1>   0.0800 
 32 H       -1.1300    -2.6520     0.3970 H     1 <1>   0.0800 
 33 H       -1.3740    -2.4590    -1.3140 H     1 <1>   0.0800 
 34 H       -3.2610    -0.8330    -2.1420 H     1 <1>   0.0800 
 35 H       -4.2950    -0.1060    -0.9350 H     1 <1>   0.0800 
 36 H       -5.3510    -2.0770    -2.0540 H     1 <1>   0.0800 
 37 H       -5.2090    -2.2920    -0.3370 H     1 <1>   0.0800 
 38 H       -4.5630    -4.3340    -1.4660 H     1 <1>   0.0800 
 39 H       -3.3840    -3.4910    -2.4330 H     1 <1>   0.0800 
 40 H       -1.7820    -3.8700     2.0250 H     1 <1>   0.1500 
 41 H       -1.5320    -6.0240     3.2640 H     1 <1>   0.1500 
 42 H       -2.3800    -8.0050     2.1300 H     1 <1>   0.4570 
 43 H       -3.8850    -7.9570    -1.0360 H     1 <1>   0.4000 
 44 H       -3.2080    -9.7270     1.2850 H     1 <1>   0.0800 
 45 H       -2.9680   -10.1530    -0.3950 H     1 <1>   0.0800 
 46 H       -5.3990    -9.8290    -0.8060 H     1 <1>   0.0800 
 47 H       -5.6140    -9.4000     0.8650 H     1 <1>   0.0800 
 48 H       -4.8720   -11.6880     1.5270 H     1 <1>   0.0800 
 49 H       -3.5510   -12.3640    -0.4110 H     1 <1>   0.0800 
 50 H       -4.9190   -12.2010    -1.4650 H     1 <1>   0.0800 
 51 H       -7.2640   -11.4670    -0.3190 H     1 <1>   0.0800 
 52 H       -7.2400   -11.1870     1.3910 H     1 <1>   0.0800 
 53 H       -4.5780   -14.2240     0.7560 H     1 <1>   0.0800 
 54 H       -4.5460   -14.5410    -0.9630 H     1 <1>   0.0800 
 55 H       -8.1860   -13.3850     0.8270 H     1 <1>   0.0800 
 56 H       -6.7620   -13.5310     1.8330 H     1 <1>   0.0800 
 57 H       -6.8310   -13.7610    -1.0920 H     1 <1>   0.4500 
 58 H       -6.6220   -15.8860     0.9150 H     1 <1>   0.0800 
 59 H       -6.3260   -16.1080    -0.7950 H     1 <1>   0.0800 
 60 H       -8.1870   -15.3240    -2.4550 H     1 <1>   0.1500 
 61 H       -8.8630   -15.9800     1.7300 H     1 <1>   0.1500 
 62 H      -10.5920   -15.4630    -2.8480 H     1 <1>   0.1500 
 63 H      -11.2640   -16.1170     1.3020 H     1 <1>   0.1500 
 64 H      -12.1340   -15.8550    -0.9790 H     1 <1>   0.1500 
@<TRIPOS>BOND
  1   1   2  1   
  2   1  30  1   
  3   2   3  1   
  4   2   4  1   
  5   2  31  1   
  6   3   5  1   
  7   3  32  1   
  8   3  33  1   
  9   4   6  1   
 10   4  34  1   
 11   4  35  1   
 12   5   7  1   
 13   5   8  1   
 14   6   8  1   
 15   6  36  1   
 16   6  37  1   
 17   7   9  ar  
 18   7  10  ar  
 19   8  38  1   
 20   8  39  1   
 21   9  11  ar  
 22  10  12  ar  
 23  10  40  1   
 24  11  13  ar  
 25  11  14  1   
 26  12  13  ar  
 27  12  41  1   
 28  13  42  1   
 29  14  15  1   
 30  14  43  1   
 31  15  16  1   
 32  15  44  1   
 33  15  45  1   
 34  16  17  1   
 35  16  46  1   
 36  16  47  1   
 37  17  18  1   
 38  17  19  1   
 39  17  48  1   
 40  18  20  1   
 41  18  49  1   
 42  18  50  1   
 43  19  21  1   
 44  19  51  1   
 45  19  52  1   
 46  20  22  1   
 47  20  53  1   
 48  20  54  1   
 49  21  22  1   
 50  21  55  1   
 51  21  56  1   
 52  22  23  1   
 53  22  57  1   
 54  23  24  1   
 55  23  58  1   
 56  23  59  1   
 57  24  25  ar  
 58  24  26  ar  
 59  25  27  ar  
 60  25  60  1   
 61  26  28  ar  
 62  26  61  1   
 63  27  29  ar  
 64  27  62  1   
 65  28  29  ar  
 66  28  63  1   
 67  29  64  1   
@<TRIPOS>SUBSTRUCTURE
  1 ****  16 GROUP 4 **** **** 0

# MOE 2024.06 (io_trps.svl 2023.06)
