@<TRIPOS>MOLECULE
NONAME
38 39 1 0 0 
SMALL
USER_CHARGES


@<TRIPOS>ATOM
  1 S       -0.0400    -0.1270     0.0890 S.o2  1 <1>   1.0900 
  2 O        0.8710    -0.6920     1.0570 O.2   1 <1>  -0.6500 
  3 O        0.2510    -0.2240    -1.3210 O.2   1 <1>  -0.6500 
  4 C       -1.6600    -0.8210     0.3660 C.3   1 <1>  -0.0550 
  5 C       -0.2590     1.5960     0.4850 C.3   1 <1>  -0.1350 
  6 C       -1.6520    -2.3250     0.1180 C.3   1 <1>   0.1100 
  7 N       -2.9960    -2.8710     0.3450 N.3   1 <1>  -0.8100 
  8 C       -3.9290    -2.6180    -0.7590 C.3   1 <1>   0.1100 
  9 C       -2.9760    -4.3340     0.4840 C.3   1 <1>   0.1100 
 10 C       -5.0720    -3.5900    -0.4950 C.3   1 <1>   0.2000 
 11 C       -4.3690    -4.8340     0.0540 C.3   1 <1>  -0.0800 
 12 O       -5.8390    -3.0570     0.5230 O.3   1 <1>  -0.6800 
 13 C       -4.2950    -5.9490    -1.0040 C.3   1 <1>  -0.0170 
 14 C       -3.6300    -7.2050    -0.4630 C.ar  1 <1>   0.1670 
 15 N       -2.3310    -7.3340    -0.6850 N.ar  1 <1>  -0.6200 
 16 C       -4.3890    -8.1490     0.2280 C.ar  1 <1>   0.1600 
 17 C       -1.8490    -8.4550    -0.1770 C.ar  1 <1>   0.1600 
 18 N       -3.9080    -9.2710     0.7370 N.ar  1 <1>  -0.6200 
 19 C       -2.6110    -9.3920     0.5110 C.ar  1 <1>   0.1600 
 20 H       -1.9640    -0.6460     1.3790 H     1 <1>   0.0800 
 21 H       -2.3640    -0.3570    -0.2950 H     1 <1>   0.0800 
 22 H       -0.5660     1.7130     1.5070 H     1 <1>   0.0800 
 23 H       -0.9960     2.0410    -0.1540 H     1 <1>   0.0800 
 24 H        0.6670     2.1210     0.3490 H     1 <1>   0.0800 
 25 H       -0.9600    -2.7820     0.8080 H     1 <1>   0.0800 
 26 H       -1.3190    -2.5430    -0.8840 H     1 <1>   0.0800 
 27 H       -4.2710    -1.5980    -0.7750 H     1 <1>   0.0800 
 28 H       -3.4630    -2.8590    -1.7000 H     1 <1>   0.0800 
 29 H       -2.2160    -4.7500    -0.1570 H     1 <1>   0.0800 
 30 H       -2.7590    -4.6110     1.5020 H     1 <1>   0.0800 
 31 H       -5.7020    -3.7650    -1.3500 H     1 <1>   0.0800 
 32 H       -4.8970    -5.2150     0.9110 H     1 <1>   0.0800 
 33 H       -5.2090    -2.7620     1.2150 H     1 <1>   0.4000 
 34 H       -3.7520    -5.6050    -1.8680 H     1 <1>   0.0800 
 35 H       -5.2910    -6.1970    -1.3280 H     1 <1>   0.0800 
 36 H       -5.4400    -7.9670     0.3660 H     1 <1>   0.1500 
 37 H       -0.7980    -8.6440    -0.3110 H     1 <1>   0.1500 
 38 H       -2.1270   -10.2760     0.8870 H     1 <1>   0.1500 
@<TRIPOS>BOND
  1   1   2  2   
  2   1   3  2   
  3   1   4  1   
  4   1   5  1   
  5   4   6  1   
  6   4  20  1   
  7   4  21  1   
  8   5  22  1   
  9   5  23  1   
 10   5  24  1   
 11   6   7  1   
 12   6  25  1   
 13   6  26  1   
 14   7   8  1   
 15   7   9  1   
 16   8  10  1   
 17   8  27  1   
 18   8  28  1   
 19   9  11  1   
 20   9  29  1   
 21   9  30  1   
 22  10  11  1   
 23  10  12  1   
 24  10  31  1   
 25  11  13  1   
 26  11  32  1   
 27  12  33  1   
 28  13  14  1   
 29  13  34  1   
 30  13  35  1   
 31  14  15  ar  
 32  14  16  ar  
 33  15  17  ar  
 34  16  18  ar  
 35  16  36  1   
 36  17  19  ar  
 37  17  37  1   
 38  18  19  ar  
 39  19  38  1   
@<TRIPOS>SUBSTRUCTURE
  1 ****   9 GROUP 4 **** **** 0

# MOE 2024.06 (io_trps.svl 2023.06)
