@<TRIPOS>MOLECULE
NONAME
61 64 1 0 0 
SMALL
USER_CHARGES


@<TRIPOS>ATOM
  1 O       -0.4550     0.1960     0.7810 O.2   1 <1>  -0.5700 
  2 C       -0.3360     1.3660     0.4860 C.2   1 <1>   0.5690 
  3 N       -1.3730     2.2500     0.6940 N.am  1 <1>  -0.6600 
  4 C        0.9870     1.8740    -0.1350 C.3   1 <1>   0.1710 
  5 C       -1.3870     3.6860     0.2960 C.3   1 <1>   0.1400 
  6 C       -2.6430     1.8150     1.3470 C.3   1 <1>   0.1400 
  7 N        2.1540     0.9480    -0.1940 N.3   1 <1>  -0.8100 
  8 C       -2.5380     3.9240    -0.6840 C.3   1 <1>  -0.1600 
  9 C       -3.8140     2.0450     0.3890 C.3   1 <1>  -0.1600 
 10 C        3.2750     1.5470    -0.9510 C.3   1 <1>   0.1100 
 11 C        2.6170     0.5620     1.1630 C.3   1 <1>   0.1100 
 12 C       -3.8850     3.5000    -0.0830 C.3   1 <1>   0.4180 
 13 C        4.4930     0.6070    -1.0310 C.3   1 <1>   0.2090 
 14 C        3.8300    -0.3870     1.1170 C.3   1 <1>   0.2090 
 15 O       -4.1460     4.2740     1.0630 O.3   1 <1>  -0.5600 
 16 C       -5.0130     3.6550    -1.1000 C.2   1 <1>  -0.2880 
 17 N        4.9510     0.2090     0.3310 N.pl3 1 <1>  -0.8380 
 18 C       -4.6850     5.5530     0.8720 C.3   1 <1>   0.1200 
 19 C       -6.0170     4.5270    -0.9810 C.2   1 <1>  -0.2760 
 20 C        6.1630    -0.4690     0.3890 C.ar  1 <1>   0.1000 
 21 C       -6.0670     5.4650     0.2110 C.3   1 <1>  -0.0220 
 22 C       -7.1640     4.6600    -1.9660 C.3   1 <1>  -0.1020 
 23 C        6.3120    -1.7510    -0.1310 C.ar  1 <1>  -0.1500 
 24 C        7.2600     0.1440     0.9760 C.ar  1 <1>  -0.1500 
 25 C        7.5280    -2.4100    -0.0670 C.ar  1 <1>  -0.1430 
 26 C        8.4790    -0.5050     1.0450 C.ar  1 <1>  -0.1500 
 27 C        8.6130    -1.7810     0.5240 C.ar  1 <1>  -0.1500 
 28 C        7.6840    -3.8090    -0.6350 C.3   1 <1>  -0.0970 
 29 H        1.2850     2.7510     0.4090 H     1 <1>   0.0800 
 30 H        0.7530     2.1730    -1.1400 H     1 <1>   0.0800 
 31 H       -0.4620     3.9790    -0.1660 H     1 <1>   0.0800 
 32 H       -1.5270     4.2920     1.1760 H     1 <1>   0.0800 
 33 H       -2.7890     2.3870     2.2480 H     1 <1>   0.0800 
 34 H       -2.6010     0.7750     1.6200 H     1 <1>   0.0800 
 35 H       -2.3550     3.3500    -1.5740 H     1 <1>   0.0800 
 36 H       -2.5720     4.9560    -0.9740 H     1 <1>   0.0800 
 37 H       -4.7370     1.7860     0.8730 H     1 <1>   0.0800 
 38 H       -3.6950     1.3930    -0.4560 H     1 <1>   0.0800 
 39 H        3.5830     2.4660    -0.4830 H     1 <1>   0.0800 
 40 H        2.9480     1.7700    -1.9510 H     1 <1>   0.0800 
 41 H        1.8240     0.0640     1.6910 H     1 <1>   0.0800 
 42 H        2.8900     1.4410     1.7200 H     1 <1>   0.0800 
 43 H        5.2990     1.1040    -1.5430 H     1 <1>   0.0800 
 44 H        4.2250    -0.2700    -1.5940 H     1 <1>   0.0800 
 45 H        3.5270    -1.3180     0.6720 H     1 <1>   0.0800 
 46 H        4.1670    -0.5860     2.1190 H     1 <1>   0.0800 
 47 H       -4.9220     2.9750    -1.9280 H     1 <1>   0.1500 
 48 H       -4.0110     6.1240     0.2600 H     1 <1>   0.0800 
 49 H       -4.7620     6.0240     1.8360 H     1 <1>   0.0800 
 50 H       -6.3590     6.4520    -0.1030 H     1 <1>   0.0800 
 51 H       -6.7900     5.1110     0.9230 H     1 <1>   0.0800 
 52 H       -8.1000     4.4770    -1.4700 H     1 <1>   0.0800 
 53 H       -7.0580     3.9500    -2.7660 H     1 <1>   0.0800 
 54 H       -7.1810     5.6500    -2.3870 H     1 <1>   0.0800 
 55 H        5.4620    -2.2220    -0.5850 H     1 <1>   0.1500 
 56 H        7.1410     1.1330     1.3770 H     1 <1>   0.1500 
 57 H        9.3210    -0.0190     1.5030 H     1 <1>   0.1500 
 58 H        9.5630    -2.2810     0.5790 H     1 <1>   0.1500 
 59 H        6.7310    -4.2120    -0.9270 H     1 <1>   0.0800 
 60 H        8.1190    -4.4580     0.1020 H     1 <1>   0.0800 
 61 H        8.3250    -3.7810    -1.4980 H     1 <1>   0.0800 
@<TRIPOS>BOND
  1   1   2  2   
  2   2   3  am  
  3   2   4  1   
  4   3   5  1   
  5   3   6  1   
  6   4   7  1   
  7   4  29  1   
  8   4  30  1   
  9   5   8  1   
 10   5  31  1   
 11   5  32  1   
 12   6   9  1   
 13   6  33  1   
 14   6  34  1   
 15   7  10  1   
 16   7  11  1   
 17   8  12  1   
 18   8  35  1   
 19   8  36  1   
 20   9  12  1   
 21   9  37  1   
 22   9  38  1   
 23  10  13  1   
 24  10  39  1   
 25  10  40  1   
 26  11  14  1   
 27  11  41  1   
 28  11  42  1   
 29  12  15  1   
 30  12  16  1   
 31  13  17  1   
 32  13  43  1   
 33  13  44  1   
 34  14  17  1   
 35  14  45  1   
 36  14  46  1   
 37  15  18  1   
 38  16  19  2   
 39  16  47  1   
 40  17  20  1   
 41  18  21  1   
 42  18  48  1   
 43  18  49  1   
 44  19  21  1   
 45  19  22  1   
 46  20  23  ar  
 47  20  24  ar  
 48  21  50  1   
 49  21  51  1   
 50  22  52  1   
 51  22  53  1   
 52  22  54  1   
 53  23  25  ar  
 54  23  55  1   
 55  24  26  ar  
 56  24  56  1   
 57  25  27  ar  
 58  25  28  1   
 59  26  27  ar  
 60  26  57  1   
 61  27  58  1   
 62  28  59  1   
 63  28  60  1   
 64  28  61  1   
@<TRIPOS>SUBSTRUCTURE
  1 ****   4 GROUP 4 **** **** 0

# MOE 2024.06 (io_trps.svl 2023.06)
