@<TRIPOS>MOLECULE
NONAME
56 59 1 0 0 
SMALL
USER_CHARGES


@<TRIPOS>ATOM
  1 O       -0.2640     0.5300     0.1430 O.2   1 <1>  -0.5700 
  2 C        0.7890     1.1120    -0.0330 C.2   1 <1>   0.5440 
  3 N        0.9030     2.4380     0.3330 N.am  1 <1>  -0.6600 
  4 C        1.9300     0.3830    -0.5600 C.ar  1 <1>   0.0860 
  5 C       -0.2940     3.3580     0.4240 C.3   1 <1>   0.2200 
  6 C        2.0620     2.7910     1.2110 C.3   1 <1>   0.1400 
  7 C        2.1480    -0.9520    -0.2220 C.ar  1 <1>  -0.1500 
  8 C        2.8530     0.9800    -1.4200 C.ar  1 <1>  -0.1500 
  9 C        0.0660     4.8770     0.4830 C.3   1 <1>   0.1380 
 10 C       -1.3770     3.1290    -0.6480 C.3   1 <1>  -0.1600 
 11 C        1.7240     3.9020     2.2100 C.3   1 <1>  -0.1600 
 12 C        3.2370    -1.6630    -0.6960 C.ar  1 <1>  -0.1430 
 13 C        3.9460     0.2870    -1.9040 C.ar  1 <1>  -0.1500 
 14 C        0.4860     5.4910    -0.8920 C.2   1 <1>  -0.2760 
 15 C       -1.2450     5.5270     1.0230 C.3   1 <1>   0.1200 
 16 C        1.2120     5.1620     1.4960 C.3   1 <1>  -0.1600 
 17 C       -2.3630     4.3070    -0.7190 C.3   1 <1>   0.1200 
 18 C        4.1500    -1.0420    -1.5430 C.ar  1 <1>   0.0830 
 19 C        3.4250    -3.1180    -0.2900 C.3   1 <1>  -0.0970 
 20 C       -0.0160     6.6010    -1.4570 C.2   1 <1>  -0.2880 
 21 C        1.5770     4.7450    -1.6650 C.3   1 <1>  -0.0220 
 22 O       -2.4330     4.9560     0.5180 O.3   1 <1>  -0.5600 
 23 O        5.2040    -1.7700    -1.9830 O.3   1 <1>  -0.3630 
 24 C        0.4000     7.1380    -2.8210 C.3   1 <1>   0.2580 
 25 C        2.1570     5.5930    -2.8050 C.3   1 <1>   0.1200 
 26 C        6.1610    -1.2470    -2.8770 C.3   1 <1>   0.0400 
 27 O        1.1210     6.1750    -3.5300 O.3   1 <1>  -0.5600 
 28 H       -0.7650     3.1170     1.3630 H     1 <1>   0.0800 
 29 H        2.3710     1.9160     1.7590 H     1 <1>   0.0800 
 30 H        2.8900     3.0980     0.5980 H     1 <1>   0.0800 
 31 H        1.4360    -1.4300     0.4280 H     1 <1>   0.1500 
 32 H        2.7040     2.0020    -1.7130 H     1 <1>   0.1500 
 33 H       -1.9410     2.2490    -0.4040 H     1 <1>   0.0800 
 34 H       -0.9370     2.9850    -1.6160 H     1 <1>   0.0800 
 35 H        0.9860     3.5410     2.9050 H     1 <1>   0.0800 
 36 H        2.6050     4.1460     2.7780 H     1 <1>   0.0800 
 37 H        4.6260     0.7940    -2.5610 H     1 <1>   0.1500 
 38 H       -1.2740     6.5860     0.8550 H     1 <1>   0.0800 
 39 H       -1.2940     5.3810     2.0870 H     1 <1>   0.0800 
 40 H        2.0430     5.6150     0.9850 H     1 <1>   0.0800 
 41 H        0.8990     5.8780     2.2360 H     1 <1>   0.0800 
 42 H       -3.3500     3.9540    -0.9640 H     1 <1>   0.0800 
 43 H       -2.0680     5.0220    -1.4650 H     1 <1>   0.0800 
 44 H        2.6360    -3.4470     0.3620 H     1 <1>   0.0800 
 45 H        4.3640    -3.2350     0.2190 H     1 <1>   0.0800 
 46 H        3.4290    -3.7410    -1.1660 H     1 <1>   0.0800 
 47 H       -0.7700     7.2270    -1.0210 H     1 <1>   0.1500 
 48 H        1.1750     3.8400    -2.0810 H     1 <1>   0.0800 
 49 H        2.3900     4.4840    -1.0200 H     1 <1>   0.0800 
 50 H        1.0100     8.0190    -2.7180 H     1 <1>   0.0800 
 51 H       -0.4690     7.3790    -3.4090 H     1 <1>   0.0800 
 52 H        2.7290     4.9800    -3.4790 H     1 <1>   0.0800 
 53 H        2.7860     6.3760    -2.4200 H     1 <1>   0.0800 
 54 H        6.8800    -2.0180    -3.0850 H     1 <1>   0.0800 
 55 H        6.6490    -0.4080    -2.4140 H     1 <1>   0.0800 
 56 H        5.6660    -0.9540    -3.7860 H     1 <1>   0.0800 
@<TRIPOS>BOND
  1   1   2  2   
  2   2   3  am  
  3   2   4  1   
  4   3   5  1   
  5   3   6  1   
  6   4   7  ar  
  7   4   8  ar  
  8   5   9  1   
  9   5  10  1   
 10   5  28  1   
 11   6  11  1   
 12   6  29  1   
 13   6  30  1   
 14   7  12  ar  
 15   7  31  1   
 16   8  13  ar  
 17   8  32  1   
 18   9  14  1   
 19   9  15  1   
 20   9  16  1   
 21  10  17  1   
 22  10  33  1   
 23  10  34  1   
 24  11  16  1   
 25  11  35  1   
 26  11  36  1   
 27  12  18  ar  
 28  12  19  1   
 29  13  18  ar  
 30  13  37  1   
 31  14  20  2   
 32  14  21  1   
 33  15  22  1   
 34  15  38  1   
 35  15  39  1   
 36  16  40  1   
 37  16  41  1   
 38  17  22  1   
 39  17  42  1   
 40  17  43  1   
 41  18  23  1   
 42  19  44  1   
 43  19  45  1   
 44  19  46  1   
 45  20  24  1   
 46  20  47  1   
 47  21  25  1   
 48  21  48  1   
 49  21  49  1   
 50  23  26  1   
 51  24  27  1   
 52  24  50  1   
 53  24  51  1   
 54  25  27  1   
 55  25  52  1   
 56  25  53  1   
 57  26  54  1   
 58  26  55  1   
 59  26  56  1   
@<TRIPOS>SUBSTRUCTURE
  1 ****   3 GROUP 4 **** **** 0

# MOE 2024.06 (io_trps.svl 2023.06)
