@<TRIPOS>MOLECULE
NONAME
43 44 1 0 0 
SMALL
USER_CHARGES


@<TRIPOS>ATOM
  1 F       -1.5440    -2.3340    -3.2360 F     1 <1>  -0.1900 
  2 C       -1.9590    -2.4830    -2.0040 C.ar  1 <1>   0.1900 
  3 C       -2.3460    -3.7370    -1.5490 C.ar  1 <1>  -0.1440 
  4 C       -1.9860    -1.3520    -1.2120 C.ar  1 <1>  -0.1500 
  5 C       -2.7900    -3.8500    -0.2280 C.ar  1 <1>   0.1170 
  6 C       -2.2880    -4.9630    -2.4640 C.3   1 <1>  -0.0970 
  7 C       -2.4150    -1.4720     0.0960 C.ar  1 <1>  -0.1500 
  8 N       -3.1950    -5.1050     0.2640 N.am  1 <1>  -0.5470 
  9 C       -2.8080    -2.7090     0.5770 C.ar  1 <1>  -0.1500 
 10 C       -3.9670    -5.4650     1.3370 C.2   1 <1>   0.5690 
 11 O       -4.5190    -4.6780     2.0690 O.2   1 <1>  -0.5700 
 12 C       -4.2180    -6.9590     1.6040 C.3   1 <1>   0.4040 
 13 N       -5.4050    -7.6030     0.8830 N.4   1 <1>  -0.9590 
 14 C       -4.9730    -8.8490     0.0970 C.3   1 <1>   0.3970 
 15 C       -6.1170    -6.6440    -0.0090 C.3   1 <1>   0.3430 
 16 C       -3.6440    -8.6960    -0.7440 C.2   1 <1>   0.9060 
 17 C       -6.1110    -9.2690    -0.8760 C.3   1 <1>  -0.1600 
 18 C       -4.8130    -9.9460     1.1670 C.3   1 <1>  -0.2400 
 19 C       -7.4880    -7.2250    -0.3780 C.3   1 <1>  -0.1600 
 20 O       -3.1950    -7.5530    -0.9430 O.co2 1 <1>  -0.9000 
 21 O       -3.0560    -9.6950    -1.1600 O.co2 1 <1>  -0.9000 
 22 C       -7.5010    -8.7620    -0.4670 C.3   1 <1>  -0.1600 
 23 H       -1.6770    -0.4040    -1.6120 H     1 <1>   0.1500 
 24 H       -1.9460    -4.7180    -3.4530 H     1 <1>   0.0800 
 25 H       -3.2630    -5.4070    -2.5530 H     1 <1>   0.0800 
 26 H       -1.6140    -5.6970    -2.0570 H     1 <1>   0.0800 
 27 H       -2.4430    -0.6080     0.7380 H     1 <1>   0.1500 
 28 H       -2.9450    -5.9070    -0.3550 H     1 <1>   0.3700 
 29 H       -3.1280    -2.7770     1.5990 H     1 <1>   0.1500 
 30 H       -4.3590    -7.0680     2.6650 H     1 <1>   0.0800 
 31 H       -3.3120    -7.4820     1.3550 H     1 <1>   0.0800 
 32 H       -6.0820    -7.9140     1.5810 H     1 <1>   0.4500 
 33 H       -5.5290    -6.4890    -0.9010 H     1 <1>   0.0800 
 34 H       -6.2550    -5.6910     0.4780 H     1 <1>   0.0800 
 35 H       -6.1220   -10.3400    -0.9880 H     1 <1>   0.0800 
 36 H       -5.8850    -8.8780    -1.8550 H     1 <1>   0.0800 
 37 H       -4.0070    -9.7160     1.8380 H     1 <1>   0.0800 
 38 H       -4.5610   -10.8770     0.6870 H     1 <1>   0.0800 
 39 H       -5.7210   -10.0940     1.7210 H     1 <1>   0.0800 
 40 H       -7.7720    -6.8090    -1.3290 H     1 <1>   0.0800 
 41 H       -8.2220    -6.9000     0.3390 H     1 <1>   0.0800 
 42 H       -7.7680    -9.1840     0.4870 H     1 <1>   0.0800 
 43 H       -8.2400    -9.0820    -1.1830 H     1 <1>   0.0800 
@<TRIPOS>BOND
  1   1   2  1   
  2   2   3  ar  
  3   2   4  ar  
  4   3   5  ar  
  5   3   6  1   
  6   4   7  ar  
  7   4  23  1   
  8   5   8  1   
  9   5   9  ar  
 10   6  24  1   
 11   6  25  1   
 12   6  26  1   
 13   7   9  ar  
 14   7  27  1   
 15   8  10  am  
 16   8  28  1   
 17   9  29  1   
 18  10  11  2   
 19  10  12  1   
 20  12  13  1   
 21  12  30  1   
 22  12  31  1   
 23  13  14  1   
 24  13  15  1   
 25  13  32  1   
 26  14  16  1   
 27  14  17  1   
 28  14  18  1   
 29  15  19  1   
 30  15  33  1   
 31  15  34  1   
 32  16  20  ar  
 33  16  21  ar  
 34  17  22  1   
 35  17  35  1   
 36  17  36  1   
 37  18  37  1   
 38  18  38  1   
 39  18  39  1   
 40  19  22  1   
 41  19  40  1   
 42  19  41  1   
 43  22  42  1   
 44  22  43  1   
@<TRIPOS>SUBSTRUCTURE
  1 ****   8 GROUP 4 **** **** 0

# MOE 2024.06 (io_trps.svl 2023.06)
