@<TRIPOS>MOLECULE
NONAME
55 58 1 0 0 
SMALL
USER_CHARGES


@<TRIPOS>ATOM
  1 O       -0.2860    -0.5060    -0.6860 O.2   1 <1>  -0.5700 
  2 C        0.6680     0.1490    -0.3350 C.2   1 <1>   0.5690 
  3 N        1.8910    -0.4250    -0.0960 N.am  1 <1>  -0.6600 
  4 C        0.4590     1.6410    -0.1340 C.3   1 <1>  -0.0990 
  5 C        3.1060     0.3350     0.3060 C.3   1 <1>   0.1400 
  6 C        2.0980    -1.8770    -0.3310 C.3   1 <1>   0.1400 
  7 C        1.7660     2.4430    -0.0690 C.3   1 <1>  -0.1600 
  8 C        2.7600     1.7250     0.8480 C.3   1 <1>  -0.1600 
  9 C        1.6620    -2.6640     0.9010 C.3   1 <1>  -0.0990 
 10 C        1.5470    -4.1300     0.5530 C.2   1 <1>   0.5690 
 11 O        2.5120    -4.8310     0.7390 O.2   1 <1>  -0.5700 
 12 N        0.3880    -4.6280     0.0250 N.am  1 <1>  -0.6600 
 13 C       -0.8320    -3.8540    -0.3300 C.3   1 <1>   0.1400 
 14 C        0.2210    -6.0590    -0.3070 C.3   1 <1>   0.1400 
 15 C       -1.7690    -4.8700    -0.9860 C.3   1 <1>   0.2000 
 16 C       -1.2790    -6.2450    -0.5320 C.3   1 <1>  -0.0800 
 17 O       -3.0850    -4.6900    -0.5870 O.3   1 <1>  -0.6800 
 18 C       -1.6170    -7.3580    -1.5370 C.3   1 <1>  -0.0170 
 19 C       -1.1630    -8.7210    -1.0250 C.ar  1 <1>  -0.1440 
 20 C       -1.8910    -9.4430    -0.0500 C.ar  1 <1>   0.0000 
 21 C       -0.0150    -9.2840    -1.5020 C.ar  1 <1>  -0.1500 
 22 C       -1.3690   -10.6920     0.3680 C.ar  1 <1>   0.3100 
 23 C       -3.1030    -9.0030     0.5320 C.ar  1 <1>  -0.1500 
 24 C        0.4100   -10.5300    -1.0240 C.ar  1 <1>   0.1600 
 25 N       -0.2220   -11.2200    -0.1280 N.ar  1 <1>  -0.6200 
 26 C       -2.0640   -11.4260     1.3420 C.ar  1 <1>  -0.1500 
 27 C       -3.7560    -9.7450     1.4780 C.ar  1 <1>  -0.1500 
 28 C       -3.2310   -10.9720     1.8920 C.ar  1 <1>  -0.1500 
 29 H       -0.1550     2.0160    -0.9320 H     1 <1>   0.0800 
 30 H       -0.0830     1.7680     0.7850 H     1 <1>   0.0800 
 31 H        3.6430    -0.2160     1.0590 H     1 <1>   0.0800 
 32 H        3.7440     0.4360    -0.5560 H     1 <1>   0.0800 
 33 H        1.5130    -2.1790    -1.1840 H     1 <1>   0.0800 
 34 H        3.1310    -2.0800    -0.5560 H     1 <1>   0.0800 
 35 H        2.1860     2.5250    -1.0570 H     1 <1>   0.0800 
 36 H        1.5680     3.4350     0.2980 H     1 <1>   0.0800 
 37 H        2.3420     1.6260     1.8360 H     1 <1>   0.0800 
 38 H        3.6620     2.3050     0.9330 H     1 <1>   0.0800 
 39 H        0.7170    -2.3060     1.2620 H     1 <1>   0.0800 
 40 H        2.3890    -2.5450     1.6820 H     1 <1>   0.0800 
 41 H       -1.2700    -3.4420     0.5620 H     1 <1>   0.0800 
 42 H       -0.5930    -3.0650    -1.0220 H     1 <1>   0.0800 
 43 H        0.7780    -6.2730    -1.2040 H     1 <1>   0.0800 
 44 H        0.5820    -6.6850     0.4930 H     1 <1>   0.0800 
 45 H       -1.7230    -4.7690    -2.0570 H     1 <1>   0.0800 
 46 H       -1.7110    -6.4750     0.4260 H     1 <1>   0.0800 
 47 H       -3.1450    -4.6870     0.3880 H     1 <1>   0.4000 
 48 H       -1.1370    -7.1460    -2.4770 H     1 <1>   0.0800 
 49 H       -2.6760    -7.3730    -1.7290 H     1 <1>   0.0800 
 50 H        0.5890    -8.7960    -2.2440 H     1 <1>   0.1500 
 51 H       -3.5260    -8.0650     0.2270 H     1 <1>   0.1500 
 52 H        1.3210   -10.9380    -1.4260 H     1 <1>   0.1500 
 53 H       -1.6420   -12.3670     1.6430 H     1 <1>   0.1500 
 54 H       -4.6780    -9.3980     1.9130 H     1 <1>   0.1500 
 55 H       -3.7530   -11.5470     2.6370 H     1 <1>   0.1500 
@<TRIPOS>BOND
  1   1   2  2   
  2   2   3  am  
  3   2   4  1   
  4   3   5  1   
  5   3   6  1   
  6   4   7  1   
  7   4  29  1   
  8   4  30  1   
  9   5   8  1   
 10   5  31  1   
 11   5  32  1   
 12   6   9  1   
 13   6  33  1   
 14   6  34  1   
 15   7   8  1   
 16   7  35  1   
 17   7  36  1   
 18   8  37  1   
 19   8  38  1   
 20   9  10  1   
 21   9  39  1   
 22   9  40  1   
 23  10  11  2   
 24  10  12  am  
 25  12  13  1   
 26  12  14  1   
 27  13  15  1   
 28  13  41  1   
 29  13  42  1   
 30  14  16  1   
 31  14  43  1   
 32  14  44  1   
 33  15  16  1   
 34  15  17  1   
 35  15  45  1   
 36  16  18  1   
 37  16  46  1   
 38  17  47  1   
 39  18  19  1   
 40  18  48  1   
 41  18  49  1   
 42  19  20  ar  
 43  19  21  ar  
 44  20  22  ar  
 45  20  23  ar  
 46  21  24  ar  
 47  21  50  1   
 48  22  25  ar  
 49  22  26  ar  
 50  23  27  ar  
 51  23  51  1   
 52  24  25  ar  
 53  24  52  1   
 54  26  28  ar  
 55  26  53  1   
 56  27  28  ar  
 57  27  54  1   
 58  28  55  1   
@<TRIPOS>SUBSTRUCTURE
  1 ****  12 GROUP 4 **** **** 0

# MOE 2024.06 (io_trps.svl 2023.06)
