@<TRIPOS>MOLECULE
NONAME
42 44 1 0 0 
SMALL
USER_CHARGES


@<TRIPOS>ATOM
  1 O       -2.3760     0.9140     2.7990 O.2   1 <1>  -0.5700 
  2 C       -2.5650     1.1900     1.6290 C.2   1 <1>   0.5440 
  3 N       -3.4710     0.4380     0.9080 N.am  1 <1>  -0.6600 
  4 C       -1.8930     2.3410     1.0640 C.ar  1 <1>   0.0860 
  5 C       -3.9700    -0.8660     1.4200 C.3   1 <1>   0.3200 
  6 C       -4.0520     0.8880    -0.3920 C.3   1 <1>   0.1400 
  7 C       -1.0040     2.2390    -0.0090 C.ar  1 <1>   0.0820 
  8 C       -2.1200     3.6110     1.6000 C.ar  1 <1>  -0.1500 
  9 C       -3.5410    -1.9950     0.4970 C.2   1 <1>  -0.3320 
 10 C       -5.1300     1.9490    -0.1540 C.3   1 <1>   0.1200 
 11 O       -0.7220     1.0180    -0.5270 O.3   1 <1>  -0.3630 
 12 C       -0.4010     3.3800    -0.5440 C.ar  1 <1>   0.0830 
 13 C       -1.5130     4.7390     1.0800 C.ar  1 <1>  -0.1500 
 14 N       -4.1410    -3.1990     0.4620 N.pl3 1 <1>   0.0330 
 15 C       -2.5440    -2.0500    -0.4140 C.2   1 <1>   0.0770 
 16 O       -5.6480     2.3650    -1.3710 O.3   1 <1>  -0.6800 
 17 C        0.4110     0.8950    -1.3630 C.3   1 <1>   0.1200 
 18 O        0.4390     3.3030    -1.6090 O.3   1 <1>  -0.3630 
 19 C       -0.6530     4.6240     0.0020 C.ar  1 <1>  -0.1500 
 20 C       -3.4740    -3.9050    -0.4770 C.2   1 <1>   0.0070 
 21 N       -2.5090    -3.2480    -1.0290 N.2   1 <1>  -0.5650 
 22 C        0.4750     2.0840    -2.3280 C.3   1 <1>   0.1200 
 23 C       -3.8330    -5.3290    -0.8410 C.3   1 <1>  -0.0600 
 24 H       -5.0440    -0.8240     1.4730 H     1 <1>   0.0800 
 25 H       -3.5960    -1.0630     2.4100 H     1 <1>   0.0800 
 26 H       -4.4900     0.0490    -0.9060 H     1 <1>   0.0800 
 27 H       -3.2750     1.2900    -1.0160 H     1 <1>   0.0800 
 28 H       -2.7830     3.7020     2.4440 H     1 <1>   0.1500 
 29 H       -4.7260     2.8090     0.3510 H     1 <1>   0.0800 
 30 H       -5.9400     1.5360     0.4230 H     1 <1>   0.0800 
 31 H       -1.7050     5.7060     1.5130 H     1 <1>   0.1500 
 32 H       -4.9310    -3.5270     1.0230 H     1 <1>   0.2700 
 33 H       -1.8380    -1.2750    -0.6580 H     1 <1>   0.1500 
 34 H       -4.9770     2.8530    -1.8880 H     1 <1>   0.4000 
 35 H        0.3290    -0.0330    -1.9000 H     1 <1>   0.0800 
 36 H        1.2870     0.8680    -0.7400 H     1 <1>   0.0800 
 37 H       -0.1760     5.4930    -0.4150 H     1 <1>   0.1500 
 38 H       -0.3650     2.0670    -3.0000 H     1 <1>   0.0800 
 39 H        1.3850     2.0630    -2.9000 H     1 <1>   0.0800 
 40 H       -3.7350    -5.9650     0.0200 H     1 <1>   0.0800 
 41 H       -3.1690    -5.6850    -1.6090 H     1 <1>   0.0800 
 42 H       -4.8410    -5.3750    -1.2090 H     1 <1>   0.0800 
@<TRIPOS>BOND
  1   1   2  2   
  2   2   3  am  
  3   2   4  1   
  4   3   5  1   
  5   3   6  1   
  6   4   7  ar  
  7   4   8  ar  
  8   5   9  1   
  9   5  24  1   
 10   5  25  1   
 11   6  10  1   
 12   6  26  1   
 13   6  27  1   
 14   7  11  1   
 15   7  12  ar  
 16   8  13  ar  
 17   8  28  1   
 18   9  14  1   
 19   9  15  2   
 20  10  16  1   
 21  10  29  1   
 22  10  30  1   
 23  11  17  1   
 24  12  18  1   
 25  12  19  ar  
 26  13  19  ar  
 27  13  31  1   
 28  14  20  1   
 29  14  32  1   
 30  15  21  1   
 31  15  33  1   
 32  16  34  1   
 33  17  22  1   
 34  17  35  1   
 35  17  36  1   
 36  18  22  1   
 37  19  37  1   
 38  20  21  2   
 39  20  23  1   
 40  22  38  1   
 41  22  39  1   
 42  23  40  1   
 43  23  41  1   
 44  23  42  1   
@<TRIPOS>SUBSTRUCTURE
  1 ****   3 GROUP 4 **** **** 0

# MOE 2024.06 (io_trps.svl 2023.06)
