@<TRIPOS>MOLECULE
NONAME
55 58 1 0 0 
SMALL
USER_CHARGES


@<TRIPOS>ATOM
  1 O        0.4990     1.0530     0.2990 O.2   1 <1>  -0.5700 
  2 C       -0.2230     1.9060    -0.1620 C.2   1 <1>   0.5690 
  3 N       -1.5910     1.8050    -0.0930 N.am  1 <1>  -0.6600 
  4 C        0.4790     3.1040    -0.7710 C.3   1 <1>  -0.0990 
  5 C       -2.5960     2.6910    -0.7670 C.3   1 <1>   0.1400 
  6 C       -2.2390     0.7840     0.7780 C.3   1 <1>   0.1400 
  7 C        1.3830     3.7480     0.2850 C.3   1 <1>   0.0960 
  8 C       -3.4250     3.4670     0.2750 C.3   1 <1>   0.1440 
  9 C       -3.0760     1.4890     1.8550 C.3   1 <1>  -0.1600 
 10 N        1.8530     5.0670    -0.1770 N.pl3 1 <1>   0.3140 
 11 C       -4.4260     4.3310    -0.4680 C.ar  1 <1>   0.1660 
 12 C       -4.0970     2.4670     1.2420 C.3   1 <1>  -0.1600 
 13 C       -2.5730     4.5270     1.0240 C.3   1 <1>  -0.1600 
 14 N        1.0490     6.1470    -0.1090 N.2   1 <1>  -0.7070 
 15 C        3.0540     5.3810    -0.7140 C.2   1 <1>  -0.3320 
 16 N       -5.5130     3.8990    -1.0580 N.ar  1 <1>  -0.6200 
 17 C       -4.0480     5.6390    -0.4730 C.ar  1 <1>  -0.1440 
 18 C       -2.7500     5.8540     0.2670 C.3   1 <1>  -0.0170 
 19 C        1.7580     7.1190    -0.5940 C.2   1 <1>   0.1390 
 20 C        3.0220     6.7020    -0.9910 C.2   1 <1>  -0.1500 
 21 C        4.1930     4.4010    -0.9440 C.3   1 <1>  -0.0600 
 22 C       -6.2460     4.8380    -1.6620 C.ar  1 <1>   0.7200 
 23 C       -4.8600     6.5340    -1.1220 C.ar  1 <1>   0.1600 
 24 N       -5.9620     6.1440    -1.7200 N.ar  1 <1>  -0.6200 
 25 N       -7.4050     4.4200    -2.2870 N.pl3 1 <1>  -0.8380 
 26 C       -8.0120     3.0870    -2.0220 C.3   1 <1>   0.1290 
 27 C       -8.1520     5.2940    -3.2330 C.3   1 <1>   0.1290 
 28 H       -0.2130     3.8420    -1.1170 H     1 <1>   0.0800 
 29 H        1.0710     2.7710    -1.6030 H     1 <1>   0.0800 
 30 H       -3.2640     2.0710    -1.3410 H     1 <1>   0.0800 
 31 H       -2.1430     3.3720    -1.4600 H     1 <1>   0.0800 
 32 H       -1.5010     0.1570     1.2500 H     1 <1>   0.0800 
 33 H       -2.8690     0.1550     0.1730 H     1 <1>   0.0800 
 34 H        2.2250     3.1160     0.4960 H     1 <1>   0.0800 
 35 H        0.8350     3.8970     1.1970 H     1 <1>   0.0800 
 36 H       -2.4130     2.0170     2.5180 H     1 <1>   0.0800 
 37 H       -3.5940     0.7490     2.4380 H     1 <1>   0.0800 
 38 H       -4.8300     1.8980     0.6960 H     1 <1>   0.0800 
 39 H       -4.6200     2.9960     2.0190 H     1 <1>   0.0800 
 40 H       -1.5380     4.2540     1.1100 H     1 <1>   0.0800 
 41 H       -2.9650     4.6600     2.0170 H     1 <1>   0.0800 
 42 H       -1.9460     6.0010    -0.4350 H     1 <1>   0.0800 
 43 H       -2.8020     6.6910     0.9410 H     1 <1>   0.0800 
 44 H        1.4010     8.1320    -0.6770 H     1 <1>   0.1500 
 45 H        3.7860     7.3230    -1.4230 H     1 <1>   0.1500 
 46 H        3.8750     3.6030    -1.5910 H     1 <1>   0.0800 
 47 H        4.5210     3.9850    -0.0080 H     1 <1>   0.0800 
 48 H        5.0260     4.9030    -1.4040 H     1 <1>   0.0800 
 49 H       -4.6030     7.5780    -1.1530 H     1 <1>   0.1500 
 50 H       -7.7500     2.7400    -1.0370 H     1 <1>   0.0800 
 51 H       -7.6550     2.3780    -2.7480 H     1 <1>   0.0800 
 52 H       -9.0840     3.1490    -2.0820 H     1 <1>   0.0800 
 53 H       -7.4800     5.9720    -3.7310 H     1 <1>   0.0800 
 54 H       -8.8860     5.8640    -2.6920 H     1 <1>   0.0800 
 55 H       -8.6430     4.6960    -3.9810 H     1 <1>   0.0800 
@<TRIPOS>BOND
  1   1   2  2   
  2   2   3  am  
  3   2   4  1   
  4   3   5  1   
  5   3   6  1   
  6   4   7  1   
  7   4  28  1   
  8   4  29  1   
  9   5   8  1   
 10   5  30  1   
 11   5  31  1   
 12   6   9  1   
 13   6  32  1   
 14   6  33  1   
 15   7  10  1   
 16   7  34  1   
 17   7  35  1   
 18   8  11  1   
 19   8  12  1   
 20   8  13  1   
 21   9  12  1   
 22   9  36  1   
 23   9  37  1   
 24  10  14  1   
 25  10  15  1   
 26  11  16  ar  
 27  11  17  ar  
 28  12  38  1   
 29  12  39  1   
 30  13  18  1   
 31  13  40  1   
 32  13  41  1   
 33  14  19  2   
 34  15  20  2   
 35  15  21  1   
 36  16  22  ar  
 37  17  18  1   
 38  17  23  ar  
 39  18  42  1   
 40  18  43  1   
 41  19  20  1   
 42  19  44  1   
 43  20  45  1   
 44  21  46  1   
 45  21  47  1   
 46  21  48  1   
 47  22  24  ar  
 48  22  25  1   
 49  23  24  ar  
 50  23  49  1   
 51  25  26  1   
 52  25  27  1   
 53  26  50  1   
 54  26  51  1   
 55  26  52  1   
 56  27  53  1   
 57  27  54  1   
 58  27  55  1   
@<TRIPOS>SUBSTRUCTURE
  1 ****   5 GROUP 4 **** **** 0

# MOE 2024.06 (io_trps.svl 2023.06)
