@<TRIPOS>MOLECULE
NONAME
50 53 1 0 0 
SMALL
USER_CHARGES


@<TRIPOS>ATOM
  1 O        1.5090    -3.8270    -3.2290 O.3   1 <1>  -0.5600 
  2 C        0.1290    -3.9740    -3.1140 C.3   1 <1>   0.2580 
  3 C        2.0100    -2.7860    -2.4490 C.3   1 <1>   0.1200 
  4 C       -0.1920    -4.2650    -1.6550 C.2   1 <1>  -0.2880 
  5 C        1.9040    -3.1610    -0.9610 C.3   1 <1>  -0.0220 
  6 C        0.6310    -3.9650    -0.6380 C.2   1 <1>  -0.2760 
  7 C        0.3470    -4.3560     0.8420 C.3   1 <1>   0.1380 
  8 C        0.1190    -5.8860     1.0460 C.3   1 <1>   0.4230 
  9 C       -0.9260    -3.6000     1.2940 C.3   1 <1>   0.1200 
 10 C        1.5100    -4.0390     1.8250 C.3   1 <1>  -0.1600 
 11 N        1.2320    -6.7470     0.4960 N.4   1 <1>  -0.9590 
 12 C       -1.2940    -6.3920     0.7230 C.3   1 <1>  -0.1600 
 13 O       -1.7340    -4.4410     2.0680 O.3   1 <1>  -0.5600 
 14 C        2.6150    -5.1270     1.8670 C.3   1 <1>  -0.1600 
 15 C        2.5820    -6.1180     0.6920 C.3   1 <1>   0.3430 
 16 C        1.0650    -7.1140    -0.9430 C.3   1 <1>   0.4860 
 17 C       -2.3520    -5.4640     1.3460 C.3   1 <1>   0.1200 
 18 C        2.2050    -8.0120    -1.3830 C.ar  1 <1>  -0.1430 
 19 C        3.1560    -7.5590    -2.2780 C.ar  1 <1>  -0.1500 
 20 C        2.3580    -9.3080    -0.9250 C.ar  1 <1>  -0.1500 
 21 C        4.1970    -8.3940    -2.6470 C.ar  1 <1>   0.1600 
 22 C        3.4370   -10.0590    -1.3580 C.ar  1 <1>   0.1600 
 23 N        4.3600    -9.6270    -2.1990 N.ar  1 <1>  -0.6200 
 24 H       -0.3590    -3.0780    -3.4620 H     1 <1>   0.0800 
 25 H       -0.1580    -4.7990    -3.7420 H     1 <1>   0.0800 
 26 H        3.0360    -2.6200    -2.7280 H     1 <1>   0.0800 
 27 H        1.4440    -1.8940    -2.6630 H     1 <1>   0.0800 
 28 H       -1.1490    -4.7380    -1.5570 H     1 <1>   0.1500 
 29 H        2.7900    -3.7030    -0.6990 H     1 <1>   0.0800 
 30 H        1.9100    -2.2400    -0.4060 H     1 <1>   0.0800 
 31 H        0.1720    -5.9950     2.1180 H     1 <1>   0.0800 
 32 H       -1.5070    -3.2580     0.4550 H     1 <1>   0.0800 
 33 H       -0.6750    -2.7400     1.8910 H     1 <1>   0.0800 
 34 H        1.9370    -3.0710     1.6390 H     1 <1>   0.0800 
 35 H        1.1030    -3.9780     2.8220 H     1 <1>   0.0800 
 36 H        1.2280    -7.6220     1.0280 H     1 <1>   0.4500 
 37 H       -1.4230    -7.3740     1.1410 H     1 <1>   0.0800 
 38 H       -1.4810    -6.4610    -0.3290 H     1 <1>   0.0800 
 39 H        2.5290    -5.6880     2.7820 H     1 <1>   0.0800 
 40 H        3.5800    -4.6500     1.8900 H     1 <1>   0.0800 
 41 H        3.3240    -6.8870     0.8430 H     1 <1>   0.0800 
 42 H        2.8530    -5.5920    -0.2060 H     1 <1>   0.0800 
 43 H        0.1310    -7.6270    -1.0960 H     1 <1>   0.0800 
 44 H        1.0730    -6.2290    -1.5540 H     1 <1>   0.0800 
 45 H       -2.9790    -6.0080     2.0330 H     1 <1>   0.0800 
 46 H       -2.9800    -5.0180     0.5920 H     1 <1>   0.0800 
 47 H        3.1040    -6.5690    -2.6990 H     1 <1>   0.1500 
 48 H        1.6570    -9.7520    -0.2410 H     1 <1>   0.1500 
 49 H        4.9330    -8.0310    -3.3470 H     1 <1>   0.1500 
 50 H        3.5500   -11.0690    -0.9970 H     1 <1>   0.1500 
@<TRIPOS>BOND
  1   1   2  1   
  2   1   3  1   
  3   2   4  1   
  4   2  24  1   
  5   2  25  1   
  6   3   5  1   
  7   3  26  1   
  8   3  27  1   
  9   4   6  2   
 10   4  28  1   
 11   5   6  1   
 12   5  29  1   
 13   5  30  1   
 14   6   7  1   
 15   7   8  1   
 16   7   9  1   
 17   7  10  1   
 18   8  11  1   
 19   8  12  1   
 20   8  31  1   
 21   9  13  1   
 22   9  32  1   
 23   9  33  1   
 24  10  14  1   
 25  10  34  1   
 26  10  35  1   
 27  11  15  1   
 28  11  16  1   
 29  11  36  1   
 30  12  17  1   
 31  12  37  1   
 32  12  38  1   
 33  13  17  1   
 34  14  15  1   
 35  14  39  1   
 36  14  40  1   
 37  15  41  1   
 38  15  42  1   
 39  16  18  1   
 40  16  43  1   
 41  16  44  1   
 42  17  45  1   
 43  17  46  1   
 44  18  19  ar  
 45  18  20  ar  
 46  19  21  ar  
 47  19  47  1   
 48  20  22  ar  
 49  20  48  1   
 50  21  23  ar  
 51  21  49  1   
 52  22  23  ar  
 53  22  50  1   
@<TRIPOS>SUBSTRUCTURE
  1 ****  11 GROUP 4 **** **** 0

# MOE 2024.06 (io_trps.svl 2023.06)
