@<TRIPOS>MOLECULE
NONAME
53 56 1 0 0 
SMALL
USER_CHARGES


@<TRIPOS>ATOM
  1 O       -1.0600     1.0780     2.3040 O.2   1 <1>  -0.5700 
  2 C       -1.9870     1.3240     1.5680 C.2   1 <1>   0.5690 
  3 N       -3.1490     0.5940     1.6000 N.am  1 <1>  -0.6600 
  4 C       -1.8380     2.4750     0.5830 C.3   1 <1>  -0.0990 
  5 C       -3.2950    -0.5930     2.4900 C.3   1 <1>   0.1400 
  6 C       -4.3560     0.8420     0.7620 C.3   1 <1>   0.1400 
  7 C       -0.4510     3.1350     0.5970 C.3   1 <1>  -0.0160 
  8 C       -3.5370    -1.8400     1.6330 C.3   1 <1>  -0.1600 
  9 C       -4.6030    -0.3750    -0.1320 C.3   1 <1>  -0.1600 
 10 C       -0.3880     4.2570    -0.4260 C.ar  1 <1>  -0.1440 
 11 C       -4.7430    -1.6730     0.6900 C.3   1 <1>   0.4240 
 12 C       -0.7180     5.5570    -0.1040 C.ar  1 <1>  -0.1500 
 13 C       -0.0020     4.0310    -1.7310 C.ar  1 <1>  -0.1500 
 14 O       -5.8310    -1.4780     1.5680 O.3   1 <1>  -0.5600 
 15 C       -4.9450    -2.9290    -0.2070 C.ar  1 <1>  -0.1430 
 16 C       -0.6500     6.5410    -1.0760 C.ar  1 <1>   0.1600 
 17 C        0.0330     5.0870    -2.6270 C.ar  1 <1>   0.1600 
 18 C       -7.1100    -1.7400     1.0910 C.3   1 <1>   0.1200 
 19 C       -3.9730    -3.3590    -1.1220 C.ar  1 <1>   0.0820 
 20 C       -6.1250    -3.6660    -0.1120 C.ar  1 <1>  -0.1430 
 21 N       -0.2840     6.3370    -2.3310 N.ar  1 <1>  -0.6200 
 22 C       -7.2220    -3.2350     0.8400 C.3   1 <1>  -0.0170 
 23 O       -2.8230    -2.6450    -1.2480 O.3   1 <1>  -0.3630 
 24 C       -4.1910    -4.4980    -1.8940 C.ar  1 <1>  -0.1500 
 25 C       -6.3280    -4.8000    -0.8810 C.ar  1 <1>  -0.1500 
 26 C       -1.6960    -3.1380    -1.9380 C.3   1 <1>   0.0400 
 27 C       -5.3620    -5.2170    -1.7720 C.ar  1 <1>  -0.1500 
 28 H       -2.5780     3.2180     0.8160 H     1 <1>   0.0800 
 29 H       -2.0290     2.1010    -0.4060 H     1 <1>   0.0800 
 30 H       -4.1240    -0.4350     3.1570 H     1 <1>   0.0800 
 31 H       -2.4110    -0.7360     3.0880 H     1 <1>   0.0800 
 32 H       -4.2420     1.7190     0.1530 H     1 <1>   0.0800 
 33 H       -5.2030     0.9980     1.4090 H     1 <1>   0.0800 
 34 H        0.3030     2.3990     0.3770 H     1 <1>   0.0800 
 35 H       -0.2460     3.5260     1.5790 H     1 <1>   0.0800 
 36 H       -3.7060    -2.6900     2.2670 H     1 <1>   0.0800 
 37 H       -2.6400    -2.0300     1.0810 H     1 <1>   0.0800 
 38 H       -3.7760    -0.4520    -0.8110 H     1 <1>   0.0800 
 39 H       -5.4800    -0.2230    -0.7300 H     1 <1>   0.0800 
 40 H       -1.0270     5.8130     0.8930 H     1 <1>   0.1500 
 41 H        0.2720     3.0450    -2.0590 H     1 <1>   0.1500 
 42 H       -0.9110     7.5500    -0.8060 H     1 <1>   0.1500 
 43 H        0.3370     4.8920    -3.6410 H     1 <1>   0.1500 
 44 H       -7.2790    -1.1780     0.1890 H     1 <1>   0.0800 
 45 H       -7.8130    -1.4280     1.8420 H     1 <1>   0.0800 
 46 H       -8.1880    -3.4500     0.4210 H     1 <1>   0.0800 
 47 H       -7.1270    -3.7650     1.7710 H     1 <1>   0.0800 
 48 H       -3.4630    -4.8430    -2.6020 H     1 <1>   0.1500 
 49 H       -7.2410    -5.3620    -0.7910 H     1 <1>   0.1500 
 50 H       -0.8880    -2.4440    -1.7930 H     1 <1>   0.0800 
 51 H       -1.9310    -3.2100    -2.9850 H     1 <1>   0.0800 
 52 H       -1.4310    -4.0980    -1.5330 H     1 <1>   0.0800 
 53 H       -5.5230    -6.0980    -2.3690 H     1 <1>   0.1500 
@<TRIPOS>BOND
  1   1   2  2   
  2   2   3  am  
  3   2   4  1   
  4   3   5  1   
  5   3   6  1   
  6   4   7  1   
  7   4  28  1   
  8   4  29  1   
  9   5   8  1   
 10   5  30  1   
 11   5  31  1   
 12   6   9  1   
 13   6  32  1   
 14   6  33  1   
 15   7  10  1   
 16   7  34  1   
 17   7  35  1   
 18   8  11  1   
 19   8  36  1   
 20   8  37  1   
 21   9  11  1   
 22   9  38  1   
 23   9  39  1   
 24  10  12  ar  
 25  10  13  ar  
 26  11  14  1   
 27  11  15  1   
 28  12  16  ar  
 29  12  40  1   
 30  13  17  ar  
 31  13  41  1   
 32  14  18  1   
 33  15  19  ar  
 34  15  20  ar  
 35  16  21  ar  
 36  16  42  1   
 37  17  21  ar  
 38  17  43  1   
 39  18  22  1   
 40  18  44  1   
 41  18  45  1   
 42  19  23  1   
 43  19  24  ar  
 44  20  22  1   
 45  20  25  ar  
 46  22  46  1   
 47  22  47  1   
 48  23  26  1   
 49  24  27  ar  
 50  24  48  1   
 51  25  27  ar  
 52  25  49  1   
 53  26  50  1   
 54  26  51  1   
 55  26  52  1   
 56  27  53  1   
@<TRIPOS>SUBSTRUCTURE
  1 ****   9 GROUP 4 **** **** 0

# MOE 2024.06 (io_trps.svl 2023.06)
