@<TRIPOS>MOLECULE
NONAME
45 47 1 0 0 
SMALL
USER_CHARGES


@<TRIPOS>ATOM
  1 O       -0.1160     0.8250    -0.2070 O.2   1 <1>  -0.5700 
  2 C       -0.2180     2.0250    -0.3040 C.2   1 <1>   0.5690 
  3 N       -1.0090     2.7650     0.5350 N.am  1 <1>  -0.6600 
  4 C        0.5540     2.7270    -1.4240 C.3   1 <1>   0.1810 
  5 C       -1.1510     4.2480     0.3610 C.3   1 <1>   0.3640 
  6 C       -1.7140     2.1650     1.7060 C.3   1 <1>   0.0600 
  7 O        0.7870     4.0860    -1.1500 O.3   1 <1>  -0.5600 
  8 C       -2.6260     4.6780     0.3520 C.ar  1 <1>  -0.1430 
  9 C       -0.3900     4.8220    -0.8610 C.3   1 <1>   0.2610 
 10 C       -3.6180     4.1130    -0.4570 C.ar  1 <1>  -0.1430 
 11 C       -2.9750     5.7100     1.2160 C.ar  1 <1>  -0.1500 
 12 C       -0.1020     6.3150    -0.6340 C.2   1 <1>   0.5690 
 13 C       -4.9190     4.5880    -0.3730 C.ar  1 <1>  -0.1500 
 14 C       -3.3620     2.9780    -1.4440 C.3   1 <1>  -0.0960 
 15 C       -4.2740     6.1770     1.2890 C.ar  1 <1>  -0.1500 
 16 O       -0.8320     7.0950    -1.2010 O.2   1 <1>  -0.5700 
 17 N        0.9040     6.7740     0.1910 N.am  1 <1>  -0.6600 
 18 C       -5.2490     5.6130     0.4930 C.ar  1 <1>  -0.1500 
 19 C        1.1650     8.2540     0.3070 C.3   1 <1>   0.3210 
 20 C        1.8930     5.9080     0.9000 C.3   1 <1>   0.0600 
 21 C        2.5860     8.6610    -0.0890 C.2   1 <1>   0.3350 
 22 N        2.9290     9.0970    -1.2370 N.2   1 <1>  -0.4100 
 23 N        3.5980     8.6060     0.7750 N.2   1 <1>  -0.5650 
 24 O        4.2020     9.3470    -1.1920 O.3   1 <1>  -0.0190 
 25 C        4.5380     9.0350     0.0320 C.2   1 <1>   0.3280 
 26 H        0.0080     2.6500    -2.3460 H     1 <1>   0.0800 
 27 H        1.5100     2.2510    -1.5470 H     1 <1>   0.0800 
 28 H       -0.7010     4.6850     1.2340 H     1 <1>   0.0800 
 29 H       -1.4310     2.6800     2.6060 H     1 <1>   0.0800 
 30 H       -1.4600     1.1240     1.8110 H     1 <1>   0.0800 
 31 H       -2.7790     2.2450     1.5750 H     1 <1>   0.0800 
 32 H       -1.0190     4.7580    -1.7280 H     1 <1>   0.0800 
 33 H       -2.2340     6.1730     1.8440 H     1 <1>   0.1500 
 34 H       -5.6930     4.1610    -0.9850 H     1 <1>   0.1500 
 35 H       -4.1890     2.8640    -2.1210 H     1 <1>   0.0800 
 36 H       -3.2380     2.0500    -0.9140 H     1 <1>   0.0800 
 37 H       -2.4870     3.1640    -2.0340 H     1 <1>   0.0800 
 38 H       -4.5240     6.9790     1.9610 H     1 <1>   0.1500 
 39 H       -6.2630     5.9710     0.5440 H     1 <1>   0.1500 
 40 H        0.4820     8.8100    -0.3090 H     1 <1>   0.0800 
 41 H        0.9950     8.5550     1.3250 H     1 <1>   0.0800 
 42 H        2.1700     6.3550     1.8400 H     1 <1>   0.0800 
 43 H        2.7760     5.8030     0.2930 H     1 <1>   0.0800 
 44 H        1.4960     4.9300     1.0970 H     1 <1>   0.0800 
 45 H        5.5660     9.1600     0.3230 H     1 <1>   0.1500 
@<TRIPOS>BOND
  1   1   2  2   
  2   2   3  am  
  3   2   4  1   
  4   3   5  1   
  5   3   6  1   
  6   4   7  1   
  7   4  26  1   
  8   4  27  1   
  9   5   8  1   
 10   5   9  1   
 11   5  28  1   
 12   6  29  1   
 13   6  30  1   
 14   6  31  1   
 15   7   9  1   
 16   8  10  ar  
 17   8  11  ar  
 18   9  12  1   
 19   9  32  1   
 20  10  13  ar  
 21  10  14  1   
 22  11  15  ar  
 23  11  33  1   
 24  12  16  2   
 25  12  17  am  
 26  13  18  ar  
 27  13  34  1   
 28  14  35  1   
 29  14  36  1   
 30  14  37  1   
 31  15  18  ar  
 32  15  38  1   
 33  17  19  1   
 34  17  20  1   
 35  18  39  1   
 36  19  21  1   
 37  19  40  1   
 38  19  41  1   
 39  20  42  1   
 40  20  43  1   
 41  20  44  1   
 42  21  22  2   
 43  21  23  1   
 44  22  24  1   
 45  23  25  2   
 46  24  25  1   
 47  25  45  1   
@<TRIPOS>SUBSTRUCTURE
  1 ****   9 GROUP 4 **** **** 0

# MOE 2024.06 (io_trps.svl 2023.06)
