@<TRIPOS>MOLECULE
NONAME
40 42 1 0 0 
SMALL
USER_CHARGES


@<TRIPOS>ATOM
  1 O       -0.3950     0.0660     0.9480 O.2   1 <1>  -0.5700 
  2 C       -1.3830     0.7250     0.6620 C.2   1 <1>   0.5440 
  3 N       -2.4790     0.0430     0.1680 N.am  1 <1>  -0.6600 
  4 C       -1.3700     2.1840     0.8140 C.ar  1 <1>   0.3960 
  5 C       -3.7940     0.6510    -0.1520 C.3   1 <1>   0.1400 
  6 C       -2.5360    -1.4330     0.0410 C.3   1 <1>   0.1400 
  7 N       -2.3090     2.7550     1.5930 N.ar  1 <1>  -0.6200 
  8 C       -0.4010     2.9580     0.1510 C.ar  1 <1>  -0.1440 
  9 C       -4.6800    -0.5230    -0.5700 C.3   1 <1>   0.2000 
 10 C       -4.0280    -1.7670     0.0300 C.3   1 <1>  -0.0800 
 11 C       -2.2740     4.0660     1.7250 C.ar  1 <1>   0.1600 
 12 C       -0.3890     4.3300     0.3030 C.ar  1 <1>  -0.1500 
 13 C        0.6560     2.3240    -0.7490 C.3   1 <1>  -0.0960 
 14 O       -5.9710    -0.3880    -0.0850 O.3   1 <1>  -0.6800 
 15 C       -4.3820    -3.0500    -0.7410 C.3   1 <1>  -0.0170 
 16 C       -1.3500     4.8890     1.1120 C.ar  1 <1>  -0.1500 
 17 C       -3.7260    -4.2750    -0.1240 C.ar  1 <1>   0.1670 
 18 N       -2.4960    -4.5520    -0.5250 N.ar  1 <1>  -0.6200 
 19 C       -4.4190    -5.0350     0.8160 C.ar  1 <1>   0.1600 
 20 C       -2.0090    -5.6260     0.0750 C.ar  1 <1>   0.1600 
 21 N       -3.9340    -6.1100     1.4160 N.ar  1 <1>  -0.6200 
 22 C       -2.7040    -6.3790     1.0130 C.ar  1 <1>   0.1600 
 23 H       -4.1870     1.1320     0.7270 H     1 <1>   0.0800 
 24 H       -3.6920     1.3630    -0.9520 H     1 <1>   0.0800 
 25 H       -2.0660    -1.7230    -0.8840 H     1 <1>   0.0800 
 26 H       -2.0280    -1.9140     0.8610 H     1 <1>   0.0800 
 27 H       -4.7240    -0.5820    -1.6440 H     1 <1>   0.0800 
 28 H       -4.3330    -1.8700     1.0570 H     1 <1>   0.0800 
 29 H       -3.0220     4.5140     2.3570 H     1 <1>   0.1500 
 30 H        0.3420     4.9490    -0.1880 H     1 <1>   0.1500 
 31 H        1.1870     3.0690    -1.3130 H     1 <1>   0.0800 
 32 H        0.1990     1.6410    -1.4440 H     1 <1>   0.0800 
 33 H        1.3660     1.7800    -0.1510 H     1 <1>   0.0800 
 34 H       -5.9550    -0.2650     0.8850 H     1 <1>   0.4000 
 35 H       -4.0660    -2.9630    -1.7660 H     1 <1>   0.0800 
 36 H       -5.4500    -3.1780    -0.7430 H     1 <1>   0.0800 
 37 H       -1.3850     5.9520     1.2680 H     1 <1>   0.1500 
 38 H       -5.4180    -4.7400     1.0870 H     1 <1>   0.1500 
 39 H       -1.0100    -5.9240    -0.1890 H     1 <1>   0.1500 
 40 H       -2.2220    -7.2370     1.4460 H     1 <1>   0.1500 
@<TRIPOS>BOND
  1   1   2  2   
  2   2   3  am  
  3   2   4  1   
  4   3   5  1   
  5   3   6  1   
  6   4   7  ar  
  7   4   8  ar  
  8   5   9  1   
  9   5  23  1   
 10   5  24  1   
 11   6  10  1   
 12   6  25  1   
 13   6  26  1   
 14   7  11  ar  
 15   8  12  ar  
 16   8  13  1   
 17   9  10  1   
 18   9  14  1   
 19   9  27  1   
 20  10  15  1   
 21  10  28  1   
 22  11  16  ar  
 23  11  29  1   
 24  12  16  ar  
 25  12  30  1   
 26  13  31  1   
 27  13  32  1   
 28  13  33  1   
 29  14  34  1   
 30  15  17  1   
 31  15  35  1   
 32  15  36  1   
 33  16  37  1   
 34  17  18  ar  
 35  17  19  ar  
 36  18  20  ar  
 37  19  21  ar  
 38  19  38  1   
 39  20  22  ar  
 40  20  39  1   
 41  21  22  ar  
 42  22  40  1   
@<TRIPOS>SUBSTRUCTURE
  1 ****   3 GROUP 4 **** **** 0

# MOE 2024.06 (io_trps.svl 2023.06)
