@<TRIPOS>MOLECULE
NONAME
51 53 1 0 0 
SMALL
USER_CHARGES


@<TRIPOS>ATOM
  1 S        1.2450     0.5600     1.0070 S.o2  1 <1>   1.3330 
  2 O        1.9920     0.2610     2.2080 O.2   1 <1>  -0.6500 
  3 O        0.6460    -0.5210     0.2560 O.2   1 <1>  -0.6500 
  4 N        0.0140     1.6570     1.4110 N.am  1 <1>  -0.8490 
  5 C        2.3020     1.5140    -0.0780 C.3   1 <1>  -0.0550 
  6 C       -0.6250     1.3230     2.6860 C.3   1 <1>   0.1160 
  7 C       -1.0040     1.8000     0.3640 C.3   1 <1>   0.1160 
  8 C        3.5080     0.7150    -0.6100 C.3   1 <1>  -0.0800 
  9 C        4.3210     1.4200    -1.6850 C.3   1 <1>   0.2200 
 10 C        4.5610     0.3840     0.4550 C.3   1 <1>   0.1200 
 11 N        4.4780     2.8570    -1.3720 N.am  1 <1>  -0.7300 
 12 C        5.6640     0.7200    -1.5340 C.3   1 <1>   0.1200 
 13 O        5.8100     0.4790    -0.1680 O.3   1 <1>  -0.5600 
 14 C        3.7710     3.8950    -1.9040 C.2   1 <1>   0.7160 
 15 O        2.9010     3.6330    -2.7160 O.2   1 <1>  -0.5700 
 16 C        4.0620     5.2520    -1.4540 C.2   1 <1>   0.1410 
 17 N        4.9240     5.4830    -0.4210 N.2   1 <1>  -0.5650 
 18 C        3.5910     6.4580    -1.9030 C.2   1 <1>  -0.3320 
 19 C        4.9640     6.7750    -0.2630 C.2   1 <1>   0.1330 
 20 N        4.1590     7.4050    -1.1500 N.pl3 1 <1>   0.0330 
 21 C        2.6160     6.7950    -3.0210 C.3   1 <1>  -0.0600 
 22 C        5.7450     7.4780     0.7310 C.ar  1 <1>   0.0530 
 23 C        6.0540     6.8710     1.9480 C.ar  1 <1>  -0.1500 
 24 C        6.2160     8.7760     0.5230 C.ar  1 <1>  -0.1500 
 25 C        6.7860     7.5290     2.9190 C.ar  1 <1>  -0.1500 
 26 C        6.9480     9.4400     1.4910 C.ar  1 <1>  -0.1500 
 27 C        7.2330     8.8180     2.6930 C.ar  1 <1>  -0.1500 
 28 H        1.7250     1.8510    -0.9170 H     1 <1>   0.0800 
 29 H        2.6470     2.3830     0.4480 H     1 <1>   0.0800 
 30 H       -1.3860     2.0460     2.9230 H     1 <1>   0.0800 
 31 H        0.1050     1.3330     3.4780 H     1 <1>   0.0800 
 32 H       -1.0690     0.3420     2.6370 H     1 <1>   0.0800 
 33 H       -1.7130     2.5610     0.6410 H     1 <1>   0.0800 
 34 H       -1.5270     0.8700     0.2160 H     1 <1>   0.0800 
 35 H       -0.5450     2.0900    -0.5650 H     1 <1>   0.0800 
 36 H        3.1510    -0.2150    -1.0180 H     1 <1>   0.0800 
 37 H        3.9050     1.2930    -2.6710 H     1 <1>   0.0800 
 38 H        4.4380    -0.6110     0.8470 H     1 <1>   0.0800 
 39 H        4.5470     1.0950     1.2640 H     1 <1>   0.0800 
 40 H        5.1690     3.0970    -0.6530 H     1 <1>   0.3700 
 41 H        6.4870     1.3150    -1.8880 H     1 <1>   0.0800 
 42 H        5.6550    -0.2320    -2.0360 H     1 <1>   0.0800 
 43 H        4.0190     8.4170    -1.2030 H     1 <1>   0.2700 
 44 H        2.3200     5.9140    -3.5600 H     1 <1>   0.0800 
 45 H        3.0710     7.4760    -3.7180 H     1 <1>   0.0800 
 46 H        1.7320     7.2530    -2.6140 H     1 <1>   0.0800 
 47 H        5.7100     5.8680     2.1290 H     1 <1>   0.1500 
 48 H        6.0190     9.2730    -0.4080 H     1 <1>   0.1500 
 49 H        7.0070     7.0360     3.8500 H     1 <1>   0.1500 
 50 H        7.3010    10.4400     1.3100 H     1 <1>   0.1500 
 51 H        7.8030     9.3320     3.4480 H     1 <1>   0.1500 
@<TRIPOS>BOND
  1   1   2  2   
  2   1   3  2   
  3   1   4  am  
  4   1   5  1   
  5   4   6  1   
  6   4   7  1   
  7   5   8  1   
  8   5  28  1   
  9   5  29  1   
 10   6  30  1   
 11   6  31  1   
 12   6  32  1   
 13   7  33  1   
 14   7  34  1   
 15   7  35  1   
 16   8   9  1   
 17   8  10  1   
 18   8  36  1   
 19   9  11  1   
 20   9  12  1   
 21   9  37  1   
 22  10  13  1   
 23  10  38  1   
 24  10  39  1   
 25  11  14  am  
 26  11  40  1   
 27  12  13  1   
 28  12  41  1   
 29  12  42  1   
 30  14  15  2   
 31  14  16  1   
 32  16  17  1   
 33  16  18  2   
 34  17  19  2   
 35  18  20  1   
 36  18  21  1   
 37  19  20  1   
 38  19  22  1   
 39  20  43  1   
 40  21  44  1   
 41  21  45  1   
 42  21  46  1   
 43  22  23  ar  
 44  22  24  ar  
 45  23  25  ar  
 46  23  47  1   
 47  24  26  ar  
 48  24  48  1   
 49  25  27  ar  
 50  25  49  1   
 51  26  27  ar  
 52  26  50  1   
 53  27  51  1   
@<TRIPOS>SUBSTRUCTURE
  1 ****  17 GROUP 4 **** **** 0

# MOE 2024.06 (io_trps.svl 2023.06)
