@<TRIPOS>MOLECULE
NONAME
55 58 1 0 0 
SMALL
USER_CHARGES


@<TRIPOS>ATOM
  1 O       -0.2060    -0.3650    -1.3850 O.3   1 <1>  -0.0190 
  2 N        0.2450     0.4970    -0.5250 N.2   1 <1>  -0.4100 
  3 C       -1.3340     0.0160    -1.9170 C.2   1 <1>  -0.0400 
  4 C       -0.6120     1.4760    -0.4880 C.2   1 <1>   0.2350 
  5 C       -1.6480     1.2060    -1.3910 C.2   1 <1>  -0.1500 
  6 C       -2.0400    -0.8650    -2.9330 C.3   1 <1>   0.3890 
  7 C       -0.5400     2.6570     0.3560 C.ar  1 <1>   0.3640 
  8 N       -2.3820    -2.1910    -2.3340 N.pl3 1 <1>  -0.8380 
  9 N       -1.6140     3.4570     0.4140 N.ar  1 <1>  -0.6200 
 10 C        0.6200     2.9310     1.0840 C.ar  1 <1>  -0.1500 
 11 C       -3.4390    -2.4160    -1.5020 C.ar  1 <1>   0.4100 
 12 C       -1.3830    -3.2580    -2.6640 C.3   1 <1>   0.1290 
 13 C       -1.5210     4.5230     1.1900 C.ar  1 <1>   0.1600 
 14 C        0.7020     4.0440     1.8900 C.ar  1 <1>  -0.1500 
 15 N       -3.7630    -3.6710    -1.2540 N.ar  1 <1>  -0.6200 
 16 C       -4.1620    -1.3580    -0.9130 C.ar  1 <1>  -0.1500 
 17 C       -0.4070     4.8590     1.9370 C.ar  1 <1>  -0.1500 
 18 C       -4.7630    -3.9290    -0.4240 C.ar  1 <1>   0.7710 
 19 C       -5.1750    -1.6350    -0.0580 C.ar  1 <1>   0.2180 
 20 N       -5.4490    -2.9390     0.1700 N.ar  1 <1>  -0.1790 
 21 N       -5.1060    -5.2190    -0.1580 N.pl3 1 <1>  -0.8380 
 22 C       -6.0000    -0.5660     0.6480 C.3   1 <1>  -0.0170 
 23 C       -6.2760    -5.7000     0.6420 C.3   1 <1>   0.2090 
 24 C       -4.2760    -6.3710    -0.6450 C.3   1 <1>   0.2090 
 25 C       -7.4760    -0.6040     0.2290 C.3   1 <1>  -0.2400 
 26 C       -5.7650    -6.4340     1.8850 C.3   1 <1>  -0.1600 
 27 C       -3.7280    -7.1380     0.5630 C.3   1 <1>  -0.1600 
 28 C       -4.8500    -7.6060     1.5020 C.3   1 <1>  -0.1600 
 29 H       -2.4860     1.8540    -1.5730 H     1 <1>   0.1500 
 30 H       -1.4020    -1.0020    -3.7900 H     1 <1>   0.0800 
 31 H       -2.9390    -0.3810    -3.2720 H     1 <1>   0.0800 
 32 H        1.4580     2.2610     1.0110 H     1 <1>   0.1500 
 33 H       -0.3860    -2.8540    -2.6390 H     1 <1>   0.0800 
 34 H       -1.5810    -3.6490    -3.6470 H     1 <1>   0.0800 
 35 H       -1.4260    -4.0660    -1.9550 H     1 <1>   0.0800 
 36 H       -2.3820     5.1690     1.2360 H     1 <1>   0.1500 
 37 H        1.5910     4.2670     2.4560 H     1 <1>   0.1500 
 38 H       -3.8980    -0.3460    -1.1340 H     1 <1>   0.1500 
 39 H       -0.4100     5.7450     2.5460 H     1 <1>   0.1500 
 40 H       -6.1720    -3.2310     0.8100 H     1 <1>   0.4570 
 41 H       -5.6000     0.4060     0.4150 H     1 <1>   0.0800 
 42 H       -5.9210    -0.6940     1.7150 H     1 <1>   0.0800 
 43 H       -6.8550    -6.3830     0.0400 H     1 <1>   0.0800 
 44 H       -6.9280    -4.8980     0.9340 H     1 <1>   0.0800 
 45 H       -3.4520    -6.0510    -1.2600 H     1 <1>   0.0800 
 46 H       -4.8890    -7.0240    -1.2440 H     1 <1>   0.0800 
 47 H       -7.5690    -0.4750    -0.8360 H     1 <1>   0.0800 
 48 H       -8.0100     0.1990     0.7090 H     1 <1>   0.0800 
 49 H       -7.9440    -1.5300     0.5100 H     1 <1>   0.0800 
 50 H       -6.6010    -6.8070     2.4490 H     1 <1>   0.0800 
 51 H       -5.2270    -5.7450     2.5120 H     1 <1>   0.0800 
 52 H       -3.0450    -6.5010     1.0970 H     1 <1>   0.0800 
 53 H       -3.1710    -7.9910     0.2170 H     1 <1>   0.0800 
 54 H       -5.4310    -8.3660     1.0080 H     1 <1>   0.0800 
 55 H       -4.4230    -8.0430     2.3890 H     1 <1>   0.0800 
@<TRIPOS>BOND
  1   1   2  1   
  2   1   3  1   
  3   2   4  2   
  4   3   5  2   
  5   3   6  1   
  6   4   5  1   
  7   4   7  1   
  8   5  29  1   
  9   6   8  1   
 10   6  30  1   
 11   6  31  1   
 12   7   9  ar  
 13   7  10  ar  
 14   8  11  1   
 15   8  12  1   
 16   9  13  ar  
 17  10  14  ar  
 18  10  32  1   
 19  11  15  ar  
 20  11  16  ar  
 21  12  33  1   
 22  12  34  1   
 23  12  35  1   
 24  13  17  ar  
 25  13  36  1   
 26  14  17  ar  
 27  14  37  1   
 28  15  18  ar  
 29  16  19  ar  
 30  16  38  1   
 31  17  39  1   
 32  18  20  ar  
 33  18  21  1   
 34  19  20  ar  
 35  19  22  1   
 36  20  40  1   
 37  21  23  1   
 38  21  24  1   
 39  22  25  1   
 40  22  41  1   
 41  22  42  1   
 42  23  26  1   
 43  23  43  1   
 44  23  44  1   
 45  24  27  1   
 46  24  45  1   
 47  24  46  1   
 48  25  47  1   
 49  25  48  1   
 50  25  49  1   
 51  26  28  1   
 52  26  50  1   
 53  26  51  1   
 54  27  28  1   
 55  27  52  1   
 56  27  53  1   
 57  28  54  1   
 58  28  55  1   
@<TRIPOS>SUBSTRUCTURE
  1 ****  16 GROUP 4 **** **** 0

# MOE 2024.06 (io_trps.svl 2023.06)
