@<TRIPOS>MOLECULE
NONAME
49 51 1 0 0 
SMALL
USER_CHARGES


@<TRIPOS>ATOM
  1 S       -0.2240     0.0850     0.1440 S.o2  1 <1>   1.3330 
  2 O       -0.9860     1.3130     0.1360 O.2   1 <1>  -0.6500 
  3 O       -0.0210    -0.6200     1.3900 O.2   1 <1>  -0.6500 
  4 N       -0.9400    -0.9960    -0.9520 N.am  1 <1>  -0.8490 
  5 C        1.3620     0.4200    -0.6230 C.3   1 <1>  -0.0550 
  6 C       -2.4010    -0.8800    -0.9750 C.3   1 <1>   0.1160 
  7 C       -0.5540    -2.3940    -0.7300 C.3   1 <1>   0.1160 
  8 C        2.1980     1.4770     0.1270 C.3   1 <1>  -0.0800 
  9 C        3.4310     1.8650    -0.6730 C.3   1 <1>   0.2200 
 10 C        2.7980     0.9290     1.4310 C.3   1 <1>   0.1200 
 11 N        3.8360     3.2360    -0.2950 N.am  1 <1>  -0.7300 
 12 C        4.4630     0.8760    -0.1520 C.3   1 <1>   0.1200 
 13 O        4.1580     0.7040     1.1970 O.3   1 <1>  -0.5600 
 14 C        3.9220     4.3020    -1.1440 C.2   1 <1>   0.5440 
 15 O        3.6570     4.1250    -2.3170 O.2   1 <1>  -0.5700 
 16 C        4.3360     5.6060    -0.6580 C.ar  1 <1>   0.0860 
 17 C        4.1580     5.9960     0.6710 C.ar  1 <1>  -0.1500 
 18 C        4.9350     6.5360    -1.5070 C.ar  1 <1>  -0.1500 
 19 C        4.5700     7.2350     1.1250 C.ar  1 <1>  -0.1500 
 20 C        5.3460     7.7750    -1.0530 C.ar  1 <1>  -0.1500 
 21 C        5.1800     8.1620     0.2770 C.ar  1 <1>   0.0540 
 22 C        5.6200     9.4640     0.7480 C.2   1 <1>   0.4620 
 23 N        5.4630     9.8680     2.0160 N.2   1 <1>  -0.2270 
 24 N        6.2000    10.3570     0.0120 N.2   1 <1>  -0.7070 
 25 N        5.9510    11.0390     2.0910 N.2   1 <1>  -0.4180 
 26 N        6.3890    11.3200     0.8800 N.pl3 1 <1>   0.5800 
 27 C        7.0350    12.5890     0.5340 C.3   1 <1>   0.0160 
 28 H        1.9210    -0.4910    -0.7040 H     1 <1>   0.0800 
 29 H        1.1760     0.7790    -1.6170 H     1 <1>   0.0800 
 30 H       -2.8200    -1.5670    -1.6900 H     1 <1>   0.0800 
 31 H       -2.6880     0.1180    -1.2630 H     1 <1>   0.0800 
 32 H       -2.8090    -1.0890     0.0000 H     1 <1>   0.0800 
 33 H       -0.9600    -3.0170    -1.5080 H     1 <1>   0.0800 
 34 H       -0.9200    -2.7390     0.2230 H     1 <1>   0.0800 
 35 H        0.5180    -2.4900    -0.7420 H     1 <1>   0.0800 
 36 H        1.5760     2.3360     0.3150 H     1 <1>   0.0800 
 37 H        3.2940     1.7860    -1.7390 H     1 <1>   0.0800 
 38 H        2.3530     0.0020     1.7480 H     1 <1>   0.0800 
 39 H        2.7180     1.6500     2.2260 H     1 <1>   0.0800 
 40 H        4.1960     3.3110     0.6580 H     1 <1>   0.3700 
 41 H        5.4720     1.2330    -0.2550 H     1 <1>   0.0800 
 42 H        4.3600    -0.0790    -0.6380 H     1 <1>   0.0800 
 43 H        3.6820     5.3230     1.3620 H     1 <1>   0.1500 
 44 H        5.0790     6.2760    -2.5420 H     1 <1>   0.1500 
 45 H        4.4120     7.4900     2.1590 H     1 <1>   0.1500 
 46 H        5.8070     8.4610    -1.7430 H     1 <1>   0.1500 
 47 H        6.7270    12.8800    -0.4520 H     1 <1>   0.0800 
 48 H        8.0990    12.4540     0.5600 H     1 <1>   0.0800 
 49 H        6.7430    13.3390     1.2450 H     1 <1>   0.0800 
@<TRIPOS>BOND
  1   1   2  2   
  2   1   3  2   
  3   1   4  am  
  4   1   5  1   
  5   4   6  1   
  6   4   7  1   
  7   5   8  1   
  8   5  28  1   
  9   5  29  1   
 10   6  30  1   
 11   6  31  1   
 12   6  32  1   
 13   7  33  1   
 14   7  34  1   
 15   7  35  1   
 16   8   9  1   
 17   8  10  1   
 18   8  36  1   
 19   9  11  1   
 20   9  12  1   
 21   9  37  1   
 22  10  13  1   
 23  10  38  1   
 24  10  39  1   
 25  11  14  am  
 26  11  40  1   
 27  12  13  1   
 28  12  41  1   
 29  12  42  1   
 30  14  15  2   
 31  14  16  1   
 32  16  17  ar  
 33  16  18  ar  
 34  17  19  ar  
 35  17  43  1   
 36  18  20  ar  
 37  18  44  1   
 38  19  21  ar  
 39  19  45  1   
 40  20  21  ar  
 41  20  46  1   
 42  21  22  1   
 43  22  23  1   
 44  22  24  2   
 45  23  25  2   
 46  24  26  1   
 47  25  26  1   
 48  26  27  1   
 49  27  47  1   
 50  27  48  1   
 51  27  49  1   
@<TRIPOS>SUBSTRUCTURE
  1 ****  14 GROUP 4 **** **** 0

# MOE 2024.06 (io_trps.svl 2023.06)
