@<TRIPOS>MOLECULE
NONAME
41 42 1 0 0 
SMALL
USER_CHARGES


@<TRIPOS>ATOM
  1 O       -1.6670    -4.6350    -0.2710 O.co2 1 <1>  -0.9000 
  2 C       -1.0120    -4.5060     0.7760 C.2   1 <1>   0.9060 
  3 O       -1.2690    -5.2360     1.7450 O.co2 1 <1>  -0.9000 
  4 C        0.1310    -3.4710     0.8490 C.3   1 <1>   0.0140 
  5 O        1.4680    -3.9660     0.6130 O.3   1 <1>  -0.3630 
  6 C        1.5130    -5.1910     0.0650 C.ar  1 <1>   0.0830 
  7 C        1.6610    -6.2840     0.8980 C.ar  1 <1>  -0.1500 
  8 C        1.2140    -5.3460    -1.2770 C.ar  1 <1>  -0.1500 
  9 C        1.3020    -7.5340     0.4340 C.ar  1 <1>  -0.1500 
 10 C        0.8510    -6.5940    -1.7410 C.ar  1 <1>  -0.1500 
 11 C        0.8060    -7.6630    -0.8570 C.ar  1 <1>  -0.1440 
 12 C        0.0210    -8.8950    -1.2350 C.3   1 <1>   0.4870 
 13 N       -1.2430    -8.8400    -0.4340 N.4   1 <1>  -0.9590 
 14 C       -2.3010    -9.8240    -0.7540 C.3   1 <1>   0.3430 
 15 C       -1.9180    -7.4930    -0.4100 C.3   1 <1>   0.3430 
 16 C       -3.5530    -9.2600    -0.0720 C.3   1 <1>   0.2200 
 17 C       -3.4170    -7.7640    -0.3170 C.3   1 <1>  -0.1600 
 18 N       -3.4830    -9.5070     1.3880 N.am  1 <1>  -0.7300 
 19 C       -3.9150   -10.5800     2.0870 C.2   1 <1>   0.5690 
 20 O       -3.7270   -10.6400     3.2700 O.2   1 <1>  -0.5700 
 21 C       -4.6200   -11.7210     1.3960 C.3   1 <1>  -0.1790 
 22 H        0.1200    -3.0280     1.8250 H     1 <1>   0.0800 
 23 H       -0.0630    -2.7110     0.1180 H     1 <1>   0.0800 
 24 H        1.9690    -6.1330     1.9160 H     1 <1>   0.1500 
 25 H        1.1840    -4.4840    -1.9170 H     1 <1>   0.1500 
 26 H        1.3440    -8.3680     1.1120 H     1 <1>   0.1500 
 27 H        0.5340    -6.6940    -2.7640 H     1 <1>   0.1500 
 28 H        0.5820    -9.7850    -1.0050 H     1 <1>   0.0800 
 29 H       -0.2020    -8.8730    -2.2890 H     1 <1>   0.0800 
 30 H       -0.9750    -8.9680     0.5510 H     1 <1>   0.4500 
 31 H       -2.0630   -10.8090    -0.3880 H     1 <1>   0.0800 
 32 H       -2.4590    -9.8560    -1.8190 H     1 <1>   0.0800 
 33 H       -1.6960    -6.9090    -1.2890 H     1 <1>   0.0800 
 34 H       -1.5860    -6.9370     0.4500 H     1 <1>   0.0800 
 35 H       -4.4640    -9.6610    -0.4830 H     1 <1>   0.0800 
 36 H       -3.8640    -7.4960    -1.2570 H     1 <1>   0.0800 
 37 H       -3.8710    -7.1600     0.4510 H     1 <1>   0.0800 
 38 H       -3.1380    -8.7270     1.9630 H     1 <1>   0.3700 
 39 H       -3.9780   -12.1660     0.6610 H     1 <1>   0.0800 
 40 H       -5.5210   -11.3670     0.9310 H     1 <1>   0.0800 
 41 H       -4.8830   -12.4700     2.1210 H     1 <1>   0.0800 
@<TRIPOS>BOND
  1   1   2  ar  
  2   2   3  ar  
  3   2   4  1   
  4   4   5  1   
  5   4  22  1   
  6   4  23  1   
  7   5   6  1   
  8   6   7  ar  
  9   6   8  ar  
 10   7   9  ar  
 11   7  24  1   
 12   8  10  ar  
 13   8  25  1   
 14   9  11  ar  
 15   9  26  1   
 16  10  11  ar  
 17  10  27  1   
 18  11  12  1   
 19  12  13  1   
 20  12  28  1   
 21  12  29  1   
 22  13  14  1   
 23  13  15  1   
 24  13  30  1   
 25  14  16  1   
 26  14  31  1   
 27  14  32  1   
 28  15  17  1   
 29  15  33  1   
 30  15  34  1   
 31  16  17  1   
 32  16  18  1   
 33  16  35  1   
 34  17  36  1   
 35  17  37  1   
 36  18  19  am  
 37  18  38  1   
 38  19  20  2   
 39  19  21  1   
 40  21  39  1   
 41  21  40  1   
 42  21  41  1   
@<TRIPOS>SUBSTRUCTURE
  1 ****  15 GROUP 4 **** **** 0

# MOE 2024.06 (io_trps.svl 2023.06)
