@<TRIPOS>MOLECULE
NONAME
46 49 1 0 0 
SMALL
USER_CHARGES


@<TRIPOS>ATOM
  1 S       -2.3520     3.1200    -0.7850 S.3   1 <1>  -0.0800 
  2 C       -2.7730     3.5460     0.8590 C.2   1 <1>   0.1980 
  3 C       -3.0240     1.5400    -0.5150 C.2   1 <1>  -0.1100 
  4 N       -3.3520     2.6200     1.5110 N.2   1 <1>  -0.5650 
  5 C       -2.4190     4.9370     1.3300 C.3   1 <1>  -0.0600 
  6 C       -3.4950     1.4760     0.7410 C.2   1 <1>   0.0460 
  7 C       -4.1530     0.2740     1.3930 C.3   1 <1>   0.0820 
  8 C       -5.0600    -0.4680     0.4260 C.2   1 <1>   0.5690 
  9 O       -4.6040    -1.4560    -0.1030 O.2   1 <1>  -0.5700 
 10 N       -6.3450    -0.0440     0.1720 N.am  1 <1>  -0.6600 
 11 C       -6.9550     1.2200     0.7100 C.3   1 <1>   0.1400 
 12 C       -7.2840    -0.8730    -0.6390 C.3   1 <1>   0.1400 
 13 C       -7.5730     2.0790    -0.4110 C.3   1 <1>   0.1430 
 14 C       -7.8910    -0.0430    -1.7750 C.3   1 <1>  -0.1600 
 15 C       -8.2330     3.2880     0.2260 C.ar  1 <1>   0.1670 
 16 C       -8.5600     1.2360    -1.2440 C.3   1 <1>  -0.1600 
 17 C       -6.4810     2.7330    -1.2980 C.3   1 <1>  -0.1600 
 18 N       -9.3680     3.2780     0.8910 N.ar  1 <1>  -0.6200 
 19 C       -7.4920     4.4170     0.0460 C.ar  1 <1>  -0.1430 
 20 C       -6.2290     4.1400    -0.7310 C.3   1 <1>  -0.0170 
 21 C       -9.7380     4.4620     1.3600 C.ar  1 <1>   0.4770 
 22 C       -7.9690     5.5890     0.5770 C.ar  1 <1>   0.1600 
 23 N       -9.1050     5.6220     1.2420 N.ar  1 <1>  -0.6200 
 24 C      -11.0410     4.4990     2.1200 C.3   1 <1>  -0.0970 
 25 H       -2.9930     0.8250    -1.3180 H     1 <1>   0.1500 
 26 H       -2.9050     5.6670     0.7110 H     1 <1>   0.0800 
 27 H       -1.3550     5.0780     1.2780 H     1 <1>   0.0800 
 28 H       -2.7400     5.0680     2.3470 H     1 <1>   0.0800 
 29 H       -4.7190     0.5790     2.2520 H     1 <1>   0.0800 
 30 H       -3.3850    -0.3910     1.7390 H     1 <1>   0.0800 
 31 H       -6.2290     1.8140     1.2350 H     1 <1>   0.0800 
 32 H       -7.7280     0.9550     1.4110 H     1 <1>   0.0800 
 33 H       -8.0680    -1.2360     0.0040 H     1 <1>   0.0800 
 34 H       -6.7770    -1.7280    -1.0540 H     1 <1>   0.0800 
 35 H       -8.6200    -0.6390    -2.2940 H     1 <1>   0.0800 
 36 H       -7.1150     0.2050    -2.4780 H     1 <1>   0.0800 
 37 H       -8.9500     1.8190    -2.0590 H     1 <1>   0.0800 
 38 H       -9.3930     0.9580    -0.6200 H     1 <1>   0.0800 
 39 H       -6.8530     2.8430    -2.3010 H     1 <1>   0.0800 
 40 H       -5.5800     2.1500    -1.3400 H     1 <1>   0.0800 
 41 H       -6.0690     4.8610    -1.5130 H     1 <1>   0.0800 
 42 H       -5.3900     4.1330    -0.0580 H     1 <1>   0.0800 
 43 H       -7.4190     6.5060     0.4590 H     1 <1>   0.1500 
 44 H      -11.2940     3.5180     2.4770 H     1 <1>   0.0800 
 45 H      -11.8190     4.8490     1.4690 H     1 <1>   0.0800 
 46 H      -10.9560     5.1640     2.9590 H     1 <1>   0.0800 
@<TRIPOS>BOND
  1   1   2  1   
  2   1   3  1   
  3   2   4  2   
  4   2   5  1   
  5   3   6  2   
  6   3  25  1   
  7   4   6  1   
  8   5  26  1   
  9   5  27  1   
 10   5  28  1   
 11   6   7  1   
 12   7   8  1   
 13   7  29  1   
 14   7  30  1   
 15   8   9  2   
 16   8  10  am  
 17  10  11  1   
 18  10  12  1   
 19  11  13  1   
 20  11  31  1   
 21  11  32  1   
 22  12  14  1   
 23  12  33  1   
 24  12  34  1   
 25  13  15  1   
 26  13  16  1   
 27  13  17  1   
 28  14  16  1   
 29  14  35  1   
 30  14  36  1   
 31  15  18  ar  
 32  15  19  ar  
 33  16  37  1   
 34  16  38  1   
 35  17  20  1   
 36  17  39  1   
 37  17  40  1   
 38  18  21  ar  
 39  19  20  1   
 40  19  22  ar  
 41  20  41  1   
 42  20  42  1   
 43  21  23  ar  
 44  21  24  1   
 45  22  23  ar  
 46  22  43  1   
 47  24  44  1   
 48  24  45  1   
 49  24  46  1   
@<TRIPOS>SUBSTRUCTURE
  1 ****  11 GROUP 4 **** **** 0

# MOE 2024.06 (io_trps.svl 2023.06)
