@<TRIPOS>MOLECULE
NONAME
48 51 1 0 0 
SMALL
USER_CHARGES


@<TRIPOS>ATOM
  1 F       -0.1730    -2.3220    -2.1800 F     1 <1>  -0.1900 
  2 C       -1.2430    -3.0120    -1.8760 C.ar  1 <1>   0.1900 
  3 C       -2.0550    -2.5690    -0.8610 C.ar  1 <1>  -0.1500 
  4 C       -1.5010    -4.1740    -2.6100 C.ar  1 <1>  -0.1500 
  5 C       -3.1910    -3.3250    -0.5570 C.ar  1 <1>   0.0000 
  6 C       -2.6200    -4.9190    -2.3120 C.ar  1 <1>  -0.1500 
  7 C       -3.4630    -4.4850    -1.2820 C.ar  1 <1>  -0.1520 
  8 C       -4.2270    -3.1940     0.3930 C.2   1 <1>  -0.1500 
  9 N       -4.6220    -5.0320    -0.7890 N.pl3 1 <1>   0.0330 
 10 C       -5.0740    -4.2400     0.2270 C.2   1 <1>  -0.3320 
 11 C       -6.3420    -4.5940     0.9790 C.3   1 <1>   0.3890 
 12 N       -6.2810    -6.0290     1.3720 N.pl3 1 <1>  -0.8380 
 13 C       -7.4710    -6.7140     1.5270 C.ar  1 <1>   0.4100 
 14 C       -5.1840    -6.3400     2.3320 C.3   1 <1>   0.1290 
 15 N       -8.5460    -6.0070     1.8570 N.ar  1 <1>  -0.6200 
 16 C       -7.4980    -8.0900     1.3440 C.ar  1 <1>  -0.1500 
 17 C       -9.6610    -6.6940     2.0280 C.ar  1 <1>   0.1600 
 18 C       -8.6640    -8.8120     1.5020 C.ar  1 <1>   0.0860 
 19 C       -9.7730    -8.0600     1.8700 C.ar  1 <1>  -0.1500 
 20 C       -8.7140   -10.2480     1.3090 C.2   1 <1>   0.5440 
 21 O       -7.8500   -10.9420     1.8090 O.2   1 <1>  -0.5700 
 22 N       -9.7080   -10.8490     0.5660 N.am  1 <1>  -0.6600 
 23 C       -9.9170   -12.3300     0.5750 C.3   1 <1>   0.1400 
 24 C      -10.4850   -10.1560    -0.5060 C.3   1 <1>   0.1400 
 25 C       -9.7570   -12.9090    -0.8400 C.3   1 <1>   0.1200 
 26 C      -10.2980   -10.8670    -1.8580 C.3   1 <1>   0.1200 
 27 O      -10.5840   -12.2320    -1.7450 O.3   1 <1>  -0.5600 
 28 H       -1.8340    -1.6730    -0.3130 H     1 <1>   0.1500 
 29 H       -0.8230    -4.4620    -3.3910 H     1 <1>   0.1500 
 30 H       -2.8510    -5.8180    -2.8550 H     1 <1>   0.1500 
 31 H       -4.2900    -2.3890     1.1030 H     1 <1>   0.1500 
 32 H       -5.0540    -5.9180    -1.0720 H     1 <1>   0.2700 
 33 H       -7.1910    -4.4260     0.3370 H     1 <1>   0.0800 
 34 H       -6.4510    -3.9780     1.8550 H     1 <1>   0.0800 
 35 H       -4.2380    -6.3390     1.8190 H     1 <1>   0.0800 
 36 H       -5.3330    -7.3070     2.7810 H     1 <1>   0.0800 
 37 H       -5.1590    -5.6010     3.1140 H     1 <1>   0.0800 
 38 H       -6.5910    -8.5970     1.0740 H     1 <1>   0.1500 
 39 H      -10.5340    -6.1320     2.3110 H     1 <1>   0.1500 
 40 H      -10.7150    -8.5490     2.0360 H     1 <1>   0.1500 
 41 H      -10.9090   -12.5440     0.9320 H     1 <1>   0.0800 
 42 H       -9.2200   -12.8120     1.2370 H     1 <1>   0.0800 
 43 H      -10.1680    -9.1340    -0.6080 H     1 <1>   0.0800 
 44 H      -11.5290   -10.1610    -0.2460 H     1 <1>   0.0800 
 45 H      -10.0370   -13.9470    -0.8500 H     1 <1>   0.0800 
 46 H       -8.7360   -12.8220    -1.1690 H     1 <1>   0.0800 
 47 H       -9.2870   -10.7550    -2.2080 H     1 <1>   0.0800 
 48 H      -10.9660   -10.4520    -2.5910 H     1 <1>   0.0800 
@<TRIPOS>BOND
  1   1   2  1   
  2   2   3  ar  
  3   2   4  ar  
  4   3   5  ar  
  5   3  28  1   
  6   4   6  ar  
  7   4  29  1   
  8   5   7  ar  
  9   5   8  1   
 10   6   7  ar  
 11   6  30  1   
 12   7   9  1   
 13   8  10  2   
 14   8  31  1   
 15   9  10  1   
 16   9  32  1   
 17  10  11  1   
 18  11  12  1   
 19  11  33  1   
 20  11  34  1   
 21  12  13  1   
 22  12  14  1   
 23  13  15  ar  
 24  13  16  ar  
 25  14  35  1   
 26  14  36  1   
 27  14  37  1   
 28  15  17  ar  
 29  16  18  ar  
 30  16  38  1   
 31  17  19  ar  
 32  17  39  1   
 33  18  19  ar  
 34  18  20  1   
 35  19  40  1   
 36  20  21  2   
 37  20  22  am  
 38  22  23  1   
 39  22  24  1   
 40  23  25  1   
 41  23  41  1   
 42  23  42  1   
 43  24  26  1   
 44  24  43  1   
 45  24  44  1   
 46  25  27  1   
 47  25  45  1   
 48  25  46  1   
 49  26  27  1   
 50  26  47  1   
 51  26  48  1   
@<TRIPOS>SUBSTRUCTURE
  1 ****  12 GROUP 4 **** **** 0

# MOE 2024.06 (io_trps.svl 2023.06)
