@<TRIPOS>MOLECULE
NONAME
38 39 1 0 0 
SMALL
USER_CHARGES


@<TRIPOS>ATOM
  1 S       -1.6800    -0.2490     0.2350 S.3   1 <1>  -0.0800 
  2 C       -0.4830     0.9730     0.4820 C.2   1 <1>   0.1980 
  3 C       -0.5770    -1.3570     0.9730 C.2   1 <1>   0.1980 
  4 N        0.5670     0.5310     1.0460 N.2   1 <1>  -0.3380 
  5 C       -0.8040     2.3850     0.0130 C.3   1 <1>   0.5230 
  6 N        0.5130    -0.8050     1.3240 N.2   1 <1>  -0.3380 
  7 C       -0.9990    -2.8020     1.1180 C.3   1 <1>  -0.0600 
  8 N        0.3660     3.3350     0.0930 N.4   1 <1>  -0.9590 
  9 C        0.0020     4.7740    -0.0270 C.3   1 <1>   0.5030 
 10 C        1.4940     2.8570    -0.7710 C.3   1 <1>   0.5230 
 11 C        1.2360     5.6700     0.1180 C.3   1 <1>  -0.2400 
 12 C       -0.9650     5.1340     1.1060 C.3   1 <1>  -0.2400 
 13 C       -0.6620     5.0470    -1.3800 C.3   1 <1>  -0.2400 
 14 C        2.8010     3.0600    -0.0270 C.2   1 <1>  -0.0400 
 15 O        2.8210     2.8520     1.2770 O.3   1 <1>  -0.2800 
 16 C        4.0200     3.4520    -0.4610 C.2   1 <1>  -0.1500 
 17 C        4.0450     3.0910     1.7010 C.2   1 <1>  -0.0100 
 18 C        4.8370     3.4690     0.6760 C.2   1 <1>  -0.1500 
 19 H       -1.6100     2.7440     0.6280 H     1 <1>   0.0800 
 20 H       -1.1600     2.3380    -1.0020 H     1 <1>   0.0800 
 21 H       -1.8860    -2.8660     1.7220 H     1 <1>   0.0800 
 22 H       -0.2140    -3.3640     1.5920 H     1 <1>   0.0800 
 23 H       -1.1970    -3.2260     0.1510 H     1 <1>   0.0800 
 24 H        0.7710     3.2100     1.0360 H     1 <1>   0.4500 
 25 H        1.5120     3.3760    -1.7140 H     1 <1>   0.0800 
 26 H        1.3930     1.8020    -0.9640 H     1 <1>   0.0800 
 27 H        1.7560     5.4650     1.0380 H     1 <1>   0.0800 
 28 H        0.9410     6.7050     0.1380 H     1 <1>   0.0800 
 29 H        1.9120     5.5580    -0.7090 H     1 <1>   0.0800 
 30 H       -0.5500     4.8660     2.0630 H     1 <1>   0.0800 
 31 H       -1.9270     4.6710     0.9890 H     1 <1>   0.0800 
 32 H       -1.1380     6.1960     1.1150 H     1 <1>   0.0800 
 33 H       -0.0050     4.8110    -2.1970 H     1 <1>   0.0800 
 34 H       -0.9010     6.0940    -1.4570 H     1 <1>   0.0800 
 35 H       -1.5830     4.5060    -1.4940 H     1 <1>   0.0800 
 36 H        4.3500     3.7040    -1.4550 H     1 <1>   0.1500 
 37 H        4.2710     2.9640     2.7470 H     1 <1>   0.1500 
 38 H        5.8810     3.7310     0.6950 H     1 <1>   0.1500 
@<TRIPOS>BOND
  1   1   2  1   
  2   1   3  1   
  3   2   4  2   
  4   2   5  1   
  5   3   6  2   
  6   3   7  1   
  7   4   6  1   
  8   5   8  1   
  9   5  19  1   
 10   5  20  1   
 11   7  21  1   
 12   7  22  1   
 13   7  23  1   
 14   8   9  1   
 15   8  10  1   
 16   8  24  1   
 17   9  11  1   
 18   9  12  1   
 19   9  13  1   
 20  10  14  1   
 21  10  25  1   
 22  10  26  1   
 23  11  27  1   
 24  11  28  1   
 25  11  29  1   
 26  12  30  1   
 27  12  31  1   
 28  12  32  1   
 29  13  33  1   
 30  13  34  1   
 31  13  35  1   
 32  14  15  1   
 33  14  16  2   
 34  15  17  1   
 35  16  18  1   
 36  16  36  1   
 37  17  18  2   
 38  17  37  1   
 39  18  38  1   
@<TRIPOS>SUBSTRUCTURE
  1 ****   8 GROUP 4 **** **** 0

# MOE 2024.06 (io_trps.svl 2023.06)
