@<TRIPOS>MOLECULE
NONAME
54 58 1 0 0 
SMALL
USER_CHARGES


@<TRIPOS>ATOM
  1 O       -0.2900     0.2540     0.4180 O.2   1 <1>  -0.5700 
  2 C       -1.3200     0.9000     0.4730 C.2   1 <1>   0.5440 
  3 N       -2.5200     0.2250     0.4450 N.am  1 <1>  -0.6600 
  4 C       -1.2640     2.3470     0.5360 C.ar  1 <1>   0.0860 
  5 C       -3.8040     0.8220    -0.0040 C.3   1 <1>   0.1400 
  6 C       -2.5870    -1.2570     0.3810 C.3   1 <1>   0.1400 
  7 C       -0.4340     3.0650    -0.3100 C.ar  1 <1>  -0.1500 
  8 C       -2.0520     3.0690     1.4600 C.ar  1 <1>  -0.1500 
  9 C       -4.5720    -0.3390    -0.6310 C.3   1 <1>   0.2000 
 10 C       -4.0480    -1.5880     0.0710 C.3   1 <1>  -0.0800 
 11 C       -0.4100     4.4590    -0.2590 C.ar  1 <1>  -0.1520 
 12 C       -2.0330     4.4420     1.5170 C.ar  1 <1>  -0.1500 
 13 O       -5.9380    -0.2140    -0.4360 O.3   1 <1>  -0.6800 
 14 C       -4.2250    -2.8690    -0.7560 C.3   1 <1>   0.0210 
 15 N        0.3130     5.3700    -0.9900 N.pl3 1 <1>   0.0330 
 16 C       -1.2080     5.1550     0.6440 C.ar  1 <1>   0.0000 
 17 C       -3.6080    -4.0590    -0.0480 C.2   1 <1>   0.1080 
 18 C       -0.0240     6.6190    -0.5570 C.2   1 <1>  -0.3320 
 19 C       -0.9460     6.5230     0.4260 C.2   1 <1>  -0.1810 
 20 N       -4.0440    -4.5020     1.0900 N.2   1 <1>  -0.7070 
 21 C       -2.5200    -4.7890    -0.5150 C.2   1 <1>  -0.1500 
 22 C        0.5390     7.9190    -1.0970 C.3   1 <1>   0.0200 
 23 C       -1.5520     7.7150     1.1390 C.3   1 <1>   0.0210 
 24 N       -3.2380    -5.5410     1.3810 N.pl3 1 <1>   0.3000 
 25 C       -2.3060    -5.7340     0.4240 C.2   1 <1>  -0.3320 
 26 C        0.1900     9.0770    -0.1440 C.3   1 <1>  -0.1600 
 27 C       -1.2710     9.0070     0.3480 C.3   1 <1>  -0.1600 
 28 C       -1.2510    -6.8230     0.4680 C.3   1 <1>  -0.0600 
 29 H       -4.3310     1.2080     0.8500 H     1 <1>   0.0800 
 30 H       -3.6350     1.6030    -0.7250 H     1 <1>   0.0800 
 31 H       -1.9370    -1.6050    -0.4040 H     1 <1>   0.0800 
 32 H       -2.2750    -1.6940     1.3150 H     1 <1>   0.0800 
 33 H        0.1930     2.5420    -1.0090 H     1 <1>   0.1500 
 34 H       -2.6760     2.5130     2.1370 H     1 <1>   0.1500 
 35 H       -4.3800    -0.3710    -1.6900 H     1 <1>   0.0800 
 36 H       -4.5490    -1.7090     1.0160 H     1 <1>   0.0800 
 37 H       -2.6360     4.9850     2.2220 H     1 <1>   0.1500 
 38 H       -6.1610    -0.3670     0.5030 H     1 <1>   0.4000 
 39 H       -3.7690    -2.7530    -1.7220 H     1 <1>   0.0800 
 40 H       -5.2730    -3.0610    -0.9010 H     1 <1>   0.0800 
 41 H        0.9890     5.1380    -1.7240 H     1 <1>   0.2700 
 42 H       -1.9840    -4.6150    -1.4310 H     1 <1>   0.1500 
 43 H        1.6080     7.8480    -1.2010 H     1 <1>   0.0800 
 44 H        0.1120     8.1060    -2.0670 H     1 <1>   0.0800 
 45 H       -2.6130     7.5770     1.2470 H     1 <1>   0.0800 
 46 H       -1.1150     7.7850     2.1200 H     1 <1>   0.0800 
 47 H       -3.3500    -6.0970     2.2370 H     1 <1>   0.2700 
 48 H        0.8430     9.0290     0.7110 H     1 <1>   0.0800 
 49 H        0.3650    10.0140    -0.6410 H     1 <1>   0.0800 
 50 H       -1.9250     9.0380    -0.5070 H     1 <1>   0.0800 
 51 H       -1.4920     9.8590     0.9650 H     1 <1>   0.0800 
 52 H       -0.6270    -6.7690    -0.4070 H     1 <1>   0.0800 
 53 H       -1.7170    -7.7920     0.4960 H     1 <1>   0.0800 
 54 H       -0.6300    -6.7050     1.3380 H     1 <1>   0.0800 
@<TRIPOS>BOND
  1   1   2  2   
  2   2   3  am  
  3   2   4  1   
  4   3   5  1   
  5   3   6  1   
  6   4   7  ar  
  7   4   8  ar  
  8   5   9  1   
  9   5  29  1   
 10   5  30  1   
 11   6  10  1   
 12   6  31  1   
 13   6  32  1   
 14   7  11  ar  
 15   7  33  1   
 16   8  12  ar  
 17   8  34  1   
 18   9  10  1   
 19   9  13  1   
 20   9  35  1   
 21  10  14  1   
 22  10  36  1   
 23  11  15  1   
 24  11  16  ar  
 25  12  16  ar  
 26  12  37  1   
 27  13  38  1   
 28  14  17  1   
 29  14  39  1   
 30  14  40  1   
 31  15  18  1   
 32  15  41  1   
 33  16  19  1   
 34  17  20  2   
 35  17  21  1   
 36  18  19  2   
 37  18  22  1   
 38  19  23  1   
 39  20  24  1   
 40  21  25  2   
 41  21  42  1   
 42  22  26  1   
 43  22  43  1   
 44  22  44  1   
 45  23  27  1   
 46  23  45  1   
 47  23  46  1   
 48  24  25  1   
 49  24  47  1   
 50  25  28  1   
 51  26  27  1   
 52  26  48  1   
 53  26  49  1   
 54  27  50  1   
 55  27  51  1   
 56  28  52  1   
 57  28  53  1   
 58  28  54  1   
@<TRIPOS>SUBSTRUCTURE
  1 ****   2 GROUP 4 **** **** 0

# MOE 2024.06 (io_trps.svl 2023.06)
