@<TRIPOS>MOLECULE
NONAME
50 52 1 0 0 
SMALL
USER_CHARGES


@<TRIPOS>ATOM
  1 O        0.2620     1.0210    -0.4090 O.2   1 <1>  -0.5700 
  2 C       -0.1280     2.1300    -0.6940 C.2   1 <1>   0.5690 
  3 N       -1.1260     2.7720    -0.0160 N.am  1 <1>  -0.6600 
  4 C        0.5220     2.8600    -1.8650 C.3   1 <1>   0.1810 
  5 C       -1.5910     4.1150    -0.5090 C.3   1 <1>   0.3640 
  6 C       -1.6720     2.2260     1.2560 C.3   1 <1>   0.2200 
  7 O        0.7020     4.2200    -1.5590 O.3   1 <1>  -0.5600 
  8 C       -2.8150     3.9870    -1.4230 C.ar  1 <1>  -0.1440 
  9 C       -0.4920     4.9370    -1.2490 C.3   1 <1>   0.2610 
 10 C       -3.2010     2.2210     1.2600 C.3   1 <1>  -0.2400 
 11 C       -1.1120     3.0220     2.4350 C.3   1 <1>  -0.2400 
 12 C       -3.0920     2.8500    -2.1750 C.ar  1 <1>  -0.1500 
 13 C       -3.6820     5.0690    -1.5090 C.ar  1 <1>  -0.1500 
 14 C       -0.1660     6.1810    -0.4190 C.2   1 <1>   0.5690 
 15 C       -4.2060     2.8000    -2.9940 C.ar  1 <1>  -0.1500 
 16 C       -4.7970     5.0200    -2.3270 C.ar  1 <1>  -0.1500 
 17 O       -1.0360     6.9960    -0.2130 O.2   1 <1>  -0.5700 
 18 N        1.0910     6.3510     0.0710 N.am  1 <1>  -0.7300 
 19 C       -5.0590     3.8850    -3.0720 C.ar  1 <1>  -0.1500 
 20 C        1.5390     7.4870     0.9070 C.3   1 <1>   0.1400 
 21 C        1.9390     8.6660     0.0220 C.3   1 <1>   0.0200 
 22 C        2.2200     9.8790     0.8830 C.2   1 <1>   0.0060 
 23 N        3.3770    10.1410     1.3960 N.2   1 <1>  -0.5650 
 24 N        1.2710    10.7870     1.1970 N.pl3 1 <1>   0.0330 
 25 C        3.1760    11.2840     2.0800 C.2   1 <1>   0.0770 
 26 C        1.8930    11.6940     1.9710 C.2   1 <1>  -0.3020 
 27 H       -0.0900     2.7780    -2.7450 H     1 <1>   0.0800 
 28 H        1.4890     2.4350    -2.0630 H     1 <1>   0.0800 
 29 H       -1.9100     4.6840     0.3460 H     1 <1>   0.0800 
 30 H       -1.3450     1.2040     1.3640 H     1 <1>   0.0800 
 31 H       -0.8910     5.2850    -2.1840 H     1 <1>   0.0800 
 32 H       -3.6000     3.2180     1.2350 H     1 <1>   0.0800 
 33 H       -3.5570     1.7420     2.1540 H     1 <1>   0.0800 
 34 H       -3.5690     1.6660     0.4170 H     1 <1>   0.0800 
 35 H       -1.4660     4.0360     2.4310 H     1 <1>   0.0800 
 36 H       -0.0370     3.0170     2.4010 H     1 <1>   0.0800 
 37 H       -1.4190     2.5630     3.3570 H     1 <1>   0.0800 
 38 H       -2.4530     1.9860    -2.1300 H     1 <1>   0.1500 
 39 H       -3.4950     5.9640    -0.9380 H     1 <1>   0.1500 
 40 H       -4.4100     1.9140    -3.5700 H     1 <1>   0.1500 
 41 H       -5.4600     5.8660    -2.3840 H     1 <1>   0.1500 
 42 H        1.7950     5.6510    -0.1920 H     1 <1>   0.3700 
 43 H       -5.9260     3.8460    -3.7090 H     1 <1>   0.1500 
 44 H        0.7340     7.7840     1.5580 H     1 <1>   0.0800 
 45 H        2.3730     7.1870     1.5180 H     1 <1>   0.0800 
 46 H        1.1490     8.8930    -0.6710 H     1 <1>   0.0800 
 47 H        2.8250     8.4150    -0.5330 H     1 <1>   0.0800 
 48 H        0.2880    10.7790     0.9050 H     1 <1>   0.2700 
 49 H        3.9770    11.7570     2.6230 H     1 <1>   0.1500 
 50 H        1.4070    12.5560     2.3890 H     1 <1>   0.1500 
@<TRIPOS>BOND
  1   1   2  2   
  2   2   3  am  
  3   2   4  1   
  4   3   5  1   
  5   3   6  1   
  6   4   7  1   
  7   4  27  1   
  8   4  28  1   
  9   5   8  1   
 10   5   9  1   
 11   5  29  1   
 12   6  10  1   
 13   6  11  1   
 14   6  30  1   
 15   7   9  1   
 16   8  12  ar  
 17   8  13  ar  
 18   9  14  1   
 19   9  31  1   
 20  10  32  1   
 21  10  33  1   
 22  10  34  1   
 23  11  35  1   
 24  11  36  1   
 25  11  37  1   
 26  12  15  ar  
 27  12  38  1   
 28  13  16  ar  
 29  13  39  1   
 30  14  17  2   
 31  14  18  am  
 32  15  19  ar  
 33  15  40  1   
 34  16  19  ar  
 35  16  41  1   
 36  18  20  1   
 37  18  42  1   
 38  19  43  1   
 39  20  21  1   
 40  20  44  1   
 41  20  45  1   
 42  21  22  1   
 43  21  46  1   
 44  21  47  1   
 45  22  23  2   
 46  22  24  1   
 47  23  25  1   
 48  24  26  1   
 49  24  48  1   
 50  25  26  2   
 51  25  49  1   
 52  26  50  1   
@<TRIPOS>SUBSTRUCTURE
  1 ****  14 GROUP 4 **** **** 0

# MOE 2024.06 (io_trps.svl 2023.06)
