@<TRIPOS>MOLECULE
NONAME
59 61 1 0 0 
SMALL
USER_CHARGES


@<TRIPOS>ATOM
  1 S        2.1840    -0.3130     0.8230 S.o2  1 <1>   1.3330 
  2 O        2.6490     1.0500     0.9160 O.2   1 <1>  -0.6500 
  3 O        2.9390    -1.3080     0.1010 O.2   1 <1>  -0.6500 
  4 N        0.5730    -0.2570     0.1770 N.am  1 <1>  -0.6930 
  5 C        1.8820    -0.9010     2.4750 C.3   1 <1>  -0.1350 
  6 C       -0.1790    -1.3930    -0.0840 C.ar  1 <1>   0.1990 
  7 C        0.0040     1.0830    -0.1040 C.3   1 <1>   0.1160 
  8 C       -1.4210    -1.5690     0.5170 C.ar  1 <1>  -0.1500 
  9 C        0.2680    -2.3830    -0.9520 C.ar  1 <1>  -0.1500 
 10 C       -2.1810    -2.6960     0.2680 C.ar  1 <1>  -0.1500 
 11 C       -0.4920    -3.5100    -1.1980 C.ar  1 <1>  -0.1500 
 12 C       -1.7340    -3.7030    -0.5910 C.ar  1 <1>   0.0860 
 13 C       -2.5210    -4.8950    -0.8560 C.2   1 <1>   0.5440 
 14 O       -2.4850    -5.4000    -1.9630 O.2   1 <1>  -0.5700 
 15 N       -3.3000    -5.4870     0.1230 N.am  1 <1>  -0.6600 
 16 C       -4.3850    -6.4440    -0.2610 C.3   1 <1>   0.2200 
 17 C       -2.7350    -5.6400     1.4990 C.3   1 <1>   0.0600 
 18 C       -5.3600    -5.8390    -1.2710 C.3   1 <1>  -0.1600 
 19 C       -5.3110    -6.8200     0.8980 C.3   1 <1>  -0.1600 
 20 C       -6.6340    -6.6850    -1.1620 C.3   1 <1>  -0.0800 
 21 C       -6.6110    -7.3070     0.2410 C.3   1 <1>  -0.0800 
 22 C       -7.9230    -5.8620    -1.2600 C.3   1 <1>  -0.1600 
 23 C       -7.8810    -6.8230     0.9530 C.3   1 <1>  -0.1600 
 24 C       -8.2860    -5.5630     0.1930 C.3   1 <1>   0.4230 
 25 N       -9.7140    -5.1770     0.4150 N.4   1 <1>  -0.9590 
 26 C      -10.7300    -6.1670    -0.0750 C.3   1 <1>   0.2630 
 27 C       -9.9880    -3.8290    -0.1720 C.3   1 <1>   0.2630 
 28 H        1.2290    -0.2280     2.9930 H     1 <1>   0.0800 
 29 H        2.8060    -0.9700     3.0130 H     1 <1>   0.0800 
 30 H        1.4290    -1.8720     2.4430 H     1 <1>   0.0800 
 31 H       -0.9640     0.9940    -0.5650 H     1 <1>   0.0800 
 32 H        0.6570     1.6170    -0.7740 H     1 <1>   0.0800 
 33 H       -0.0860     1.6420     0.8110 H     1 <1>   0.0800 
 34 H       -1.7890    -0.8120     1.1850 H     1 <1>   0.1500 
 35 H        1.2180    -2.2640    -1.4430 H     1 <1>   0.1500 
 36 H       -3.1410    -2.8050     0.7400 H     1 <1>   0.1500 
 37 H       -0.1260    -4.2610    -1.8780 H     1 <1>   0.1500 
 38 H       -3.9440    -7.3350    -0.6790 H     1 <1>   0.0800 
 39 H       -3.3780    -5.1620     2.2160 H     1 <1>   0.0800 
 40 H       -1.7560    -5.1970     1.5640 H     1 <1>   0.0800 
 41 H       -2.6410    -6.6840     1.7430 H     1 <1>   0.0800 
 42 H       -5.5510    -4.8160    -1.0000 H     1 <1>   0.0800 
 43 H       -4.9640    -5.8750    -2.2710 H     1 <1>   0.0800 
 44 H       -4.8800    -7.5890     1.5140 H     1 <1>   0.0800 
 45 H       -5.5040    -5.9440     1.4920 H     1 <1>   0.0800 
 46 H       -6.6130    -7.4590    -1.9130 H     1 <1>   0.0800 
 47 H       -6.5960    -8.3830     0.1690 H     1 <1>   0.0800 
 48 H       -8.6690    -6.4740    -1.7310 H     1 <1>   0.0800 
 49 H       -7.7800    -4.9650    -1.8370 H     1 <1>   0.0800 
 50 H       -7.7080    -6.6270     1.9970 H     1 <1>   0.0800 
 51 H       -8.6250    -7.5910     0.8550 H     1 <1>   0.0800 
 52 H       -7.6450    -4.7640     0.5320 H     1 <1>   0.0800 
 53 H       -9.8300    -5.1000     1.4360 H     1 <1>   0.4500 
 54 H      -10.6690    -6.2710    -1.1460 H     1 <1>   0.0800 
 55 H      -11.7240    -5.8370     0.1790 H     1 <1>   0.0800 
 56 H      -10.5690    -7.1320     0.3760 H     1 <1>   0.0800 
 57 H       -9.8810    -3.8600    -1.2450 H     1 <1>   0.0800 
 58 H       -9.2980    -3.1010     0.2220 H     1 <1>   0.0800 
 59 H      -10.9920    -3.5140     0.0640 H     1 <1>   0.0800 
@<TRIPOS>BOND
  1   1   2  2   
  2   1   3  2   
  3   1   4  am  
  4   1   5  1   
  5   4   6  1   
  6   4   7  1   
  7   5  28  1   
  8   5  29  1   
  9   5  30  1   
 10   6   8  ar  
 11   6   9  ar  
 12   7  31  1   
 13   7  32  1   
 14   7  33  1   
 15   8  10  ar  
 16   8  34  1   
 17   9  11  ar  
 18   9  35  1   
 19  10  12  ar  
 20  10  36  1   
 21  11  12  ar  
 22  11  37  1   
 23  12  13  1   
 24  13  14  2   
 25  13  15  am  
 26  15  16  1   
 27  15  17  1   
 28  16  18  1   
 29  16  19  1   
 30  16  38  1   
 31  17  39  1   
 32  17  40  1   
 33  17  41  1   
 34  18  20  1   
 35  18  42  1   
 36  18  43  1   
 37  19  21  1   
 38  19  44  1   
 39  19  45  1   
 40  20  21  1   
 41  20  22  1   
 42  20  46  1   
 43  21  23  1   
 44  21  47  1   
 45  22  24  1   
 46  22  48  1   
 47  22  49  1   
 48  23  24  1   
 49  23  50  1   
 50  23  51  1   
 51  24  25  1   
 52  24  52  1   
 53  25  26  1   
 54  25  27  1   
 55  25  53  1   
 56  26  54  1   
 57  26  55  1   
 58  26  56  1   
 59  27  57  1   
 60  27  58  1   
 61  27  59  1   
@<TRIPOS>SUBSTRUCTURE
  1 ****  13 GROUP 4 **** **** 0

# MOE 2024.06 (io_trps.svl 2023.06)
