@<TRIPOS>MOLECULE
NONAME
42 44 1 0 0 
SMALL
USER_CHARGES


@<TRIPOS>ATOM
  1 S       -2.7240     2.0960    -1.2740 S.3   1 <1>  -0.0800 
  2 C       -1.6320     3.3740    -1.7790 C.2   1 <1>  -0.1100 
  3 C       -2.2210     2.2720     0.3970 C.2   1 <1>  -0.1100 
  4 C       -0.9500     3.8670    -0.7270 C.2   1 <1>  -0.1810 
  5 C       -1.2920     3.2380     0.5150 C.2   1 <1>  -0.1500 
  6 C        0.0870     4.9780    -0.7870 C.3   1 <1>   0.0210 
  7 C        1.5040     4.4540    -0.5060 C.3   1 <1>   0.2890 
  8 N        2.4550     5.5810    -0.4730 N.pl3 1 <1>  -0.8690 
  9 C        1.9940     3.4820    -1.5760 C.3   1 <1>  -0.2400 
 10 C        2.5650     6.3700     0.6400 C.ar  1 <1>   0.4100 
 11 N        2.3940     7.6490     0.3890 N.ar  1 <1>  -0.6200 
 12 C        2.8290     5.8640     1.9220 C.ar  1 <1>   0.1600 
 13 C        2.4790     8.4300     1.4820 C.ar  1 <1>   0.3960 
 14 N        2.9080     6.5950     3.0140 N.ar  1 <1>  -0.6200 
 15 C        2.3120     9.8830     1.3970 C.2   1 <1>   0.5440 
 16 C        2.7210     7.8820     2.7470 C.ar  1 <1>   0.1600 
 17 O        1.8170    10.4720     2.3450 O.2   1 <1>  -0.5700 
 18 N        2.7070    10.6500     0.3150 N.am  1 <1>  -0.6600 
 19 C        3.4400    10.1630    -0.8770 C.3   1 <1>   0.1400 
 20 C        2.6120    12.1270     0.3050 C.3   1 <1>   0.1400 
 21 C        3.7100    11.4080    -1.7170 C.3   1 <1>  -0.1600 
 22 C        3.6320    12.5720    -0.7350 C.3   1 <1>  -0.1600 
 23 H       -1.6170     3.6190    -2.8260 H     1 <1>   0.1500 
 24 H       -2.6830     1.6260     1.1220 H     1 <1>   0.1500 
 25 H       -0.8310     3.5400     1.4400 H     1 <1>   0.1500 
 26 H       -0.1720     5.7250    -0.0580 H     1 <1>   0.0800 
 27 H        0.0620     5.4360    -1.7590 H     1 <1>   0.0800 
 28 H        1.5090     3.9510     0.4470 H     1 <1>   0.0800 
 29 H        2.3930     6.1560    -1.3160 H     1 <1>   0.4000 
 30 H        1.9790     3.9450    -2.5460 H     1 <1>   0.0800 
 31 H        1.3630     2.6120    -1.6010 H     1 <1>   0.0800 
 32 H        2.9960     3.1630    -1.3500 H     1 <1>   0.0800 
 33 H        2.9800     4.8050     2.0200 H     1 <1>   0.1500 
 34 H        2.7640     8.5550     3.5860 H     1 <1>   0.1500 
 35 H        2.8490     9.4520    -1.4270 H     1 <1>   0.0800 
 36 H        4.3650     9.7070    -0.5650 H     1 <1>   0.0800 
 37 H        2.8290    12.5410     1.2760 H     1 <1>   0.0800 
 38 H        1.6170    12.4100     0.0070 H     1 <1>   0.0800 
 39 H        2.9330    11.5030    -2.4560 H     1 <1>   0.0800 
 40 H        4.6610    11.3540    -2.2160 H     1 <1>   0.0800 
 41 H        4.5840    12.7090    -0.2520 H     1 <1>   0.0800 
 42 H        3.3440    13.4930    -1.2090 H     1 <1>   0.0800 
@<TRIPOS>BOND
  1   1   2  1   
  2   1   3  1   
  3   2   4  2   
  4   2  23  1   
  5   3   5  2   
  6   3  24  1   
  7   4   5  1   
  8   4   6  1   
  9   5  25  1   
 10   6   7  1   
 11   6  26  1   
 12   6  27  1   
 13   7   8  1   
 14   7   9  1   
 15   7  28  1   
 16   8  10  1   
 17   8  29  1   
 18   9  30  1   
 19   9  31  1   
 20   9  32  1   
 21  10  11  ar  
 22  10  12  ar  
 23  11  13  ar  
 24  12  14  ar  
 25  12  33  1   
 26  13  15  1   
 27  13  16  ar  
 28  14  16  ar  
 29  15  17  2   
 30  15  18  am  
 31  16  34  1   
 32  18  19  1   
 33  18  20  1   
 34  19  21  1   
 35  19  35  1   
 36  19  36  1   
 37  20  22  1   
 38  20  37  1   
 39  20  38  1   
 40  21  22  1   
 41  21  39  1   
 42  21  40  1   
 43  22  41  1   
 44  22  42  1   
@<TRIPOS>SUBSTRUCTURE
  1 ****  11 GROUP 4 **** **** 0

# MOE 2024.06 (io_trps.svl 2023.06)
