@<TRIPOS>MOLECULE
NONAME
44 46 1 0 0 
SMALL
USER_CHARGES


@<TRIPOS>ATOM
  1 S       -0.2720    -0.6910    -0.6120 S.o2  1 <1>   1.4470 
  2 O       -0.2150     0.2010    -1.7520 O.2   1 <1>  -0.6500 
  3 O       -0.9060    -1.9850    -0.7550 O.2   1 <1>  -0.6500 
  4 N       -1.0380     0.1180     0.6710 N.am  1 <1>  -0.8490 
  5 C        1.4010    -0.9400     0.0440 C.ar  1 <1>  -0.0090 
  6 C       -2.4380    -0.2440     0.9560 C.3   1 <1>   0.1960 
  7 C       -0.7650     1.5510     0.7890 C.3   1 <1>   0.1960 
  8 C        2.5130    -0.3840    -0.5790 C.ar  1 <1>  -0.1500 
  9 C        1.6090    -1.6870     1.1970 C.ar  1 <1>  -0.1500 
 10 C       -3.4750     0.5330     0.1130 C.3   1 <1>   0.0000 
 11 C       -1.7310     2.4000    -0.0510 C.3   1 <1>  -0.1600 
 12 C        3.7920    -0.5620    -0.0750 C.ar  1 <1>  -0.1430 
 13 C        2.8800    -1.8720     1.7130 C.ar  1 <1>  -0.1500 
 14 C       -4.8960     0.1350     0.5560 C.3   1 <1>   0.2000 
 15 C       -3.2000     2.0570     0.2420 C.3   1 <1>  -0.1600 
 16 C       -3.5120     0.1110    -1.3680 C.3   1 <1>  -0.1600 
 17 C        3.9700    -1.3080     1.0770 C.ar  1 <1>  -0.1500 
 18 C        4.9860     0.0590    -0.7780 C.3   1 <1>  -0.0970 
 19 O       -5.3170     0.7950     1.6960 O.3   1 <1>  -0.6800 
 20 C       -5.8220     0.4550    -0.6140 C.3   1 <1>  -0.1600 
 21 C       -4.9320     0.4110    -1.8620 C.3   1 <1>  -0.1600 
 22 H       -2.5820    -1.3040     0.8370 H     1 <1>   0.0800 
 23 H       -2.6280    -0.0240     1.9930 H     1 <1>   0.0800 
 24 H       -0.8730     1.8310     1.8240 H     1 <1>   0.0800 
 25 H        0.2520     1.7580     0.5020 H     1 <1>   0.0800 
 26 H        2.3720     0.1980    -1.4740 H     1 <1>   0.1500 
 27 H        0.7620    -2.1270     1.6960 H     1 <1>   0.1500 
 28 H       -1.5600     3.4380     0.1710 H     1 <1>   0.0800 
 29 H       -1.5160     2.2680    -1.0960 H     1 <1>   0.0800 
 30 H        3.0190    -2.4540     2.6070 H     1 <1>   0.1500 
 31 H       -4.9330    -0.9240     0.7560 H     1 <1>   0.0800 
 32 H       -3.8400     2.6180    -0.4160 H     1 <1>   0.0800 
 33 H       -3.4040     2.3760     1.2490 H     1 <1>   0.0800 
 34 H       -2.7780     0.6070    -1.9760 H     1 <1>   0.0800 
 35 H       -3.3430    -0.9500    -1.4420 H     1 <1>   0.0800 
 36 H        4.9560    -1.4540     1.4820 H     1 <1>   0.1500 
 37 H        5.8630    -0.5460    -0.6350 H     1 <1>   0.0800 
 38 H        5.1720     1.0410    -0.3820 H     1 <1>   0.0800 
 39 H        4.8000     0.1400    -1.8340 H     1 <1>   0.0800 
 40 H       -5.3880     1.7500     1.5100 H     1 <1>   0.4000 
 41 H       -6.6100    -0.2750    -0.6780 H     1 <1>   0.0800 
 42 H       -6.2490     1.4370    -0.5130 H     1 <1>   0.0800 
 43 H       -5.2610    -0.3440    -2.5560 H     1 <1>   0.0800 
 44 H       -4.9540     1.3670    -2.3580 H     1 <1>   0.0800 
@<TRIPOS>BOND
  1   1   2  2   
  2   1   3  2   
  3   1   4  am  
  4   1   5  1   
  5   4   6  1   
  6   4   7  1   
  7   5   8  ar  
  8   5   9  ar  
  9   6  10  1   
 10   6  22  1   
 11   6  23  1   
 12   7  11  1   
 13   7  24  1   
 14   7  25  1   
 15   8  12  ar  
 16   8  26  1   
 17   9  13  ar  
 18   9  27  1   
 19  10  14  1   
 20  10  15  1   
 21  10  16  1   
 22  11  15  1   
 23  11  28  1   
 24  11  29  1   
 25  12  17  ar  
 26  12  18  1   
 27  13  17  ar  
 28  13  30  1   
 29  14  19  1   
 30  14  20  1   
 31  14  31  1   
 32  15  32  1   
 33  15  33  1   
 34  16  21  1   
 35  16  34  1   
 36  16  35  1   
 37  17  36  1   
 38  18  37  1   
 39  18  38  1   
 40  18  39  1   
 41  19  40  1   
 42  20  21  1   
 43  20  41  1   
 44  20  42  1   
 45  21  43  1   
 46  21  44  1   
@<TRIPOS>SUBSTRUCTURE
  1 ****   4 GROUP 4 **** **** 0

# MOE 2024.06 (io_trps.svl 2023.06)
