@<TRIPOS>MOLECULE
NONAME
53 57 1 0 0 
SMALL
USER_CHARGES


@<TRIPOS>ATOM
  1 O        0.6860    -0.1290     1.5490 O.3   1 <1>  -0.5600 
  2 C        0.4880    -1.4620     1.1570 C.3   1 <1>   0.1200 
  3 C        1.4270     0.6190     0.6330 C.3   1 <1>   0.1200 
  4 C        1.8350    -2.1850     0.9400 C.3   1 <1>   0.3340 
  5 C        2.8250    -0.0060     0.4580 C.3   1 <1>   0.1900 
  6 N        2.7090    -1.4170     0.0130 N.3   1 <1>  -0.8100 
  7 C        1.5930    -3.5900     0.3970 C.ar  1 <1>  -0.1440 
  8 C        3.6570     0.8090    -0.5550 C.3   1 <1>   0.3430 
  9 C        4.0390    -2.0400    -0.1510 C.3   1 <1>   0.1100 
 10 C        1.8370    -4.6980     1.1970 C.ar  1 <1>  -0.1500 
 11 C        1.1330    -3.7820    -0.8990 C.ar  1 <1>  -0.1500 
 12 N        5.0120     0.1920    -0.8140 N.4   1 <1>  -0.9590 
 13 C        4.8890    -1.2630    -1.1740 C.3   1 <1>   0.3430 
 14 C        1.6290    -5.9750     0.7080 C.ar  1 <1>  -0.1500 
 15 C        0.9240    -5.0600    -1.3890 C.ar  1 <1>  -0.1500 
 16 C        5.7720     0.9470    -1.8430 C.3   1 <1>   0.4860 
 17 C        1.1730    -6.1570    -0.5860 C.ar  1 <1>  -0.1500 
 18 C        6.0120     2.3530    -1.3310 C.ar  1 <1>  -0.1440 
 19 C        6.9790     2.5850    -0.3560 C.ar  1 <1>  -0.1500 
 20 C        5.2610     3.4140    -1.8340 C.ar  1 <1>  -0.1500 
 21 C        7.1650     3.8740     0.1060 C.ar  1 <1>  -0.1440 
 22 C        5.4570     4.7020    -1.3620 C.ar  1 <1>  -0.1500 
 23 C        6.4160     4.9060    -0.3890 C.ar  1 <1>   0.0820 
 24 C        8.1150     4.4250     1.1290 C.3   1 <1>  -0.0170 
 25 O        6.7220     6.0900     0.1610 O.3   1 <1>  -0.3620 
 26 C        7.7810     5.9280     1.0950 C.3   1 <1>   0.1200 
 27 H       -0.0730    -1.9550     1.9310 H     1 <1>   0.0800 
 28 H       -0.0970    -1.4720     0.2540 H     1 <1>   0.0800 
 29 H        0.8920     0.6460    -0.3010 H     1 <1>   0.0800 
 30 H        1.5030     1.6190     1.0220 H     1 <1>   0.0800 
 31 H        2.3200    -2.2610     1.8990 H     1 <1>   0.0800 
 32 H        3.3180     0.0320     1.4140 H     1 <1>   0.0800 
 33 H        3.7790     1.8130    -0.1810 H     1 <1>   0.0800 
 34 H        3.1040     0.8630    -1.4770 H     1 <1>   0.0800 
 35 H        4.5490    -2.0840     0.7970 H     1 <1>   0.0800 
 36 H        3.9250    -3.0500    -0.5090 H     1 <1>   0.0800 
 37 H        2.1880    -4.5760     2.2070 H     1 <1>   0.1500 
 38 H        0.9400    -2.9340    -1.5320 H     1 <1>   0.1500 
 39 H        5.5410     0.2680     0.0620 H     1 <1>   0.4500 
 40 H        4.4180    -1.3600    -2.1380 H     1 <1>   0.0800 
 41 H        5.8670    -1.7130    -1.2340 H     1 <1>   0.0800 
 42 H        1.8200    -6.8300     1.3330 H     1 <1>   0.1500 
 43 H        0.5660    -5.2000    -2.3950 H     1 <1>   0.1500 
 44 H        6.7210     0.4710    -2.0310 H     1 <1>   0.0800 
 45 H        5.2180     0.9810    -2.7670 H     1 <1>   0.0800 
 46 H        1.0110    -7.1510    -0.9650 H     1 <1>   0.1500 
 47 H        7.5870     1.7910     0.0420 H     1 <1>   0.1500 
 48 H        4.5200     3.2560    -2.5990 H     1 <1>   0.1500 
 49 H        4.8920     5.5380    -1.7350 H     1 <1>   0.1500 
 50 H        9.1400     4.2540     0.8500 H     1 <1>   0.0800 
 51 H        7.9270     4.0140     2.1040 H     1 <1>   0.0800 
 52 H        8.6180     6.5110     0.7530 H     1 <1>   0.0800 
 53 H        7.4440     6.2850     2.0520 H     1 <1>   0.0800 
@<TRIPOS>BOND
  1   1   2  1   
  2   1   3  1   
  3   2   4  1   
  4   2  27  1   
  5   2  28  1   
  6   3   5  1   
  7   3  29  1   
  8   3  30  1   
  9   4   6  1   
 10   4   7  1   
 11   4  31  1   
 12   5   6  1   
 13   5   8  1   
 14   5  32  1   
 15   6   9  1   
 16   7  10  ar  
 17   7  11  ar  
 18   8  12  1   
 19   8  33  1   
 20   8  34  1   
 21   9  13  1   
 22   9  35  1   
 23   9  36  1   
 24  10  14  ar  
 25  10  37  1   
 26  11  15  ar  
 27  11  38  1   
 28  12  13  1   
 29  12  16  1   
 30  12  39  1   
 31  13  40  1   
 32  13  41  1   
 33  14  17  ar  
 34  14  42  1   
 35  15  17  ar  
 36  15  43  1   
 37  16  18  1   
 38  16  44  1   
 39  16  45  1   
 40  17  46  1   
 41  18  19  ar  
 42  18  20  ar  
 43  19  21  ar  
 44  19  47  1   
 45  20  22  ar  
 46  20  48  1   
 47  21  23  ar  
 48  21  24  1   
 49  22  23  ar  
 50  22  49  1   
 51  23  25  1   
 52  24  26  1   
 53  24  50  1   
 54  24  51  1   
 55  25  26  1   
 56  26  52  1   
 57  26  53  1   
@<TRIPOS>SUBSTRUCTURE
  1 ****   8 GROUP 4 **** **** 0

# MOE 2024.06 (io_trps.svl 2023.06)
