@<TRIPOS>MOLECULE
NONAME
50 53 1 0 0 
SMALL
USER_CHARGES


@<TRIPOS>ATOM
  1 S       -0.0050    -0.6530     1.1090 S.3   1 <1>  -0.0800 
  2 C       -0.6170     0.8430     1.7760 C.2   1 <1>   0.4620 
  3 C       -1.4410    -0.7920     0.1130 C.2   1 <1>  -0.0450 
  4 N       -1.7540     1.2040     1.3080 N.2   1 <1>  -0.5650 
  5 N        0.1130     1.4960     2.7030 N.pl3 1 <1>  -0.8840 
  6 C       -1.5980    -1.9200    -0.7600 C.2   1 <1>   0.7150 
  7 C       -2.1970     0.2980     0.3820 C.2   1 <1>   0.0770 
  8 O       -0.6160    -2.4680    -1.2280 O.2   1 <1>  -0.5700 
  9 N       -2.8470    -2.4070    -1.0960 N.am  1 <1>  -0.6600 
 10 C       -3.0430    -3.2960    -2.2760 C.3   1 <1>   0.1400 
 11 C       -4.0260    -2.3460    -0.1880 C.3   1 <1>   0.1400 
 12 C       -3.3650    -4.7140    -1.7980 C.3   1 <1>  -0.1600 
 13 C       -4.3540    -3.7560     0.3070 C.3   1 <1>  -0.1600 
 14 C       -4.5770    -4.7380    -0.8560 C.3   1 <1>   0.4240 
 15 O       -5.6560    -4.2630    -1.6260 O.3   1 <1>  -0.5600 
 16 C       -4.8280    -6.1700    -0.3370 C.ar  1 <1>  -0.1430 
 17 C       -6.9440    -4.5980    -1.2100 C.3   1 <1>   0.1200 
 18 C       -6.0330    -6.8200    -0.5650 C.ar  1 <1>  -0.1430 
 19 C       -3.8450    -6.8410     0.3800 C.ar  1 <1>  -0.1500 
 20 C       -7.1260    -6.1070    -1.3370 C.3   1 <1>  -0.0170 
 21 C       -6.2440    -8.1050    -0.0910 C.ar  1 <1>  -0.1500 
 22 C       -4.0360    -8.1270     0.8560 C.ar  1 <1>   0.0830 
 23 C       -5.2600    -8.7750     0.6300 C.ar  1 <1>   0.0830 
 24 O       -2.9740    -8.6530     1.5290 O.3   1 <1>  -0.3630 
 25 O       -5.4710   -10.0280     1.1300 O.3   1 <1>  -0.3620 
 26 C       -2.6700   -10.0270     1.4390 C.3   1 <1>   0.0400 
 27 C       -6.7350   -10.6520     1.0840 C.3   1 <1>   0.0400 
 28 H       -0.2200     2.3810     3.0850 H     1 <1>   0.4000 
 29 H        1.0310     1.1750     3.0120 H     1 <1>   0.4000 
 30 H       -3.1400     0.5010    -0.0970 H     1 <1>   0.1500 
 31 H       -2.1600    -3.3110    -2.8930 H     1 <1>   0.0800 
 32 H       -3.8550    -2.9160    -2.8720 H     1 <1>   0.0800 
 33 H       -4.8650    -1.9380    -0.7260 H     1 <1>   0.0800 
 34 H       -3.8310    -1.7180     0.6620 H     1 <1>   0.0800 
 35 H       -2.4960    -5.1020    -1.3000 H     1 <1>   0.0800 
 36 H       -3.5620    -5.3480    -2.6420 H     1 <1>   0.0800 
 37 H       -5.2210    -3.7330     0.9390 H     1 <1>   0.0800 
 38 H       -3.5350    -4.0980     0.9120 H     1 <1>   0.0800 
 39 H       -7.6410    -4.0800    -1.8450 H     1 <1>   0.0800 
 40 H       -7.0850    -4.2750    -0.1940 H     1 <1>   0.0800 
 41 H       -2.9000    -6.3730     0.5830 H     1 <1>   0.1500 
 42 H       -7.0810    -6.3880    -2.3740 H     1 <1>   0.0800 
 43 H       -8.0930    -6.3790    -0.9530 H     1 <1>   0.0800 
 44 H       -7.1890    -8.5700    -0.2950 H     1 <1>   0.1500 
 45 H       -1.6350   -10.1590     1.6960 H     1 <1>   0.0800 
 46 H       -2.8470   -10.3620     0.4320 H     1 <1>   0.0800 
 47 H       -3.2880   -10.5650     2.1340 H     1 <1>   0.0800 
 48 H       -6.6630   -11.5900     1.6030 H     1 <1>   0.0800 
 49 H       -7.0040   -10.8230     0.0570 H     1 <1>   0.0800 
 50 H       -7.4550   -10.0190     1.5740 H     1 <1>   0.0800 
@<TRIPOS>BOND
  1   1   2  1   
  2   1   3  1   
  3   2   4  2   
  4   2   5  1   
  5   3   6  1   
  6   3   7  2   
  7   4   7  1   
  8   5  28  1   
  9   5  29  1   
 10   6   8  2   
 11   6   9  am  
 12   7  30  1   
 13   9  10  1   
 14   9  11  1   
 15  10  12  1   
 16  10  31  1   
 17  10  32  1   
 18  11  13  1   
 19  11  33  1   
 20  11  34  1   
 21  12  14  1   
 22  12  35  1   
 23  12  36  1   
 24  13  14  1   
 25  13  37  1   
 26  13  38  1   
 27  14  15  1   
 28  14  16  1   
 29  15  17  1   
 30  16  18  ar  
 31  16  19  ar  
 32  17  20  1   
 33  17  39  1   
 34  17  40  1   
 35  18  20  1   
 36  18  21  ar  
 37  19  22  ar  
 38  19  41  1   
 39  20  42  1   
 40  20  43  1   
 41  21  23  ar  
 42  21  44  1   
 43  22  23  ar  
 44  22  24  1   
 45  23  25  1   
 46  24  26  1   
 47  25  27  1   
 48  26  45  1   
 49  26  46  1   
 50  26  47  1   
 51  27  48  1   
 52  27  49  1   
 53  27  50  1   
@<TRIPOS>SUBSTRUCTURE
  1 ****  13 GROUP 4 **** **** 0

# MOE 2024.06 (io_trps.svl 2023.06)
