@<TRIPOS>MOLECULE
NONAME
48 49 1 0 0 
SMALL
USER_CHARGES


@<TRIPOS>ATOM
  1 O       -0.4540    -0.4350    -1.4970 O.2   1 <1>  -0.5700 
  2 C       -1.3640     0.3600    -1.5150 C.2   1 <1>   0.5690 
  3 N       -2.6350    -0.0040    -1.8760 N.am  1 <1>  -0.6600 
  4 C       -1.0510     1.7790    -1.0800 C.3   1 <1>  -0.0990 
  5 C       -3.0150    -1.4340    -1.7590 C.3   1 <1>   0.3200 
  6 C       -3.6100     0.9100    -2.5490 C.3   1 <1>   0.1400 
  7 C       -1.2060     1.9070     0.4400 C.3   1 <1>  -0.0170 
  8 C       -3.1920    -1.7720    -0.2930 C.2   1 <1>  -0.3320 
  9 C       -4.6180     1.5500    -1.5790 C.3   1 <1>   0.1200 
 10 C       -0.9880     3.3520     0.8780 C.ar  1 <1>  -0.1440 
 11 N       -4.1230    -1.2020     0.4890 N.pl3 1 <1>   0.0330 
 12 C       -2.5120    -2.6290     0.4990 C.2   1 <1>   0.0770 
 13 O       -5.5660     0.6250    -1.1490 O.3   1 <1>  -0.6800 
 14 C        0.2660     3.8490     1.2240 C.ar  1 <1>  -0.1430 
 15 C       -2.0880     4.1950     0.9250 C.ar  1 <1>  -0.1500 
 16 C       -3.9570    -1.7540     1.7090 C.2   1 <1>   0.0070 
 17 N       -3.0010    -2.6220     1.7550 N.2   1 <1>  -0.5650 
 18 C        0.3910     5.1780     1.6030 C.ar  1 <1>  -0.1500 
 19 C        1.5150     2.9780     1.2060 C.3   1 <1>  -0.0970 
 20 C       -1.9530     5.5180     1.3040 C.ar  1 <1>  -0.1500 
 21 C       -4.8140    -1.3780     2.8970 C.3   1 <1>  -0.0600 
 22 C       -0.7090     6.0170     1.6470 C.ar  1 <1>  -0.1430 
 23 C       -0.5470     7.4680     2.0640 C.3   1 <1>  -0.0970 
 24 H       -1.6840     2.4910    -1.5680 H     1 <1>   0.0800 
 25 H       -0.0390     2.0050    -1.3570 H     1 <1>   0.0800 
 26 H       -2.2390    -2.0500    -2.1830 H     1 <1>   0.0800 
 27 H       -3.9290    -1.6280    -2.2910 H     1 <1>   0.0800 
 28 H       -4.1360     0.3780    -3.3220 H     1 <1>   0.0800 
 29 H       -3.0630     1.6950    -3.0400 H     1 <1>   0.0800 
 30 H       -0.5150     1.2470     0.9330 H     1 <1>   0.0800 
 31 H       -2.1920     1.5890     0.7300 H     1 <1>   0.0800 
 32 H       -5.1430     2.3550    -2.0640 H     1 <1>   0.0800 
 33 H       -4.1090     1.9410    -0.7150 H     1 <1>   0.0800 
 34 H       -4.7990    -0.4810     0.1980 H     1 <1>   0.2700 
 35 H       -1.6800    -3.2570     0.2280 H     1 <1>   0.1500 
 36 H       -6.1910     0.4090    -1.8710 H     1 <1>   0.4000 
 37 H       -3.0630     3.8260     0.6660 H     1 <1>   0.1500 
 38 H        1.3560     5.5680     1.8700 H     1 <1>   0.1500 
 39 H        1.6390     2.5180     0.2430 H     1 <1>   0.0800 
 40 H        1.4340     2.2090     1.9530 H     1 <1>   0.0800 
 41 H        2.3940     3.5580     1.4150 H     1 <1>   0.0800 
 42 H       -2.8180     6.1540     1.3330 H     1 <1>   0.1500 
 43 H       -5.8450    -1.6000     2.6920 H     1 <1>   0.0800 
 44 H       -4.7080    -0.3310     3.1090 H     1 <1>   0.0800 
 45 H       -4.5030    -1.9400     3.7600 H     1 <1>   0.0800 
 46 H        0.1680     7.5460     2.8640 H     1 <1>   0.0800 
 47 H       -1.4830     7.8720     2.4050 H     1 <1>   0.0800 
 48 H       -0.2000     8.0490     1.2290 H     1 <1>   0.0800 
@<TRIPOS>BOND
  1   1   2  2   
  2   2   3  am  
  3   2   4  1   
  4   3   5  1   
  5   3   6  1   
  6   4   7  1   
  7   4  24  1   
  8   4  25  1   
  9   5   8  1   
 10   5  26  1   
 11   5  27  1   
 12   6   9  1   
 13   6  28  1   
 14   6  29  1   
 15   7  10  1   
 16   7  30  1   
 17   7  31  1   
 18   8  11  1   
 19   8  12  2   
 20   9  13  1   
 21   9  32  1   
 22   9  33  1   
 23  10  14  ar  
 24  10  15  ar  
 25  11  16  1   
 26  11  34  1   
 27  12  17  1   
 28  12  35  1   
 29  13  36  1   
 30  14  18  ar  
 31  14  19  1   
 32  15  20  ar  
 33  15  37  1   
 34  16  17  2   
 35  16  21  1   
 36  18  22  ar  
 37  18  38  1   
 38  19  39  1   
 39  19  40  1   
 40  19  41  1   
 41  20  22  ar  
 42  20  42  1   
 43  21  43  1   
 44  21  44  1   
 45  21  45  1   
 46  22  23  1   
 47  23  46  1   
 48  23  47  1   
 49  23  48  1   
@<TRIPOS>SUBSTRUCTURE
  1 ****   7 GROUP 4 **** **** 0

# MOE 2024.06 (io_trps.svl 2023.06)
