@<TRIPOS>MOLECULE
NONAME
53 55 1 0 0 
SMALL
USER_CHARGES


@<TRIPOS>ATOM
  1 F        0.1230     0.5120     1.8640 F     1 <1>  -0.1900 
  2 C        1.1190     1.0090     1.1830 C.ar  1 <1>   0.1900 
  3 C        2.1450     0.1660     0.7650 C.ar  1 <1>   0.0860 
  4 C        1.0800     2.3610     0.8990 C.ar  1 <1>  -0.1500 
  5 C        3.1780     0.7600     0.0250 C.ar  1 <1>   0.0830 
  6 C        2.1020    -1.2420     1.0610 C.2   1 <1>   0.5440 
  7 C        2.1050     2.9180     0.1540 C.ar  1 <1>  -0.1500 
  8 O        4.2350     0.0630    -0.4460 O.3   1 <1>  -0.3630 
  9 C        3.1440     2.1140    -0.2810 C.ar  1 <1>  -0.1500 
 10 O        2.5000    -1.6380     2.1410 O.2   1 <1>  -0.5700 
 11 N        1.6490    -2.1490     0.1320 N.am  1 <1>  -0.6600 
 12 C        5.0570    -0.6460     0.4620 C.3   1 <1>   0.0400 
 13 C        1.7260    -3.6270     0.3850 C.3   1 <1>   0.3640 
 14 C        1.0280    -1.7150    -1.1580 C.3   1 <1>   0.1400 
 15 C        3.0250    -4.2330    -0.1710 C.ar  1 <1>  -0.1430 
 16 C        0.4790    -4.3930    -0.1610 C.3   1 <1>   0.2000 
 17 C        0.5600    -2.9030    -2.0100 C.3   1 <1>   0.1200 
 18 C        3.4090    -5.4820     0.3030 C.ar  1 <1>  -0.1500 
 19 C        3.8370    -3.6060    -1.1130 C.ar  1 <1>  -0.1500 
 20 O       -0.2040    -3.7600    -1.2220 O.3   1 <1>  -0.5600 
 21 C       -0.5560    -4.6280     0.9460 C.3   1 <1>   0.1200 
 22 C        4.5570    -6.1050    -0.1570 C.ar  1 <1>   0.0830 
 23 C        4.9970    -4.2100    -1.5650 C.ar  1 <1>  -0.1500 
 24 O       -0.0950    -5.5940     1.8380 O.3   1 <1>  -0.6800 
 25 O        4.8270    -7.3440     0.3240 O.3   1 <1>  -0.3630 
 26 C        5.3740    -5.4510    -1.0830 C.ar  1 <1>   0.0830 
 27 C        4.8200    -8.3990    -0.6120 C.3   1 <1>   0.0400 
 28 O        6.5420    -5.9700    -1.5370 O.3   1 <1>  -0.3630 
 29 C        7.5740    -6.1050    -0.5850 C.3   1 <1>   0.0400 
 30 H        0.2610     2.9620     1.2510 H     1 <1>   0.1500 
 31 H        2.0950     3.9680    -0.0840 H     1 <1>   0.1500 
 32 H        3.9460     2.5370    -0.8610 H     1 <1>   0.1500 
 33 H        6.0350    -0.7390     0.0270 H     1 <1>   0.0800 
 34 H        4.6460    -1.6250     0.6290 H     1 <1>   0.0800 
 35 H        5.1160    -0.1030     1.3890 H     1 <1>   0.0800 
 36 H        1.7590    -3.7900     1.4490 H     1 <1>   0.0800 
 37 H        0.1780    -1.0910    -0.9450 H     1 <1>   0.0800 
 38 H        1.7370    -1.1330    -1.7220 H     1 <1>   0.0800 
 39 H        0.7890    -5.3520    -0.5360 H     1 <1>   0.0800 
 40 H        1.3900    -3.4510    -2.4190 H     1 <1>   0.0800 
 41 H       -0.0590    -2.5590    -2.8190 H     1 <1>   0.0800 
 42 H        2.8130    -5.9910     1.0400 H     1 <1>   0.1500 
 43 H        3.5880    -2.6360    -1.5000 H     1 <1>   0.1500 
 44 H       -1.4860    -4.9740     0.5310 H     1 <1>   0.0800 
 45 H       -0.7220    -3.7180     1.4970 H     1 <1>   0.0800 
 46 H        5.6210    -3.7170    -2.2880 H     1 <1>   0.1500 
 47 H       -0.1980    -6.4900     1.4610 H     1 <1>   0.4000 
 48 H        4.9110    -9.3260    -0.0750 H     1 <1>   0.0800 
 49 H        5.6500    -8.2850    -1.2860 H     1 <1>   0.0800 
 50 H        3.8920    -8.3760    -1.1550 H     1 <1>   0.0800 
 51 H        8.4610    -6.4340    -1.0940 H     1 <1>   0.0800 
 52 H        7.2850    -6.8300     0.1550 H     1 <1>   0.0800 
 53 H        7.7460    -5.1490    -0.1220 H     1 <1>   0.0800 
@<TRIPOS>BOND
  1   1   2  1   
  2   2   3  ar  
  3   2   4  ar  
  4   3   5  ar  
  5   3   6  1   
  6   4   7  ar  
  7   4  30  1   
  8   5   8  1   
  9   5   9  ar  
 10   6  10  2   
 11   6  11  am  
 12   7   9  ar  
 13   7  31  1   
 14   8  12  1   
 15   9  32  1   
 16  11  13  1   
 17  11  14  1   
 18  12  33  1   
 19  12  34  1   
 20  12  35  1   
 21  13  15  1   
 22  13  16  1   
 23  13  36  1   
 24  14  17  1   
 25  14  37  1   
 26  14  38  1   
 27  15  18  ar  
 28  15  19  ar  
 29  16  20  1   
 30  16  21  1   
 31  16  39  1   
 32  17  20  1   
 33  17  40  1   
 34  17  41  1   
 35  18  22  ar  
 36  18  42  1   
 37  19  23  ar  
 38  19  43  1   
 39  21  24  1   
 40  21  44  1   
 41  21  45  1   
 42  22  25  1   
 43  22  26  ar  
 44  23  26  ar  
 45  23  46  1   
 46  24  47  1   
 47  25  27  1   
 48  26  28  1   
 49  27  48  1   
 50  27  49  1   
 51  27  50  1   
 52  28  29  1   
 53  29  51  1   
 54  29  52  1   
 55  29  53  1   
@<TRIPOS>SUBSTRUCTURE
  1 ****  11 GROUP 4 **** **** 0

# MOE 2024.06 (io_trps.svl 2023.06)
