@<TRIPOS>MOLECULE
NONAME
40 41 1 0 0 
SMALL
USER_CHARGES


@<TRIPOS>ATOM
  1 S        0.4730     0.4140    -1.4640 S.o2  1 <1>   1.3330 
  2 O        0.7360    -0.8700    -2.0750 O.2   1 <1>  -0.6500 
  3 O       -0.3600     1.3760    -2.1480 O.2   1 <1>  -0.6500 
  4 N       -0.2310     0.1310     0.0570 N.am  1 <1>  -0.8490 
  5 C        2.0520     1.1730    -1.0730 C.3   1 <1>  -0.0550 
  6 C       -1.2000    -0.9680     0.0180 C.3   1 <1>   0.1160 
  7 C       -0.8590     1.3230     0.6380 C.3   1 <1>   0.1160 
  8 C        3.0630     0.2240    -0.3910 C.3   1 <1>  -0.0800 
  9 C        4.4600     0.7990    -0.2140 C.3   1 <1>   0.2200 
 10 C        2.6910    -0.2090     1.0320 C.3   1 <1>   0.1200 
 11 N        4.3950     2.2070     0.2420 N.am  1 <1>  -0.7300 
 12 C        4.9780    -0.0670     0.9250 C.3   1 <1>   0.1200 
 13 O        3.8810    -0.2570     1.7650 O.3   1 <1>  -0.5600 
 14 C        4.6320     3.3180    -0.5160 C.2   1 <1>   0.7160 
 15 O        4.8980     3.1640    -1.6940 O.2   1 <1>  -0.5700 
 16 C        4.5400     4.6390     0.0760 C.2   1 <1>   0.2030 
 17 N        4.1920     4.9090     1.3010 N.2   1 <1>  -0.4100 
 18 C        4.8020     5.8350    -0.5740 C.2   1 <1>  -0.1500 
 19 O        4.2080     6.2040     1.5020 O.3   1 <1>  -0.0190 
 20 C        4.5770     6.7560     0.3660 C.2   1 <1>  -0.0400 
 21 C        4.6870     8.2650     0.2940 C.3   1 <1>  -0.0600 
 22 H        2.4910     1.5190    -1.9890 H     1 <1>   0.0800 
 23 H        1.8850     2.0330    -0.4560 H     1 <1>   0.0800 
 24 H       -1.6190    -1.1330     0.9960 H     1 <1>   0.0800 
 25 H       -0.7160    -1.8780    -0.2970 H     1 <1>   0.0800 
 26 H       -1.9940    -0.7420    -0.6750 H     1 <1>   0.0800 
 27 H       -1.2110     1.1080     1.6320 H     1 <1>   0.0800 
 28 H       -1.6910     1.6440     0.0330 H     1 <1>   0.0800 
 29 H       -0.1470     2.1280     0.6980 H     1 <1>   0.0800 
 30 H        3.1480    -0.6670    -0.9890 H     1 <1>   0.0800 
 31 H        5.0640     0.7110    -1.1010 H     1 <1>   0.0800 
 32 H        2.2280    -1.1810     1.0470 H     1 <1>   0.0800 
 33 H        2.0460     0.5070     1.5130 H     1 <1>   0.0800 
 34 H        4.1720     2.3370     1.2340 H     1 <1>   0.3700 
 35 H        5.7810     0.3940     1.4730 H     1 <1>   0.0800 
 36 H        5.2860    -1.0330     0.5620 H     1 <1>   0.0800 
 37 H        5.1110     5.9380    -1.5990 H     1 <1>   0.1500 
 38 H        4.9960     8.5700    -0.6890 H     1 <1>   0.0800 
 39 H        5.4090     8.6120     1.0110 H     1 <1>   0.0800 
 40 H        3.7340     8.7110     0.5150 H     1 <1>   0.0800 
@<TRIPOS>BOND
  1   1   2  2   
  2   1   3  2   
  3   1   4  am  
  4   1   5  1   
  5   4   6  1   
  6   4   7  1   
  7   5   8  1   
  8   5  22  1   
  9   5  23  1   
 10   6  24  1   
 11   6  25  1   
 12   6  26  1   
 13   7  27  1   
 14   7  28  1   
 15   7  29  1   
 16   8   9  1   
 17   8  10  1   
 18   8  30  1   
 19   9  11  1   
 20   9  12  1   
 21   9  31  1   
 22  10  13  1   
 23  10  32  1   
 24  10  33  1   
 25  11  14  am  
 26  11  34  1   
 27  12  13  1   
 28  12  35  1   
 29  12  36  1   
 30  14  15  2   
 31  14  16  1   
 32  16  17  2   
 33  16  18  1   
 34  17  19  1   
 35  18  20  2   
 36  18  37  1   
 37  19  20  1   
 38  20  21  1   
 39  21  38  1   
 40  21  39  1   
 41  21  40  1   
@<TRIPOS>SUBSTRUCTURE
  1 ****  11 GROUP 4 **** **** 0

# MOE 2024.06 (io_trps.svl 2023.06)
