@<TRIPOS>MOLECULE
NONAME
52 56 1 0 0 
SMALL
USER_CHARGES


@<TRIPOS>ATOM
  1 S       -0.6790     0.6350     1.3300 S.o2  1 <1>   1.4470 
  2 O       -0.5830    -0.6510     1.9900 O.2   1 <1>  -0.6500 
  3 O       -1.2390     1.7540     2.0560 O.2   1 <1>  -0.6500 
  4 N       -1.6080     0.4240    -0.0760 N.am  1 <1>  -0.8490 
  5 C        0.9510     1.0980     0.6860 C.ar  1 <1>  -0.0090 
  6 C       -3.0480     0.3980     0.1800 C.3   1 <1>   0.1960 
  7 C       -1.3270    -0.8240    -0.7850 C.3   1 <1>   0.1960 
  8 C        1.1010     2.2650    -0.1110 C.ar  1 <1>   0.0000 
  9 C        2.0660     0.3200     0.9600 C.ar  1 <1>  -0.1500 
 10 C       -3.3840    -1.0570     0.5090 C.3   1 <1>  -0.0800 
 11 C       -2.4000    -1.8440    -0.3750 C.3   1 <1>  -0.0800 
 12 C        2.3910     2.5370    -0.5690 C.ar  1 <1>   0.0000 
 13 C        0.1260     3.2070    -0.5160 C.ar  1 <1>  -0.1500 
 14 C        3.3490     0.6280     0.4820 C.ar  1 <1>  -0.1500 
 15 C       -4.8770    -1.4750     0.3940 C.3   1 <1>   0.2800 
 16 C       -3.0790    -2.4740    -1.6030 C.3   1 <1>  -0.1600 
 17 C        3.5020     1.7490    -0.2910 C.ar  1 <1>   0.1170 
 18 C        2.7500     3.6270    -1.3620 C.ar  1 <1>   0.0860 
 19 C        0.4500     4.2940    -1.3000 C.ar  1 <1>  -0.1500 
 20 O       -5.4780    -0.7990    -0.6510 O.3   1 <1>  -0.6800 
 21 C       -4.9650    -2.9800     0.0780 C.3   1 <1>  -0.1600 
 22 C       -5.7010    -1.1720     1.6670 C.3   1 <1>  -0.1600 
 23 C       -4.2390    -3.4050    -1.2150 C.3   1 <1>  -0.1600 
 24 N        4.5840     2.3480    -0.9200 N.am  1 <1>  -0.5470 
 25 C        4.1660     3.4770    -1.5690 C.2   1 <1>   0.5440 
 26 C        1.7670     4.5150    -1.7320 C.ar  1 <1>  -0.1500 
 27 C       -5.7720     0.3020     2.1010 C.3   1 <1>  -0.2400 
 28 O        4.9180     4.1900    -2.2010 O.2   1 <1>  -0.5700 
 29 H       -3.3290     1.0790     0.9630 H     1 <1>   0.0800 
 30 H       -3.5510     0.6990    -0.7230 H     1 <1>   0.0800 
 31 H       -1.3920    -0.6300    -1.8430 H     1 <1>   0.0800 
 32 H       -0.3370    -1.1920    -0.5730 H     1 <1>   0.0800 
 33 H        1.9580    -0.5640     1.5690 H     1 <1>   0.1500 
 34 H       -3.0900    -1.2310     1.5280 H     1 <1>   0.0800 
 35 H       -1.9430    -2.6250     0.2090 H     1 <1>   0.0800 
 36 H       -0.8960     3.0720    -0.2030 H     1 <1>   0.1500 
 37 H        4.1880    -0.0020     0.7190 H     1 <1>   0.1500 
 38 H       -3.4700    -1.6840    -2.2220 H     1 <1>   0.0800 
 39 H       -2.3590    -3.0190    -2.1900 H     1 <1>   0.0800 
 40 H       -0.3140     4.9940    -1.5920 H     1 <1>   0.1500 
 41 H       -6.3950    -1.1120    -0.7500 H     1 <1>   0.4000 
 42 H       -4.5120    -3.5090     0.8980 H     1 <1>   0.0800 
 43 H       -5.9920    -3.2980     0.0350 H     1 <1>   0.0800 
 44 H       -6.7050    -1.5290     1.5200 H     1 <1>   0.0800 
 45 H       -5.2900    -1.7380     2.4850 H     1 <1>   0.0800 
 46 H       -3.8680    -4.4080    -1.0880 H     1 <1>   0.0800 
 47 H       -4.9420    -3.4240    -2.0300 H     1 <1>   0.0800 
 48 H        5.5580     2.0490    -0.9240 H     1 <1>   0.3700 
 49 H        2.0070     5.3680    -2.3430 H     1 <1>   0.1500 
 50 H       -6.0620     0.9330     1.2790 H     1 <1>   0.0800 
 51 H       -4.8240     0.6340     2.4840 H     1 <1>   0.0800 
 52 H       -6.4990     0.4140     2.8860 H     1 <1>   0.0800 
@<TRIPOS>BOND
  1   1   2  2   
  2   1   3  2   
  3   1   4  am  
  4   1   5  1   
  5   4   6  1   
  6   4   7  1   
  7   5   8  ar  
  8   5   9  ar  
  9   6  10  1   
 10   6  29  1   
 11   6  30  1   
 12   7  11  1   
 13   7  31  1   
 14   7  32  1   
 15   8  12  ar  
 16   8  13  ar  
 17   9  14  ar  
 18   9  33  1   
 19  10  11  1   
 20  10  15  1   
 21  10  34  1   
 22  11  16  1   
 23  11  35  1   
 24  12  17  ar  
 25  12  18  ar  
 26  13  19  ar  
 27  13  36  1   
 28  14  17  ar  
 29  14  37  1   
 30  15  20  1   
 31  15  21  1   
 32  15  22  1   
 33  16  23  1   
 34  16  38  1   
 35  16  39  1   
 36  17  24  1   
 37  18  25  1   
 38  18  26  ar  
 39  19  26  ar  
 40  19  40  1   
 41  20  41  1   
 42  21  23  1   
 43  21  42  1   
 44  21  43  1   
 45  22  27  1   
 46  22  44  1   
 47  22  45  1   
 48  23  46  1   
 49  23  47  1   
 50  24  25  am  
 51  24  48  1   
 52  25  28  2   
 53  26  49  1   
 54  27  50  1   
 55  27  51  1   
 56  27  52  1   
@<TRIPOS>SUBSTRUCTURE
  1 ****   4 GROUP 4 **** **** 0

# MOE 2024.06 (io_trps.svl 2023.06)
