@<TRIPOS>MOLECULE
NONAME
37 38 1 0 0 
SMALL
USER_CHARGES


@<TRIPOS>ATOM
  1 S        1.7600     0.0220     1.4770 S.3   1 <1>  -0.0800 
  2 C        1.3790    -1.1970     0.3080 C.2   1 <1>   0.4620 
  3 C        1.6340     1.1750     0.1900 C.2   1 <1>   0.1980 
  4 N        1.1910    -0.7190    -0.8680 N.2   1 <1>  -0.3380 
  5 N        1.3140    -2.4950     0.7070 N.pl3 1 <1>  -0.8840 
  6 N        1.3380     0.6390    -0.9260 N.2   1 <1>  -0.3380 
  7 C        1.8790     2.6300     0.5310 C.3   1 <1>   0.0200 
  8 C        2.0480     3.4760    -0.7320 C.3   1 <1>   0.2090 
  9 N        2.2690     4.8980    -0.3620 N.pl3 1 <1>  -0.8690 
 10 C        3.5020     5.4280    -0.0600 C.ar  1 <1>   0.4100 
 11 N        4.4870     4.5750     0.1330 N.ar  1 <1>  -0.6200 
 12 C        3.6990     6.8000     0.0420 C.ar  1 <1>  -0.1430 
 13 C        5.6590     5.0960     0.4190 C.ar  1 <1>   0.4770 
 14 C        4.9740     7.2120     0.3480 C.ar  1 <1>   0.1600 
 15 C        2.5300     7.7670    -0.1810 C.3   1 <1>  -0.0170 
 16 N        5.9700     6.3720     0.5400 N.ar  1 <1>  -0.6200 
 17 C        6.7810     4.1110     0.6370 C.3   1 <1>  -0.0970 
 18 C        2.8590     9.2550     0.0130 C.3   1 <1>  -0.1600 
 19 C        1.6240    10.1330    -0.2150 C.3   1 <1>  -0.2400 
 20 H        1.1030    -3.2270     0.0270 H     1 <1>   0.4000 
 21 H        1.4890    -2.7870     1.6690 H     1 <1>   0.4000 
 22 H        2.7710     2.7010     1.1250 H     1 <1>   0.0800 
 23 H        1.0490     3.0000     1.1030 H     1 <1>   0.0800 
 24 H        1.1660     3.3980    -1.3450 H     1 <1>   0.0800 
 25 H        2.8850     3.1120    -1.3050 H     1 <1>   0.0800 
 26 H        1.5590     5.5460    -0.7050 H     1 <1>   0.4000 
 27 H        5.2120     8.2560     0.4450 H     1 <1>   0.1500 
 28 H        1.7410     7.5010     0.5010 H     1 <1>   0.0800 
 29 H        2.1610     7.6260    -1.1820 H     1 <1>   0.0800 
 30 H        6.7580     3.3600    -0.1310 H     1 <1>   0.0800 
 31 H        6.6600     3.6420     1.5940 H     1 <1>   0.0800 
 32 H        7.7320     4.6110     0.6070 H     1 <1>   0.0800 
 33 H        3.6280     9.5500    -0.6820 H     1 <1>   0.0800 
 34 H        3.2220     9.4180     1.0140 H     1 <1>   0.0800 
 35 H        1.2510    10.0090    -1.2170 H     1 <1>   0.0800 
 36 H        1.8800    11.1690    -0.0750 H     1 <1>   0.0800 
 37 H        0.8440     9.8780     0.4810 H     1 <1>   0.0800 
@<TRIPOS>BOND
  1   1   2  1   
  2   1   3  1   
  3   2   4  2   
  4   2   5  1   
  5   3   6  2   
  6   3   7  1   
  7   4   6  1   
  8   5  20  1   
  9   5  21  1   
 10   7   8  1   
 11   7  22  1   
 12   7  23  1   
 13   8   9  1   
 14   8  24  1   
 15   8  25  1   
 16   9  10  1   
 17   9  26  1   
 18  10  11  ar  
 19  10  12  ar  
 20  11  13  ar  
 21  12  14  ar  
 22  12  15  1   
 23  13  16  ar  
 24  13  17  1   
 25  14  16  ar  
 26  14  27  1   
 27  15  18  1   
 28  15  28  1   
 29  15  29  1   
 30  17  30  1   
 31  17  31  1   
 32  17  32  1   
 33  18  19  1   
 34  18  33  1   
 35  18  34  1   
 36  19  35  1   
 37  19  36  1   
 38  19  37  1   
@<TRIPOS>SUBSTRUCTURE
  1 ****   9 GROUP 4 **** **** 0

# MOE 2024.06 (io_trps.svl 2023.06)
