@<TRIPOS>MOLECULE
NONAME
52 54 1 0 0 
SMALL
USER_CHARGES


@<TRIPOS>ATOM
  1 O       -0.5070    -0.0480    -0.0630 O.2   1 <1>  -0.5700 
  2 C       -1.3430     0.6330    -0.6270 C.2   1 <1>   0.6900 
  3 N       -2.5260     0.0780    -1.0310 N.am  1 <1>  -0.6600 
  4 N       -1.1330     1.9540    -0.8900 N.am  1 <1>  -0.5470 
  5 C       -3.8330     0.7730    -0.8200 C.3   1 <1>   0.1400 
  6 C       -2.6790    -1.4050    -1.1180 C.3   1 <1>   0.1400 
  7 C       -0.1300     2.8370    -0.4600 C.ar  1 <1>   0.1170 
  8 C       -4.6120     0.1280     0.3490 C.3   1 <1>   0.2950 
  9 C       -3.5180    -1.9390     0.0630 C.3   1 <1>   0.2000 
 10 C        0.1400     3.9690    -1.2220 C.ar  1 <1>  -0.1500 
 11 C        0.5920     2.6410     0.7120 C.ar  1 <1>  -0.1500 
 12 O       -4.7340    -1.2490     0.1320 O.3   1 <1>  -0.5600 
 13 C       -6.0350     0.6760     0.5570 C.3   1 <1>  -0.1950 
 14 C       -3.8610    -3.4280    -0.0640 C.3   1 <1>  -0.1600 
 15 C        1.1030     4.8820    -0.8290 C.ar  1 <1>  -0.1500 
 16 C        1.5560     3.5500     1.1100 C.ar  1 <1>  -0.1500 
 17 C       -6.9900     0.9670    -0.5590 C.3   1 <1>  -0.2000 
 18 C       -6.4320     2.0920     0.2670 C.3   1 <1>  -0.2000 
 19 C       -2.6240    -4.3380    -0.0030 C.3   1 <1>  -0.1600 
 20 C        1.8190     4.6750     0.3460 C.ar  1 <1>   0.0830 
 21 C       -3.0280    -5.8170    -0.0350 C.3   1 <1>  -0.1600 
 22 O        2.7800     5.5190     0.8090 O.3   1 <1>  -0.3630 
 23 C       -1.7970    -6.7260     0.0240 C.3   1 <1>  -0.2400 
 24 C        3.1430     6.6720     0.0830 C.3   1 <1>   0.0400 
 25 H       -1.7500     2.3050    -1.6130 H     1 <1>   0.3700 
 26 H       -3.6740     1.8120    -0.5970 H     1 <1>   0.0800 
 27 H       -4.4130     0.7060    -1.7210 H     1 <1>   0.0800 
 28 H       -3.1660    -1.6570    -2.0430 H     1 <1>   0.0800 
 29 H       -1.7110    -1.8750    -1.1180 H     1 <1>   0.0800 
 30 H       -4.0550     0.2730     1.2590 H     1 <1>   0.0800 
 31 H       -2.9850    -1.7750     0.9850 H     1 <1>   0.0800 
 32 H       -0.4050     4.1380    -2.1320 H     1 <1>   0.1500 
 33 H        0.4030     1.7760     1.3210 H     1 <1>   0.1500 
 34 H       -6.4640     0.2440     1.4450 H     1 <1>   0.1000 
 35 H       -4.5210    -3.6880     0.7450 H     1 <1>   0.0800 
 36 H       -4.3850    -3.5930    -0.9900 H     1 <1>   0.0800 
 37 H        1.2810     5.7420    -1.4460 H     1 <1>   0.1500 
 38 H        2.1110     3.3910     2.0160 H     1 <1>   0.1500 
 39 H       -6.6670     0.8500    -1.5780 H     1 <1>   0.1000 
 40 H       -8.0210     0.6830    -0.4280 H     1 <1>   0.1000 
 41 H       -7.0860     2.5930     0.9610 H     1 <1>   0.1000 
 42 H       -5.7500     2.7750    -0.2080 H     1 <1>   0.1000 
 43 H       -1.9750    -4.1360    -0.8370 H     1 <1>   0.0800 
 44 H       -2.0770    -4.1380     0.9030 H     1 <1>   0.0800 
 45 H       -3.6690    -6.0350     0.8030 H     1 <1>   0.0800 
 46 H       -3.5780    -6.0230    -0.9370 H     1 <1>   0.0800 
 47 H       -1.2430    -6.5510     0.9300 H     1 <1>   0.0800 
 48 H       -1.1530    -6.5420    -0.8170 H     1 <1>   0.0800 
 49 H       -2.1010    -7.7580     0.0030 H     1 <1>   0.0800 
 50 H        3.9230     7.1750     0.6250 H     1 <1>   0.0800 
 51 H        2.2850     7.3150    -0.0030 H     1 <1>   0.0800 
 52 H        3.5030     6.3750    -0.8860 H     1 <1>   0.0800 
@<TRIPOS>BOND
  1   1   2  2   
  2   2   3  am  
  3   2   4  am  
  4   3   5  1   
  5   3   6  1   
  6   4   7  1   
  7   4  25  1   
  8   5   8  1   
  9   5  26  1   
 10   5  27  1   
 11   6   9  1   
 12   6  28  1   
 13   6  29  1   
 14   7  10  ar  
 15   7  11  ar  
 16   8  12  1   
 17   8  13  1   
 18   8  30  1   
 19   9  12  1   
 20   9  14  1   
 21   9  31  1   
 22  10  15  ar  
 23  10  32  1   
 24  11  16  ar  
 25  11  33  1   
 26  13  17  1   
 27  13  18  1   
 28  13  34  1   
 29  14  19  1   
 30  14  35  1   
 31  14  36  1   
 32  15  20  ar  
 33  15  37  1   
 34  16  20  ar  
 35  16  38  1   
 36  17  18  1   
 37  17  39  1   
 38  17  40  1   
 39  18  41  1   
 40  18  42  1   
 41  19  21  1   
 42  19  43  1   
 43  19  44  1   
 44  20  22  1   
 45  21  23  1   
 46  21  45  1   
 47  21  46  1   
 48  22  24  1   
 49  23  47  1   
 50  23  48  1   
 51  23  49  1   
 52  24  50  1   
 53  24  51  1   
 54  24  52  1   
@<TRIPOS>SUBSTRUCTURE
  1 ****   2 GROUP 4 **** **** 0

# MOE 2024.06 (io_trps.svl 2023.06)
