@<TRIPOS>MOLECULE
NONAME
44 46 1 0 0 
SMALL
USER_CHARGES


@<TRIPOS>ATOM
  1 O       -3.7270     1.9510    -2.9830 O.co2 1 <1>  -0.9000 
  2 C       -3.0020     2.3330    -2.0430 C.2   1 <1>   1.0320 
  3 O       -1.9070     2.8660    -2.2950 O.co2 1 <1>  -0.9000 
  4 C       -3.4510     2.1960    -0.6690 C.2   1 <1>  -0.0920 
  5 O       -4.5730     1.5470    -0.3880 O.3   1 <1>  -0.2800 
  6 C       -2.9300     2.6620     0.4990 C.2   1 <1>  -0.1500 
  7 C       -4.8130     1.6270     0.9000 C.2   1 <1>  -0.0400 
  8 C       -3.8170     2.2990     1.5180 C.2   1 <1>  -0.1500 
  9 C       -6.1160     1.0140     1.3620 C.3   1 <1>   0.5230 
 10 N       -7.1090     1.2770     0.2850 N.4   1 <1>  -0.9590 
 11 C       -8.2910     0.3600     0.2850 C.3   1 <1>   0.3430 
 12 C       -7.4400     2.7180     0.1260 C.3   1 <1>   0.3430 
 13 C       -9.4310     0.8370    -0.6470 C.3   1 <1>   0.0000 
 14 C       -8.0940     2.9380    -1.2430 C.3   1 <1>  -0.1600 
 15 C      -10.5200     1.5210     0.2110 C.3   1 <1>   0.2000 
 16 C       -8.8510     1.7100    -1.7860 C.3   1 <1>  -0.1600 
 17 C      -10.1690    -0.3840    -1.2130 C.3   1 <1>  -0.1600 
 18 O      -11.3330     2.2940    -0.6170 O.3   1 <1>  -0.5600 
 19 C      -11.3510     0.3700     0.7960 C.3   1 <1>  -0.1600 
 20 C      -11.1140    -0.8510    -0.1040 C.3   1 <1>  -0.1600 
 21 C      -12.0740     3.2910     0.0170 C.3   1 <1>   0.0400 
 22 H       -2.0140     3.2180     0.6060 H     1 <1>   0.1500 
 23 H       -3.6910     2.5460     2.5570 H     1 <1>   0.1500 
 24 H       -6.4300     1.4400     2.3000 H     1 <1>   0.0800 
 25 H       -5.9750    -0.0470     1.4780 H     1 <1>   0.0800 
 26 H       -6.5550     1.0800    -0.5720 H     1 <1>   0.4500 
 27 H       -7.9660    -0.6150    -0.0400 H     1 <1>   0.0800 
 28 H       -8.6780     0.2570     1.2850 H     1 <1>   0.0800 
 29 H       -8.1160     3.0230     0.9070 H     1 <1>   0.0800 
 30 H       -6.5470     3.3210     0.1890 H     1 <1>   0.0800 
 31 H       -8.7730     3.7680    -1.1600 H     1 <1>   0.0800 
 32 H       -7.3350     3.2230    -1.9520 H     1 <1>   0.0800 
 33 H      -10.1020     2.1560     0.9740 H     1 <1>   0.0800 
 34 H       -8.1670     1.1120    -2.3670 H     1 <1>   0.0800 
 35 H       -9.6270     2.0350    -2.4590 H     1 <1>   0.0800 
 36 H      -10.7680    -0.0740    -2.0550 H     1 <1>   0.0800 
 37 H       -9.5060    -1.1660    -1.5420 H     1 <1>   0.0800 
 38 H      -11.0120     0.1470     1.7910 H     1 <1>   0.0800 
 39 H      -12.3980     0.6140     0.8420 H     1 <1>   0.0800 
 40 H      -10.6660    -1.6490     0.4630 H     1 <1>   0.0800 
 41 H      -12.0410    -1.2070    -0.5240 H     1 <1>   0.0800 
 42 H      -12.6690     3.7880    -0.7290 H     1 <1>   0.0800 
 43 H      -11.4040     3.9980     0.4730 H     1 <1>   0.0800 
 44 H      -12.7210     2.8510     0.7550 H     1 <1>   0.0800 
@<TRIPOS>BOND
  1   1   2  ar  
  2   2   3  ar  
  3   2   4  1   
  4   4   5  1   
  5   4   6  2   
  6   5   7  1   
  7   6   8  1   
  8   6  22  1   
  9   7   8  2   
 10   7   9  1   
 11   8  23  1   
 12   9  10  1   
 13   9  24  1   
 14   9  25  1   
 15  10  11  1   
 16  10  12  1   
 17  10  26  1   
 18  11  13  1   
 19  11  27  1   
 20  11  28  1   
 21  12  14  1   
 22  12  29  1   
 23  12  30  1   
 24  13  15  1   
 25  13  16  1   
 26  13  17  1   
 27  14  16  1   
 28  14  31  1   
 29  14  32  1   
 30  15  18  1   
 31  15  19  1   
 32  15  33  1   
 33  16  34  1   
 34  16  35  1   
 35  17  20  1   
 36  17  36  1   
 37  17  37  1   
 38  18  21  1   
 39  19  20  1   
 40  19  38  1   
 41  19  39  1   
 42  20  40  1   
 43  20  41  1   
 44  21  42  1   
 45  21  43  1   
 46  21  44  1   
@<TRIPOS>SUBSTRUCTURE
  1 ****  10 GROUP 4 **** **** 0

# MOE 2024.06 (io_trps.svl 2023.06)
