@<TRIPOS>MOLECULE
NONAME
44 46 1 0 0 
SMALL
USER_CHARGES


@<TRIPOS>ATOM
  1 O       -0.9150    -0.4180     0.0260 O.3   1 <1>  -0.5600 
  2 C       -1.7890    -0.7330     1.0790 C.3   1 <1>   0.1200 
  3 C       -1.3310    -0.7780    -1.2600 C.3   1 <1>   0.1200 
  4 C       -2.9030     0.3370     1.2120 C.3   1 <1>   0.4230 
  5 C       -2.7240    -0.2190    -1.6310 C.3   1 <1>  -0.0800 
  6 N       -2.6170     1.4860     0.2670 N.4   1 <1>  -0.9590 
  7 C       -4.3220    -0.2800     1.0990 C.3   1 <1>   0.2090 
  8 C       -3.8720    -1.1680    -1.2280 C.3   1 <1>   0.2090 
  9 C       -2.9660     1.2320    -1.1720 C.3   1 <1>   0.3430 
 10 C       -3.1830     2.7810     0.7390 C.3   1 <1>   0.2630 
 11 N       -4.8340    -0.5220    -0.2920 N.pl3 1 <1>  -0.8380 
 12 C       -6.0950    -1.1000    -0.3200 C.ar  1 <1>   0.4100 
 13 N       -6.1720    -2.3170     0.1910 N.ar  1 <1>  -0.6200 
 14 C       -7.1940    -0.4210    -0.8650 C.ar  1 <1>   0.1600 
 15 C       -7.3980    -2.8200     0.1300 C.ar  1 <1>   0.4100 
 16 N       -8.4240    -0.8960    -0.9300 N.ar  1 <1>  -0.6200 
 17 N       -7.5700    -4.1100     0.6220 N.pl3 1 <1>  -0.8380 
 18 C       -8.4830    -2.1130    -0.4120 C.ar  1 <1>   0.1600 
 19 C       -7.9560    -5.1780    -0.3380 C.3   1 <1>   0.1290 
 20 C       -6.7230    -4.5820     1.7520 C.3   1 <1>   0.1290 
 21 H       -2.1810    -1.7250     0.9400 H     1 <1>   0.0800 
 22 H       -1.2050    -0.7410     1.9820 H     1 <1>   0.0800 
 23 H       -0.5930    -0.3850    -1.9390 H     1 <1>   0.0800 
 24 H       -1.3050    -1.8530    -1.3380 H     1 <1>   0.0800 
 25 H       -2.8230     0.7060     2.2210 H     1 <1>   0.0800 
 26 H       -2.7500    -0.2040    -2.7060 H     1 <1>   0.0800 
 27 H       -1.5820     1.5150     0.2710 H     1 <1>   0.4500 
 28 H       -5.0120     0.3810     1.5930 H     1 <1>   0.0800 
 29 H       -4.3410    -1.2060     1.6500 H     1 <1>   0.0800 
 30 H       -3.4980    -2.0770    -0.7890 H     1 <1>   0.0800 
 31 H       -4.4070    -1.4580    -2.1190 H     1 <1>   0.0800 
 32 H       -4.0050     1.4690    -1.3370 H     1 <1>   0.0800 
 33 H       -2.3810     1.8920    -1.7910 H     1 <1>   0.0800 
 34 H       -4.2600     2.7390     0.7330 H     1 <1>   0.0800 
 35 H       -2.8650     3.5840     0.0950 H     1 <1>   0.0800 
 36 H       -2.8490     2.9930     1.7420 H     1 <1>   0.0800 
 37 H       -7.0250     0.5630    -1.2590 H     1 <1>   0.1500 
 38 H       -9.4400    -2.6000    -0.4010 H     1 <1>   0.1500 
 39 H       -8.6840    -5.8280     0.1170 H     1 <1>   0.0800 
 40 H       -7.0890    -5.7540    -0.6130 H     1 <1>   0.0800 
 41 H       -8.3810    -4.7510    -1.2300 H     1 <1>   0.0800 
 42 H       -7.2230    -5.3760     2.2780 H     1 <1>   0.0800 
 43 H       -6.5450    -3.7720     2.4380 H     1 <1>   0.0800 
 44 H       -5.7790    -4.9380     1.3780 H     1 <1>   0.0800 
@<TRIPOS>BOND
  1   1   2  1   
  2   1   3  1   
  3   2   4  1   
  4   2  21  1   
  5   2  22  1   
  6   3   5  1   
  7   3  23  1   
  8   3  24  1   
  9   4   6  1   
 10   4   7  1   
 11   4  25  1   
 12   5   8  1   
 13   5   9  1   
 14   5  26  1   
 15   6   9  1   
 16   6  10  1   
 17   6  27  1   
 18   7  11  1   
 19   7  28  1   
 20   7  29  1   
 21   8  11  1   
 22   8  30  1   
 23   8  31  1   
 24   9  32  1   
 25   9  33  1   
 26  10  34  1   
 27  10  35  1   
 28  10  36  1   
 29  11  12  1   
 30  12  13  ar  
 31  12  14  ar  
 32  13  15  ar  
 33  14  16  ar  
 34  14  37  1   
 35  15  17  1   
 36  15  18  ar  
 37  16  18  ar  
 38  17  19  1   
 39  17  20  1   
 40  18  38  1   
 41  19  39  1   
 42  19  40  1   
 43  19  41  1   
 44  20  42  1   
 45  20  43  1   
 46  20  44  1   
@<TRIPOS>SUBSTRUCTURE
  1 ****  11 GROUP 4 **** **** 0

# MOE 2024.06 (io_trps.svl 2023.06)
