@<TRIPOS>MOLECULE
NONAME
49 51 1 0 0 
SMALL
USER_CHARGES


@<TRIPOS>ATOM
  1 O       -0.6750    -1.6440    -2.1090 O.co2 1 <1>  -0.9000 
  2 C       -1.8780    -1.4870    -1.9110 C.2   1 <1>   0.9060 
  3 O       -2.6690    -1.0410    -2.7540 O.co2 1 <1>  -0.9000 
  4 C       -2.4560    -1.7920    -0.5240 C.3   1 <1>   0.2370 
  5 N       -3.8010    -1.1260    -0.2910 N.4   1 <1>  -0.9590 
  6 C       -4.6090    -1.7350     0.8040 C.3   1 <1>   0.3430 
  7 C       -3.6380     0.3550    -0.2340 C.3   1 <1>   0.3430 
  8 C       -6.1060    -1.3400     0.7580 C.3   1 <1>   0.2200 
  9 C       -4.9630     1.1270    -0.3560 C.3   1 <1>  -0.0800 
 10 N       -6.5490    -0.9010    -0.6190 N.am  1 <1>  -0.6600 
 11 C       -6.4510    -0.3020     1.8370 C.3   1 <1>   0.1200 
 12 C       -5.4580     1.6570     0.9960 C.3   1 <1>   0.1200 
 13 C       -6.0610     0.4120    -1.1640 C.3   1 <1>   0.1400 
 14 C       -7.4170    -1.6170    -1.4110 C.2   1 <1>   0.5690 
 15 O       -5.4480     0.6580     1.9610 O.3   1 <1>  -0.5600 
 16 O       -7.8950    -1.1380    -2.4080 O.2   1 <1>  -0.5700 
 17 C       -7.8220    -3.0420    -1.0820 C.3   1 <1>  -0.0990 
 18 C       -9.0940    -3.0810    -0.2280 C.3   1 <1>  -0.0170 
 19 C       -9.3360    -4.4900     0.2850 C.ar  1 <1>  -0.1440 
 20 C       -9.8160    -5.4680    -0.5720 C.ar  1 <1>  -0.1500 
 21 C       -9.0730    -4.8140     1.6090 C.ar  1 <1>  -0.1500 
 22 C      -10.0230    -6.7560    -0.1050 C.ar  1 <1>   0.0820 
 23 C       -9.2810    -6.1040     2.0720 C.ar  1 <1>  -0.1500 
 24 O      -10.4860    -7.7080    -0.9290 O.3   1 <1>  -0.5330 
 25 C       -9.7560    -7.0780     1.2130 C.ar  1 <1>  -0.1500 
 26 H       -1.7420    -1.4700     0.2110 H     1 <1>   0.0800 
 27 H       -2.5570    -2.8590    -0.4590 H     1 <1>   0.0800 
 28 H       -4.2930    -1.2760    -1.1960 H     1 <1>   0.4500 
 29 H       -4.5480    -2.8060     0.7210 H     1 <1>   0.0800 
 30 H       -4.1960    -1.4590     1.7600 H     1 <1>   0.0800 
 31 H       -3.1380     0.6350     0.6790 H     1 <1>   0.0800 
 32 H       -3.0090     0.6550    -1.0580 H     1 <1>   0.0800 
 33 H       -6.6620    -2.2130     1.0410 H     1 <1>   0.0800 
 34 H       -4.7260     2.0100    -0.9230 H     1 <1>   0.0800 
 35 H       -6.5140    -0.7940     2.7920 H     1 <1>   0.0800 
 36 H       -7.3970     0.1740     1.6420 H     1 <1>   0.0800 
 37 H       -6.4490     2.0760     0.9230 H     1 <1>   0.0800 
 38 H       -4.7950     2.4300     1.3450 H     1 <1>   0.0800 
 39 H       -5.6890     0.2430    -2.1630 H     1 <1>   0.0800 
 40 H       -6.9080     1.0710    -1.2600 H     1 <1>   0.0800 
 41 H       -8.0080    -3.5580    -2.0070 H     1 <1>   0.0800 
 42 H       -7.0170    -3.5600    -0.5970 H     1 <1>   0.0800 
 43 H       -9.9350    -2.7590    -0.8190 H     1 <1>   0.0800 
 44 H       -9.0080    -2.4020     0.6020 H     1 <1>   0.0800 
 45 H      -10.0280    -5.2280    -1.5980 H     1 <1>   0.1500 
 46 H       -8.7100    -4.0680     2.2930 H     1 <1>   0.1500 
 47 H       -9.0780    -6.3500     3.1000 H     1 <1>   0.1500 
 48 H      -10.6770    -7.3810    -1.8250 H     1 <1>   0.4500 
 49 H       -9.9230    -8.0830     1.5560 H     1 <1>   0.1500 
@<TRIPOS>BOND
  1   1   2  ar  
  2   2   3  ar  
  3   2   4  1   
  4   4   5  1   
  5   4  26  1   
  6   4  27  1   
  7   5   6  1   
  8   5   7  1   
  9   5  28  1   
 10   6   8  1   
 11   6  29  1   
 12   6  30  1   
 13   7   9  1   
 14   7  31  1   
 15   7  32  1   
 16   8  10  1   
 17   8  11  1   
 18   8  33  1   
 19   9  12  1   
 20   9  13  1   
 21   9  34  1   
 22  10  13  1   
 23  10  14  am  
 24  11  15  1   
 25  11  35  1   
 26  11  36  1   
 27  12  15  1   
 28  12  37  1   
 29  12  38  1   
 30  13  39  1   
 31  13  40  1   
 32  14  16  2   
 33  14  17  1   
 34  17  18  1   
 35  17  41  1   
 36  17  42  1   
 37  18  19  1   
 38  18  43  1   
 39  18  44  1   
 40  19  20  ar  
 41  19  21  ar  
 42  20  22  ar  
 43  20  45  1   
 44  21  23  ar  
 45  21  46  1   
 46  22  24  1   
 47  22  25  ar  
 48  23  25  ar  
 49  23  47  1   
 50  24  48  1   
 51  25  49  1   
@<TRIPOS>SUBSTRUCTURE
  1 ****   8 GROUP 4 **** **** 0

# MOE 2024.06 (io_trps.svl 2023.06)
