@<TRIPOS>MOLECULE
NONAME
52 56 1 0 0 
SMALL
USER_CHARGES


@<TRIPOS>ATOM
  1 S       -1.0690    -0.9530     0.5030 S.o2  1 <1>   1.3330 
  2 O       -2.1730    -1.8700     0.6760 O.2   1 <1>  -0.6500 
  3 O       -0.3980    -0.4120     1.6620 O.2   1 <1>  -0.6500 
  4 N       -1.6060     0.3430    -0.4490 N.am  1 <1>  -0.8490 
  5 C        0.1610    -1.7070    -0.5390 C.3   1 <1>  -0.1350 
  6 C       -2.6300    -0.0500    -1.4430 C.3   1 <1>   0.1960 
  7 C       -2.2560     1.3900     0.3490 C.3   1 <1>   0.1960 
  8 C       -3.9900     0.3570    -0.8630 C.3   1 <1>   0.2800 
  9 C       -3.7100     0.9390     0.5120 C.3   1 <1>  -0.0800 
 10 O       -4.5270     1.4540    -1.5070 O.3   1 <1>  -0.5600 
 11 C       -5.1830    -0.5980    -0.8460 C.3   1 <1>  -0.1600 
 12 C       -4.8490     1.9700     0.6560 C.3   1 <1>  -0.0800 
 13 C       -5.5850     1.7460    -0.6760 C.3   1 <1>   0.2000 
 14 C       -6.3350     0.4050    -0.6820 C.3   1 <1>  -0.1600 
 15 C       -4.3880     3.4250     0.8140 C.3   1 <1>   0.1400 
 16 N       -5.5460     4.2800     1.1770 N.am  1 <1>  -0.7300 
 17 C       -6.1310     5.2130     0.3680 C.2   1 <1>   0.7160 
 18 O       -5.7040     5.3650    -0.7570 O.2   1 <1>  -0.5700 
 19 C       -7.2360     5.9820     0.8570 C.2   1 <1>  -0.0860 
 20 C       -7.6500     7.2550     0.6010 C.2   1 <1>   0.0870 
 21 C       -8.1970     5.5160     1.7550 C.2   1 <1>   0.1390 
 22 O       -8.7370     7.4430     1.3100 O.3   1 <1>  -0.0190 
 23 C       -7.1420     8.3270    -0.2230 C.ar  1 <1>   0.0530 
 24 N       -9.0780     6.4070     2.0130 N.2   1 <1>  -0.4100 
 25 C       -5.7830     8.4690    -0.5070 C.ar  1 <1>  -0.1500 
 26 C       -8.0090     9.2810    -0.7600 C.ar  1 <1>  -0.1500 
 27 C       -5.3130     9.5060    -1.2910 C.ar  1 <1>  -0.1500 
 28 C       -7.5450    10.3220    -1.5430 C.ar  1 <1>  -0.1500 
 29 C       -6.1940    10.4370    -1.8120 C.ar  1 <1>  -0.1500 
 30 H       -0.2810    -2.0450    -1.4540 H     1 <1>   0.0800 
 31 H        0.6020    -2.5450    -0.0370 H     1 <1>   0.0800 
 32 H        0.9310    -0.9970    -0.7670 H     1 <1>   0.0800 
 33 H       -2.4650     0.4840    -2.3630 H     1 <1>   0.0800 
 34 H       -2.6000    -1.1070    -1.6460 H     1 <1>   0.0800 
 35 H       -1.7700     1.5490     1.2970 H     1 <1>   0.0800 
 36 H       -2.2110     2.3050    -0.2160 H     1 <1>   0.0800 
 37 H       -3.7700     0.1820     1.2740 H     1 <1>   0.0800 
 38 H       -5.2550    -1.1220    -1.7820 H     1 <1>   0.0800 
 39 H       -5.1180    -1.3050    -0.0370 H     1 <1>   0.0800 
 40 H       -5.4780     1.7050     1.4860 H     1 <1>   0.0800 
 41 H       -6.1510     2.5870    -1.0420 H     1 <1>   0.0800 
 42 H       -6.8940     0.2520     0.2240 H     1 <1>   0.0800 
 43 H       -7.0020     0.3630    -1.5250 H     1 <1>   0.0800 
 44 H       -3.9410     3.7720    -0.1040 H     1 <1>   0.0800 
 45 H       -3.6520     3.4960     1.5960 H     1 <1>   0.0800 
 46 H       -5.8290     4.2390     2.1560 H     1 <1>   0.3700 
 47 H       -8.2120     4.5270     2.1800 H     1 <1>   0.1500 
 48 H       -5.0790     7.7620    -0.1110 H     1 <1>   0.1500 
 49 H       -9.0630     9.2050    -0.5620 H     1 <1>   0.1500 
 50 H       -4.2600     9.5890    -1.4980 H     1 <1>   0.1500 
 51 H       -8.2360    11.0430    -1.9450 H     1 <1>   0.1500 
 52 H       -5.8290    11.2450    -2.4230 H     1 <1>   0.1500 
@<TRIPOS>BOND
  1   1   2  2   
  2   1   3  2   
  3   1   4  am  
  4   1   5  1   
  5   4   6  1   
  6   4   7  1   
  7   5  30  1   
  8   5  31  1   
  9   5  32  1   
 10   6   8  1   
 11   6  33  1   
 12   6  34  1   
 13   7   9  1   
 14   7  35  1   
 15   7  36  1   
 16   8   9  1   
 17   8  10  1   
 18   8  11  1   
 19   9  12  1   
 20   9  37  1   
 21  10  13  1   
 22  11  14  1   
 23  11  38  1   
 24  11  39  1   
 25  12  13  1   
 26  12  15  1   
 27  12  40  1   
 28  13  14  1   
 29  13  41  1   
 30  14  42  1   
 31  14  43  1   
 32  15  16  1   
 33  15  44  1   
 34  15  45  1   
 35  16  17  am  
 36  16  46  1   
 37  17  18  2   
 38  17  19  1   
 39  19  20  2   
 40  19  21  1   
 41  20  22  1   
 42  20  23  1   
 43  21  24  2   
 44  21  47  1   
 45  22  24  1   
 46  23  25  ar  
 47  23  26  ar  
 48  25  27  ar  
 49  25  48  1   
 50  26  28  ar  
 51  26  49  1   
 52  27  29  ar  
 53  27  50  1   
 54  28  29  ar  
 55  28  51  1   
 56  29  52  1   
@<TRIPOS>SUBSTRUCTURE
  1 ****  15 GROUP 4 **** **** 0

# MOE 2024.06 (io_trps.svl 2023.06)
