@<TRIPOS>MOLECULE
NONAME
45 48 1 0 0 
SMALL
USER_CHARGES


@<TRIPOS>ATOM
  1 S       -0.8710    -1.9510     0.0620 S.3   1 <1>  -0.0800 
  2 C        0.4840    -0.9650    -0.4680 C.2   1 <1>   0.1980 
  3 C       -1.9600    -0.8010    -0.6570 C.2   1 <1>  -0.1100 
  4 N        0.1390     0.0960    -1.0880 N.2   1 <1>  -0.5650 
  5 C        1.9010    -1.4350    -0.1230 C.3   1 <1>   0.4000 
  6 C       -1.2390     0.1880    -1.2040 C.2   1 <1>   0.0770 
  7 N        2.0560    -2.9160    -0.0710 N.am  1 <1>  -0.6600 
  8 C        2.3200    -0.9540     1.2710 C.3   1 <1>  -0.1600 
  9 C        1.9620    -3.6780    -1.2000 C.2   1 <1>   0.5690 
 10 C        2.4900    -3.3560     1.2710 C.3   1 <1>   0.1400 
 11 C        3.1040    -2.1090     1.8900 C.3   1 <1>  -0.1600 
 12 O        1.8260    -3.1820    -2.2900 O.2   1 <1>  -0.5700 
 13 C        2.0110    -5.1950    -1.1220 C.3   1 <1>  -0.0990 
 14 C        0.6980    -5.7840    -0.5790 C.3   1 <1>  -0.1600 
 15 C        0.7270    -7.3190    -0.5570 C.3   1 <1>   0.0200 
 16 C       -0.5630    -7.8970    -0.0040 C.2   1 <1>   0.2980 
 17 O       -0.8560    -7.6930     1.2540 O.3   1 <1>  -0.0190 
 18 N       -1.4080    -8.5810    -0.6560 N.2   1 <1>  -0.5650 
 19 N       -1.9890    -8.3000     1.4160 N.2   1 <1>  -0.4100 
 20 C       -2.3200    -8.8250     0.2890 C.2   1 <1>   0.4620 
 21 C       -3.5240    -9.5920     0.0360 C.ar  1 <1>   0.0540 
 22 C       -3.8150   -10.0920    -1.2350 C.ar  1 <1>   0.1600 
 23 C       -4.4450    -9.8670     1.0400 C.ar  1 <1>  -0.1500 
 24 N       -4.8840   -10.8000    -1.5670 N.ar  1 <1>  -0.6200 
 25 C       -5.5640   -10.6020     0.7170 C.ar  1 <1>  -0.1500 
 26 C       -5.7350   -11.0400    -0.5840 C.ar  1 <1>   0.1600 
 27 H       -3.0150    -0.9910    -0.5940 H     1 <1>   0.1500 
 28 H        2.5840    -1.0460    -0.8600 H     1 <1>   0.0800 
 29 H       -1.6400     1.0420    -1.7230 H     1 <1>   0.1500 
 30 H        1.4410    -0.7580     1.8610 H     1 <1>   0.0800 
 31 H        2.8980    -0.0490     1.2120 H     1 <1>   0.0800 
 32 H        3.2070    -4.1560     1.2210 H     1 <1>   0.0800 
 33 H        1.6270    -3.6680     1.8360 H     1 <1>   0.0800 
 34 H        3.0390    -2.1200     2.9640 H     1 <1>   0.0800 
 35 H        4.1390    -2.0460     1.6010 H     1 <1>   0.0800 
 36 H        2.8440    -5.5000    -0.5170 H     1 <1>   0.0800 
 37 H        2.1830    -5.5710    -2.1150 H     1 <1>   0.0800 
 38 H       -0.1180    -5.4550    -1.2010 H     1 <1>   0.0800 
 39 H        0.5190    -5.4120     0.4160 H     1 <1>   0.0800 
 40 H        1.5440    -7.6650     0.0490 H     1 <1>   0.0800 
 41 H        0.8700    -7.6910    -1.5560 H     1 <1>   0.0800 
 42 H       -3.1160    -9.8900    -2.0280 H     1 <1>   0.1500 
 43 H       -4.2870    -9.5140     2.0450 H     1 <1>   0.1500 
 44 H       -6.3000   -10.8370     1.4650 H     1 <1>   0.1500 
 45 H       -6.6120   -11.6150    -0.8280 H     1 <1>   0.1500 
@<TRIPOS>BOND
  1   1   2  1   
  2   1   3  1   
  3   2   4  2   
  4   2   5  1   
  5   3   6  2   
  6   3  27  1   
  7   4   6  1   
  8   5   7  1   
  9   5   8  1   
 10   5  28  1   
 11   6  29  1   
 12   7   9  am  
 13   7  10  1   
 14   8  11  1   
 15   8  30  1   
 16   8  31  1   
 17   9  12  2   
 18   9  13  1   
 19  10  11  1   
 20  10  32  1   
 21  10  33  1   
 22  11  34  1   
 23  11  35  1   
 24  13  14  1   
 25  13  36  1   
 26  13  37  1   
 27  14  15  1   
 28  14  38  1   
 29  14  39  1   
 30  15  16  1   
 31  15  40  1   
 32  15  41  1   
 33  16  17  1   
 34  16  18  2   
 35  17  19  1   
 36  18  20  1   
 37  19  20  2   
 38  20  21  1   
 39  21  22  ar  
 40  21  23  ar  
 41  22  24  ar  
 42  22  42  1   
 43  23  25  ar  
 44  23  43  1   
 45  24  26  ar  
 46  25  26  ar  
 47  25  44  1   
 48  26  45  1   
@<TRIPOS>SUBSTRUCTURE
  1 ****  14 GROUP 4 **** **** 0

# MOE 2024.06 (io_trps.svl 2023.06)
