@<TRIPOS>MOLECULE
NONAME
46 48 1 0 0 
SMALL
USER_CHARGES


@<TRIPOS>ATOM
  1 O        3.5210    -0.9610     1.9820 O.2   1 <1>  -0.5700 
  2 C        2.6610    -1.2910     1.2020 C.2   1 <1>   0.5690 
  3 N        2.0010    -0.4120     0.3890 N.am  1 <1>  -0.4940 
  4 C        2.2870    -2.7640     1.1240 C.3   1 <1>   0.1810 
  5 C        2.0490     1.0000     0.3020 C.2   1 <1>  -0.0880 
  6 O        1.2590    -2.9810     0.1660 O.3   1 <1>  -0.3630 
  7 N        3.1560     1.8050     0.2750 N.pl3 1 <1>   0.3140 
  8 C        0.9730     1.8160     0.2020 C.2   1 <1>  -0.1810 
  9 C        0.7860    -4.2280    -0.0820 C.ar  1 <1>   0.0830 
 10 N        2.7890     3.1120     0.1690 N.2   1 <1>  -0.7070 
 11 C        4.5950     1.3830     0.2870 C.3   1 <1>   0.1760 
 12 C        1.4960     3.0990     0.1280 C.2   1 <1>   0.1390 
 13 C       -0.5030     1.4650     0.1820 C.3   1 <1>  -0.0590 
 14 C       -0.1770    -4.3430    -1.0730 C.ar  1 <1>  -0.1500 
 15 C        1.2130    -5.3670     0.5950 C.ar  1 <1>  -0.1500 
 16 C        5.5990     2.5310     0.1200 C.3   1 <1>  -0.1600 
 17 C        4.9470     0.4050    -0.8480 C.3   1 <1>  -0.1600 
 18 C       -0.7160    -5.5770    -1.3960 C.ar  1 <1>  -0.1430 
 19 C        0.6740    -6.6000     0.2750 C.ar  1 <1>  -0.1500 
 20 C        6.8700     1.8460    -0.3710 C.3   1 <1>  -0.1600 
 21 C        6.3720     0.7460    -1.3070 C.3   1 <1>  -0.1600 
 22 C       -0.2870    -6.7050    -0.7160 C.ar  1 <1>  -0.1500 
 23 C       -1.7710    -5.6970    -2.4810 C.3   1 <1>  -0.0970 
 24 H        1.2540    -0.8550    -0.1540 H     1 <1>   0.3700 
 25 H        1.9330    -3.0900     2.0850 H     1 <1>   0.0800 
 26 H        3.1500    -3.3350     0.8340 H     1 <1>   0.0800 
 27 H        4.7980     0.9170     1.2310 H     1 <1>   0.0800 
 28 H        0.9030     3.9950     0.0460 H     1 <1>   0.1500 
 29 H       -0.6500     0.4200     0.3820 H     1 <1>   0.0800 
 30 H       -0.9210     1.6990    -0.7800 H     1 <1>   0.0800 
 31 H       -1.0220     2.0320     0.9340 H     1 <1>   0.0800 
 32 H       -0.5010    -3.4580    -1.5890 H     1 <1>   0.1500 
 33 H        1.9550    -5.3200     1.3680 H     1 <1>   0.1500 
 34 H        5.7540     3.0610     1.0430 H     1 <1>   0.0800 
 35 H        5.2610     3.2160    -0.6390 H     1 <1>   0.0800 
 36 H        4.2660     0.5250    -1.6730 H     1 <1>   0.0800 
 37 H        4.9000    -0.6070    -0.4900 H     1 <1>   0.0800 
 38 H        1.0010    -7.4830     0.7960 H     1 <1>   0.1500 
 39 H        7.3840     1.4030     0.4660 H     1 <1>   0.0800 
 40 H        7.5320     2.5340    -0.8690 H     1 <1>   0.0800 
 41 H        6.3410     1.1210    -2.3160 H     1 <1>   0.0800 
 42 H        7.0180    -0.1140    -1.2750 H     1 <1>   0.0800 
 43 H       -0.7000    -7.6700    -0.9560 H     1 <1>   0.1500 
 44 H       -1.6980    -4.8780    -3.1740 H     1 <1>   0.0800 
 45 H       -2.7510    -5.6900    -2.0380 H     1 <1>   0.0800 
 46 H       -1.6430    -6.6150    -3.0270 H     1 <1>   0.0800 
@<TRIPOS>BOND
  1   1   2  2   
  2   2   3  am  
  3   2   4  1   
  4   3   5  1   
  5   3  24  1   
  6   4   6  1   
  7   4  25  1   
  8   4  26  1   
  9   5   7  1   
 10   5   8  2   
 11   6   9  1   
 12   7  10  1   
 13   7  11  1   
 14   8  12  1   
 15   8  13  1   
 16   9  14  ar  
 17   9  15  ar  
 18  10  12  2   
 19  11  16  1   
 20  11  17  1   
 21  11  27  1   
 22  12  28  1   
 23  13  29  1   
 24  13  30  1   
 25  13  31  1   
 26  14  18  ar  
 27  14  32  1   
 28  15  19  ar  
 29  15  33  1   
 30  16  20  1   
 31  16  34  1   
 32  16  35  1   
 33  17  21  1   
 34  17  36  1   
 35  17  37  1   
 36  18  22  ar  
 37  18  23  1   
 38  19  22  ar  
 39  19  38  1   
 40  20  21  1   
 41  20  39  1   
 42  20  40  1   
 43  21  41  1   
 44  21  42  1   
 45  22  43  1   
 46  23  44  1   
 47  23  45  1   
 48  23  46  1   
@<TRIPOS>SUBSTRUCTURE
  1 ****   3 GROUP 4 **** **** 0

# MOE 2024.06 (io_trps.svl 2023.06)
