@<TRIPOS>MOLECULE
NONAME
36 38 1 0 0 
SMALL
USER_CHARGES


@<TRIPOS>ATOM
  1 O        0.8730     0.0770    -1.3030 O.2   1 <1>  -0.5700 
  2 C        1.7460    -0.5610    -0.7380 C.2   1 <1>   0.7160 
  3 N        3.0620    -0.2960    -1.0830 N.am  1 <1>  -0.6600 
  4 C        1.3450    -1.5520     0.2500 C.2   1 <1>   0.1410 
  5 C        3.4680     1.0050    -1.6900 C.3   1 <1>   0.1400 
  6 C        4.2060    -1.2160    -0.8460 C.3   1 <1>   0.1400 
  7 N        2.1070    -1.9750     1.2880 N.2   1 <1>  -0.2270 
  8 C        0.1570    -2.1970     0.3400 C.2   1 <1>  -0.3020 
  9 C        4.4440     1.7240    -0.7440 C.3   1 <1>  -0.0190 
 10 C        5.1910    -0.5490     0.1190 C.3   1 <1>  -0.1600 
 11 N        1.4440    -2.8360     1.9740 N.2   1 <1>  -0.4180 
 12 N        0.2460    -2.9790     1.4080 N.pl3 1 <1>   0.3000 
 13 C        4.9090     3.0560    -1.3430 C.2   1 <1>   0.4230 
 14 C        5.6490     0.8220    -0.4060 C.3   1 <1>  -0.1600 
 15 O        5.0960     3.0900    -2.5370 O.2   1 <1>  -0.5700 
 16 C        5.1210     4.2080    -0.4770 C.ar  1 <1>   0.3960 
 17 N        5.0480     4.0650     0.8580 N.ar  1 <1>  -0.6200 
 18 C        5.4060     5.4510    -1.0490 C.ar  1 <1>  -0.1500 
 19 C        5.2490     5.1400     1.5960 C.ar  1 <1>   0.1600 
 20 C        5.6160     6.5670    -0.2700 C.ar  1 <1>  -0.1500 
 21 C        5.5320     6.3970     1.0930 C.ar  1 <1>  -0.1500 
 22 H        2.6100     1.6320    -1.8640 H     1 <1>   0.0800 
 23 H        3.9390     0.8170    -2.6400 H     1 <1>   0.0800 
 24 H        4.6960    -1.4080    -1.7850 H     1 <1>   0.0800 
 25 H        3.8760    -2.1620    -0.4550 H     1 <1>   0.0800 
 26 H       -0.7080    -2.1180    -0.2920 H     1 <1>   0.1500 
 27 H        3.8970     1.9210     0.1610 H     1 <1>   0.0800 
 28 H        6.0450    -1.1890     0.2530 H     1 <1>   0.0800 
 29 H        4.7150    -0.4350     1.0780 H     1 <1>   0.0800 
 30 H       -0.4690    -3.6110     1.7850 H     1 <1>   0.2700 
 31 H        6.2650     1.3030     0.3360 H     1 <1>   0.0800 
 32 H        6.2450     0.6820    -1.2920 H     1 <1>   0.0800 
 33 H        5.4620     5.5340    -2.1210 H     1 <1>   0.1500 
 34 H        5.1860     5.0170     2.6650 H     1 <1>   0.1500 
 35 H        5.8350     7.5270    -0.7070 H     1 <1>   0.1500 
 36 H        5.6850     7.2260     1.7600 H     1 <1>   0.1500 
@<TRIPOS>BOND
  1   1   2  2   
  2   2   3  am  
  3   2   4  1   
  4   3   5  1   
  5   3   6  1   
  6   4   7  1   
  7   4   8  2   
  8   5   9  1   
  9   5  22  1   
 10   5  23  1   
 11   6  10  1   
 12   6  24  1   
 13   6  25  1   
 14   7  11  2   
 15   8  12  1   
 16   8  26  1   
 17   9  13  1   
 18   9  14  1   
 19   9  27  1   
 20  10  14  1   
 21  10  28  1   
 22  10  29  1   
 23  11  12  1   
 24  12  30  1   
 25  13  15  2   
 26  13  16  1   
 27  14  31  1   
 28  14  32  1   
 29  16  17  ar  
 30  16  18  ar  
 31  17  19  ar  
 32  18  20  ar  
 33  18  33  1   
 34  19  21  ar  
 35  19  34  1   
 36  20  21  ar  
 37  20  35  1   
 38  21  36  1   
@<TRIPOS>SUBSTRUCTURE
  1 ****   9 GROUP 4 **** **** 0

# MOE 2024.06 (io_trps.svl 2023.06)
