@<TRIPOS>MOLECULE
NONAME
44 46 1 0 0 
SMALL
USER_CHARGES


@<TRIPOS>ATOM
  1 S        1.3490    -2.7210     1.9210 S.3   1 <1>  -0.0800 
  2 C        1.1180    -2.3180     0.2330 C.2   1 <1>   0.4340 
  3 C        2.9870    -2.1440     1.7800 C.2   1 <1>  -0.1100 
  4 S       -0.4850    -2.6310    -0.4980 S.3   1 <1>  -0.2860 
  5 N        2.1280    -1.8120    -0.3550 N.2   1 <1>  -0.5650 
  6 C        3.1930    -1.7150     0.5230 C.2   1 <1>   0.0460 
  7 C       -1.4780    -3.5300     0.7900 C.3   1 <1>   0.1310 
  8 C        4.4760    -1.1360    -0.0300 C.3   1 <1>  -0.0590 
  9 C       -2.6420    -4.2600     0.1310 C.2   1 <1>   0.5690 
 10 O       -3.6360    -3.6040    -0.0820 O.2   1 <1>  -0.5700 
 11 N       -2.6050    -5.5990    -0.1890 N.am  1 <1>  -0.6600 
 12 C       -1.5110    -6.5420     0.2570 C.3   1 <1>   0.3640 
 13 C       -3.7960    -6.1820    -0.8800 C.3   1 <1>   0.1400 
 14 C       -0.1820    -6.1390    -0.3870 C.ar  1 <1>  -0.1440 
 15 C       -1.7500    -8.0640    -0.0110 C.3   1 <1>   0.2000 
 16 C       -3.5420    -7.5820    -1.4360 C.3   1 <1>   0.1200 
 17 C        0.9700    -6.0690     0.3870 C.ar  1 <1>  -0.1500 
 18 C       -0.1010    -5.8360    -1.7400 C.ar  1 <1>  -0.1500 
 19 O       -3.0540    -8.3840    -0.4140 O.3   1 <1>  -0.5600 
 20 C       -1.4640    -8.9260     1.2280 C.3   1 <1>   0.1200 
 21 C        2.1760    -5.6930    -0.1780 C.ar  1 <1>  -0.1500 
 22 C        1.1050    -5.4600    -2.3050 C.ar  1 <1>  -0.1500 
 23 O       -0.1690    -8.7250     1.6960 O.3   1 <1>  -0.6800 
 24 C        2.2440    -5.3860    -1.5240 C.ar  1 <1>  -0.1500 
 25 H        3.6150    -2.1860     2.6510 H     1 <1>   0.1500 
 26 H       -0.8300    -4.2050     1.3070 H     1 <1>   0.0800 
 27 H       -1.8460    -2.7870     1.4720 H     1 <1>   0.0800 
 28 H        5.2350    -1.1040     0.7300 H     1 <1>   0.0800 
 29 H        4.2960    -0.1390    -0.3880 H     1 <1>   0.0800 
 30 H        4.8210    -1.7410    -0.8480 H     1 <1>   0.0800 
 31 H       -1.4120    -6.4200     1.3210 H     1 <1>   0.0800 
 32 H       -4.6140    -6.2280    -0.1820 H     1 <1>   0.0800 
 33 H       -4.0930    -5.5330    -1.6860 H     1 <1>   0.0800 
 34 H       -1.1000    -8.3900    -0.8040 H     1 <1>   0.0800 
 35 H       -2.8350    -7.5610    -2.2480 H     1 <1>   0.0800 
 36 H       -4.4630    -8.0140    -1.7850 H     1 <1>   0.0800 
 37 H        0.9370    -6.3020     1.4370 H     1 <1>   0.1500 
 38 H       -0.9790    -5.8750    -2.3590 H     1 <1>   0.1500 
 39 H       -1.5790    -9.9710     0.9940 H     1 <1>   0.0800 
 40 H       -2.1420    -8.6630     2.0220 H     1 <1>   0.0800 
 41 H        3.0620    -5.6330     0.4300 H     1 <1>   0.1500 
 42 H        1.1560    -5.2150    -3.3520 H     1 <1>   0.1500 
 43 H        0.4890    -9.0860     1.0660 H     1 <1>   0.4000 
 44 H        3.1780    -5.0830    -1.9620 H     1 <1>   0.1500 
@<TRIPOS>BOND
  1   1   2  1   
  2   1   3  1   
  3   2   4  1   
  4   2   5  2   
  5   3   6  2   
  6   3  25  1   
  7   4   7  1   
  8   5   6  1   
  9   6   8  1   
 10   7   9  1   
 11   7  26  1   
 12   7  27  1   
 13   8  28  1   
 14   8  29  1   
 15   8  30  1   
 16   9  10  2   
 17   9  11  am  
 18  11  12  1   
 19  11  13  1   
 20  12  14  1   
 21  12  15  1   
 22  12  31  1   
 23  13  16  1   
 24  13  32  1   
 25  13  33  1   
 26  14  17  ar  
 27  14  18  ar  
 28  15  19  1   
 29  15  20  1   
 30  15  34  1   
 31  16  19  1   
 32  16  35  1   
 33  16  36  1   
 34  17  21  ar  
 35  17  37  1   
 36  18  22  ar  
 37  18  38  1   
 38  20  23  1   
 39  20  39  1   
 40  20  40  1   
 41  21  24  ar  
 42  21  41  1   
 43  22  24  ar  
 44  22  42  1   
 45  23  43  1   
 46  24  44  1   
@<TRIPOS>SUBSTRUCTURE
  1 ****  14 GROUP 4 **** **** 0

# MOE 2024.06 (io_trps.svl 2023.06)
