@<TRIPOS>MOLECULE
NONAME
46 48 1 0 0 
SMALL
USER_CHARGES


@<TRIPOS>ATOM
  1 O       -0.3250    -1.9830    -2.5630 O.co2 1 <1>  -0.9000 
  2 C       -0.8760    -1.3520    -1.6530 C.2   1 <1>   0.9060 
  3 O       -0.2950    -0.4740    -1.0060 O.co2 1 <1>  -0.9000 
  4 C       -2.3380    -1.6250    -1.3600 C.3   1 <1>  -0.1220 
  5 C       -2.5850    -2.8870    -0.5350 C.ar  1 <1>  -0.1440 
  6 C       -3.1240    -2.8110     0.7380 C.ar  1 <1>  -0.1500 
  7 C       -2.2640    -4.1250    -1.0630 C.ar  1 <1>  -0.1500 
  8 C       -3.3450    -3.9620     1.4740 C.ar  1 <1>  -0.1500 
  9 C       -2.4840    -5.2790    -0.3330 C.ar  1 <1>  -0.1500 
 10 C       -3.0290    -5.2030     0.9410 C.ar  1 <1>  -0.1440 
 11 C       -3.2780    -6.4590     1.7490 C.3   1 <1>   0.4870 
 12 N       -4.3500    -7.2540     1.0920 N.4   1 <1>  -0.9590 
 13 C       -5.5940    -6.4780     0.7930 C.3   1 <1>   0.3430 
 14 C       -4.7590    -8.4950     1.8000 C.3   1 <1>   0.3430 
 15 C       -6.7620    -7.4690     0.9280 C.3   1 <1>   0.2000 
 16 C       -6.1480    -8.8400     1.2500 C.3   1 <1>  -0.0800 
 17 O       -7.5730    -7.0860     1.9890 O.3   1 <1>  -0.6800 
 18 C       -6.0870    -9.7840     0.0230 C.3   1 <1>   0.0200 
 19 C       -4.9800    -9.4220    -0.9510 C.2   1 <1>  -0.0400 
 20 O       -4.9990    -8.2650    -1.5520 O.3   1 <1>  -0.0190 
 21 C       -3.8700   -10.0690    -1.3380 C.2   1 <1>  -0.1500 
 22 N       -3.9360    -8.0760    -2.2680 N.2   1 <1>  -0.4100 
 23 C       -3.2460    -9.1560    -2.1830 C.2   1 <1>   0.1080 
 24 C       -1.9350    -9.3820    -2.9060 C.3   1 <1>  -0.0590 
 25 H       -2.7330    -0.7640    -0.8560 H     1 <1>   0.0800 
 26 H       -2.8410    -1.7130    -2.3020 H     1 <1>   0.0800 
 27 H       -3.3600    -1.8480     1.1550 H     1 <1>   0.1500 
 28 H       -1.8270    -4.1760    -2.0480 H     1 <1>   0.1500 
 29 H       -3.7590    -3.8660     2.4620 H     1 <1>   0.1500 
 30 H       -2.2170    -6.2210    -0.7790 H     1 <1>   0.1500 
 31 H       -3.5760    -6.1880     2.7480 H     1 <1>   0.0800 
 32 H       -2.3680    -7.0330     1.8040 H     1 <1>   0.0800 
 33 H       -3.9860    -7.5180     0.1570 H     1 <1>   0.4500 
 34 H       -5.7220    -5.6620     1.4850 H     1 <1>   0.0800 
 35 H       -5.5450    -6.0840    -0.2100 H     1 <1>   0.0800 
 36 H       -4.0550    -9.2950     1.6360 H     1 <1>   0.0800 
 37 H       -4.8350    -8.3000     2.8570 H     1 <1>   0.0800 
 38 H       -7.3740    -7.4790     0.0400 H     1 <1>   0.0800 
 39 H       -6.7280    -9.3420     2.0050 H     1 <1>   0.0800 
 40 H       -7.1270    -7.1270     2.8560 H     1 <1>   0.4000 
 41 H       -7.0320    -9.7860    -0.4920 H     1 <1>   0.0800 
 42 H       -5.9120   -10.7890     0.3660 H     1 <1>   0.0800 
 43 H       -3.5060   -11.0470    -1.0770 H     1 <1>   0.1500 
 44 H       -1.2610    -9.9490    -2.2920 H     1 <1>   0.0800 
 45 H       -1.4790    -8.4380    -3.1460 H     1 <1>   0.0800 
 46 H       -2.1160    -9.9190    -3.8200 H     1 <1>   0.0800 
@<TRIPOS>BOND
  1   1   2  ar  
  2   2   3  ar  
  3   2   4  1   
  4   4   5  1   
  5   4  25  1   
  6   4  26  1   
  7   5   6  ar  
  8   5   7  ar  
  9   6   8  ar  
 10   6  27  1   
 11   7   9  ar  
 12   7  28  1   
 13   8  10  ar  
 14   8  29  1   
 15   9  10  ar  
 16   9  30  1   
 17  10  11  1   
 18  11  12  1   
 19  11  31  1   
 20  11  32  1   
 21  12  13  1   
 22  12  14  1   
 23  12  33  1   
 24  13  15  1   
 25  13  34  1   
 26  13  35  1   
 27  14  16  1   
 28  14  36  1   
 29  14  37  1   
 30  15  16  1   
 31  15  17  1   
 32  15  38  1   
 33  16  18  1   
 34  16  39  1   
 35  17  40  1   
 36  18  19  1   
 37  18  41  1   
 38  18  42  1   
 39  19  20  1   
 40  19  21  2   
 41  20  22  1   
 42  21  23  1   
 43  21  43  1   
 44  22  23  2   
 45  23  24  1   
 46  24  44  1   
 47  24  45  1   
 48  24  46  1   
@<TRIPOS>SUBSTRUCTURE
  1 ****   9 GROUP 4 **** **** 0

# MOE 2024.06 (io_trps.svl 2023.06)
