@<TRIPOS>MOLECULE
NONAME
56 58 1 0 0 
SMALL
USER_CHARGES


@<TRIPOS>ATOM
  1 O       -0.7370    -0.5030     1.3660 O.2   1 <1>  -0.5700 
  2 C       -1.7650    -0.8960     0.8420 C.2   1 <1>   0.6900 
  3 N       -2.2680    -2.1420     0.9150 N.am  1 <1>  -0.5390 
  4 N       -2.5890    -0.1500     0.0780 N.am  1 <1>  -0.5390 
  5 C       -3.4500    -2.2080     0.1610 C.2   1 <1>   0.1230 
  6 C       -3.6190    -0.9620    -0.3510 C.2   1 <1>  -0.0410 
  7 C       -4.2230    -3.4260     0.0180 C.2   1 <1>   0.6160 
  8 O       -3.6760    -4.4990     0.2160 O.2   1 <1>  -0.5700 
  9 N       -5.5610    -3.4390    -0.3360 N.am  1 <1>  -0.6600 
 10 C       -6.1550    -4.6850    -0.9080 C.3   1 <1>   0.1400 
 11 C       -6.4830    -2.3020    -0.0450 C.3   1 <1>   0.1400 
 12 C       -6.6250    -5.6440     0.1980 C.3   1 <1>   0.1400 
 13 C       -7.8360    -2.7210     0.5490 C.3   1 <1>  -0.1600 
 14 N       -7.8880    -5.1730     0.8520 N.am  1 <1>  -0.6600 
 15 C       -7.7570    -3.8670     1.5630 C.3   1 <1>   0.1400 
 16 C       -9.0800    -5.8520     0.8720 C.2   1 <1>   0.5690 
 17 O      -10.0410    -5.4410     1.4780 O.2   1 <1>  -0.5700 
 18 C       -9.2460    -7.1750     0.1460 C.3   1 <1>  -0.0990 
 19 C      -10.7380    -7.5240    -0.0120 C.3   1 <1>   0.4230 
 20 N      -10.9250    -9.0000    -0.2220 N.4   1 <1>  -0.9590 
 21 C      -11.3260    -6.7230    -1.1830 C.3   1 <1>  -0.2400 
 22 C      -12.2990    -9.3690    -0.6970 C.3   1 <1>   0.3430 
 23 C      -10.6140    -9.7610     1.0330 C.3   1 <1>   0.3430 
 24 C      -12.3630   -10.8630    -1.0190 C.3   1 <1>  -0.1600 
 25 C      -10.6260   -11.2650     0.7540 C.3   1 <1>  -0.1600 
 26 C      -11.9740   -11.7220     0.1890 C.3   1 <1>  -0.1600 
 27 H       -1.7980    -2.9280     1.3650 H     1 <1>   0.3700 
 28 H       -2.3830     0.8280    -0.1290 H     1 <1>   0.3700 
 29 H       -4.3970    -0.6010    -1.0020 H     1 <1>   0.1500 
 30 H       -5.4000    -5.1840    -1.4930 H     1 <1>   0.0800 
 31 H       -6.9700    -4.4450    -1.5680 H     1 <1>   0.0800 
 32 H       -6.6510    -1.7430    -0.9500 H     1 <1>   0.0800 
 33 H       -6.0100    -1.6460     0.6660 H     1 <1>   0.0800 
 34 H       -5.8510    -5.7340     0.9410 H     1 <1>   0.0800 
 35 H       -6.7570    -6.6170    -0.2320 H     1 <1>   0.0800 
 36 H       -8.5260    -2.9740    -0.2360 H     1 <1>   0.0800 
 37 H       -8.2450    -1.8610     1.0470 H     1 <1>   0.0800 
 38 H       -8.5550    -3.7580     2.2780 H     1 <1>   0.0800 
 39 H       -6.8300    -3.8320     2.1090 H     1 <1>   0.0800 
 40 H       -8.7200    -7.9040     0.7270 H     1 <1>   0.0800 
 41 H       -8.7940    -7.1100    -0.8250 H     1 <1>   0.0800 
 42 H      -11.2580    -7.2390     0.8900 H     1 <1>   0.0800 
 43 H      -10.2680    -9.3050    -0.9480 H     1 <1>   0.4500 
 44 H      -10.9430    -7.0680    -2.1270 H     1 <1>   0.0800 
 45 H      -11.0690    -5.6840    -1.0790 H     1 <1>   0.0800 
 46 H      -12.4000    -6.7660    -1.1840 H     1 <1>   0.0800 
 47 H      -12.5490    -8.8170    -1.5890 H     1 <1>   0.0800 
 48 H      -13.0250    -9.1300     0.0640 H     1 <1>   0.0800 
 49 H      -11.3490    -9.5290     1.7880 H     1 <1>   0.0800 
 50 H       -9.6460    -9.4890     1.4170 H     1 <1>   0.0800 
 51 H      -11.7130   -11.0790    -1.8490 H     1 <1>   0.0800 
 52 H      -13.3650   -11.1130    -1.3240 H     1 <1>   0.0800 
 53 H      -10.4300   -11.7930     1.6710 H     1 <1>   0.0800 
 54 H       -9.8350   -11.5090     0.0670 H     1 <1>   0.0800 
 55 H      -11.9200   -12.7600    -0.1000 H     1 <1>   0.0800 
 56 H      -12.7320   -11.6340     0.9510 H     1 <1>   0.0800 
@<TRIPOS>BOND
  1   1   2  2   
  2   2   3  am  
  3   2   4  am  
  4   3   5  1   
  5   3  27  1   
  6   4   6  1   
  7   4  28  1   
  8   5   6  2   
  9   5   7  1   
 10   6  29  1   
 11   7   8  2   
 12   7   9  am  
 13   9  10  1   
 14   9  11  1   
 15  10  12  1   
 16  10  30  1   
 17  10  31  1   
 18  11  13  1   
 19  11  32  1   
 20  11  33  1   
 21  12  14  1   
 22  12  34  1   
 23  12  35  1   
 24  13  15  1   
 25  13  36  1   
 26  13  37  1   
 27  14  15  1   
 28  14  16  am  
 29  15  38  1   
 30  15  39  1   
 31  16  17  2   
 32  16  18  1   
 33  18  19  1   
 34  18  40  1   
 35  18  41  1   
 36  19  20  1   
 37  19  21  1   
 38  19  42  1   
 39  20  22  1   
 40  20  23  1   
 41  20  43  1   
 42  21  44  1   
 43  21  45  1   
 44  21  46  1   
 45  22  24  1   
 46  22  47  1   
 47  22  48  1   
 48  23  25  1   
 49  23  49  1   
 50  23  50  1   
 51  24  26  1   
 52  24  51  1   
 53  24  52  1   
 54  25  26  1   
 55  25  53  1   
 56  25  54  1   
 57  26  55  1   
 58  26  56  1   
@<TRIPOS>SUBSTRUCTURE
  1 ****  12 GROUP 4 **** **** 0

# MOE 2024.06 (io_trps.svl 2023.06)
