@<TRIPOS>MOLECULE
NONAME
51 54 1 0 0 
SMALL
USER_CHARGES


@<TRIPOS>ATOM
  1 O       -0.1480     0.1870    -0.2990 O.2   1 <1>  -0.5700 
  2 C       -0.0760     1.3970    -0.3910 C.2   1 <1>   0.5440 
  3 N       -1.2410     2.1360    -0.3860 N.am  1 <1>  -0.6600 
  4 C        1.2210     2.0110    -0.4890 C.ar  1 <1>   0.0860 
  5 C       -2.5550     1.4460    -0.5630 C.3   1 <1>   0.1400 
  6 C       -1.2830     3.5800     0.0070 C.3   1 <1>   0.1400 
  7 C        1.5120     3.0220    -1.3870 C.ar  1 <1>   0.1600 
  8 C        2.2760     1.6190     0.3110 C.ar  1 <1>   0.1600 
  9 C       -3.6190     2.4320    -1.0490 C.3   1 <1>  -0.1600 
 10 C       -2.5660     3.8700     0.7820 C.3   1 <1>  -0.1600 
 11 N        2.6850     3.6030    -1.4650 N.ar  1 <1>  -0.6200 
 12 N        3.4620     2.1760     0.2600 N.ar  1 <1>  -0.6200 
 13 C       -3.8050     3.6280    -0.0970 C.3   1 <1>   0.4180 
 14 C        3.6170     3.1510    -0.6320 C.ar  1 <1>   0.7200 
 15 O       -3.9820     4.7430    -0.9360 O.3   1 <1>  -0.5600 
 16 C       -5.0390     3.4050     0.7750 C.2   1 <1>  -0.2880 
 17 N        4.8080     3.7970    -0.7370 N.pl3 1 <1>  -0.6000 
 18 C       -4.6580     5.8570    -0.4190 C.3   1 <1>   0.1200 
 19 C       -6.0920     4.2250     0.8130 C.2   1 <1>  -0.2760 
 20 C        6.0410     3.6440    -0.0910 C.ar  1 <1>   0.1000 
 21 C       -6.0940     5.4900    -0.0230 C.3   1 <1>  -0.0220 
 22 C       -7.3400     3.9880     1.6440 C.3   1 <1>  -0.1020 
 23 C        6.8290     4.7690     0.1250 C.ar  1 <1>  -0.1500 
 24 C        6.5270     2.4080     0.3250 C.ar  1 <1>  -0.1500 
 25 C        8.0610     4.6670     0.7450 C.ar  1 <1>  -0.1500 
 26 C        7.7580     2.3010     0.9460 C.ar  1 <1>  -0.1500 
 27 C        8.5280     3.4310     1.1580 C.ar  1 <1>  -0.1500 
 28 H       -2.8540     1.0130     0.3760 H     1 <1>   0.0800 
 29 H       -2.4490     0.6480    -1.2790 H     1 <1>   0.0800 
 30 H       -1.2540     4.1930    -0.8790 H     1 <1>   0.0800 
 31 H       -0.4340     3.8210     0.6230 H     1 <1>   0.0800 
 32 H        0.7400     3.3540    -2.0610 H     1 <1>   0.1500 
 33 H        2.1210     0.8180     1.0160 H     1 <1>   0.1500 
 34 H       -4.5530     1.9150    -1.1690 H     1 <1>   0.0800 
 35 H       -3.3190     2.7810    -2.0210 H     1 <1>   0.0800 
 36 H       -2.5560     4.8760     1.1520 H     1 <1>   0.0800 
 37 H       -2.5950     3.2200     1.6380 H     1 <1>   0.0800 
 38 H       -4.9800     2.5020     1.3550 H     1 <1>   0.1500 
 39 H        4.7330     4.5780    -1.3810 H     1 <1>   0.4000 
 40 H       -4.6640     6.6190    -1.1780 H     1 <1>   0.0800 
 41 H       -4.1180     6.2240     0.4350 H     1 <1>   0.0800 
 42 H       -6.6910     5.3450    -0.9050 H     1 <1>   0.0800 
 43 H       -6.5130     6.3070     0.5370 H     1 <1>   0.0800 
 44 H       -7.4770     4.7890     2.3480 H     1 <1>   0.0800 
 45 H       -7.2600     3.0650     2.1900 H     1 <1>   0.0800 
 46 H       -8.2040     3.9320     1.0060 H     1 <1>   0.0800 
 47 H        6.4720     5.7320    -0.1900 H     1 <1>   0.1500 
 48 H        5.9410     1.5230     0.1580 H     1 <1>   0.1500 
 49 H        8.6580     5.5480     0.9080 H     1 <1>   0.1500 
 50 H        8.1170     1.3370     1.2640 H     1 <1>   0.1500 
 51 H        9.4860     3.3490     1.6410 H     1 <1>   0.1500 
@<TRIPOS>BOND
  1   1   2  2   
  2   2   3  am  
  3   2   4  1   
  4   3   5  1   
  5   3   6  1   
  6   4   7  ar  
  7   4   8  ar  
  8   5   9  1   
  9   5  28  1   
 10   5  29  1   
 11   6  10  1   
 12   6  30  1   
 13   6  31  1   
 14   7  11  ar  
 15   7  32  1   
 16   8  12  ar  
 17   8  33  1   
 18   9  13  1   
 19   9  34  1   
 20   9  35  1   
 21  10  13  1   
 22  10  36  1   
 23  10  37  1   
 24  11  14  ar  
 25  12  14  ar  
 26  13  15  1   
 27  13  16  1   
 28  14  17  1   
 29  15  18  1   
 30  16  19  2   
 31  16  38  1   
 32  17  20  1   
 33  17  39  1   
 34  18  21  1   
 35  18  40  1   
 36  18  41  1   
 37  19  21  1   
 38  19  22  1   
 39  20  23  ar  
 40  20  24  ar  
 41  21  42  1   
 42  21  43  1   
 43  22  44  1   
 44  22  45  1   
 45  22  46  1   
 46  23  25  ar  
 47  23  47  1   
 48  24  26  ar  
 49  24  48  1   
 50  25  27  ar  
 51  25  49  1   
 52  26  27  ar  
 53  26  50  1   
 54  27  51  1   
@<TRIPOS>SUBSTRUCTURE
  1 ****   4 GROUP 4 **** **** 0

# MOE 2024.06 (io_trps.svl 2023.06)
