@<TRIPOS>MOLECULE
NONAME
54 57 1 0 0 
SMALL
USER_CHARGES


@<TRIPOS>ATOM
  1 O       -1.9420     3.7960     3.3410 O.2   1 <1>  -0.5700 
  2 C       -1.1320     4.3700     2.6600 C.2   1 <1>   0.5690 
  3 N       -1.3980     5.5940     2.1510 N.am  1 <1>  -0.7300 
  4 C        0.2100     3.7020     2.3370 C.3   1 <1>   0.1810 
  5 C       -0.4440     6.3570     1.3170 C.3   1 <1>   0.3640 
  6 O        1.1710     4.6030     1.8140 O.3   1 <1>  -0.5600 
  7 C       -1.2240     7.0610     0.2140 C.ar  1 <1>  -0.1440 
  8 C        0.6760     5.4350     0.7730 C.3   1 <1>   0.2610 
  9 C       -1.9380     6.3350    -0.7300 C.ar  1 <1>  -0.1500 
 10 C       -1.2320     8.4480     0.1460 C.ar  1 <1>  -0.1500 
 11 C        1.8160     6.2650     0.1750 C.2   1 <1>   0.5690 
 12 C       -2.6370     6.9840    -1.7330 C.ar  1 <1>  -0.1500 
 13 C       -1.9360     9.0960    -0.8530 C.ar  1 <1>  -0.1500 
 14 O        1.6830     6.7800    -0.9100 O.2   1 <1>  -0.5700 
 15 N        2.9710     6.4130     0.8880 N.am  1 <1>  -0.7300 
 16 C       -2.6360     8.3650    -1.7960 C.ar  1 <1>  -0.1500 
 17 C        4.3100     6.9430     0.4610 C.3   1 <1>   0.1400 
 18 C        4.3090     8.0170    -0.6570 C.3   1 <1>   0.3430 
 19 N        3.2050     9.0130    -0.5210 N.4   1 <1>  -0.9590 
 20 C        3.1600     9.7280     0.7810 C.3   1 <1>   0.4860 
 21 C        3.1080     9.9560    -1.6650 C.3   1 <1>   0.3430 
 22 C        1.9360    10.6270     0.8520 C.ar  1 <1>  -0.1430 
 23 C        1.7190    10.5980    -1.6780 C.3   1 <1>  -0.0170 
 24 C        1.2750    11.0550    -0.2950 C.ar  1 <1>  -0.1430 
 25 C        1.4800    11.0370     2.0970 C.ar  1 <1>  -0.1500 
 26 C        0.1800    11.8970    -0.1840 C.ar  1 <1>  -0.1500 
 27 C        0.3810    11.8700     2.2010 C.ar  1 <1>  -0.1500 
 28 C       -0.2670    12.3030     1.0600 C.ar  1 <1>  -0.1500 
 29 H       -2.3100     6.0190     2.3310 H     1 <1>   0.3700 
 30 H        0.0530     2.9190     1.6170 H     1 <1>   0.0800 
 31 H        0.6170     3.2700     3.2330 H     1 <1>   0.0800 
 32 H        0.0130     7.1020     1.9440 H     1 <1>   0.0800 
 33 H        0.2860     4.8000    -0.0010 H     1 <1>   0.0800 
 34 H       -1.9630     5.2600    -0.6920 H     1 <1>   0.1500 
 35 H       -0.6990     9.0420     0.8690 H     1 <1>   0.1500 
 36 H       -3.1870     6.4140    -2.4620 H     1 <1>   0.1500 
 37 H       -1.9460    10.1710    -0.8950 H     1 <1>   0.1500 
 38 H        3.0010     5.8230     1.7350 H     1 <1>   0.3700 
 39 H       -3.1840     8.8690    -2.5730 H     1 <1>   0.1500 
 40 H        4.7980     7.3580     1.3260 H     1 <1>   0.0800 
 41 H        4.9160     6.1150     0.1340 H     1 <1>   0.0800 
 42 H        4.1950     7.5060    -1.6000 H     1 <1>   0.0800 
 43 H        5.2620     8.5190    -0.6720 H     1 <1>   0.0800 
 44 H        2.3410     8.4330    -0.5640 H     1 <1>   0.4500 
 45 H        3.1190     9.0160     1.5880 H     1 <1>   0.0800 
 46 H        4.0460    10.3300     0.9000 H     1 <1>   0.0800 
 47 H        3.8590    10.7230    -1.5690 H     1 <1>   0.0800 
 48 H        3.2640     9.4340    -2.5960 H     1 <1>   0.0800 
 49 H        1.7270    11.4340    -2.3550 H     1 <1>   0.0800 
 50 H        1.0070     9.8830    -2.0530 H     1 <1>   0.0800 
 51 H        1.9740    10.7200     3.0000 H     1 <1>   0.1500 
 52 H       -0.3360    12.2410    -1.0650 H     1 <1>   0.1500 
 53 H        0.0300    12.1880     3.1690 H     1 <1>   0.1500 
 54 H       -1.1200    12.9560     1.1400 H     1 <1>   0.1500 
@<TRIPOS>BOND
  1   1   2  2   
  2   2   3  am  
  3   2   4  1   
  4   3   5  1   
  5   3  29  1   
  6   4   6  1   
  7   4  30  1   
  8   4  31  1   
  9   5   7  1   
 10   5   8  1   
 11   5  32  1   
 12   6   8  1   
 13   7   9  ar  
 14   7  10  ar  
 15   8  11  1   
 16   8  33  1   
 17   9  12  ar  
 18   9  34  1   
 19  10  13  ar  
 20  10  35  1   
 21  11  14  2   
 22  11  15  am  
 23  12  16  ar  
 24  12  36  1   
 25  13  16  ar  
 26  13  37  1   
 27  15  17  1   
 28  15  38  1   
 29  16  39  1   
 30  17  18  1   
 31  17  40  1   
 32  17  41  1   
 33  18  19  1   
 34  18  42  1   
 35  18  43  1   
 36  19  20  1   
 37  19  21  1   
 38  19  44  1   
 39  20  22  1   
 40  20  45  1   
 41  20  46  1   
 42  21  23  1   
 43  21  47  1   
 44  21  48  1   
 45  22  24  ar  
 46  22  25  ar  
 47  23  24  1   
 48  23  49  1   
 49  23  50  1   
 50  24  26  ar  
 51  25  27  ar  
 52  25  51  1   
 53  26  28  ar  
 54  26  52  1   
 55  27  28  ar  
 56  27  53  1   
 57  28  54  1   
@<TRIPOS>SUBSTRUCTURE
  1 ****  10 GROUP 4 **** **** 0

# MOE 2024.06 (io_trps.svl 2023.06)
