@<TRIPOS>MOLECULE
NONAME
39 41 1 0 0 
SMALL
USER_CHARGES


@<TRIPOS>ATOM
  1 O       -2.7840     0.9890    -2.7000 O.2   1 <1>  -0.5700 
  2 C       -2.1030     0.9150    -1.7070 C.2   1 <1>   0.5690 
  3 N       -1.9230    -0.2570    -1.0530 N.am  1 <1>  -0.7300 
  4 C       -1.4260     2.1680    -1.1750 C.3   1 <1>  -0.0040 
  5 C       -2.5250    -1.5520    -1.4340 C.3   1 <1>   0.2200 
  6 C       -1.3450     2.2140     0.3620 C.3   1 <1>  -0.1950 
  7 C       -3.6800    -1.8580    -0.4960 C.3   1 <1>  -0.0800 
  8 C       -1.5530    -2.6830    -1.1120 C.3   1 <1>   0.1200 
  9 C       -0.3230     3.0630     1.0470 C.3   1 <1>  -0.2000 
 10 C       -0.2170     1.5650     1.1010 C.3   1 <1>  -0.2000 
 11 C       -2.9580    -2.4760     0.7060 C.3   1 <1>   0.1200 
 12 C       -4.6870    -2.8300    -1.1380 C.3   1 <1>  -0.0170 
 13 O       -1.7480    -2.9970     0.2360 O.3   1 <1>  -0.5600 
 14 C       -5.8560    -3.1140    -0.2080 C.ar  1 <1>  -0.1440 
 15 C       -5.9810    -4.3080     0.4730 C.ar  1 <1>  -0.1500 
 16 C       -6.8570    -2.1860     0.0020 C.ar  1 <1>  -0.1500 
 17 C       -7.0650    -4.5090     1.3110 C.ar  1 <1>   0.1600 
 18 C       -7.9000    -2.4870     0.8620 C.ar  1 <1>   0.1600 
 19 N       -8.0280    -3.6260     1.5230 N.ar  1 <1>  -0.6200 
 20 H       -1.3820    -0.2690    -0.1840 H     1 <1>   0.3700 
 21 H       -0.4410     2.2210    -1.6000 H     1 <1>   0.0800 
 22 H       -1.9780     3.0230    -1.5200 H     1 <1>   0.0800 
 23 H       -2.8090    -1.5390    -2.4730 H     1 <1>   0.0800 
 24 H       -2.3210     2.1720     0.8180 H     1 <1>   0.1000 
 25 H       -4.1990    -0.9580    -0.2150 H     1 <1>   0.0800 
 26 H       -0.5260    -2.4060    -1.2750 H     1 <1>   0.0800 
 27 H       -1.7880    -3.5600    -1.6880 H     1 <1>   0.0800 
 28 H        0.3930     3.6070     0.4560 H     1 <1>   0.1000 
 29 H       -0.6070     3.5940     1.9390 H     1 <1>   0.1000 
 30 H       -0.4190     1.0720     2.0370 H     1 <1>   0.1000 
 31 H        0.5840     1.0960     0.5540 H     1 <1>   0.1000 
 32 H       -3.5190    -3.2620     1.1800 H     1 <1>   0.0800 
 33 H       -2.7230    -1.7190     1.4340 H     1 <1>   0.0800 
 34 H       -4.2010    -3.7540    -1.3990 H     1 <1>   0.0800 
 35 H       -5.0690    -2.3980    -2.0470 H     1 <1>   0.0800 
 36 H       -5.2460    -5.0840     0.3620 H     1 <1>   0.1500 
 37 H       -6.8350    -1.2330    -0.4950 H     1 <1>   0.1500 
 38 H       -7.1450    -5.4460     1.8340 H     1 <1>   0.1500 
 39 H       -8.6710    -1.7510     1.0130 H     1 <1>   0.1500 
@<TRIPOS>BOND
  1   1   2  2   
  2   2   3  am  
  3   2   4  1   
  4   3   5  1   
  5   3  20  1   
  6   4   6  1   
  7   4  21  1   
  8   4  22  1   
  9   5   7  1   
 10   5   8  1   
 11   5  23  1   
 12   6   9  1   
 13   6  10  1   
 14   6  24  1   
 15   7  11  1   
 16   7  12  1   
 17   7  25  1   
 18   8  13  1   
 19   8  26  1   
 20   8  27  1   
 21   9  10  1   
 22   9  28  1   
 23   9  29  1   
 24  10  30  1   
 25  10  31  1   
 26  11  13  1   
 27  11  32  1   
 28  11  33  1   
 29  12  14  1   
 30  12  34  1   
 31  12  35  1   
 32  14  15  ar  
 33  14  16  ar  
 34  15  17  ar  
 35  15  36  1   
 36  16  18  ar  
 37  16  37  1   
 38  17  19  ar  
 39  17  38  1   
 40  18  19  ar  
 41  18  39  1   
@<TRIPOS>SUBSTRUCTURE
  1 ****   7 GROUP 4 **** **** 0

# MOE 2024.06 (io_trps.svl 2023.06)
