@<TRIPOS>MOLECULE
NONAME
64 66 1 0 0 
SMALL
USER_CHARGES


@<TRIPOS>ATOM
  1 O       -2.0730     0.6660    -2.4580 O.2   1 <1>  -0.5700 
  2 C       -1.7430     1.2370    -1.4610 C.2   1 <1>   0.4480 
  3 C       -2.3110     0.8050    -0.1030 C.3   1 <1>   0.1220 
  4 C       -0.8990     2.5080    -1.6110 C.3   1 <1>  -0.0990 
  5 C       -1.5110     1.4030     1.0300 C.2   1 <1>   0.5690 
  6 C       -2.4270    -0.7500    -0.0050 C.3   1 <1>   0.1960 
  7 C       -3.7130     1.5180     0.0810 C.3   1 <1>  -0.0800 
  8 C        0.4830     2.2890    -2.2560 C.3   1 <1>  -0.1600 
  9 O       -0.3550     1.1870     1.2700 O.2   1 <1>  -0.5700 
 10 N       -2.2040     2.3240     1.7030 N.am  1 <1>  -0.7300 
 11 C       -1.2390    -1.6880    -0.0010 C.2   1 <1>  -0.2880 
 12 C       -3.3350    -1.0700     1.1890 C.2   1 <1>  -0.2880 
 13 C       -4.9170     0.5570     0.2850 C.3   1 <1>   0.0580 
 14 C       -3.5850     2.4780     1.2920 C.3   1 <1>   0.2200 
 15 C        1.4820     1.5170    -1.3750 C.3   1 <1>   0.2610 
 16 C       -0.1880    -2.5170     0.0010 C.2   1 <1>  -0.2760 
 17 C       -4.5200    -0.4780     1.3400 C.2   1 <1>  -0.2760 
 18 C       -6.2410     1.3020     0.5450 C.3   1 <1>  -0.2400 
 19 C       -3.8950     3.9420     0.9320 C.3   1 <1>  -0.1600 
 20 O        2.7530     1.8410    -1.8380 O.3   1 <1>  -0.6800 
 21 C        1.3320    -0.0090    -1.3990 C.2   1 <1>   0.4480 
 22 C        1.3090    -2.2010    -0.0660 C.3   1 <1>  -0.0220 
 23 C       -0.3450    -4.0470     0.1100 C.3   1 <1>  -0.1020 
 24 C       -5.4390    -0.7920     2.5190 C.3   1 <1>  -0.1020 
 25 C       -4.1670     4.8760     2.1300 C.3   1 <1>  -0.0800 
 26 O        1.0290    -0.5930    -2.4040 O.2   1 <1>  -0.5700 
 27 C        1.7430    -0.7390    -0.1330 C.3   1 <1>  -0.0990 
 28 C       -4.5160     6.2790     1.6190 C.3   1 <1>  -0.2400 
 29 C       -2.9850     4.9820     3.1060 C.3   1 <1>  -0.2400 
 30 H       -1.4540     3.1590    -2.2620 H     1 <1>   0.0800 
 31 H       -0.7780     3.0430    -0.6890 H     1 <1>   0.0800 
 32 H       -2.9930    -1.0330    -0.8800 H     1 <1>   0.0800 
 33 H       -3.9320     2.0970    -0.8000 H     1 <1>   0.0800 
 34 H        0.8930     3.2630    -2.4600 H     1 <1>   0.0800 
 35 H        0.3590     1.7810    -3.1980 H     1 <1>   0.0800 
 36 H       -1.8240     2.8170     2.5110 H     1 <1>   0.3700 
 37 H       -1.9830    -2.4650     0.0000 H     1 <1>   0.1500 
 38 H       -2.9380    -1.7970     1.8770 H     1 <1>   0.1500 
 39 H       -5.0630     0.0260    -0.6420 H     1 <1>   0.0800 
 40 H       -4.2130     2.1570     2.1080 H     1 <1>   0.0800 
 41 H        1.4240     1.8750    -0.3630 H     1 <1>   0.0800 
 42 H       -6.2750     1.7390     1.5290 H     1 <1>   0.0800 
 43 H       -7.0670     0.6170     0.4530 H     1 <1>   0.0800 
 44 H       -6.3840     2.0810    -0.1840 H     1 <1>   0.0800 
 45 H       -3.1050     4.3400     0.3210 H     1 <1>   0.0800 
 46 H       -4.7890     3.9500     0.3330 H     1 <1>   0.0800 
 47 H        2.8770     1.4170    -2.7130 H     1 <1>   0.4000 
 48 H        1.7740    -2.6320     0.8040 H     1 <1>   0.0800 
 49 H        1.7230    -2.7000    -0.9270 H     1 <1>   0.0800 
 50 H        0.4750    -4.5570    -0.3750 H     1 <1>   0.0800 
 51 H       -1.2600    -4.3870    -0.3540 H     1 <1>   0.0800 
 52 H       -0.3570    -4.3270     1.1540 H     1 <1>   0.0800 
 53 H       -6.4810    -0.7640     2.2220 H     1 <1>   0.0800 
 54 H       -5.2540    -0.0710     3.3080 H     1 <1>   0.0800 
 55 H       -5.2180    -1.7860     2.8910 H     1 <1>   0.0800 
 56 H       -5.0170     4.5010     2.6760 H     1 <1>   0.0800 
 57 H        2.8150    -0.7090    -0.0920 H     1 <1>   0.0800 
 58 H        1.3920    -0.2420     0.7410 H     1 <1>   0.0800 
 59 H       -3.6870     6.7030     1.0800 H     1 <1>   0.0800 
 60 H       -4.7550     6.9290     2.4430 H     1 <1>   0.0800 
 61 H       -5.3700     6.2420     0.9660 H     1 <1>   0.0800 
 62 H       -2.0790     5.2340     2.5790 H     1 <1>   0.0800 
 63 H       -2.8440     4.0560     3.6350 H     1 <1>   0.0800 
 64 H       -3.1750     5.7460     3.8410 H     1 <1>   0.0800 
@<TRIPOS>BOND
  1   1   2  2   
  2   2   3  1   
  3   2   4  1   
  4   3   5  1   
  5   3   6  1   
  6   3   7  1   
  7   4   8  1   
  8   4  30  1   
  9   4  31  1   
 10   5   9  2   
 11   5  10  am  
 12   6  11  1   
 13   6  12  1   
 14   6  32  1   
 15   7  13  1   
 16   7  14  1   
 17   7  33  1   
 18   8  15  1   
 19   8  34  1   
 20   8  35  1   
 21  10  14  1   
 22  10  36  1   
 23  11  16  2   
 24  11  37  1   
 25  12  17  2   
 26  12  38  1   
 27  13  17  1   
 28  13  18  1   
 29  13  39  1   
 30  14  19  1   
 31  14  40  1   
 32  15  20  1   
 33  15  21  1   
 34  15  41  1   
 35  16  22  1   
 36  16  23  1   
 37  17  24  1   
 38  18  42  1   
 39  18  43  1   
 40  18  44  1   
 41  19  25  1   
 42  19  45  1   
 43  19  46  1   
 44  20  47  1   
 45  21  26  2   
 46  21  27  1   
 47  22  27  1   
 48  22  48  1   
 49  22  49  1   
 50  23  50  1   
 51  23  51  1   
 52  23  52  1   
 53  24  53  1   
 54  24  54  1   
 55  24  55  1   
 56  25  28  1   
 57  25  29  1   
 58  25  56  1   
 59  27  57  1   
 60  27  58  1   
 61  28  59  1   
 62  28  60  1   
 63  28  61  1   
 64  29  62  1   
 65  29  63  1   
 66  29  64  1   
@<TRIPOS>SUBSTRUCTURE
  1 ****   3 GROUP 4 **** **** 0

# MOE 2024.06 (io_trps.svl 2023.06)
