@<TRIPOS>MOLECULE
NONAME
49 53 1 0 0 
SMALL
USER_CHARGES


@<TRIPOS>ATOM
  1 N        0.0280    -0.1460    -0.3910 N.ar  1 <1>  -0.1790 
  2 C        0.0150    -1.4770    -0.4860 C.ar  1 <1>   0.4610 
  3 C        1.1560     0.6300    -0.1980 C.ar  1 <1>   0.3610 
  4 N       -1.1600    -2.1220    -0.6920 N.pl3 1 <1>  -0.8380 
  5 C        1.2750    -2.1220    -0.3600 C.ar  1 <1>  -0.1500 
  6 C        2.4070    -0.0090    -0.0850 C.ar  1 <1>   0.0000 
  7 C        1.0570     2.0240    -0.1210 C.ar  1 <1>  -0.1500 
  8 C       -1.2680    -3.5860    -1.0420 C.3   1 <1>   0.2090 
  9 C       -2.5340    -1.5260    -0.5950 C.3   1 <1>   0.2090 
 10 C        2.4350    -1.4340    -0.1700 C.ar  1 <1>  -0.1430 
 11 C        3.5450     0.7960     0.1060 C.ar  1 <1>  -0.1500 
 12 C        2.1900     2.7720     0.0670 C.ar  1 <1>  -0.1430 
 13 C       -1.9910    -4.3570     0.0780 C.3   1 <1>   0.1000 
 14 C       -3.3030    -2.2260     0.5320 C.3   1 <1>  -0.1600 
 15 C        3.7590    -2.1800    -0.0430 C.3   1 <1>  -0.0970 
 16 C        3.4210     2.1600     0.1780 C.ar  1 <1>  -0.1430 
 17 C        2.3190     4.2740     0.1770 C.3   1 <1>  -0.0170 
 18 C       -2.1000    -5.8360    -0.2700 C.2   1 <1>   0.0060 
 19 C       -3.3840    -3.7480     0.3200 C.3   1 <1>  -0.1600 
 20 C        4.5170     3.1800     0.3750 C.3   1 <1>  -0.0170 
 21 C        3.8310     4.5120     0.0330 C.3   1 <1>  -0.1600 
 22 N       -1.7860    -6.3530    -1.4090 N.2   1 <1>  -0.3380 
 23 N       -2.5330    -6.7730     0.5770 N.pl3 1 <1>   0.0330 
 24 N       -2.0130    -7.6640    -1.3250 N.2   1 <1>  -0.3380 
 25 C       -2.4560    -7.8920    -0.1390 C.2   1 <1>   0.0360 
 26 H       -0.8570     0.3290    -0.5050 H     1 <1>   0.4570 
 27 H        1.3100    -3.1920    -0.4040 H     1 <1>   0.1500 
 28 H        0.1050     2.5170    -0.2070 H     1 <1>   0.1500 
 29 H       -0.3120    -4.0360    -1.2310 H     1 <1>   0.0800 
 30 H       -1.8330    -3.6850    -1.9540 H     1 <1>   0.0800 
 31 H       -3.0520    -1.6710    -1.5300 H     1 <1>   0.0800 
 32 H       -2.5050    -0.4710    -0.3940 H     1 <1>   0.0800 
 33 H        4.5200     0.3520     0.1960 H     1 <1>   0.1500 
 34 H       -1.4000    -4.2680     0.9730 H     1 <1>   0.0800 
 35 H       -4.3000    -1.8230     0.5830 H     1 <1>   0.0800 
 36 H       -2.8200    -2.0150     1.4710 H     1 <1>   0.0800 
 37 H        3.6170    -3.2430    -0.1240 H     1 <1>   0.0800 
 38 H        4.2110    -1.9750     0.9120 H     1 <1>   0.0800 
 39 H        4.4340    -1.8740    -0.8220 H     1 <1>   0.0800 
 40 H        1.9800     4.5950     1.1460 H     1 <1>   0.0800 
 41 H        1.7660     4.7840    -0.5920 H     1 <1>   0.0800 
 42 H       -3.8450    -4.2060     1.1770 H     1 <1>   0.0800 
 43 H       -4.0070    -3.9520    -0.5360 H     1 <1>   0.0800 
 44 H        5.3590     2.9920    -0.2690 H     1 <1>   0.0800 
 45 H        4.8350     3.1720     1.4030 H     1 <1>   0.0800 
 46 H        4.1740     5.3130     0.6650 H     1 <1>   0.0800 
 47 H        4.0470     4.7600    -0.9920 H     1 <1>   0.0800 
 48 H       -2.8500    -6.6680     1.5430 H     1 <1>   0.2700 
 49 H       -2.7320    -8.8600     0.2390 H     1 <1>   0.1500 
@<TRIPOS>BOND
  1   1   2  ar  
  2   1   3  ar  
  3   1  26  1   
  4   2   4  1   
  5   2   5  ar  
  6   3   6  ar  
  7   3   7  ar  
  8   4   8  1   
  9   4   9  1   
 10   5  10  ar  
 11   5  27  1   
 12   6  10  ar  
 13   6  11  ar  
 14   7  12  ar  
 15   7  28  1   
 16   8  13  1   
 17   8  29  1   
 18   8  30  1   
 19   9  14  1   
 20   9  31  1   
 21   9  32  1   
 22  10  15  1   
 23  11  16  ar  
 24  11  33  1   
 25  12  16  ar  
 26  12  17  1   
 27  13  18  1   
 28  13  19  1   
 29  13  34  1   
 30  14  19  1   
 31  14  35  1   
 32  14  36  1   
 33  15  37  1   
 34  15  38  1   
 35  15  39  1   
 36  16  20  1   
 37  17  21  1   
 38  17  40  1   
 39  17  41  1   
 40  18  22  2   
 41  18  23  1   
 42  19  42  1   
 43  19  43  1   
 44  20  21  1   
 45  20  44  1   
 46  20  45  1   
 47  21  46  1   
 48  21  47  1   
 49  22  24  1   
 50  23  25  1   
 51  23  48  1   
 52  24  25  2   
 53  25  49  1   
@<TRIPOS>SUBSTRUCTURE
  1 ****   2 GROUP 4 **** **** 0

# MOE 2024.06 (io_trps.svl 2023.06)
