@<TRIPOS>MOLECULE
NONAME
45 46 1 0 0 
SMALL
USER_CHARGES


@<TRIPOS>ATOM
  1 CL      -1.6220     0.1820     2.6570 Cl    1 <1>  -0.1770 
  2 C       -2.6720    -0.6260     1.5220 C.ar  1 <1>   0.1770 
  3 C       -2.9680    -0.0200     0.3180 C.ar  1 <1>  -0.1500 
  4 C       -3.1910    -1.8620     1.8380 C.ar  1 <1>  -0.1500 
  5 C       -3.8040    -0.6540    -0.5910 C.ar  1 <1>  -0.1440 
  6 C       -4.0260    -2.4900     0.9300 C.ar  1 <1>  -0.1500 
  7 C       -4.3660    -1.9020    -0.2900 C.ar  1 <1>  -0.0090 
  8 C       -4.0780     0.0490    -1.9150 C.3   1 <1>  -0.0960 
  9 S       -5.4730    -2.7930    -1.4390 S.o2  1 <1>   1.4470 
 10 O       -6.4030    -1.8720    -2.0620 O.2   1 <1>  -0.6500 
 11 O       -4.6460    -3.6320    -2.2780 O.2   1 <1>  -0.6500 
 12 N       -6.3810    -3.7930    -0.4130 N.am  1 <1>  -0.8490 
 13 C       -6.9560    -4.9690    -1.0940 C.3   1 <1>   0.1960 
 14 C       -7.4500    -3.0730     0.2980 C.3   1 <1>   0.1960 
 15 C       -7.4280    -6.0410    -0.0750 C.3   1 <1>  -0.1060 
 16 C       -8.2730    -4.0040     1.2020 C.3   1 <1>  -0.1600 
 17 C       -8.7430    -6.5980    -0.6500 C.2   1 <1>   0.9060 
 18 C       -7.6190    -5.3790     1.3200 C.3   1 <1>   0.2000 
 19 C       -6.4020    -7.2110     0.0130 C.3   1 <1>  -0.1600 
 20 O       -9.7380    -6.7540     0.0750 O.co2 1 <1>  -0.9000 
 21 O       -8.7880    -6.8840    -1.8520 O.co2 1 <1>  -0.9000 
 22 O       -8.3840    -6.1610     2.1580 O.3   1 <1>  -0.6800 
 23 C       -4.9630    -6.8250     0.4070 C.3   1 <1>  -0.1600 
 24 C       -4.0410    -8.0470     0.3600 C.3   1 <1>  -0.2400 
 25 H       -2.5380     0.9420     0.1030 H     1 <1>   0.1500 
 26 H       -2.9440    -2.3260     2.7760 H     1 <1>   0.1500 
 27 H       -4.4190    -3.4620     1.1790 H     1 <1>   0.1500 
 28 H       -3.4120     0.8810    -2.0580 H     1 <1>   0.0800 
 29 H       -5.0880     0.4190    -1.9370 H     1 <1>   0.0800 
 30 H       -3.9380    -0.6290    -2.7390 H     1 <1>   0.0800 
 31 H       -7.7810    -4.6370    -1.7050 H     1 <1>   0.0800 
 32 H       -6.2410    -5.4160    -1.7640 H     1 <1>   0.0800 
 33 H       -7.0090    -2.2970     0.9010 H     1 <1>   0.0800 
 34 H       -8.1140    -2.6040    -0.4110 H     1 <1>   0.0800 
 35 H       -9.2580    -4.1150     0.7830 H     1 <1>   0.0800 
 36 H       -8.3730    -3.5630     2.1770 H     1 <1>   0.0800 
 37 H       -6.6700    -5.2450     1.8050 H     1 <1>   0.0800 
 38 H       -6.7770    -7.9350     0.7170 H     1 <1>   0.0800 
 39 H       -6.3730    -7.6990    -0.9470 H     1 <1>   0.0800 
 40 H       -9.1220    -6.5190     1.5730 H     1 <1>   0.4000 
 41 H       -4.5800    -6.0770    -0.2650 H     1 <1>   0.0800 
 42 H       -4.9440    -6.4220     1.4030 H     1 <1>   0.0800 
 43 H       -4.0160    -8.4560    -0.6350 H     1 <1>   0.0800 
 44 H       -4.3920    -8.8050     1.0380 H     1 <1>   0.0800 
 45 H       -3.0420    -7.7660     0.6410 H     1 <1>   0.0800 
@<TRIPOS>BOND
  1   1   2  1   
  2   2   3  ar  
  3   2   4  ar  
  4   3   5  ar  
  5   3  25  1   
  6   4   6  ar  
  7   4  26  1   
  8   5   7  ar  
  9   5   8  1   
 10   6   7  ar  
 11   6  27  1   
 12   7   9  1   
 13   8  28  1   
 14   8  29  1   
 15   8  30  1   
 16   9  10  2   
 17   9  11  2   
 18   9  12  am  
 19  12  13  1   
 20  12  14  1   
 21  13  15  1   
 22  13  31  1   
 23  13  32  1   
 24  14  16  1   
 25  14  33  1   
 26  14  34  1   
 27  15  17  1   
 28  15  18  1   
 29  15  19  1   
 30  16  18  1   
 31  16  35  1   
 32  16  36  1   
 33  17  20  ar  
 34  17  21  ar  
 35  18  22  1   
 36  18  37  1   
 37  19  23  1   
 38  19  38  1   
 39  19  39  1   
 40  22  40  1   
 41  23  24  1   
 42  23  41  1   
 43  23  42  1   
 44  24  43  1   
 45  24  44  1   
 46  24  45  1   
@<TRIPOS>SUBSTRUCTURE
  1 ****  12 GROUP 4 **** **** 0

# MOE 2024.06 (io_trps.svl 2023.06)
