@<TRIPOS>MOLECULE
NONAME
52 54 1 0 0 
SMALL
USER_CHARGES


@<TRIPOS>ATOM
  1 O        0.2850     0.3200    -0.8800 O.3   1 <1>  -0.5600 
  2 C        1.4610    -0.4490    -0.9300 C.3   1 <1>   0.2000 
  3 C        0.4780     1.6850    -1.0850 C.3   1 <1>   0.1200 
  4 C        2.5380     0.0860     0.0670 C.3   1 <1>   0.3340 
  5 C        1.0030    -1.8970    -0.6670 C.3   1 <1>   0.1200 
  6 C        1.3910     2.2470     0.0090 C.3   1 <1>   0.1100 
  7 N        2.6990     1.5650     0.0000 N.3   1 <1>  -0.8100 
  8 C        3.9030    -0.5470    -0.2180 C.ar  1 <1>  -0.1440 
  9 O        2.0520    -2.8090    -0.6240 O.3   1 <1>  -0.6800 
 10 C        3.5800     2.0610     1.0810 C.3   1 <1>   0.2900 
 11 C        4.4590    -1.4460     0.6820 C.ar  1 <1>  -0.1500 
 12 C        4.6040    -0.2310    -1.3750 C.ar  1 <1>  -0.1500 
 13 C        3.8830     3.5410     0.9310 C.2   1 <1>  -0.0400 
 14 C        5.6880    -2.0320     0.4300 C.ar  1 <1>   0.0830 
 15 C        5.8390    -0.8030    -1.6290 C.ar  1 <1>  -0.1500 
 16 O        3.1180     4.4330     1.5020 O.3   1 <1>  -0.0190 
 17 C        4.8640     4.1900     0.2880 C.2   1 <1>  -0.1500 
 18 O        6.1450    -2.9350     1.3290 O.3   1 <1>  -0.3630 
 19 C        6.3960    -1.6940    -0.7280 C.ar  1 <1>   0.0830 
 20 N        3.5310     5.6450     1.2710 N.2   1 <1>  -0.4100 
 21 C        4.5830     5.5310     0.5400 C.2   1 <1>   0.1080 
 22 C        6.0820    -4.2810     0.9170 C.3   1 <1>   0.0400 
 23 O        7.6190    -2.1990    -1.0290 O.3   1 <1>  -0.3630 
 24 C        5.3990     6.7020     0.0270 C.3   1 <1>   0.0210 
 25 C        8.6590    -1.9630    -0.1050 C.3   1 <1>   0.0400 
 26 C        6.7170     6.8410     0.7950 C.3   1 <1>  -0.2400 
 27 H        1.8400    -0.3800    -1.9330 H     1 <1>   0.0800 
 28 H        0.9090     1.8390    -2.0590 H     1 <1>   0.0800 
 29 H       -0.4850     2.1630    -1.0480 H     1 <1>   0.0800 
 30 H        2.2210    -0.1850     1.0600 H     1 <1>   0.0800 
 31 H        0.3340    -2.2080    -1.4510 H     1 <1>   0.0800 
 32 H        0.4890    -1.9550     0.2760 H     1 <1>   0.0800 
 33 H        0.9130     2.1330     0.9670 H     1 <1>   0.0800 
 34 H        1.5270     3.2990    -0.1770 H     1 <1>   0.0800 
 35 H        2.7040    -2.6360    -1.3330 H     1 <1>   0.4000 
 36 H        3.1330     1.8790     2.0430 H     1 <1>   0.0800 
 37 H        4.5200     1.5380     1.0470 H     1 <1>   0.0800 
 38 H        3.9360    -1.7150     1.5810 H     1 <1>   0.1500 
 39 H        4.1900     0.4730    -2.0760 H     1 <1>   0.1500 
 40 H        6.3800    -0.5550    -2.5240 H     1 <1>   0.1500 
 41 H        5.6780     3.8000    -0.2930 H     1 <1>   0.1500 
 42 H        6.4320    -4.8980     1.7240 H     1 <1>   0.0800 
 43 H        6.7060    -4.4150     0.0510 H     1 <1>   0.0800 
 44 H        5.0600    -4.5240     0.6820 H     1 <1>   0.0800 
 45 H        5.5980     6.5600    -1.0200 H     1 <1>   0.0800 
 46 H        4.8230     7.6040     0.1370 H     1 <1>   0.0800 
 47 H        9.5920    -2.1980    -0.5820 H     1 <1>   0.0800 
 48 H        8.5220    -2.5920     0.7550 H     1 <1>   0.0800 
 49 H        8.6420    -0.9260     0.1820 H     1 <1>   0.0800 
 50 H        7.3150     5.9550     0.6770 H     1 <1>   0.0800 
 51 H        6.5180     6.9870     1.8420 H     1 <1>   0.0800 
 52 H        7.2720     7.6860     0.4280 H     1 <1>   0.0800 
@<TRIPOS>BOND
  1   1   2  1   
  2   1   3  1   
  3   2   4  1   
  4   2   5  1   
  5   2  27  1   
  6   3   6  1   
  7   3  28  1   
  8   3  29  1   
  9   4   7  1   
 10   4   8  1   
 11   4  30  1   
 12   5   9  1   
 13   5  31  1   
 14   5  32  1   
 15   6   7  1   
 16   6  33  1   
 17   6  34  1   
 18   7  10  1   
 19   8  11  ar  
 20   8  12  ar  
 21   9  35  1   
 22  10  13  1   
 23  10  36  1   
 24  10  37  1   
 25  11  14  ar  
 26  11  38  1   
 27  12  15  ar  
 28  12  39  1   
 29  13  16  1   
 30  13  17  2   
 31  14  18  1   
 32  14  19  ar  
 33  15  19  ar  
 34  15  40  1   
 35  16  20  1   
 36  17  21  1   
 37  17  41  1   
 38  18  22  1   
 39  19  23  1   
 40  20  21  2   
 41  21  24  1   
 42  22  42  1   
 43  22  43  1   
 44  22  44  1   
 45  23  25  1   
 46  24  26  1   
 47  24  45  1   
 48  24  46  1   
 49  25  47  1   
 50  25  48  1   
 51  25  49  1   
 52  26  50  1   
 53  26  51  1   
 54  26  52  1   
@<TRIPOS>SUBSTRUCTURE
  1 ****   8 GROUP 4 **** **** 0

# MOE 2024.06 (io_trps.svl 2023.06)
