@<TRIPOS>MOLECULE
Untitled Document
50 53 1 0 0 
SMALL
USER_CHARGES


@<TRIPOS>ATOM
  1 S        0.4200    -0.6470    -0.4750 S.3   1 <1>  -0.3320 
  2 C        2.1860    -0.7990    -0.1640 C.ar  1 <1>   0.1020 
  3 C       -0.3910    -2.1250     0.2810 C.3   1 <1>  -0.0100 
  4 C        2.7330    -1.8950     0.4810 C.ar  1 <1>  -0.1500 
  5 C        2.9890     0.2380    -0.6010 C.ar  1 <1>  -0.1500 
  6 C        4.1020    -1.9510     0.6830 C.ar  1 <1>  -0.1500 
  7 C        4.3560     0.1800    -0.3980 C.ar  1 <1>  -0.1500 
  8 C        4.9200    -0.9190     0.2380 C.ar  1 <1>  -0.1430 
  9 C        6.4210    -0.9920     0.4380 C.3   1 <1>   0.4860 
 10 N        6.9810    -1.9630    -0.5420 N.4   1 <1>  -0.9590 
 11 C        8.4270    -2.2490    -0.2390 C.3   1 <1>   0.3430 
 12 C        6.7850    -1.4970    -1.9480 C.3   1 <1>   0.3430 
 13 C        9.0690    -3.2600    -1.2230 C.3   1 <1>   0.2890 
 14 C        7.3350    -2.5410    -2.9240 C.3   1 <1>  -0.1600 
 15 N       10.5290    -3.4090    -1.0060 N.pl3 1 <1>  -0.8690 
 16 C        8.8230    -2.8410    -2.6770 C.3   1 <1>  -0.1600 
 17 C       11.2320    -2.3580    -0.4190 C.ar  1 <1>   0.1000 
 18 C       11.7430    -1.3280    -1.1790 C.ar  1 <1>  -0.1500 
 19 C       11.4070    -2.3500     0.9750 C.ar  1 <1>  -0.1500 
 20 C       12.3960    -0.2610    -0.5480 C.ar  1 <1>   0.0000 
 21 C       12.0510    -1.3110     1.6030 C.ar  1 <1>  -0.1500 
 22 C       12.5390    -0.2590     0.8220 C.ar  1 <1>  -0.1520 
 23 C       13.0090     0.9350    -0.9630 C.2   1 <1>   0.1390 
 24 N       13.2080     0.8940     1.1250 N.pl3 1 <1>   0.3000 
 25 N       13.4820     1.6250     0.0210 N.2   1 <1>  -0.7070 
 26 H       -1.4500    -2.0290     0.1220 H     1 <1>   0.0800 
 27 H       -0.1630    -2.1290     1.3320 H     1 <1>   0.0800 
 28 H       -0.0110    -3.0020    -0.2100 H     1 <1>   0.0800 
 29 H        2.1130    -2.6990     0.8280 H     1 <1>   0.1500 
 30 H        2.5370     1.0820    -1.0930 H     1 <1>   0.1500 
 31 H        4.5130    -2.8050     1.1930 H     1 <1>   0.1500 
 32 H        4.9640     1.0010    -0.7400 H     1 <1>   0.1500 
 33 H        6.6280    -1.3180     1.4450 H     1 <1>   0.0800 
 34 H        6.8620    -0.0190     0.2960 H     1 <1>   0.0800 
 35 H        6.4380    -2.8280    -0.4350 H     1 <1>   0.4500 
 36 H        8.5240    -2.6400     0.7600 H     1 <1>   0.0800 
 37 H        8.9840    -1.3290    -0.2950 H     1 <1>   0.0800 
 38 H        7.2990    -0.5600    -2.0980 H     1 <1>   0.0800 
 39 H        5.7350    -1.3420    -2.1440 H     1 <1>   0.0800 
 40 H        8.6150    -4.2220    -1.0550 H     1 <1>   0.0800 
 41 H        7.2120    -2.1730    -3.9290 H     1 <1>   0.0800 
 42 H        6.7550    -3.4450    -2.8450 H     1 <1>   0.0800 
 43 H       10.9920    -3.7560    -1.8570 H     1 <1>   0.4000 
 44 H        9.1430    -3.6280    -3.3390 H     1 <1>   0.0800 
 45 H        9.3960    -1.9580    -2.8990 H     1 <1>   0.0800 
 46 H       11.6530    -1.3230    -2.2480 H     1 <1>   0.1500 
 47 H       11.0350    -3.1850     1.5410 H     1 <1>   0.1500 
 48 H       12.1920    -1.3040     2.6710 H     1 <1>   0.1500 
 49 H       13.0760     1.2420    -1.9920 H     1 <1>   0.1500 
 50 H       13.4950     1.1870     2.0660 H     1 <1>   0.2700 
@<TRIPOS>BOND
  1   1   2  1   
  2   1   3  1   
  3   2   4  ar  
  4   2   5  ar  
  5   3  26  1   
  6   3  27  1   
  7   3  28  1   
  8   4   6  ar  
  9   4  29  1   
 10   5   7  ar  
 11   5  30  1   
 12   6   8  ar  
 13   6  31  1   
 14   7   8  ar  
 15   7  32  1   
 16   8   9  1   
 17   9  10  1   
 18   9  33  1   
 19   9  34  1   
 20  10  11  1   
 21  10  12  1   
 22  10  35  1   
 23  11  13  1   
 24  11  36  1   
 25  11  37  1   
 26  12  14  1   
 27  12  38  1   
 28  12  39  1   
 29  13  15  1   
 30  13  16  1   
 31  13  40  1   
 32  14  16  1   
 33  14  41  1   
 34  14  42  1   
 35  15  17  1   
 36  15  43  1   
 37  16  44  1   
 38  16  45  1   
 39  17  18  ar  
 40  17  19  ar  
 41  18  20  ar  
 42  18  46  1   
 43  19  21  ar  
 44  19  47  1   
 45  20  22  ar  
 46  20  23  1   
 47  21  22  ar  
 48  21  48  1   
 49  22  24  1   
 50  23  25  2   
 51  23  49  1   
 52  24  25  1   
 53  24  50  1   
@<TRIPOS>SUBSTRUCTURE
  1 ****  11 GROUP 4 **** **** 0

# MOE 2024.06 (io_trps.svl 2023.06)
