@<TRIPOS>MOLECULE
NONAME
59 62 1 0 0 
SMALL
USER_CHARGES


@<TRIPOS>ATOM
  1 O        0.1420     1.2970     1.2580 O.2   1 <1>  -0.5700 
  2 C       -0.6780     2.0260     0.7470 C.2   1 <1>   0.5690 
  3 N       -2.0290     1.8400     0.9130 N.am  1 <1>  -0.6600 
  4 C       -0.1080     3.1600    -0.1220 C.3   1 <1>   0.4040 
  5 C       -3.1080     2.7590     0.4150 C.3   1 <1>   0.1400 
  6 C       -2.5550     0.6270     1.6140 C.3   1 <1>   0.1400 
  7 N        1.2080     2.7900    -0.7710 N.4   1 <1>  -0.9590 
  8 C       -4.0520     3.1980     1.5540 C.3   1 <1>   0.1430 
  9 C       -3.4890     1.0300     2.7600 C.3   1 <1>  -0.1600 
 10 C        2.0540     3.9820    -1.0360 C.3   1 <1>   0.3430 
 11 C        1.0060     1.9170    -1.9590 C.3   1 <1>   0.3430 
 12 C       -5.1550     4.0510     0.9560 C.ar  1 <1>   0.1670 
 13 C       -4.6160     1.9550     2.2730 C.3   1 <1>  -0.1600 
 14 C       -3.3630     4.1740     2.5500 C.3   1 <1>  -0.1600 
 15 C        3.4950     3.5560    -1.2860 C.3   1 <1>  -0.2400 
 16 C        1.6680     0.5720    -1.6950 C.3   1 <1>  -0.2400 
 17 N       -6.0830     3.6150     0.1390 N.ar  1 <1>  -0.6200 
 18 C       -5.0650     5.3500     1.3470 C.ar  1 <1>  -0.1440 
 19 C       -3.8890     5.5920     2.2570 C.3   1 <1>  -0.0170 
 20 C       -6.9760     4.5250    -0.2760 C.ar  1 <1>   0.6200 
 21 C       -6.0090     6.2250     0.8740 C.ar  1 <1>   0.1600 
 22 N       -6.9630     5.8220     0.0670 N.ar  1 <1>  -0.6200 
 23 C       -8.0370     4.0720    -1.1680 C.ar  1 <1>   0.0000 
 24 C       -7.8870     2.9400    -1.9750 C.ar  1 <1>  -0.1500 
 25 C       -9.2580     4.7480    -1.2590 C.ar  1 <1>  -0.1500 
 26 C       -8.8920     2.5090    -2.8220 C.ar  1 <1>  -0.1500 
 27 C      -10.2680     4.3240    -2.1030 C.ar  1 <1>  -0.1500 
 28 C      -10.0870     3.2010    -2.8890 C.ar  1 <1>  -0.1500 
 29 H        0.0370     4.0090     0.5220 H     1 <1>   0.0800 
 30 H       -0.8250     3.4270    -0.8780 H     1 <1>   0.0800 
 31 H       -3.6870     2.2350    -0.3270 H     1 <1>   0.0800 
 32 H       -2.6960     3.6340    -0.0510 H     1 <1>   0.0800 
 33 H       -1.7500     0.0280     2.0060 H     1 <1>   0.0800 
 34 H       -3.0970     0.0230     0.9050 H     1 <1>   0.0800 
 35 H        1.6760     2.1990    -0.0580 H     1 <1>   0.4500 
 36 H       -2.9110     1.5120     3.5290 H     1 <1>   0.0800 
 37 H       -3.9180     0.1420     3.1900 H     1 <1>   0.0800 
 38 H        2.0340     4.6370    -0.1790 H     1 <1>   0.0800 
 39 H        1.6760     4.5270    -1.8870 H     1 <1>   0.0800 
 40 H        1.4410     2.3710    -2.8350 H     1 <1>   0.0800 
 41 H       -0.0460     1.7670    -2.1420 H     1 <1>   0.0800 
 42 H       -5.2430     1.4080     1.5890 H     1 <1>   0.0800 
 43 H       -5.2360     2.2540     3.1010 H     1 <1>   0.0800 
 44 H       -2.2900     4.1320     2.4880 H     1 <1>   0.0800 
 45 H       -3.6420     3.9200     3.5580 H     1 <1>   0.0800 
 46 H        3.8750     2.9880    -0.4550 H     1 <1>   0.0800 
 47 H        4.1080     4.4330    -1.3960 H     1 <1>   0.0800 
 48 H        3.5840     2.9810    -2.1900 H     1 <1>   0.0800 
 49 H        2.7220     0.6860    -1.5170 H     1 <1>   0.0800 
 50 H        1.5430    -0.0590    -2.5570 H     1 <1>   0.0800 
 51 H        1.2130     0.0770    -0.8560 H     1 <1>   0.0800 
 52 H       -3.1470     6.1820     1.7480 H     1 <1>   0.0800 
 53 H       -4.1930     6.0910     3.1610 H     1 <1>   0.0800 
 54 H       -5.9820     7.2630     1.1570 H     1 <1>   0.1500 
 55 H       -6.9670     2.3850    -1.9410 H     1 <1>   0.1500 
 56 H       -9.4210     5.6250    -0.6560 H     1 <1>   0.1500 
 57 H       -8.7450     1.6330    -3.4300 H     1 <1>   0.1500 
 58 H      -11.1950     4.8680    -2.1490 H     1 <1>   0.1500 
 59 H      -10.8710     2.8680    -3.5470 H     1 <1>   0.1500 
@<TRIPOS>BOND
  1   1   2  2   
  2   2   3  am  
  3   2   4  1   
  4   3   5  1   
  5   3   6  1   
  6   4   7  1   
  7   4  29  1   
  8   4  30  1   
  9   5   8  1   
 10   5  31  1   
 11   5  32  1   
 12   6   9  1   
 13   6  33  1   
 14   6  34  1   
 15   7  10  1   
 16   7  11  1   
 17   7  35  1   
 18   8  12  1   
 19   8  13  1   
 20   8  14  1   
 21   9  13  1   
 22   9  36  1   
 23   9  37  1   
 24  10  15  1   
 25  10  38  1   
 26  10  39  1   
 27  11  16  1   
 28  11  40  1   
 29  11  41  1   
 30  12  17  ar  
 31  12  18  ar  
 32  13  42  1   
 33  13  43  1   
 34  14  19  1   
 35  14  44  1   
 36  14  45  1   
 37  15  46  1   
 38  15  47  1   
 39  15  48  1   
 40  16  49  1   
 41  16  50  1   
 42  16  51  1   
 43  17  20  ar  
 44  18  19  1   
 45  18  21  ar  
 46  19  52  1   
 47  19  53  1   
 48  20  22  ar  
 49  20  23  1   
 50  21  22  ar  
 51  21  54  1   
 52  23  24  ar  
 53  23  25  ar  
 54  24  26  ar  
 55  24  55  1   
 56  25  27  ar  
 57  25  56  1   
 58  26  28  ar  
 59  26  57  1   
 60  27  28  ar  
 61  27  58  1   
 62  28  59  1   
@<TRIPOS>SUBSTRUCTURE
  1 ****   5 GROUP 4 **** **** 0

# MOE 2024.06 (io_trps.svl 2023.06)
