@<TRIPOS>MOLECULE
NONAME
45 47 1 0 0 
SMALL
USER_CHARGES


@<TRIPOS>ATOM
  1 O        0.4690     0.2630    -0.2770 O.3   1 <1>  -0.5600 
  2 C        0.3880     1.5550     0.2560 C.3   1 <1>   0.2950 
  3 C        1.5800    -0.4630     0.1650 C.3   1 <1>   0.2000 
  4 C       -0.9110     2.1830    -0.2600 C.3   1 <1>  -0.1950 
  5 C        1.6240     2.3870    -0.1420 C.3   1 <1>   0.2090 
  6 C        2.8900     0.2530    -0.2400 C.3   1 <1>   0.2090 
  7 C        1.4510    -1.8700    -0.4320 C.3   1 <1>  -0.1600 
  8 C       -1.6210     3.2450     0.5220 C.3   1 <1>  -0.2000 
  9 C       -2.2280     1.8770     0.3800 C.3   1 <1>  -0.2000 
 10 N        2.9040     1.6850     0.1920 N.pl3 1 <1>  -0.8210 
 11 C        2.5260    -2.8440     0.0780 C.3   1 <1>  -0.1600 
 12 C        4.0830     2.3850    -0.0650 C.2   1 <1>   0.5990 
 13 C        2.2940    -4.2550    -0.4750 C.3   1 <1>  -0.1600 
 14 N        5.2290     1.8580    -0.2680 N.2   1 <1>  -0.4100 
 15 N        4.0980     3.7110    -0.1140 N.2   1 <1>  -0.5650 
 16 C        3.3640    -5.2270     0.0290 C.3   1 <1>  -0.2400 
 17 O        6.0710     2.8390    -0.4600 O.3   1 <1>  -0.0190 
 18 C        5.3280     3.9130    -0.3520 C.2   1 <1>   0.2980 
 19 C        5.9820     5.2730    -0.5190 C.3   1 <1>   0.0200 
 20 C        6.9720     5.5770     0.6140 C.3   1 <1>  -0.2400 
 21 H        0.3450     1.4710     1.3290 H     1 <1>   0.0800 
 22 H        1.5280    -0.5280     1.2390 H     1 <1>   0.0800 
 23 H       -0.9040     2.2900    -1.3310 H     1 <1>   0.1000 
 24 H        1.5830     3.3280     0.3760 H     1 <1>   0.0800 
 25 H        1.5920     2.5870    -1.1990 H     1 <1>   0.0800 
 26 H        3.0090     0.2010    -1.3090 H     1 <1>   0.0800 
 27 H        3.7220    -0.2570     0.2130 H     1 <1>   0.0800 
 28 H        0.4820    -2.2560    -0.1680 H     1 <1>   0.0800 
 29 H        1.5040    -1.8050    -1.5050 H     1 <1>   0.0800 
 30 H       -1.2430     3.5370     1.4870 H     1 <1>   0.1000 
 31 H       -2.0710     4.0660    -0.0090 H     1 <1>   0.1000 
 32 H       -3.0860     1.7470    -0.2570 H     1 <1>   0.1000 
 33 H       -2.2450     1.2190     1.2320 H     1 <1>   0.1000 
 34 H        3.5020    -2.5080    -0.2260 H     1 <1>   0.0800 
 35 H        2.5010    -2.8760     1.1540 H     1 <1>   0.0800 
 36 H        1.3230    -4.6090    -0.1690 H     1 <1>   0.0800 
 37 H        2.3160    -4.2310    -1.5510 H     1 <1>   0.0800 
 38 H        3.3460    -5.2850     1.1030 H     1 <1>   0.0800 
 39 H        4.3420    -4.9060    -0.2850 H     1 <1>   0.0800 
 40 H        3.1840    -6.2110    -0.3690 H     1 <1>   0.0800 
 41 H        6.4920     5.2990    -1.4650 H     1 <1>   0.0800 
 42 H        5.2150     6.0260    -0.5330 H     1 <1>   0.0800 
 43 H        7.7620     4.8470     0.6270 H     1 <1>   0.0800 
 44 H        6.4640     5.5540     1.5630 H     1 <1>   0.0800 
 45 H        7.4040     6.5520     0.4770 H     1 <1>   0.0800 
@<TRIPOS>BOND
  1   1   2  1   
  2   1   3  1   
  3   2   4  1   
  4   2   5  1   
  5   2  21  1   
  6   3   6  1   
  7   3   7  1   
  8   3  22  1   
  9   4   8  1   
 10   4   9  1   
 11   4  23  1   
 12   5  10  1   
 13   5  24  1   
 14   5  25  1   
 15   6  10  1   
 16   6  26  1   
 17   6  27  1   
 18   7  11  1   
 19   7  28  1   
 20   7  29  1   
 21   8   9  1   
 22   8  30  1   
 23   8  31  1   
 24   9  32  1   
 25   9  33  1   
 26  10  12  1   
 27  11  13  1   
 28  11  34  1   
 29  11  35  1   
 30  12  14  2   
 31  12  15  1   
 32  13  16  1   
 33  13  36  1   
 34  13  37  1   
 35  14  17  1   
 36  15  18  2   
 37  16  38  1   
 38  16  39  1   
 39  16  40  1   
 40  17  18  1   
 41  18  19  1   
 42  19  20  1   
 43  19  41  1   
 44  19  42  1   
 45  20  43  1   
 46  20  44  1   
 47  20  45  1   
@<TRIPOS>SUBSTRUCTURE
  1 ****  10 GROUP 4 **** **** 0

# MOE 2024.06 (io_trps.svl 2023.06)
