@<TRIPOS>MOLECULE
NONAME
49 51 1 0 0 
SMALL
USER_CHARGES


@<TRIPOS>ATOM
  1 N       -3.5590    -2.2500     1.7700 N.2   1 <1>  -0.7070 
  2 N       -3.1630    -1.1300     1.1170 N.pl3 1 <1>   0.3140 
  3 C       -2.4730    -2.7360     2.2910 C.2   1 <1>   0.1390 
  4 C       -1.8200    -0.9770     1.1980 C.2   1 <1>  -0.3320 
  5 C       -4.1260    -0.1690     0.5250 C.3   1 <1>   0.0960 
  6 C       -1.3510    -1.9940     1.9520 C.2   1 <1>  -0.1500 
  7 C       -1.0230     0.1610     0.5780 C.3   1 <1>  -0.0600 
  8 C       -4.3930    -0.4450    -0.9610 C.3   1 <1>   0.1100 
  9 N       -5.0460    -1.7610    -1.1060 N.3   1 <1>  -0.8100 
 10 C       -4.5410    -2.7550    -2.0920 C.3   1 <1>   0.1900 
 11 C       -6.5140    -1.6040    -1.1530 C.3   1 <1>   0.0300 
 12 C       -4.9050    -4.1350    -1.5380 C.3   1 <1>   0.3430 
 13 C       -3.0090    -2.8990    -2.1190 C.3   1 <1>  -0.1600 
 14 N       -3.9430    -4.2690    -0.4180 N.4   1 <1>  -0.9590 
 15 C       -2.6450    -3.8070    -0.9430 C.3   1 <1>   0.3430 
 16 C       -3.9680    -5.5350     0.3410 C.3   1 <1>   0.4860 
 17 C       -5.3950    -5.8160     0.7750 C.ar  1 <1>  -0.1440 
 18 C       -6.0800    -6.9070     0.2590 C.ar  1 <1>  -0.1500 
 19 C       -6.0290    -4.9780     1.6810 C.ar  1 <1>  -0.1500 
 20 C       -7.3870    -7.1530     0.6420 C.ar  1 <1>  -0.1500 
 21 C       -7.3360    -5.2250     2.0620 C.ar  1 <1>  -0.1500 
 22 C       -8.0160    -6.3120     1.5430 C.ar  1 <1>  -0.1500 
 23 H       -2.4500    -3.6140     2.9150 H     1 <1>   0.1500 
 24 H       -5.0460    -0.2300     1.0760 H     1 <1>   0.0800 
 25 H       -3.7360     0.8230     0.6450 H     1 <1>   0.0800 
 26 H       -0.3390    -2.2010     2.2560 H     1 <1>   0.1500 
 27 H        0.0270     0.0290     0.7770 H     1 <1>   0.0800 
 28 H       -1.3270     1.1030     0.9990 H     1 <1>   0.0800 
 29 H       -1.1660     0.1880    -0.4870 H     1 <1>   0.0800 
 30 H       -3.4740    -0.3700    -1.5060 H     1 <1>   0.0800 
 31 H       -5.0380     0.3260    -1.3500 H     1 <1>   0.0800 
 32 H       -4.9540    -2.5720    -3.0700 H     1 <1>   0.0800 
 33 H       -6.8450    -0.9640    -0.3530 H     1 <1>   0.0800 
 34 H       -7.0130    -2.5500    -1.0360 H     1 <1>   0.0800 
 35 H       -6.8130    -1.1660    -2.0910 H     1 <1>   0.0800 
 36 H       -4.7320    -4.8980    -2.2780 H     1 <1>   0.0800 
 37 H       -5.9250    -4.1800    -1.1960 H     1 <1>   0.0800 
 38 H       -2.7310    -3.4110    -3.0220 H     1 <1>   0.0800 
 39 H       -2.4490    -1.9870    -2.1020 H     1 <1>   0.0800 
 40 H       -4.2260    -3.5070     0.2430 H     1 <1>   0.4500 
 41 H       -2.1100    -3.2570    -0.1870 H     1 <1>   0.0800 
 42 H       -2.0450    -4.6370    -1.2820 H     1 <1>   0.0800 
 43 H       -3.6080    -6.3430    -0.2740 H     1 <1>   0.0800 
 44 H       -3.3380    -5.4530     1.2110 H     1 <1>   0.0800 
 45 H       -5.6100    -7.5760    -0.4410 H     1 <1>   0.1500 
 46 H       -5.5180    -4.1250     2.0980 H     1 <1>   0.1500 
 47 H       -7.9190    -8.0010     0.2430 H     1 <1>   0.1500 
 48 H       -7.8240    -4.5720     2.7660 H     1 <1>   0.1500 
 49 H       -9.0320    -6.5050     1.8420 H     1 <1>   0.1500 
@<TRIPOS>BOND
  1   1   2  1   
  2   1   3  2   
  3   2   4  1   
  4   2   5  1   
  5   3   6  1   
  6   3  23  1   
  7   4   6  2   
  8   4   7  1   
  9   5   8  1   
 10   5  24  1   
 11   5  25  1   
 12   6  26  1   
 13   7  27  1   
 14   7  28  1   
 15   7  29  1   
 16   8   9  1   
 17   8  30  1   
 18   8  31  1   
 19   9  10  1   
 20   9  11  1   
 21  10  12  1   
 22  10  13  1   
 23  10  32  1   
 24  11  33  1   
 25  11  34  1   
 26  11  35  1   
 27  12  14  1   
 28  12  36  1   
 29  12  37  1   
 30  13  15  1   
 31  13  38  1   
 32  13  39  1   
 33  14  15  1   
 34  14  16  1   
 35  14  40  1   
 36  15  41  1   
 37  15  42  1   
 38  16  17  1   
 39  16  43  1   
 40  16  44  1   
 41  17  18  ar  
 42  17  19  ar  
 43  18  20  ar  
 44  18  45  1   
 45  19  21  ar  
 46  19  46  1   
 47  20  22  ar  
 48  20  47  1   
 49  21  22  ar  
 50  21  48  1   
 51  22  49  1   
@<TRIPOS>SUBSTRUCTURE
  1 ****  14 GROUP 4 **** **** 0

# MOE 2024.06 (io_trps.svl 2023.06)
