@<TRIPOS>MOLECULE
NONAME
56 58 1 0 0 
SMALL
USER_CHARGES


@<TRIPOS>ATOM
  1 O        1.0330    -0.1940    -0.0300 O.2   1 <1>  -0.5700 
  2 C        0.1830     0.5400    -0.4730 C.2   1 <1>   0.5690 
  3 N       -1.0560     0.0860    -0.8300 N.am  1 <1>  -0.6600 
  4 C        0.5110     2.0100    -0.5770 C.3   1 <1>  -0.0990 
  5 C       -2.2070     0.9150    -1.2780 C.3   1 <1>   0.1400 
  6 C       -1.5530    -1.2270    -0.3550 C.3   1 <1>   0.1400 
  7 C       -0.0390     2.7250     0.6630 C.3   1 <1>   0.0960 
  8 C       -3.4260     0.2960    -0.5910 C.3   1 <1>   0.2000 
  9 C       -3.0750    -1.1960    -0.5580 C.3   1 <1>  -0.0800 
 10 N       -0.3190     4.1420     0.3590 N.pl3 1 <1>   0.3140 
 11 O       -3.5300     0.7650     0.7260 O.3   1 <1>  -0.5600 
 12 C       -3.8530    -2.0060     0.4950 C.3   1 <1>   0.0200 
 13 N       -1.4740     4.4750    -0.2350 N.2   1 <1>  -0.7070 
 14 C        0.4500     5.2240     0.5840 C.2   1 <1>  -0.3320 
 15 C       -4.1110     2.0260     0.8700 C.3   1 <1>   0.0400 
 16 C       -3.6180    -3.5040     0.3930 C.2   1 <1>  -0.0400 
 17 C       -1.4220     5.7570    -0.3740 C.2   1 <1>   0.1080 
 18 C       -0.2270     6.3170     0.1060 C.2   1 <1>  -0.0860 
 19 C        1.8060     5.1350     1.2780 C.3   1 <1>  -0.0600 
 20 O       -4.1720    -4.2870     1.2820 O.3   1 <1>  -0.0190 
 21 C       -2.9290    -4.2810    -0.4590 C.2   1 <1>  -0.1500 
 22 C       -2.5650     6.5220    -1.0090 C.3   1 <1>  -0.0590 
 23 C        0.1040     7.7200     0.0450 C.2   1 <1>   0.5950 
 24 N       -3.8900    -5.5400     1.0720 N.2   1 <1>  -0.4100 
 25 C       -3.1400    -5.5660     0.0300 C.2   1 <1>   0.1080 
 26 O       -0.7150     8.6040     0.0620 O.2   1 <1>  -0.5700 
 27 C        1.5480     8.1510    -0.0840 C.3   1 <1>  -0.1790 
 28 C       -2.5690    -6.8290    -0.5750 C.3   1 <1>  -0.0590 
 29 H        1.5770     2.1360    -0.6270 H     1 <1>   0.0800 
 30 H        0.0820     2.4070    -1.4780 H     1 <1>   0.0800 
 31 H       -2.1010     1.9550    -1.0340 H     1 <1>   0.0800 
 32 H       -2.3050     0.8160    -2.3440 H     1 <1>   0.0800 
 33 H       -1.0890    -2.0250    -0.9090 H     1 <1>   0.0800 
 34 H       -1.3120    -1.3340     0.6890 H     1 <1>   0.0800 
 35 H        0.6520     2.6480     1.4800 H     1 <1>   0.0800 
 36 H       -0.9660     2.2750     0.9710 H     1 <1>   0.0800 
 37 H       -4.3480     0.4890    -1.1120 H     1 <1>   0.0800 
 38 H       -3.2860    -1.6010    -1.5310 H     1 <1>   0.0800 
 39 H       -4.9050    -1.8200     0.3800 H     1 <1>   0.0800 
 40 H       -3.5730    -1.6820     1.4830 H     1 <1>   0.0800 
 41 H       -4.1580     2.2520     1.9210 H     1 <1>   0.0800 
 42 H       -5.1050     2.0100     0.4600 H     1 <1>   0.0800 
 43 H       -3.5090     2.7680     0.3760 H     1 <1>   0.0800 
 44 H        2.1740     6.1050     1.5500 H     1 <1>   0.0800 
 45 H        2.5230     4.6600     0.6320 H     1 <1>   0.0800 
 46 H        1.7220     4.5630     2.1850 H     1 <1>   0.0800 
 47 H       -2.3440    -4.0230    -1.3210 H     1 <1>   0.1500 
 48 H       -2.1990     7.1300    -1.8150 H     1 <1>   0.0800 
 49 H       -3.0290     7.1540    -0.2740 H     1 <1>   0.0800 
 50 H       -3.2990     5.8390    -1.3940 H     1 <1>   0.0800 
 51 H        2.1310     7.3770    -0.5440 H     1 <1>   0.0800 
 52 H        1.9420     8.3820     0.8870 H     1 <1>   0.0800 
 53 H        1.6030     9.0320    -0.6970 H     1 <1>   0.0800 
 54 H       -1.4990    -6.7540    -0.6350 H     1 <1>   0.0800 
 55 H       -2.9720    -6.9750    -1.5600 H     1 <1>   0.0800 
 56 H       -2.8260    -7.6760     0.0350 H     1 <1>   0.0800 
@<TRIPOS>BOND
  1   1   2  2   
  2   2   3  am  
  3   2   4  1   
  4   3   5  1   
  5   3   6  1   
  6   4   7  1   
  7   4  29  1   
  8   4  30  1   
  9   5   8  1   
 10   5  31  1   
 11   5  32  1   
 12   6   9  1   
 13   6  33  1   
 14   6  34  1   
 15   7  10  1   
 16   7  35  1   
 17   7  36  1   
 18   8   9  1   
 19   8  11  1   
 20   8  37  1   
 21   9  12  1   
 22   9  38  1   
 23  10  13  1   
 24  10  14  1   
 25  11  15  1   
 26  12  16  1   
 27  12  39  1   
 28  12  40  1   
 29  13  17  2   
 30  14  18  2   
 31  14  19  1   
 32  15  41  1   
 33  15  42  1   
 34  15  43  1   
 35  16  20  1   
 36  16  21  2   
 37  17  18  1   
 38  17  22  1   
 39  18  23  1   
 40  19  44  1   
 41  19  45  1   
 42  19  46  1   
 43  20  24  1   
 44  21  25  1   
 45  21  47  1   
 46  22  48  1   
 47  22  49  1   
 48  22  50  1   
 49  23  26  2   
 50  23  27  1   
 51  24  25  2   
 52  25  28  1   
 53  27  51  1   
 54  27  52  1   
 55  27  53  1   
 56  28  54  1   
 57  28  55  1   
 58  28  56  1   
@<TRIPOS>SUBSTRUCTURE
  1 ****   5 GROUP 4 **** **** 0

# MOE 2024.06 (io_trps.svl 2023.06)
