@<TRIPOS>MOLECULE
NONAME
55 58 1 0 0 
SMALL
USER_CHARGES


@<TRIPOS>ATOM
  1 O        0.7640    -1.5440    -1.7630 O.3   1 <1>  -0.6800 
  2 C        0.3640    -1.8280    -0.4650 C.3   1 <1>   0.1200 
  3 C        1.5390    -1.6820     0.5460 C.3   1 <1>   0.0000 
  4 C        2.8440    -2.4060     0.1010 C.3   1 <1>   0.4230 
  5 C        1.8480    -0.1740     0.7590 C.3   1 <1>  -0.1600 
  6 C        1.0860    -2.2790     1.9080 C.3   1 <1>  -0.1600 
  7 N        2.6630    -3.9110    -0.1000 N.4   1 <1>  -0.9590 
  8 C        3.5800    -1.6530    -1.0560 C.3   1 <1>   0.3430 
  9 C        2.4890     0.5100    -0.4520 C.3   1 <1>   0.3430 
 10 C        1.5520    -3.7320     2.1380 C.3   1 <1>  -0.1600 
 11 C        1.6660    -4.5330     0.8400 C.3   1 <1>   0.3430 
 12 C        2.3270    -4.3330    -1.5030 C.3   1 <1>   0.2630 
 13 N        3.7720    -0.1760    -0.8050 N.4   1 <1>  -0.9590 
 14 C        4.4050     0.4970    -1.9760 C.3   1 <1>   0.5240 
 15 C        4.8060     1.8880    -1.5410 C.2   1 <1>  -0.1810 
 16 C        4.2350     3.0700    -1.9950 C.2   1 <1>   0.1390 
 17 C        5.7440     2.2850    -0.6520 C.2   1 <1>  -0.3020 
 18 N        4.7540     4.1060    -1.4250 N.2   1 <1>  -0.7070 
 19 N        5.7180     3.6430    -0.5890 N.pl3 1 <1>   0.5930 
 20 C        6.5150     4.4770     0.2470 C.ar  1 <1>  -0.0230 
 21 C        7.8350     4.1450     0.5470 C.ar  1 <1>  -0.1500 
 22 C        5.9870     5.6470     0.7880 C.ar  1 <1>  -0.1500 
 23 C        8.5970     4.9500     1.3750 C.ar  1 <1>  -0.1500 
 24 C        6.7480     6.4530     1.6160 C.ar  1 <1>  -0.1500 
 25 C        8.0540     6.1040     1.9120 C.ar  1 <1>  -0.1500 
 26 H       -0.0240    -1.4870    -2.3540 H     1 <1>   0.4000 
 27 H       -0.4370    -1.1530    -0.2080 H     1 <1>   0.0800 
 28 H       -0.0380    -2.8270    -0.4610 H     1 <1>   0.0800 
 29 H        3.5050    -2.3080     0.9470 H     1 <1>   0.0800 
 30 H        2.5070    -0.0380     1.5990 H     1 <1>   0.0800 
 31 H        0.9370     0.3480     0.9970 H     1 <1>   0.0800 
 32 H        1.4600    -1.6940     2.7330 H     1 <1>   0.0800 
 33 H        0.0110    -2.2380     1.9850 H     1 <1>   0.0800 
 34 H        3.5630    -4.3570     0.1380 H     1 <1>   0.4500 
 35 H        3.0080    -1.7740    -1.9600 H     1 <1>   0.0800 
 36 H        4.5420    -2.1120    -1.2080 H     1 <1>   0.0800 
 37 H        2.6770     1.5470    -0.2140 H     1 <1>   0.0800 
 38 H        1.8100     0.4820    -1.2890 H     1 <1>   0.0800 
 39 H        0.8540    -4.2250     2.7940 H     1 <1>   0.0800 
 40 H        2.5050    -3.7420     2.6390 H     1 <1>   0.0800 
 41 H        0.6940    -4.5660     0.3740 H     1 <1>   0.0800 
 42 H        1.9550    -5.5490     1.0630 H     1 <1>   0.0800 
 43 H        1.3920    -3.8980    -1.8160 H     1 <1>   0.0800 
 44 H        2.2350    -5.4070    -1.5580 H     1 <1>   0.0800 
 45 H        3.0970    -4.0280    -2.1920 H     1 <1>   0.0800 
 46 H        4.4240    -0.0130    -0.0250 H     1 <1>   0.4500 
 47 H        5.2850    -0.0410    -2.2890 H     1 <1>   0.0800 
 48 H        3.7160     0.5480    -2.8050 H     1 <1>   0.0800 
 49 H        3.4480     3.1480    -2.7300 H     1 <1>   0.1500 
 50 H        6.4320     1.7170    -0.0550 H     1 <1>   0.1500 
 51 H        8.2820     3.2600     0.1320 H     1 <1>   0.1500 
 52 H        4.9740     5.9320     0.5580 H     1 <1>   0.1500 
 53 H        9.6150     4.6840     1.6020 H     1 <1>   0.1500 
 54 H        6.3250     7.3530     2.0270 H     1 <1>   0.1500 
 55 H        8.6460     6.7310     2.5560 H     1 <1>   0.1500 
@<TRIPOS>BOND
  1   1   2  1   
  2   1  26  1   
  3   2   3  1   
  4   2  27  1   
  5   2  28  1   
  6   3   4  1   
  7   3   5  1   
  8   3   6  1   
  9   4   7  1   
 10   4   8  1   
 11   4  29  1   
 12   5   9  1   
 13   5  30  1   
 14   5  31  1   
 15   6  10  1   
 16   6  32  1   
 17   6  33  1   
 18   7  11  1   
 19   7  12  1   
 20   7  34  1   
 21   8  13  1   
 22   8  35  1   
 23   8  36  1   
 24   9  13  1   
 25   9  37  1   
 26   9  38  1   
 27  10  11  1   
 28  10  39  1   
 29  10  40  1   
 30  11  41  1   
 31  11  42  1   
 32  12  43  1   
 33  12  44  1   
 34  12  45  1   
 35  13  14  1   
 36  13  46  1   
 37  14  15  1   
 38  14  47  1   
 39  14  48  1   
 40  15  16  1   
 41  15  17  2   
 42  16  18  2   
 43  16  49  1   
 44  17  19  1   
 45  17  50  1   
 46  18  19  1   
 47  19  20  1   
 48  20  21  ar  
 49  20  22  ar  
 50  21  23  ar  
 51  21  51  1   
 52  22  24  ar  
 53  22  52  1   
 54  23  25  ar  
 55  23  53  1   
 56  24  25  ar  
 57  24  54  1   
 58  25  55  1   
@<TRIPOS>SUBSTRUCTURE
  1 ****  13 GROUP 4 **** **** 0

# MOE 2024.06 (io_trps.svl 2023.06)
