@<TRIPOS>MOLECULE
NONAME
59 62 1 0 0 
SMALL
USER_CHARGES


@<TRIPOS>ATOM
  1 O        2.7070    -0.0690     0.3890 O.3   1 <1>  -0.5600 
  2 C        2.9560    -1.0580    -0.5890 C.3   1 <1>   0.4240 
  3 C        1.3890     0.3760     0.5320 C.3   1 <1>   0.1200 
  4 C        1.8120    -2.0860    -0.6880 C.ar  1 <1>  -0.1440 
  5 C        4.2670    -1.7340    -0.1450 C.3   1 <1>  -0.1600 
  6 C        3.1970    -0.3360    -1.9240 C.3   1 <1>  -0.1600 
  7 C        0.5290    -0.7800     1.0320 C.3   1 <1>  -0.0160 
  8 C        0.6650    -1.9580     0.0890 C.ar  1 <1>  -0.1440 
  9 C        1.9020    -3.1630    -1.5650 C.ar  1 <1>  -0.1500 
 10 C        5.5220    -0.8870    -0.3920 C.3   1 <1>   0.3430 
 11 C        4.3100     0.7160    -1.8420 C.3   1 <1>   0.3430 
 12 C       -0.3560    -2.8910     0.0030 C.ar  1 <1>  -0.1500 
 13 C        0.8810    -4.0910    -1.6530 C.ar  1 <1>  -0.1500 
 14 N        5.1390     0.5320    -0.6070 N.4   1 <1>  -0.9590 
 15 C       -0.2530    -3.9670    -0.8710 C.ar  1 <1>   0.0820 
 16 C        6.2630     1.4980    -0.4750 C.3   1 <1>   0.4860 
 17 O       -1.2040    -4.9220    -1.0170 O.3   1 <1>  -0.3620 
 18 C        5.7090     2.9020    -0.5240 C.ar  1 <1>  -0.1440 
 19 C       -2.3890    -4.9010    -0.2520 C.3   1 <1>   0.0400 
 20 C        4.9380     3.4100     0.4970 C.ar  1 <1>   0.1600 
 21 C        5.9330     3.7270    -1.6040 C.ar  1 <1>   0.1600 
 22 N        4.4140     4.6060     0.4430 N.ar  1 <1>  -0.6200 
 23 N        5.4190     4.9260    -1.6810 N.ar  1 <1>  -0.6200 
 24 C        4.6790     5.3100    -0.6510 C.ar  1 <1>   0.7200 
 25 N        4.1580     6.5500    -0.7710 N.pl3 1 <1>  -0.8690 
 26 C        3.6010     7.3690     0.3240 C.3   1 <1>   0.2090 
 27 C        4.6650     8.3640     0.7880 C.3   1 <1>  -0.1600 
 28 C        4.1490     9.2490     1.9280 C.3   1 <1>  -0.2400 
 29 H        1.0300     0.7400    -0.4150 H     1 <1>   0.0800 
 30 H        1.3820     1.1820     1.2450 H     1 <1>   0.0800 
 31 H        4.4010    -2.6630    -0.6650 H     1 <1>   0.0800 
 32 H        4.1910    -1.9820     0.8990 H     1 <1>   0.0800 
 33 H        2.2870     0.1220    -2.2680 H     1 <1>   0.0800 
 34 H        3.4700    -1.0580    -2.6710 H     1 <1>   0.0800 
 35 H       -0.4970    -0.4610     1.0830 H     1 <1>   0.0800 
 36 H        0.8420    -1.0650     2.0210 H     1 <1>   0.0800 
 37 H        2.7620    -3.3000    -2.1930 H     1 <1>   0.1500 
 38 H        6.0400    -1.2550    -1.2640 H     1 <1>   0.0800 
 39 H        6.1810    -0.9760     0.4570 H     1 <1>   0.0800 
 40 H        3.8570     1.6950    -1.8190 H     1 <1>   0.0800 
 41 H        4.9290     0.6560    -2.7230 H     1 <1>   0.0800 
 42 H       -1.2260    -2.7690     0.6190 H     1 <1>   0.1500 
 43 H        0.9540    -4.9240    -2.3310 H     1 <1>   0.1500 
 44 H        4.4590     0.7230     0.1560 H     1 <1>   0.4500 
 45 H        6.9720     1.3540    -1.2750 H     1 <1>   0.0800 
 46 H        6.7720     1.3480     0.4630 H     1 <1>   0.0800 
 47 H       -2.9800    -5.7550    -0.5310 H     1 <1>   0.0800 
 48 H       -2.9290    -3.9970    -0.4690 H     1 <1>   0.0800 
 49 H       -2.1320    -4.9590     0.7910 H     1 <1>   0.0800 
 50 H        4.7350     2.8270     1.3810 H     1 <1>   0.1500 
 51 H        6.5410     3.4020    -2.4320 H     1 <1>   0.1500 
 52 H        4.5120     7.0580    -1.5800 H     1 <1>   0.4000 
 53 H        3.2970     6.7450     1.1470 H     1 <1>   0.0800 
 54 H        2.7330     7.8950    -0.0360 H     1 <1>   0.0800 
 55 H        4.9570     8.9880    -0.0390 H     1 <1>   0.0800 
 56 H        5.5280     7.8190     1.1290 H     1 <1>   0.0800 
 57 H        3.2930     9.8170     1.6070 H     1 <1>   0.0800 
 58 H        4.9180     9.9350     2.2370 H     1 <1>   0.0800 
 59 H        3.8700     8.6460     2.7750 H     1 <1>   0.0800 
@<TRIPOS>BOND
  1   1   2  1   
  2   1   3  1   
  3   2   4  1   
  4   2   5  1   
  5   2   6  1   
  6   3   7  1   
  7   3  29  1   
  8   3  30  1   
  9   4   8  ar  
 10   4   9  ar  
 11   5  10  1   
 12   5  31  1   
 13   5  32  1   
 14   6  11  1   
 15   6  33  1   
 16   6  34  1   
 17   7   8  1   
 18   7  35  1   
 19   7  36  1   
 20   8  12  ar  
 21   9  13  ar  
 22   9  37  1   
 23  10  14  1   
 24  10  38  1   
 25  10  39  1   
 26  11  14  1   
 27  11  40  1   
 28  11  41  1   
 29  12  15  ar  
 30  12  42  1   
 31  13  15  ar  
 32  13  43  1   
 33  14  16  1   
 34  14  44  1   
 35  15  17  1   
 36  16  18  1   
 37  16  45  1   
 38  16  46  1   
 39  17  19  1   
 40  18  20  ar  
 41  18  21  ar  
 42  19  47  1   
 43  19  48  1   
 44  19  49  1   
 45  20  22  ar  
 46  20  50  1   
 47  21  23  ar  
 48  21  51  1   
 49  22  24  ar  
 50  23  24  ar  
 51  24  25  1   
 52  25  26  1   
 53  25  52  1   
 54  26  27  1   
 55  26  53  1   
 56  26  54  1   
 57  27  28  1   
 58  27  55  1   
 59  27  56  1   
 60  28  57  1   
 61  28  58  1   
 62  28  59  1   
@<TRIPOS>SUBSTRUCTURE
  1 ****   1 GROUP 4 **** **** 0

# MOE 2024.06 (io_trps.svl 2023.06)
