@<TRIPOS>MOLECULE
NONAME
20 20 1 0 0 
SMALL
USER_CHARGES


@<TRIPOS>ATOM
  1 O       -3.0960     0.5460    -0.8990 O.co2 1 <1>  -0.9000 
  2 C       -2.8950     1.5260    -0.1610 C.2   1 <1>   0.9060 
  3 O       -1.7910     2.0310     0.0370 O.co2 1 <1>  -0.9000 
  4 C       -4.1550     2.0840     0.5280 C.3   1 <1>   0.3170 
  5 N       -5.3370     1.2140     0.1950 N.4   1 <1>  -0.9060 
  6 C       -4.5500     3.4860     0.0550 C.3   1 <1>  -0.1600 
  7 C       -6.3500     2.0030    -0.5000 C.3   1 <1>   0.4230 
  8 C       -6.0690     3.4390    -0.0810 C.3   1 <1>  -0.1600 
  9 C       -7.7370     1.5100    -0.1120 C.3   1 <1>  -0.2400 
 10 H       -3.9850     2.0870     1.5890 H     1 <1>   0.0800 
 11 H       -4.8850     0.5290    -0.4580 H     1 <1>   0.4500 
 12 H       -5.6770     0.7060     1.0090 H     1 <1>   0.4500 
 13 H       -4.2140     4.2390     0.7470 H     1 <1>   0.0800 
 14 H       -4.0950     3.6790    -0.9030 H     1 <1>   0.0800 
 15 H       -6.1980     1.9100    -1.5650 H     1 <1>   0.0800 
 16 H       -6.4320     4.1430    -0.8090 H     1 <1>   0.0800 
 17 H       -6.5290     3.6480     0.8700 H     1 <1>   0.0800 
 18 H       -7.8940     1.5870     0.9490 H     1 <1>   0.0800 
 19 H       -7.8690     0.4890    -0.4240 H     1 <1>   0.0800 
 20 H       -8.4800     2.1080    -0.6080 H     1 <1>   0.0800 
@<TRIPOS>BOND
  1   1   2  ar  
  2   2   3  ar  
  3   2   4  1   
  4   4   5  1   
  5   4   6  1   
  6   4  10  1   
  7   5   7  1   
  8   5  11  1   
  9   5  12  1   
 10   6   8  1   
 11   6  13  1   
 12   6  14  1   
 13   7   8  1   
 14   7   9  1   
 15   7  15  1   
 16   8  16  1   
 17   8  17  1   
 18   9  18  1   
 19   9  19  1   
 20   9  20  1   
@<TRIPOS>SUBSTRUCTURE
  1 ****   4 GROUP 4 **** **** 0

# MOE 2024.06 (io_trps.svl 2023.06)
