@<TRIPOS>MOLECULE
NONAME
37 39 1 0 0 
SMALL
USER_CHARGES


@<TRIPOS>ATOM
  1 O        1.8040     1.9600     3.2130 O.co2 1 <1>  -0.9000 
  2 C        2.9810     1.7500     2.8890 C.2   1 <1>   0.9470 
  3 O        3.9060     1.9710     3.6820 O.co2 1 <1>  -0.9000 
  4 C        3.3200     1.4380     1.4280 C.3   1 <1>  -0.2420 
  5 C        3.4980     0.1500     0.6580 C.3   1 <1>  -0.2420 
  6 C        4.3520     2.4210     0.9080 C.3   1 <1>   0.2350 
  7 C        2.2140     0.9290     0.5350 C.3   1 <1>  -0.2000 
  8 C        3.4470    -1.3080     1.1160 C.2   1 <1>   0.9470 
  9 C        4.6160     0.3620    -0.3510 C.3   1 <1>   0.2350 
 10 N        4.8400     1.8340    -0.3730 N.am  1 <1>  -0.6600 
 11 O        2.4250    -1.9770     0.9050 O.co2 1 <1>  -0.9000 
 12 O        4.4790    -1.8390     1.5480 O.co2 1 <1>  -0.9000 
 13 C        5.2780     2.5140    -1.4720 C.2   1 <1>   0.5690 
 14 O        5.6190     1.9440    -2.4860 O.2   1 <1>  -0.5700 
 15 C        5.3320     4.0350    -1.4770 C.3   1 <1>   0.0440 
 16 C        6.5240     4.5920    -0.7060 C.ar  1 <1>  -0.1430 
 17 C        7.8040     4.4380    -1.2140 C.ar  1 <1>  -0.1500 
 18 C        6.3500     5.2550     0.4990 C.ar  1 <1>  -0.1500 
 19 C        8.8960     4.9450    -0.5310 C.ar  1 <1>  -0.1500 
 20 C        7.4430     5.7590     1.1840 C.ar  1 <1>  -0.1500 
 21 C        8.7210     5.6090     0.6730 C.ar  1 <1>  -0.1430 
 22 C        9.9130     6.1630     1.4310 C.3   1 <1>  -0.0970 
 23 H        5.1750     2.4950     1.6000 H     1 <1>   0.0800 
 24 H        3.9010     3.3850     0.7740 H     1 <1>   0.0800 
 25 H        1.9900     1.4420    -0.3800 H     1 <1>   0.1000 
 26 H        1.3360     0.5170     1.0040 H     1 <1>   0.1000 
 27 H        4.3360    -0.0080    -1.3220 H     1 <1>   0.0800 
 28 H        5.5150    -0.1300    -0.0200 H     1 <1>   0.0800 
 29 H        5.4020     4.3650    -2.4970 H     1 <1>   0.0800 
 30 H        4.4120     4.4250    -1.0890 H     1 <1>   0.0800 
 31 H        7.9510     3.9140    -2.1430 H     1 <1>   0.1500 
 32 H        5.3670     5.3790     0.9180 H     1 <1>   0.1500 
 33 H        9.8810     4.8160    -0.9420 H     1 <1>   0.1500 
 34 H        7.2900     6.2660     2.1200 H     1 <1>   0.1500 
 35 H       10.8200     5.6790     1.1190 H     1 <1>   0.0800 
 36 H        9.7870     6.0020     2.4860 H     1 <1>   0.0800 
 37 H       10.0010     7.2190     1.2460 H     1 <1>   0.0800 
@<TRIPOS>BOND
  1   1   2  ar  
  2   2   3  ar  
  3   2   4  1   
  4   4   5  1   
  5   4   6  1   
  6   4   7  1   
  7   5   7  1   
  8   5   8  1   
  9   5   9  1   
 10   6  10  1   
 11   6  23  1   
 12   6  24  1   
 13   7  25  1   
 14   7  26  1   
 15   8  11  ar  
 16   8  12  ar  
 17   9  10  1   
 18   9  27  1   
 19   9  28  1   
 20  10  13  am  
 21  13  14  2   
 22  13  15  1   
 23  15  16  1   
 24  15  29  1   
 25  15  30  1   
 26  16  17  ar  
 27  16  18  ar  
 28  17  19  ar  
 29  17  31  1   
 30  18  20  ar  
 31  18  32  1   
 32  19  21  ar  
 33  19  33  1   
 34  20  21  ar  
 35  20  34  1   
 36  21  22  1   
 37  22  35  1   
 38  22  36  1   
 39  22  37  1   
@<TRIPOS>SUBSTRUCTURE
  1 ****   6 GROUP 4 **** **** 0

# MOE 2024.06 (io_trps.svl 2023.06)
