@<TRIPOS>MOLECULE
NONAME
44 46 1 0 0 
SMALL
USER_CHARGES


@<TRIPOS>ATOM
  1 S        1.5550     0.6760    -0.7840 S.o2  1 <1>   1.3330 
  2 O        2.7600    -0.0690    -0.5000 O.2   1 <1>  -0.6500 
  3 O        1.3840     1.2230    -2.1130 O.2   1 <1>  -0.6500 
  4 N        0.2290    -0.3320    -0.4510 N.am  1 <1>  -0.8490 
  5 C        1.3260     2.0150     0.3960 C.3   1 <1>  -0.0550 
  6 C       -0.9940     0.0530    -1.1650 C.3   1 <1>   0.1160 
  7 C        0.5180    -1.7500    -0.6920 C.3   1 <1>   0.1160 
  8 C        1.9040     1.8530     1.8180 C.3   1 <1>  -0.0800 
  9 C        3.4150     1.7570     1.9220 C.3   1 <1>   0.2890 
 10 C        1.4770     0.6250     2.6050 C.3   1 <1>   0.1200 
 11 N        4.0540     3.0870     1.7040 N.pl3 1 <1>  -0.8690 
 12 C        3.6020     1.1690     3.3210 C.3   1 <1>   0.1200 
 13 O        2.3840     0.5610     3.6640 O.3   1 <1>  -0.5600 
 14 C        4.5260     3.5290     0.5240 C.ar  1 <1>   0.4100 
 15 N        4.3450     2.7460    -0.5490 N.ar  1 <1>  -0.6200 
 16 C        5.1720     4.7540     0.3530 C.ar  1 <1>   0.0400 
 17 C        4.7720     3.1420    -1.7140 C.ar  1 <1>   0.5280 
 18 S        5.5440     5.9860     1.5670 S.3   1 <1>  -0.0800 
 19 C        5.6180     5.1630    -0.8730 C.ar  1 <1>   0.3070 
 20 N        5.4020     4.3230    -1.9170 N.ar  1 <1>  -0.1250 
 21 C        4.5380     2.2250    -2.8980 C.3   1 <1>  -0.0970 
 22 C        6.2990     7.0170     0.3580 C.2   1 <1>  -0.1100 
 23 C        6.2560     6.4450    -0.8620 C.2   1 <1>  -0.1500 
 24 H        1.7600     2.9010    -0.0210 H     1 <1>   0.0800 
 25 H        0.2760     2.2100     0.4840 H     1 <1>   0.0800 
 26 H       -1.8200    -0.5560    -0.8380 H     1 <1>   0.0800 
 27 H       -0.8650    -0.0730    -2.2280 H     1 <1>   0.0800 
 28 H       -1.2340     1.0830    -0.9660 H     1 <1>   0.0800 
 29 H       -0.3420    -2.3530    -0.4560 H     1 <1>   0.0800 
 30 H        1.3340    -2.0740    -0.0660 H     1 <1>   0.0800 
 31 H        0.7900    -1.9080    -1.7230 H     1 <1>   0.0800 
 32 H        1.5860     2.7060     2.3910 H     1 <1>   0.0800 
 33 H        3.8230     1.0430     1.2320 H     1 <1>   0.0800 
 34 H        1.5790    -0.2800     2.0290 H     1 <1>   0.0800 
 35 H        0.4780     0.7040     2.9980 H     1 <1>   0.0800 
 36 H        4.1340     3.6640     2.5470 H     1 <1>   0.4000 
 37 H        3.8040     1.9310     4.0510 H     1 <1>   0.0800 
 38 H        4.3740     0.4200     3.3320 H     1 <1>   0.0800 
 39 H        5.7090     4.5770    -2.8550 H     1 <1>   0.4570 
 40 H        4.2870     1.2360    -2.5510 H     1 <1>   0.0800 
 41 H        5.4170     2.1480    -3.5110 H     1 <1>   0.0800 
 42 H        3.7150     2.5840    -3.4890 H     1 <1>   0.0800 
 43 H        6.7010     7.9580     0.6980 H     1 <1>   0.1500 
 44 H        6.6570     6.8910    -1.7570 H     1 <1>   0.1500 
@<TRIPOS>BOND
  1   1   2  2   
  2   1   3  2   
  3   1   4  am  
  4   1   5  1   
  5   4   6  1   
  6   4   7  1   
  7   5   8  1   
  8   5  24  1   
  9   5  25  1   
 10   6  26  1   
 11   6  27  1   
 12   6  28  1   
 13   7  29  1   
 14   7  30  1   
 15   7  31  1   
 16   8   9  1   
 17   8  10  1   
 18   8  32  1   
 19   9  11  1   
 20   9  12  1   
 21   9  33  1   
 22  10  13  1   
 23  10  34  1   
 24  10  35  1   
 25  11  14  1   
 26  11  36  1   
 27  12  13  1   
 28  12  37  1   
 29  12  38  1   
 30  14  15  ar  
 31  14  16  ar  
 32  15  17  ar  
 33  16  18  1   
 34  16  19  ar  
 35  17  20  ar  
 36  17  21  1   
 37  18  22  1   
 38  19  20  ar  
 39  19  23  1   
 40  20  39  1   
 41  21  40  1   
 42  21  41  1   
 43  21  42  1   
 44  22  23  2   
 45  22  43  1   
 46  23  44  1   
@<TRIPOS>SUBSTRUCTURE
  1 ****  15 GROUP 4 **** **** 0

# MOE 2024.06 (io_trps.svl 2023.06)
