@<TRIPOS>MOLECULE
NONAME
52 55 1 0 0 
SMALL
USER_CHARGES


@<TRIPOS>ATOM
  1 O        1.6160     0.6790    -2.0780 O.2   1 <1>  -0.5700 
  2 C        1.9920    -0.2640    -1.3990 C.2   1 <1>   0.5650 
  3 N        2.6600    -0.1180    -0.1530 N.pl3 1 <1>   0.5610 
  4 C        1.7440    -1.5970    -1.8430 C.2   1 <1>  -0.1360 
  5 N        3.0320     1.0070     0.5390 N.2   1 <1>  -0.7070 
  6 C        3.0270    -1.2350     0.5600 C.2   1 <1>  -0.0680 
  7 C        2.1080    -2.6970    -1.1280 C.2   1 <1>  -0.0380 
  8 C        3.6050     0.5780     1.6160 C.2   1 <1>   0.1080 
  9 N        2.7610    -2.5310     0.0810 N.pl3 1 <1>  -0.5840 
 10 C        3.6350    -0.8110     1.6910 C.2   1 <1>  -0.1500 
 11 C        1.8080    -4.1130    -1.6170 C.3   1 <1>   0.4810 
 12 C        4.1660     1.5190     2.6570 C.3   1 <1>  -0.0590 
 13 N        0.7740    -4.7330    -0.7380 N.4   1 <1>  -0.9590 
 14 C        0.6350    -6.1960    -1.0460 C.3   1 <1>   0.3430 
 15 C       -0.5330    -4.0170    -0.8470 C.3   1 <1>   0.3430 
 16 C       -0.3900    -6.8890    -0.1340 C.3   1 <1>  -0.0190 
 17 C       -1.5510    -4.6470     0.1060 C.3   1 <1>  -0.1600 
 18 C       -0.5400    -8.3350    -0.5980 C.2   1 <1>   0.5690 
 19 C       -1.7400    -6.1450    -0.1730 C.3   1 <1>  -0.1600 
 20 O       -0.2820    -8.5550    -1.7580 O.2   1 <1>  -0.5700 
 21 N       -0.9370    -9.3330     0.2530 N.am  1 <1>  -0.6600 
 22 C       -1.3520    -9.1800     1.6850 C.3   1 <1>   0.1400 
 23 C       -1.0320   -10.7540    -0.2140 C.3   1 <1>   0.1400 
 24 C       -2.7000    -9.8770     1.9400 C.3   1 <1>   0.1200 
 25 C       -2.3950   -11.3640     0.1520 C.3   1 <1>   0.1200 
 26 O       -2.6520   -11.2080     1.5190 O.3   1 <1>  -0.5600 
 27 H        1.2420    -1.6670    -2.7910 H     1 <1>   0.1500 
 28 H        3.1830    -3.3070     0.6120 H     1 <1>   0.4000 
 29 H        4.0610    -1.3880     2.4910 H     1 <1>   0.1500 
 30 H        2.7160    -4.6940    -1.5940 H     1 <1>   0.0800 
 31 H        1.4540    -4.0820    -2.6350 H     1 <1>   0.0800 
 32 H        4.9190     2.1420     2.2080 H     1 <1>   0.0800 
 33 H        4.6030     0.9710     3.4700 H     1 <1>   0.0800 
 34 H        3.3800     2.1460     3.0350 H     1 <1>   0.0800 
 35 H        1.0950    -4.6200     0.2310 H     1 <1>   0.4500 
 36 H        1.5860    -6.6920    -0.9420 H     1 <1>   0.0800 
 37 H        0.3150    -6.3150    -2.0700 H     1 <1>   0.0800 
 38 H       -0.9040    -4.0820    -1.8580 H     1 <1>   0.0800 
 39 H       -0.4090    -2.9750    -0.5970 H     1 <1>   0.0800 
 40 H        0.0070    -6.8870     0.8630 H     1 <1>   0.0800 
 41 H       -2.4960    -4.1440    -0.0140 H     1 <1>   0.0800 
 42 H       -1.2350    -4.4930     1.1230 H     1 <1>   0.0800 
 43 H       -2.4190    -6.5670     0.5480 H     1 <1>   0.0800 
 44 H       -2.1860    -6.2720    -1.1460 H     1 <1>   0.0800 
 45 H       -1.4410    -8.1480     1.9610 H     1 <1>   0.0800 
 46 H       -0.6060    -9.6310     2.3170 H     1 <1>   0.0800 
 47 H       -0.2540   -11.3330     0.2500 H     1 <1>   0.0800 
 48 H       -0.8980   -10.8190    -1.2800 H     1 <1>   0.0800 
 49 H       -3.4960    -9.3780     1.4140 H     1 <1>   0.0800 
 50 H       -2.9270    -9.8760     2.9920 H     1 <1>   0.0800 
 51 H       -2.4000   -12.4170    -0.0650 H     1 <1>   0.0800 
 52 H       -3.1860   -10.8930    -0.4060 H     1 <1>   0.0800 
@<TRIPOS>BOND
  1   1   2  2   
  2   2   3  1   
  3   2   4  1   
  4   3   5  1   
  5   3   6  1   
  6   4   7  2   
  7   4  27  1   
  8   5   8  2   
  9   6   9  1   
 10   6  10  2   
 11   7   9  1   
 12   7  11  1   
 13   8  10  1   
 14   8  12  1   
 15   9  28  1   
 16  10  29  1   
 17  11  13  1   
 18  11  30  1   
 19  11  31  1   
 20  12  32  1   
 21  12  33  1   
 22  12  34  1   
 23  13  14  1   
 24  13  15  1   
 25  13  35  1   
 26  14  16  1   
 27  14  36  1   
 28  14  37  1   
 29  15  17  1   
 30  15  38  1   
 31  15  39  1   
 32  16  18  1   
 33  16  19  1   
 34  16  40  1   
 35  17  19  1   
 36  17  41  1   
 37  17  42  1   
 38  18  20  2   
 39  18  21  am  
 40  19  43  1   
 41  19  44  1   
 42  21  22  1   
 43  21  23  1   
 44  22  24  1   
 45  22  45  1   
 46  22  46  1   
 47  23  25  1   
 48  23  47  1   
 49  23  48  1   
 50  24  26  1   
 51  24  49  1   
 52  24  50  1   
 53  25  26  1   
 54  25  51  1   
 55  25  52  1   
@<TRIPOS>SUBSTRUCTURE
  1 ****  13 GROUP 4 **** **** 0

# MOE 2024.06 (io_trps.svl 2023.06)
