@<TRIPOS>MOLECULE
NONAME
49 53 1 0 0 
SMALL
USER_CHARGES


@<TRIPOS>ATOM
  1 O       -1.3000     0.7740     0.4640 O.3   1 <1>  -0.2800 
  2 C       -0.5240     1.8400     0.5980 C.2   1 <1>   0.1410 
  3 C       -1.5770     0.2870     1.6580 C.2   1 <1>  -0.0400 
  4 C       -0.1210     2.5810    -0.5750 C.2   1 <1>   0.2880 
  5 C       -0.2720     2.0220     1.9220 C.2   1 <1>  -0.1500 
  6 C       -0.9620     1.0180     2.6110 C.2   1 <1>  -0.1500 
  7 C       -2.5130    -0.9070     1.7120 C.3   1 <1>   0.5230 
  8 N       -0.6600     2.4380    -1.7650 N.2   1 <1>  -0.7070 
  9 C        0.8870     3.5500    -0.6040 C.2   1 <1>  -0.1500 
 10 N       -3.5350    -0.6920     0.6530 N.4   1 <1>  -0.9590 
 11 N        0.0040     3.3000    -2.5580 N.pl3 1 <1>   0.3000 
 12 C        0.9410     3.9850    -1.8780 C.2   1 <1>  -0.3020 
 13 C       -4.4420     0.4580     0.9820 C.3   1 <1>   0.3430 
 14 C       -4.2920    -1.9110     0.2710 C.3   1 <1>   0.3430 
 15 C       -5.2970     0.8470    -0.2330 C.3   1 <1>   0.1430 
 16 C       -5.1480    -1.6040    -0.9640 C.3   1 <1>  -0.1600 
 17 C       -6.2560     1.9320     0.1940 C.ar  1 <1>   0.1670 
 18 C       -6.0680    -0.3850    -0.7570 C.3   1 <1>  -0.1600 
 19 C       -4.4660     1.5440    -1.3460 C.3   1 <1>  -0.1600 
 20 N       -7.0070     1.8770     1.2660 N.ar  1 <1>  -0.6200 
 21 C       -6.2360     2.9940    -0.6600 C.ar  1 <1>  -0.1430 
 22 C       -5.2680     2.7810    -1.7970 C.3   1 <1>  -0.0170 
 23 C       -7.7520     2.9590     1.4490 C.ar  1 <1>   0.7200 
 24 C       -7.0600     4.0550    -0.3710 C.ar  1 <1>   0.1600 
 25 N       -7.8320     4.0450     0.6930 N.ar  1 <1>  -0.6200 
 26 N       -8.5390     2.9500     2.5250 N.pl3 1 <1>  -0.9000 
 27 H        0.3260     2.7910     2.3790 H     1 <1>   0.1500 
 28 H       -0.9730     0.9020     3.6820 H     1 <1>   0.1500 
 29 H       -2.9690    -0.9960     2.6840 H     1 <1>   0.0800 
 30 H       -1.9500    -1.8010     1.4990 H     1 <1>   0.0800 
 31 H        1.4830     3.8600     0.2360 H     1 <1>   0.1500 
 32 H       -2.9750    -0.3800    -0.1570 H     1 <1>   0.4500 
 33 H       -0.2020     3.3980    -3.5610 H     1 <1>   0.2700 
 34 H        1.5780     4.7240    -2.3300 H     1 <1>   0.1500 
 35 H       -3.8660     1.3160     1.2860 H     1 <1>   0.0800 
 36 H       -5.0970     0.1890     1.7950 H     1 <1>   0.0800 
 37 H       -4.9300    -2.2170     1.0850 H     1 <1>   0.0800 
 38 H       -3.6120    -2.7180     0.0450 H     1 <1>   0.0800 
 39 H       -5.7520    -2.4660    -1.1910 H     1 <1>   0.0800 
 40 H       -4.5020    -1.4430    -1.8090 H     1 <1>   0.0800 
 41 H       -6.5720    -0.1400    -1.6770 H     1 <1>   0.0800 
 42 H       -6.8290    -0.6460    -0.0390 H     1 <1>   0.0800 
 43 H       -4.2540     0.9000    -2.1810 H     1 <1>   0.0800 
 44 H       -3.5280     1.8890    -0.9440 H     1 <1>   0.0800 
 45 H       -5.8120     2.5760    -2.7030 H     1 <1>   0.0800 
 46 H       -4.6280     3.6350    -1.9410 H     1 <1>   0.0800 
 47 H       -7.0850     4.9190    -1.0140 H     1 <1>   0.1500 
 48 H       -9.2740     3.6520     2.5210 H     1 <1>   0.4000 
 49 H       -8.7900     2.0360     2.8890 H     1 <1>   0.4000 
@<TRIPOS>BOND
  1   1   2  1   
  2   1   3  1   
  3   2   4  1   
  4   2   5  2   
  5   3   6  2   
  6   3   7  1   
  7   4   8  2   
  8   4   9  1   
  9   5   6  1   
 10   5  27  1   
 11   6  28  1   
 12   7  10  1   
 13   7  29  1   
 14   7  30  1   
 15   8  11  1   
 16   9  12  2   
 17   9  31  1   
 18  10  13  1   
 19  10  14  1   
 20  10  32  1   
 21  11  12  1   
 22  11  33  1   
 23  12  34  1   
 24  13  15  1   
 25  13  35  1   
 26  13  36  1   
 27  14  16  1   
 28  14  37  1   
 29  14  38  1   
 30  15  17  1   
 31  15  18  1   
 32  15  19  1   
 33  16  18  1   
 34  16  39  1   
 35  16  40  1   
 36  17  20  ar  
 37  17  21  ar  
 38  18  41  1   
 39  18  42  1   
 40  19  22  1   
 41  19  43  1   
 42  19  44  1   
 43  20  23  ar  
 44  21  22  1   
 45  21  24  ar  
 46  22  45  1   
 47  22  46  1   
 48  23  25  ar  
 49  23  26  1   
 50  24  25  ar  
 51  24  47  1   
 52  26  48  1   
 53  26  49  1   
@<TRIPOS>SUBSTRUCTURE
  1 ****  13 GROUP 4 **** **** 0

# MOE 2024.06 (io_trps.svl 2023.06)
