@<TRIPOS>MOLECULE
NONAME
47 48 1 0 0 
SMALL
USER_CHARGES


@<TRIPOS>ATOM
  1 S       -1.0410     0.3370    -0.3070 S.3   1 <1>  -0.0800 
  2 C       -0.2720     1.9010    -0.5180 C.2   1 <1>  -0.1400 
  3 C       -2.0780     0.6060    -1.6980 C.2   1 <1>  -0.1400 
  4 C       -0.7930     2.5400    -1.5830 C.2   1 <1>  -0.1500 
  5 C        0.8100     2.2740     0.4820 C.3   1 <1>   0.3200 
  6 C       -1.8220     1.8040    -2.2530 C.2   1 <1>  -0.1500 
  7 C       -3.0560    -0.4930    -2.0550 C.3   1 <1>  -0.0600 
  8 N        0.9150     3.7550     0.6030 N.am  1 <1>  -0.6600 
  9 C        1.9750     4.4250     0.0480 C.2   1 <1>   0.5690 
 10 C       -0.2180     4.3740     1.3330 C.3   1 <1>   0.2780 
 11 O        2.7950     3.8400    -0.6200 O.2   1 <1>  -0.5700 
 12 C        2.1480     5.9410     0.2370 C.3   1 <1>  -0.0190 
 13 C        0.0470     4.2670     2.8210 C.2   1 <1>  -0.2880 
 14 C        1.4540     6.7230    -0.8950 C.3   1 <1>  -0.1600 
 15 C        3.6300     6.3820     0.3610 C.3   1 <1>  -0.1600 
 16 C       -0.7390     3.6370     3.7000 C.2   1 <1>  -0.3000 
 17 C        1.4340     8.2430    -0.6260 C.3   1 <1>   0.2000 
 18 C        3.8540     7.8880     0.1090 C.3   1 <1>  -0.1600 
 19 O        1.5550     8.9120    -1.8560 O.3   1 <1>  -0.5600 
 20 C        2.5750     8.7030     0.3200 C.3   1 <1>   0.2000 
 21 C        0.3860     8.9880    -2.6120 C.3   1 <1>   0.0400 
 22 O        2.8630    10.0280     0.0710 O.3   1 <1>  -0.6800 
 23 H       -0.4890     3.5100    -1.9340 H     1 <1>   0.1500 
 24 H        1.7450     1.8420     0.1710 H     1 <1>   0.0800 
 25 H        0.5660     1.8620     1.4450 H     1 <1>   0.0800 
 26 H       -2.3150     2.2110    -3.1180 H     1 <1>   0.1500 
 27 H       -3.6300    -0.2130    -2.9190 H     1 <1>   0.0800 
 28 H       -3.7260    -0.6680    -1.2320 H     1 <1>   0.0800 
 29 H       -2.5220    -1.4010    -2.2700 H     1 <1>   0.0800 
 30 H       -0.3420     5.4040     1.0520 H     1 <1>   0.0800 
 31 H       -1.1340     3.8640     1.0850 H     1 <1>   0.0800 
 32 H        1.6800     6.2110     1.1650 H     1 <1>   0.0800 
 33 H        0.9600     4.7570     3.1140 H     1 <1>   0.1500 
 34 H        0.4460     6.3720    -1.0180 H     1 <1>   0.0800 
 35 H        1.9900     6.5250    -1.8090 H     1 <1>   0.0800 
 36 H        3.9810     6.1250     1.3460 H     1 <1>   0.0800 
 37 H        4.2400     5.8410    -0.3420 H     1 <1>   0.0800 
 38 H       -0.5280     3.5720     4.7540 H     1 <1>   0.1500 
 39 H       -1.6560     3.1320     3.4450 H     1 <1>   0.1500 
 40 H        0.5000     8.5260    -0.1700 H     1 <1>   0.0800 
 41 H        4.1750     8.0220    -0.9110 H     1 <1>   0.0800 
 42 H        4.6320     8.2520     0.7570 H     1 <1>   0.0800 
 43 H        2.2660     8.6210     1.3480 H     1 <1>   0.0800 
 44 H        0.6060     9.5360    -3.5110 H     1 <1>   0.0800 
 45 H       -0.3690     9.5080    -2.0480 H     1 <1>   0.0800 
 46 H        0.0560     7.9970    -2.8670 H     1 <1>   0.0800 
 47 H        2.7030    10.1600    -0.8910 H     1 <1>   0.4000 
@<TRIPOS>BOND
  1   1   2  1   
  2   1   3  1   
  3   2   4  2   
  4   2   5  1   
  5   3   6  2   
  6   3   7  1   
  7   4   6  1   
  8   4  23  1   
  9   5   8  1   
 10   5  24  1   
 11   5  25  1   
 12   6  26  1   
 13   7  27  1   
 14   7  28  1   
 15   7  29  1   
 16   8   9  am  
 17   8  10  1   
 18   9  11  2   
 19   9  12  1   
 20  10  13  1   
 21  10  30  1   
 22  10  31  1   
 23  12  14  1   
 24  12  15  1   
 25  12  32  1   
 26  13  16  2   
 27  13  33  1   
 28  14  17  1   
 29  14  34  1   
 30  14  35  1   
 31  15  18  1   
 32  15  36  1   
 33  15  37  1   
 34  16  38  1   
 35  16  39  1   
 36  17  19  1   
 37  17  20  1   
 38  17  40  1   
 39  18  20  1   
 40  18  41  1   
 41  18  42  1   
 42  19  21  1   
 43  20  22  1   
 44  20  43  1   
 45  21  44  1   
 46  21  45  1   
 47  21  46  1   
 48  22  47  1   
@<TRIPOS>SUBSTRUCTURE
  1 ****   9 GROUP 4 **** **** 0

# MOE 2024.06 (io_trps.svl 2023.06)
