@<TRIPOS>MOLECULE
NONAME
47 50 1 0 0 
SMALL
USER_CHARGES


@<TRIPOS>ATOM
  1 O       -0.4150     0.3730     0.2940 O.2   1 <1>  -0.5700 
  2 C       -1.4700     0.9740     0.2700 C.2   1 <1>   0.5440 
  3 N       -2.6430     0.2570     0.2450 N.am  1 <1>  -0.6600 
  4 C       -1.4530     2.4130     0.2500 C.ar  1 <1>   0.0860 
  5 C       -3.9820     0.7900    -0.1340 C.3   1 <1>   0.1400 
  6 C       -2.6590    -1.2300     0.1740 C.3   1 <1>   0.1400 
  7 C       -0.6850     3.1180    -0.6520 C.ar  1 <1>   0.1600 
  8 C       -2.1840     3.1870     1.1270 C.ar  1 <1>   0.1600 
  9 C       -4.9290    -0.3950     0.0430 C.3   1 <1>   0.2000 
 10 C       -4.0610    -1.5990    -0.3240 C.3   1 <1>  -0.0800 
 11 N       -0.6710     4.4300    -0.7170 N.ar  1 <1>  -0.6200 
 12 N       -2.1970     4.4980     1.0900 N.ar  1 <1>  -0.6200 
 13 O       -5.2780    -0.4660     1.3840 O.3   1 <1>  -0.6800 
 14 C       -4.5620    -2.9640     0.1820 C.3   1 <1>   0.0210 
 15 C       -1.4490     5.0970     0.1500 C.ar  1 <1>   0.6200 
 16 C       -3.6070    -4.0710    -0.2220 C.2   1 <1>   0.1080 
 17 C       -1.4570     6.5580     0.0690 C.ar  1 <1>   0.3100 
 18 N       -3.3100    -4.3280    -1.4580 N.2   1 <1>  -0.7070 
 19 C       -2.9430    -4.9120     0.6640 C.2   1 <1>  -0.1500 
 20 N       -2.6250     7.2280     0.1000 N.ar  1 <1>  -0.6200 
 21 C       -0.2420     7.2390    -0.0470 C.ar  1 <1>  -0.1500 
 22 N       -2.4400    -5.3530    -1.3920 N.pl3 1 <1>   0.3000 
 23 C       -2.1990    -5.7220    -0.1170 C.2   1 <1>  -0.3320 
 24 C       -2.5690     8.5440     0.0230 C.ar  1 <1>   0.1600 
 25 C       -0.1970     8.6130    -0.1280 C.ar  1 <1>  -0.1500 
 26 C       -1.2600    -6.8450     0.2830 C.3   1 <1>  -0.0600 
 27 C       -1.4020     9.2760    -0.0900 C.ar  1 <1>  -0.1500 
 28 H       -4.2860     1.6230     0.4750 H     1 <1>   0.0800 
 29 H       -3.9610     1.0880    -1.1680 H     1 <1>   0.0800 
 30 H       -1.9010    -1.5970    -0.4990 H     1 <1>   0.0800 
 31 H       -2.4800    -1.6310     1.1570 H     1 <1>   0.0800 
 32 H       -0.0650     2.5680    -1.3420 H     1 <1>   0.1500 
 33 H       -2.7760     2.7020     1.8840 H     1 <1>   0.1500 
 34 H       -5.8280    -0.3160    -0.5450 H     1 <1>   0.0800 
 35 H       -4.0090    -1.6470    -1.3990 H     1 <1>   0.0800 
 36 H       -4.4610    -0.4340     1.9210 H     1 <1>   0.4000 
 37 H       -5.5280    -3.1710    -0.2410 H     1 <1>   0.0800 
 38 H       -4.6610    -2.9610     1.2520 H     1 <1>   0.0800 
 39 H       -3.0230    -4.8970     1.7370 H     1 <1>   0.1500 
 40 H        0.6730     6.6750    -0.0750 H     1 <1>   0.1500 
 41 H       -2.0280    -5.7750    -2.2330 H     1 <1>   0.2700 
 42 H       -3.5070     9.0720     0.0520 H     1 <1>   0.1500 
 43 H        0.7360     9.1430    -0.2180 H     1 <1>   0.1500 
 44 H       -1.2380    -6.9450     1.3540 H     1 <1>   0.0800 
 45 H       -0.2620    -6.6350    -0.0610 H     1 <1>   0.0800 
 46 H       -1.5900    -7.7760    -0.1420 H     1 <1>   0.0800 
 47 H       -1.4400    10.3490    -0.1480 H     1 <1>   0.1500 
@<TRIPOS>BOND
  1   1   2  2   
  2   2   3  am  
  3   2   4  1   
  4   3   5  1   
  5   3   6  1   
  6   4   7  ar  
  7   4   8  ar  
  8   5   9  1   
  9   5  28  1   
 10   5  29  1   
 11   6  10  1   
 12   6  30  1   
 13   6  31  1   
 14   7  11  ar  
 15   7  32  1   
 16   8  12  ar  
 17   8  33  1   
 18   9  10  1   
 19   9  13  1   
 20   9  34  1   
 21  10  14  1   
 22  10  35  1   
 23  11  15  ar  
 24  12  15  ar  
 25  13  36  1   
 26  14  16  1   
 27  14  37  1   
 28  14  38  1   
 29  15  17  1   
 30  16  18  2   
 31  16  19  1   
 32  17  20  ar  
 33  17  21  ar  
 34  18  22  1   
 35  19  23  2   
 36  19  39  1   
 37  20  24  ar  
 38  21  25  ar  
 39  21  40  1   
 40  22  23  1   
 41  22  41  1   
 42  23  26  1   
 43  24  27  ar  
 44  24  42  1   
 45  25  27  ar  
 46  25  43  1   
 47  26  44  1   
 48  26  45  1   
 49  26  46  1   
 50  27  47  1   
@<TRIPOS>SUBSTRUCTURE
  1 ****   2 GROUP 4 **** **** 0

# MOE 2024.06 (io_trps.svl 2023.06)
