@<TRIPOS>MOLECULE
NONAME
51 53 1 0 0 
SMALL
USER_CHARGES


@<TRIPOS>ATOM
  1 O        3.0130    -1.4410    -0.3050 O.2   1 <1>  -0.5700 
  2 C        1.8190    -1.7010    -0.2870 C.2   1 <1>   0.5440 
  3 N        1.0440    -1.0980     0.6980 N.am  1 <1>  -0.6600 
  4 C        1.2770    -2.6050    -1.3110 C.ar  1 <1>   0.3960 
  5 C        1.6520    -0.3580     1.8390 C.3   1 <1>   0.0600 
  6 C       -0.4470    -1.1030     0.6910 C.3   1 <1>   0.0600 
  7 N        0.2930    -3.4640    -0.9980 N.ar  1 <1>  -0.6200 
  8 C        1.8080    -2.5510    -2.6000 C.ar  1 <1>  -0.1500 
  9 C       -0.1860    -4.2310    -1.9630 C.ar  1 <1>   0.4100 
 10 C        1.3280    -3.3660    -3.6020 C.ar  1 <1>  -0.1500 
 11 N       -1.2350    -5.0700    -1.6330 N.pl3 1 <1>  -0.8380 
 12 C        0.3070    -4.2180    -3.2640 C.ar  1 <1>  -0.1500 
 13 C       -1.3890    -5.4650    -0.1970 C.3   1 <1>   0.2090 
 14 C       -2.5450    -4.7920    -2.2910 C.3   1 <1>   0.2090 
 15 C       -2.2760    -6.7270    -0.0870 C.3   1 <1>   0.4230 
 16 C       -3.4540    -6.0260    -2.1730 C.3   1 <1>  -0.1600 
 17 N       -2.4310    -7.2810     1.3040 N.4   1 <1>  -0.9590 
 18 C       -3.6710    -6.4620    -0.6960 C.3   1 <1>  -0.1060 
 19 C       -3.2200    -8.5460     1.3760 C.3   1 <1>   0.3430 
 20 C       -1.2000    -7.3100     2.1380 C.3   1 <1>   0.2630 
 21 C       -4.3440    -5.3390     0.1160 C.2   1 <1>   0.9060 
 22 C       -4.5570    -7.7420    -0.6480 C.3   1 <1>  -0.1600 
 23 C       -3.8530    -8.9300     0.0310 C.3   1 <1>  -0.1600 
 24 O       -4.1730    -5.3140     1.3450 O.co2 1 <1>  -0.9000 
 25 O       -5.0370    -4.4990    -0.4550 O.co2 1 <1>  -0.9000 
 26 H        1.1790    -0.6550     2.7590 H     1 <1>   0.0800 
 27 H        1.5200     0.6990     1.6950 H     1 <1>   0.0800 
 28 H        2.7050    -0.5690     1.9150 H     1 <1>   0.0800 
 29 H       -0.8250    -0.1970     1.1310 H     1 <1>   0.0800 
 30 H       -0.8090    -1.9470     1.2520 H     1 <1>   0.0800 
 31 H       -0.8200    -1.1700    -0.3160 H     1 <1>   0.0800 
 32 H        2.6060    -1.8600    -2.8060 H     1 <1>   0.1500 
 33 H        1.7340    -3.3340    -4.5990 H     1 <1>   0.1500 
 34 H       -0.1190    -4.8840    -3.9890 H     1 <1>   0.1500 
 35 H       -0.4120    -5.6740     0.1990 H     1 <1>   0.0800 
 36 H       -1.8190    -4.6450     0.3540 H     1 <1>   0.0800 
 37 H       -3.0070    -3.9380    -1.8220 H     1 <1>   0.0800 
 38 H       -2.3970    -4.5540    -3.3300 H     1 <1>   0.0800 
 39 H       -1.7930    -7.4780    -0.6870 H     1 <1>   0.0800 
 40 H       -4.4040    -5.7870    -2.6190 H     1 <1>   0.0800 
 41 H       -3.0190    -6.8280    -2.7420 H     1 <1>   0.0800 
 42 H       -3.0760    -6.5480     1.7070 H     1 <1>   0.4500 
 43 H       -2.5890    -9.3540     1.7070 H     1 <1>   0.0800 
 44 H       -4.0050    -8.4170     2.1050 H     1 <1>   0.0800 
 45 H       -0.4710    -7.9750     1.7050 H     1 <1>   0.0800 
 46 H       -1.4360    -7.6480     3.1330 H     1 <1>   0.0800 
 47 H       -0.7760    -6.3220     2.2090 H     1 <1>   0.0800 
 48 H       -5.4610    -7.5220    -0.1020 H     1 <1>   0.0800 
 49 H       -4.8640    -8.0330    -1.6380 H     1 <1>   0.0800 
 50 H       -3.0900    -9.3200    -0.6190 H     1 <1>   0.0800 
 51 H       -4.5650    -9.7210     0.1920 H     1 <1>   0.0800 
@<TRIPOS>BOND
  1   1   2  2   
  2   2   3  am  
  3   2   4  1   
  4   3   5  1   
  5   3   6  1   
  6   4   7  ar  
  7   4   8  ar  
  8   5  26  1   
  9   5  27  1   
 10   5  28  1   
 11   6  29  1   
 12   6  30  1   
 13   6  31  1   
 14   7   9  ar  
 15   8  10  ar  
 16   8  32  1   
 17   9  11  1   
 18   9  12  ar  
 19  10  12  ar  
 20  10  33  1   
 21  11  13  1   
 22  11  14  1   
 23  12  34  1   
 24  13  15  1   
 25  13  35  1   
 26  13  36  1   
 27  14  16  1   
 28  14  37  1   
 29  14  38  1   
 30  15  17  1   
 31  15  18  1   
 32  15  39  1   
 33  16  18  1   
 34  16  40  1   
 35  16  41  1   
 36  17  19  1   
 37  17  20  1   
 38  17  42  1   
 39  18  21  1   
 40  18  22  1   
 41  19  23  1   
 42  19  43  1   
 43  19  44  1   
 44  20  45  1   
 45  20  46  1   
 46  20  47  1   
 47  21  24  ar  
 48  21  25  ar  
 49  22  23  1   
 50  22  48  1   
 51  22  49  1   
 52  23  50  1   
 53  23  51  1   
@<TRIPOS>SUBSTRUCTURE
  1 ****  13 GROUP 4 **** **** 0

# MOE 2024.06 (io_trps.svl 2023.06)
