@<TRIPOS>MOLECULE
NONAME
52 53 1 0 0 
SMALL
USER_CHARGES


@<TRIPOS>ATOM
  1 S       -0.2940     0.3160    -1.5970 S.3   1 <1>  -0.0800 
  2 C        0.4230    -0.8730    -0.5370 C.2   1 <1>  -0.0450 
  3 C       -0.2150     1.5040    -0.3180 C.2   1 <1>   0.1980 
  4 C        0.6630    -0.2620     0.6450 C.2   1 <1>   0.0460 
  5 C        0.6030    -2.2100    -1.0330 C.2   1 <1>   0.7150 
  6 N        0.2630     1.0500     0.7720 N.2   1 <1>  -0.5650 
  7 C       -0.7060     2.9220    -0.6020 C.3   1 <1>   0.1000 
  8 C        1.3480    -0.8750     1.8500 C.3   1 <1>  -0.0590 
  9 O        1.4580    -2.4480    -1.8610 O.2   1 <1>  -0.5700 
 10 N       -0.2210    -3.2300    -0.6090 N.am  1 <1>  -0.6600 
 11 C       -2.2110     2.9530    -0.9000 C.3   1 <1>  -0.2400 
 12 C        0.0820     3.5680    -1.7480 C.3   1 <1>  -0.2400 
 13 C       -0.1820    -4.5290    -1.3680 C.3   1 <1>   0.3210 
 14 C       -1.2840    -3.0170     0.4220 C.3   1 <1>   0.1400 
 15 C       -1.2550    -5.5480    -0.9720 C.2   1 <1>   0.0460 
 16 C       -2.5330    -2.3840    -0.2200 C.3   1 <1>   0.3430 
 17 N       -2.5650    -5.3290    -1.2330 N.2   1 <1>  -0.5650 
 18 C       -1.0850    -6.7480    -0.3660 C.2   1 <1>  -0.3320 
 19 N       -3.3830    -1.6320     0.7640 N.4   1 <1>  -0.9590 
 20 C       -3.1520    -6.3990    -0.8050 C.2   1 <1>   0.0360 
 21 N       -2.3080    -7.3000    -0.2630 N.pl3 1 <1>   0.0330 
 22 C        0.1660    -7.4570     0.1300 C.3   1 <1>  -0.0600 
 23 C       -4.7040    -1.3200     0.1390 C.3   1 <1>   0.2630 
 24 C       -2.7180    -0.3710     1.2320 C.3   1 <1>   0.2630 
 25 H       -0.5290     3.5040     0.2870 H     1 <1>   0.0800 
 26 H        1.6350    -1.8930     1.6550 H     1 <1>   0.0800 
 27 H        0.6950    -0.8480     2.7030 H     1 <1>   0.0800 
 28 H        2.2330    -0.3100     2.0810 H     1 <1>   0.0800 
 29 H       -2.4370     2.3930    -1.7900 H     1 <1>   0.0800 
 30 H       -2.5350     3.9690    -1.0460 H     1 <1>   0.0800 
 31 H       -2.7610     2.5410    -0.0740 H     1 <1>   0.0800 
 32 H       -0.0900     3.0520    -2.6760 H     1 <1>   0.0800 
 33 H        1.1360     3.5380    -1.5300 H     1 <1>   0.0800 
 34 H       -0.2090     4.5960    -1.8690 H     1 <1>   0.0800 
 35 H        0.7900    -4.9690    -1.2370 H     1 <1>   0.0800 
 36 H       -0.2950    -4.3210    -2.4180 H     1 <1>   0.0800 
 37 H       -0.8960    -2.3750     1.1880 H     1 <1>   0.0800 
 38 H       -1.5430    -3.9470     0.8970 H     1 <1>   0.0800 
 39 H       -3.1180    -3.1630    -0.6780 H     1 <1>   0.0800 
 40 H       -2.2180    -1.7100    -0.9990 H     1 <1>   0.0800 
 41 H       -3.5530    -2.2480     1.5740 H     1 <1>   0.4500 
 42 H       -4.2110    -6.5810    -0.8680 H     1 <1>   0.1500 
 43 H       -2.5490    -8.2170     0.1260 H     1 <1>   0.2700 
 44 H        1.0400    -6.8490    -0.0160 H     1 <1>   0.0800 
 45 H        0.3040    -8.3800    -0.4060 H     1 <1>   0.0800 
 46 H        0.0790    -7.6750     1.1790 H     1 <1>   0.0800 
 47 H       -4.5700    -0.6840    -0.7210 H     1 <1>   0.0800 
 48 H       -5.3440    -0.8170     0.8450 H     1 <1>   0.0800 
 49 H       -5.1900    -2.2290    -0.1790 H     1 <1>   0.0800 
 50 H       -2.5050     0.2730     0.3950 H     1 <1>   0.0800 
 51 H       -1.7890    -0.5890     1.7330 H     1 <1>   0.0800 
 52 H       -3.3580     0.1590     1.9190 H     1 <1>   0.0800 
@<TRIPOS>BOND
  1   1   2  1   
  2   1   3  1   
  3   2   4  2   
  4   2   5  1   
  5   3   6  2   
  6   3   7  1   
  7   4   6  1   
  8   4   8  1   
  9   5   9  2   
 10   5  10  am  
 11   7  11  1   
 12   7  12  1   
 13   7  25  1   
 14   8  26  1   
 15   8  27  1   
 16   8  28  1   
 17  10  13  1   
 18  10  14  1   
 19  11  29  1   
 20  11  30  1   
 21  11  31  1   
 22  12  32  1   
 23  12  33  1   
 24  12  34  1   
 25  13  15  1   
 26  13  35  1   
 27  13  36  1   
 28  14  16  1   
 29  14  37  1   
 30  14  38  1   
 31  15  17  1   
 32  15  18  2   
 33  16  19  1   
 34  16  39  1   
 35  16  40  1   
 36  17  20  2   
 37  18  21  1   
 38  18  22  1   
 39  19  23  1   
 40  19  24  1   
 41  19  41  1   
 42  20  21  1   
 43  20  42  1   
 44  21  43  1   
 45  22  44  1   
 46  22  45  1   
 47  22  46  1   
 48  23  47  1   
 49  23  48  1   
 50  23  49  1   
 51  24  50  1   
 52  24  51  1   
 53  24  52  1   
@<TRIPOS>SUBSTRUCTURE
  1 ****  14 GROUP 4 **** **** 0

# MOE 2024.06 (io_trps.svl 2023.06)
