@<TRIPOS>MOLECULE
NONAME
46 48 1 0 0 
SMALL
USER_CHARGES


@<TRIPOS>ATOM
  1 F        0.8380     0.6470    -0.2970 F     1 <1>  -0.1900 
  2 C        1.8060     0.0430    -0.9280 C.ar  1 <1>   0.1900 
  3 C        3.1150     0.5340    -0.8330 C.ar  1 <1>   0.3960 
  4 C        1.4840    -1.0790    -1.6590 C.ar  1 <1>  -0.1500 
  5 N        4.1470    -0.0920    -1.4510 N.ar  1 <1>  -0.6200 
  6 C        3.3680     1.7460    -0.0640 C.2   1 <1>   0.5440 
  7 C        2.5510    -1.6790    -2.2810 C.ar  1 <1>   0.1900 
  8 C        3.8380    -1.1730    -2.1590 C.ar  1 <1>   0.1600 
  9 O        2.9480     2.8170    -0.4640 O.2   1 <1>  -0.5700 
 10 N        4.1450     1.7630     1.0850 N.am  1 <1>  -0.6600 
 11 F        2.3500    -2.7490    -2.9980 F     1 <1>  -0.1900 
 12 C        5.3960     0.9640     1.1830 C.3   1 <1>   0.1400 
 13 C        4.0200     2.8720     2.0690 C.3   1 <1>   0.1400 
 14 C        6.4350     1.4850     0.1670 C.3   1 <1>   0.3430 
 15 C        5.2180     3.8240     1.9870 C.3   1 <1>  -0.1600 
 16 N        6.9080     2.9030     0.3890 N.4   1 <1>  -0.9590 
 17 C        5.8230     3.9270     0.5840 C.3   1 <1>   0.3430 
 18 C        7.7960     3.3040    -0.7370 C.3   1 <1>   0.5240 
 19 C        8.5070     4.5810    -0.3610 C.2   1 <1>  -0.1810 
 20 C        9.5030     4.7900     0.5160 C.2   1 <1>  -0.0400 
 21 C        8.2510     5.8540    -0.8720 C.2   1 <1>   0.1080 
 22 O        9.7690     6.0660     0.5170 O.3   1 <1>  -0.0190 
 23 C       10.3080     3.8810     1.4240 C.3   1 <1>  -0.0600 
 24 N        9.0160     6.7200    -0.3160 N.2   1 <1>  -0.4100 
 25 C        7.2360     6.2200    -1.9380 C.3   1 <1>  -0.0590 
 26 H        0.4800    -1.4560    -1.7350 H     1 <1>   0.1500 
 27 H        4.6320    -1.6910    -2.6710 H     1 <1>   0.1500 
 28 H        5.1760    -0.0680     0.9710 H     1 <1>   0.0800 
 29 H        5.7940     1.0070     2.1820 H     1 <1>   0.0800 
 30 H        3.9330     2.4660     3.0630 H     1 <1>   0.0800 
 31 H        3.1130     3.4220     1.8720 H     1 <1>   0.0800 
 32 H        5.9980     1.4080    -0.8150 H     1 <1>   0.0800 
 33 H        7.2850     0.8240     0.1890 H     1 <1>   0.0800 
 34 H        5.9670     3.5490     2.7060 H     1 <1>   0.0800 
 35 H        4.8640     4.7990     2.2720 H     1 <1>   0.0800 
 36 H        7.4870     2.9390     1.2340 H     1 <1>   0.4500 
 37 H        6.2440     4.9150     0.4880 H     1 <1>   0.0800 
 38 H        5.0540     3.8230    -0.1650 H     1 <1>   0.0800 
 39 H        7.2200     3.4480    -1.6370 H     1 <1>   0.0800 
 40 H        8.5300     2.5370    -0.9200 H     1 <1>   0.0800 
 41 H       10.0150     2.8540     1.3080 H     1 <1>   0.0800 
 42 H       10.1690     4.1750     2.4500 H     1 <1>   0.0800 
 43 H       11.3530     3.9700     1.1850 H     1 <1>   0.0800 
 44 H        6.2380     6.0290    -1.5930 H     1 <1>   0.0800 
 45 H        7.4210     5.6610    -2.8360 H     1 <1>   0.0800 
 46 H        7.3190     7.2680    -2.1710 H     1 <1>   0.0800 
@<TRIPOS>BOND
  1   1   2  1   
  2   2   3  ar  
  3   2   4  ar  
  4   3   5  ar  
  5   3   6  1   
  6   4   7  ar  
  7   4  26  1   
  8   5   8  ar  
  9   6   9  2   
 10   6  10  am  
 11   7   8  ar  
 12   7  11  1   
 13   8  27  1   
 14  10  12  1   
 15  10  13  1   
 16  12  14  1   
 17  12  28  1   
 18  12  29  1   
 19  13  15  1   
 20  13  30  1   
 21  13  31  1   
 22  14  16  1   
 23  14  32  1   
 24  14  33  1   
 25  15  17  1   
 26  15  34  1   
 27  15  35  1   
 28  16  17  1   
 29  16  18  1   
 30  16  36  1   
 31  17  37  1   
 32  17  38  1   
 33  18  19  1   
 34  18  39  1   
 35  18  40  1   
 36  19  20  2   
 37  19  21  1   
 38  20  22  1   
 39  20  23  1   
 40  21  24  2   
 41  21  25  1   
 42  22  24  1   
 43  23  41  1   
 44  23  42  1   
 45  23  43  1   
 46  25  44  1   
 47  25  45  1   
 48  25  46  1   
@<TRIPOS>SUBSTRUCTURE
  1 ****  14 GROUP 4 **** **** 0

# MOE 2024.06 (io_trps.svl 2023.06)
