@<TRIPOS>MOLECULE
NONAME
44 47 1 0 0 
SMALL
USER_CHARGES


@<TRIPOS>ATOM
  1 S       -0.3830     0.0630    -0.7950 S.3   1 <1>  -0.1930 
  2 C       -1.4710    -1.1060    -0.1020 C.cat 1 <1>   0.8920 
  3 C        0.5850    -1.2550    -1.4970 C.2   1 <1>  -0.0490 
  4 N       -2.5400    -1.0420     0.6640 N.pl3 1 <1>  -0.7000 
  5 N       -1.1320    -2.3390    -0.4070 N.pl3 1 <1>  -0.6290 
  6 C        0.0430    -2.4450    -1.1850 C.2   1 <1>   0.2290 
  7 C       -2.9120    -2.3430     0.8920 C.2   1 <1>   0.1820 
  8 C       -2.0560    -3.1760     0.2210 C.2   1 <1>   0.2770 
  9 C       -4.0880    -2.6570     1.8020 C.3   1 <1>  -0.0720 
 10 C       -2.0220    -4.6270     0.1500 C.2   1 <1>   0.7030 
 11 O       -0.9580    -5.1960     0.3050 O.2   1 <1>  -0.5700 
 12 N       -3.1450    -5.3830    -0.1020 N.am  1 <1>  -0.6600 
 13 C       -4.3490    -4.9330    -0.8540 C.3   1 <1>   0.1400 
 14 C       -3.1360    -6.8750    -0.0430 C.3   1 <1>   0.1400 
 15 C       -5.3340    -6.0900    -0.7160 C.3   1 <1>   0.2000 
 16 C       -4.4270    -7.3220    -0.7430 C.3   1 <1>  -0.0800 
 17 O       -5.9450    -5.9790     0.5250 O.3   1 <1>  -0.6800 
 18 C       -5.0340    -8.6190    -0.1740 C.3   1 <1>   0.0210 
 19 C       -4.0200    -9.7480    -0.1780 C.2   1 <1>   0.1080 
 20 N       -3.2560   -10.0100    -1.1940 N.2   1 <1>  -0.7070 
 21 C       -3.7890   -10.6110     0.8880 C.2   1 <1>  -0.1500 
 22 N       -2.5110   -11.0600    -0.7980 N.pl3 1 <1>   0.3000 
 23 C       -2.8140   -11.4400     0.4610 C.2   1 <1>  -0.3320 
 24 C       -2.1440   -12.5910     1.1880 C.3   1 <1>  -0.0600 
 25 H        1.4590    -0.9820    -2.0640 H     1 <1>   0.1500 
 26 H       -2.9560    -0.1790     1.0220 H     1 <1>   0.4500 
 27 H        0.4090    -3.4250    -1.4580 H     1 <1>   0.1500 
 28 H       -4.1920    -3.7170     1.9460 H     1 <1>   0.0800 
 29 H       -5.0000    -2.2760     1.3780 H     1 <1>   0.0800 
 30 H       -3.9390    -2.2020     2.7660 H     1 <1>   0.0800 
 31 H       -4.7690    -4.0190    -0.4760 H     1 <1>   0.0800 
 32 H       -4.0890    -4.8070    -1.8920 H     1 <1>   0.0800 
 33 H       -2.2710    -7.2810    -0.5430 H     1 <1>   0.0800 
 34 H       -3.1250    -7.1920     0.9860 H     1 <1>   0.0800 
 35 H       -6.0950    -6.0940    -1.4780 H     1 <1>   0.0800 
 36 H       -4.1720    -7.5100    -1.7720 H     1 <1>   0.0800 
 37 H       -5.2740    -6.1020     1.2250 H     1 <1>   0.4000 
 38 H       -5.8770    -8.9130    -0.7720 H     1 <1>   0.0800 
 39 H       -5.3770    -8.4700     0.8330 H     1 <1>   0.0800 
 40 H       -4.2940   -10.5980     1.8380 H     1 <1>   0.1500 
 41 H       -1.8070   -11.4930    -1.4080 H     1 <1>   0.2700 
 42 H       -2.5600   -12.6980     2.1750 H     1 <1>   0.0800 
 43 H       -1.0880   -12.4090     1.2800 H     1 <1>   0.0800 
 44 H       -2.2970   -13.5100     0.6510 H     1 <1>   0.0800 
@<TRIPOS>BOND
  1   1   2  1   
  2   1   3  1   
  3   2   4  ar  
  4   2   5  ar  
  5   3   6  2   
  6   3  25  1   
  7   4   7  1   
  8   4  26  1   
  9   5   6  1   
 10   5   8  1   
 11   6  27  1   
 12   7   8  2   
 13   7   9  1   
 14   8  10  1   
 15   9  28  1   
 16   9  29  1   
 17   9  30  1   
 18  10  11  2   
 19  10  12  am  
 20  12  13  1   
 21  12  14  1   
 22  13  15  1   
 23  13  31  1   
 24  13  32  1   
 25  14  16  1   
 26  14  33  1   
 27  14  34  1   
 28  15  16  1   
 29  15  17  1   
 30  15  35  1   
 31  16  18  1   
 32  16  36  1   
 33  17  37  1   
 34  18  19  1   
 35  18  38  1   
 36  18  39  1   
 37  19  20  2   
 38  19  21  1   
 39  20  22  1   
 40  21  23  2   
 41  21  40  1   
 42  22  23  1   
 43  22  41  1   
 44  23  24  1   
 45  24  42  1   
 46  24  43  1   
 47  24  44  1   
@<TRIPOS>SUBSTRUCTURE
  1 ****  12 GROUP 4 **** **** 0

# MOE 2024.06 (io_trps.svl 2023.06)
