@<TRIPOS>MOLECULE
NONAME
62 66 1 0 0 
SMALL
USER_CHARGES


@<TRIPOS>ATOM
  1 O       -0.7860    -0.7640     0.3950 O.3   1 <1>  -0.2800 
  2 C       -0.6240    -1.2630    -0.8160 C.2   1 <1>  -0.0400 
  3 C       -0.8960     0.5450     0.2770 C.2   1 <1>  -0.0100 
  4 C       -0.6340    -0.2750    -1.7380 C.2   1 <1>  -0.1500 
  5 C       -0.4700    -2.7630    -0.9850 C.3   1 <1>   0.5230 
  6 C       -0.8120     0.9130    -1.0180 C.2   1 <1>  -0.1500 
  7 N       -1.6500    -3.4330    -0.3530 N.4   1 <1>  -0.9590 
  8 C       -1.4260    -3.6260     1.1090 C.3   1 <1>   0.3430 
  9 C       -2.0240    -4.6850    -1.0650 C.3   1 <1>   0.3430 
 10 C       -2.6910    -4.1910     1.7530 C.3   1 <1>  -0.1600 
 11 C       -3.2950    -5.2660    -0.4460 C.3   1 <1>  -0.1600 
 12 C       -3.1240    -5.4890     1.0660 C.3   1 <1>   0.4230 
 13 N       -4.3570    -6.0210     1.7200 N.4   1 <1>  -0.9590 
 14 C       -5.5910    -5.1720     1.5910 C.3   1 <1>   0.3430 
 15 C       -4.7370    -7.3950     1.2660 C.3   1 <1>   0.3430 
 16 C       -6.7750    -6.1180     1.4140 C.3   1 <1>  -0.0800 
 17 C       -6.2150    -7.5370     1.6050 C.3   1 <1>  -0.0800 
 18 C       -7.4500    -5.8940     0.0440 C.3   1 <1>   0.4230 
 19 C       -6.9190    -8.6160     0.7550 C.3   1 <1>  -0.1600 
 20 O       -6.4920    -6.1390    -0.9310 O.3   1 <1>  -0.6800 
 21 C       -7.9290    -4.4350    -0.0980 C.ar  1 <1>  -0.1430 
 22 C       -8.5910    -6.9120    -0.1790 C.3   1 <1>  -0.1600 
 23 C       -8.3980    -8.2700     0.5350 C.3   1 <1>  -0.1600 
 24 C       -8.8650    -3.9380     0.8040 C.ar  1 <1>  -0.1500 
 25 C       -7.4530    -3.5720    -1.0850 C.ar  1 <1>  -0.1500 
 26 C       -9.3030    -2.6280     0.7340 C.ar  1 <1>  -0.1500 
 27 C       -7.8910    -2.2610    -1.1570 C.ar  1 <1>  -0.1500 
 28 C       -8.8140    -1.7860    -0.2460 C.ar  1 <1>  -0.1500 
 29 H       -1.0300     1.1450     1.1620 H     1 <1>   0.1500 
 30 H       -0.5290    -0.3260    -2.8090 H     1 <1>   0.1500 
 31 H        0.4470    -3.0930    -0.5260 H     1 <1>   0.0800 
 32 H       -0.4290    -2.9870    -2.0380 H     1 <1>   0.0800 
 33 H       -0.8630     1.9030    -1.4410 H     1 <1>   0.1500 
 34 H       -2.4030    -2.7350    -0.4610 H     1 <1>   0.4500 
 35 H       -0.6000    -4.3010     1.2670 H     1 <1>   0.0800 
 36 H       -1.1790    -2.6840     1.5760 H     1 <1>   0.0800 
 37 H       -2.1960    -4.4790    -2.1100 H     1 <1>   0.0800 
 38 H       -1.2210    -5.4020    -0.9910 H     1 <1>   0.0800 
 39 H       -3.4630    -3.4440     1.6950 H     1 <1>   0.0800 
 40 H       -2.4840    -4.3820     2.7910 H     1 <1>   0.0800 
 41 H       -3.5030    -6.1980    -0.9390 H     1 <1>   0.0800 
 42 H       -4.1060    -4.5930    -0.6560 H     1 <1>   0.0800 
 43 H       -2.3350    -6.2130     1.2040 H     1 <1>   0.0800 
 44 H       -4.1770    -6.1060     2.7300 H     1 <1>   0.4500 
 45 H       -5.7270    -4.5650     2.4710 H     1 <1>   0.0800 
 46 H       -5.5270    -4.5210     0.7350 H     1 <1>   0.0800 
 47 H       -4.6270    -7.4740     0.1970 H     1 <1>   0.0800 
 48 H       -4.1450    -8.1580     1.7440 H     1 <1>   0.0800 
 49 H       -7.5000    -5.9230     2.1840 H     1 <1>   0.0800 
 50 H       -6.3040    -7.8040     2.6440 H     1 <1>   0.0800 
 51 H       -6.4490    -8.7090    -0.2100 H     1 <1>   0.0800 
 52 H       -6.8400    -9.5740     1.2420 H     1 <1>   0.0800 
 53 H       -6.9530    -6.1380    -1.7940 H     1 <1>   0.4000 
 54 H       -9.5170    -6.4980     0.1790 H     1 <1>   0.0800 
 55 H       -8.7270    -7.0720    -1.2340 H     1 <1>   0.0800 
 56 H       -8.8880    -8.2380     1.4930 H     1 <1>   0.0800 
 57 H       -8.8740    -9.0480    -0.0390 H     1 <1>   0.0800 
 58 H       -9.2770    -4.5650     1.5760 H     1 <1>   0.1500 
 59 H       -6.7390    -3.8930    -1.8210 H     1 <1>   0.1500 
 60 H      -10.0280    -2.2610     1.4400 H     1 <1>   0.1500 
 61 H       -7.5200    -1.6060    -1.9280 H     1 <1>   0.1500 
 62 H       -9.1570    -0.7670    -0.3030 H     1 <1>   0.1500 
@<TRIPOS>BOND
  1   1   2  1   
  2   1   3  1   
  3   2   4  2   
  4   2   5  1   
  5   3   6  2   
  6   3  29  1   
  7   4   6  1   
  8   4  30  1   
  9   5   7  1   
 10   5  31  1   
 11   5  32  1   
 12   6  33  1   
 13   7   8  1   
 14   7   9  1   
 15   7  34  1   
 16   8  10  1   
 17   8  35  1   
 18   8  36  1   
 19   9  11  1   
 20   9  37  1   
 21   9  38  1   
 22  10  12  1   
 23  10  39  1   
 24  10  40  1   
 25  11  12  1   
 26  11  41  1   
 27  11  42  1   
 28  12  13  1   
 29  12  43  1   
 30  13  14  1   
 31  13  15  1   
 32  13  44  1   
 33  14  16  1   
 34  14  45  1   
 35  14  46  1   
 36  15  17  1   
 37  15  47  1   
 38  15  48  1   
 39  16  17  1   
 40  16  18  1   
 41  16  49  1   
 42  17  19  1   
 43  17  50  1   
 44  18  20  1   
 45  18  21  1   
 46  18  22  1   
 47  19  23  1   
 48  19  51  1   
 49  19  52  1   
 50  20  53  1   
 51  21  24  ar  
 52  21  25  ar  
 53  22  23  1   
 54  22  54  1   
 55  22  55  1   
 56  23  56  1   
 57  23  57  1   
 58  24  26  ar  
 59  24  58  1   
 60  25  27  ar  
 61  25  59  1   
 62  26  28  ar  
 63  26  60  1   
 64  27  28  ar  
 65  27  61  1   
 66  28  62  1   
@<TRIPOS>SUBSTRUCTURE
  1 ****  14 GROUP 4 **** **** 0

# MOE 2024.06 (io_trps.svl 2023.06)
