@<TRIPOS>MOLECULE
NONAME
48 51 1 0 0 
SMALL
USER_CHARGES


@<TRIPOS>ATOM
  1 O       -0.7520     0.5270     0.8890 O.2   1 <1>  -0.5700 
  2 C       -1.5990     1.0720     0.2090 C.2   1 <1>   0.5440 
  3 N       -2.5590     0.2930    -0.3950 N.am  1 <1>  -0.6600 
  4 C       -1.5910     2.5180     0.0730 C.ar  1 <1>   0.0860 
  5 C       -3.9300     0.7590    -0.7330 C.3   1 <1>   0.1400 
  6 C       -2.5410    -1.1950    -0.3290 C.3   1 <1>   0.1400 
  7 C       -1.3730     3.3380     1.1780 C.ar  1 <1>  -0.1500 
  8 C       -1.7900     3.1450    -1.1580 C.ar  1 <1>  -0.1500 
  9 C       -4.8310    -0.4010    -0.3170 C.3   1 <1>   0.2000 
 10 C       -3.9800    -1.6340    -0.6260 C.3   1 <1>  -0.0800 
 11 C       -1.3690     4.7160     1.0690 C.ar  1 <1>  -0.1500 
 12 C       -1.7880     4.5230    -1.2760 C.ar  1 <1>  -0.1500 
 13 O       -5.0390    -0.3100     1.0520 O.3   1 <1>  -0.6800 
 14 C       -4.3940    -2.9270     0.0970 C.3   1 <1>   0.0210 
 15 C       -1.5780     5.3190    -0.1610 C.ar  1 <1>  -0.1430 
 16 C       -3.4860    -4.0760    -0.2960 C.2   1 <1>   0.1080 
 17 C       -1.5670     6.8390    -0.2890 C.3   1 <1>   0.2390 
 18 N       -3.4300    -4.5470    -1.5030 N.2   1 <1>  -0.7070 
 19 C       -2.6180    -4.7350     0.5680 C.2   1 <1>  -0.1500 
 20 N       -0.2480     7.3450    -0.7150 N.pl3 1 <1>   0.3140 
 21 N       -2.5160    -5.5340    -1.4390 N.pl3 1 <1>   0.3000 
 22 C       -2.0080    -5.6650    -0.1960 C.2   1 <1>  -0.3320 
 23 N       -0.0600     8.5900    -1.0980 N.2   1 <1>  -0.4180 
 24 C        0.9190     6.7310    -0.7890 C.2   1 <1>   0.0360 
 25 C       -0.9550    -6.6870     0.1920 C.3   1 <1>  -0.0600 
 26 N        1.1870     8.6970    -1.3900 N.2   1 <1>   0.0000 
 27 N        1.8150     7.5410    -1.2020 N.2   1 <1>  -0.3380 
 28 H       -4.1930     1.6670    -0.2180 H     1 <1>   0.0800 
 29 H       -3.9960     0.9110    -1.7960 H     1 <1>   0.0800 
 30 H       -1.8530    -1.6000    -1.0520 H     1 <1>   0.0800 
 31 H       -2.2400    -1.5080     0.6570 H     1 <1>   0.0800 
 32 H       -1.2020     2.8750     2.1360 H     1 <1>   0.1500 
 33 H       -1.9410     2.5350    -2.0320 H     1 <1>   0.1500 
 34 H       -5.7860    -0.4000    -0.8140 H     1 <1>   0.0800 
 35 H       -4.0420    -1.8160    -1.6850 H     1 <1>   0.0800 
 36 H       -1.1980     5.3110     1.9510 H     1 <1>   0.1500 
 37 H       -1.9450     4.9690    -2.2450 H     1 <1>   0.1500 
 38 H       -4.1690    -0.2120     1.4900 H     1 <1>   0.4000 
 39 H       -5.4050    -3.1810    -0.1690 H     1 <1>   0.0800 
 40 H       -4.3540    -2.7970     1.1630 H     1 <1>   0.0800 
 41 H       -1.8130     7.2940     0.6530 H     1 <1>   0.0800 
 42 H       -2.2970     7.1510    -1.0130 H     1 <1>   0.0800 
 43 H       -2.4810    -4.5250     1.6140 H     1 <1>   0.1500 
 44 H       -2.2620    -6.0970    -2.2600 H     1 <1>   0.2700 
 45 H        1.0740     5.6980    -0.5350 H     1 <1>   0.1500 
 46 H       -0.7140    -6.5910     1.2360 H     1 <1>   0.0800 
 47 H       -0.0570    -6.5320    -0.3810 H     1 <1>   0.0800 
 48 H       -1.3190    -7.6830     0.0150 H     1 <1>   0.0800 
@<TRIPOS>BOND
  1   1   2  2   
  2   2   3  am  
  3   2   4  1   
  4   3   5  1   
  5   3   6  1   
  6   4   7  ar  
  7   4   8  ar  
  8   5   9  1   
  9   5  28  1   
 10   5  29  1   
 11   6  10  1   
 12   6  30  1   
 13   6  31  1   
 14   7  11  ar  
 15   7  32  1   
 16   8  12  ar  
 17   8  33  1   
 18   9  10  1   
 19   9  13  1   
 20   9  34  1   
 21  10  14  1   
 22  10  35  1   
 23  11  15  ar  
 24  11  36  1   
 25  12  15  ar  
 26  12  37  1   
 27  13  38  1   
 28  14  16  1   
 29  14  39  1   
 30  14  40  1   
 31  15  17  1   
 32  16  18  2   
 33  16  19  1   
 34  17  20  1   
 35  17  41  1   
 36  17  42  1   
 37  18  21  1   
 38  19  22  2   
 39  19  43  1   
 40  20  23  1   
 41  20  24  1   
 42  21  22  1   
 43  21  44  1   
 44  22  25  1   
 45  23  26  2   
 46  24  27  2   
 47  24  45  1   
 48  25  46  1   
 49  25  47  1   
 50  25  48  1   
 51  26  27  1   
@<TRIPOS>SUBSTRUCTURE
  1 ****   2 GROUP 4 **** **** 0

# MOE 2024.06 (io_trps.svl 2023.06)
