@<TRIPOS>MOLECULE
NONAME
38 39 1 0 0 
SMALL
USER_CHARGES


@<TRIPOS>ATOM
  1 O        0.5390     0.2720     1.4420 O.3   1 <1>  -0.0190 
  2 N        1.5780     1.0480     1.3950 N.2   1 <1>  -0.4100 
  3 C        1.0040    -0.9020     1.0940 C.2   1 <1>   0.2980 
  4 C        2.5730     0.3290     1.0400 C.2   1 <1>   0.3350 
  5 N        2.2490    -0.9440     0.8340 N.2   1 <1>  -0.5650 
  6 C        0.0560    -2.0870     1.0450 C.3   1 <1>   0.0200 
  7 C        4.0120     0.8160     0.8520 C.3   1 <1>   0.3900 
  8 C       -0.6880    -2.2180    -0.2990 C.3   1 <1>  -0.0800 
  9 N        4.2060     2.2230     1.2860 N.pl3 1 <1>  -0.8690 
 10 C       -1.6260    -1.0310    -0.5650 C.3   1 <1>  -0.2400 
 11 C       -1.4940    -3.5230    -0.3330 C.3   1 <1>  -0.2400 
 12 C        5.0850     3.0430     0.6790 C.ar  1 <1>   0.7200 
 13 N        4.7560     4.3240     0.7160 N.ar  1 <1>  -0.6200 
 14 N        6.1550     2.4960     0.1150 N.ar  1 <1>  -0.6200 
 15 C        5.5970     5.1420     0.1350 C.ar  1 <1>   0.1660 
 16 C        6.9820     3.3330    -0.4590 C.ar  1 <1>   0.1670 
 17 C        6.7430     4.6880    -0.4760 C.ar  1 <1>  -0.1500 
 18 C        5.2510     6.6150     0.1640 C.3   1 <1>  -0.0970 
 19 C        8.2170     2.7440    -1.1060 C.3   1 <1>  -0.0970 
 20 H       -0.6480    -2.0050     1.8530 H     1 <1>   0.0800 
 21 H        0.6380    -2.9760     1.2100 H     1 <1>   0.0800 
 22 H        4.2690     0.7160    -0.1880 H     1 <1>   0.0800 
 23 H        4.6710     0.1850     1.4220 H     1 <1>   0.0800 
 24 H        0.0460    -2.2550    -1.0880 H     1 <1>   0.0800 
 25 H        3.3330     2.6950     1.5260 H     1 <1>   0.4000 
 26 H       -2.3440    -0.9260     0.2300 H     1 <1>   0.0800 
 27 H       -2.1590    -1.1770    -1.4880 H     1 <1>   0.0800 
 28 H       -1.0690    -0.1150    -0.6500 H     1 <1>   0.0800 
 29 H       -2.2440    -3.5290     0.4380 H     1 <1>   0.0800 
 30 H       -0.8460    -4.3700    -0.1900 H     1 <1>   0.0800 
 31 H       -1.9830    -3.6340    -1.2860 H     1 <1>   0.0800 
 32 H        7.4260     5.3670    -0.9490 H     1 <1>   0.1500 
 33 H        4.3070     6.7720    -0.3250 H     1 <1>   0.0800 
 34 H        6.0030     7.2010    -0.3310 H     1 <1>   0.0800 
 35 H        5.1690     6.9430     1.1850 H     1 <1>   0.0800 
 36 H        7.9240     2.0480    -1.8710 H     1 <1>   0.0800 
 37 H        8.7940     2.2210    -0.3650 H     1 <1>   0.0800 
 38 H        8.8270     3.5100    -1.5460 H     1 <1>   0.0800 
@<TRIPOS>BOND
  1   1   2  1   
  2   1   3  1   
  3   2   4  2   
  4   3   5  2   
  5   3   6  1   
  6   4   5  1   
  7   4   7  1   
  8   6   8  1   
  9   6  20  1   
 10   6  21  1   
 11   7   9  1   
 12   7  22  1   
 13   7  23  1   
 14   8  10  1   
 15   8  11  1   
 16   8  24  1   
 17   9  12  1   
 18   9  25  1   
 19  10  26  1   
 20  10  27  1   
 21  10  28  1   
 22  11  29  1   
 23  11  30  1   
 24  11  31  1   
 25  12  13  ar  
 26  12  14  ar  
 27  13  15  ar  
 28  14  16  ar  
 29  15  17  ar  
 30  15  18  1   
 31  16  17  ar  
 32  16  19  1   
 33  17  32  1   
 34  18  33  1   
 35  18  34  1   
 36  18  35  1   
 37  19  36  1   
 38  19  37  1   
 39  19  38  1   
@<TRIPOS>SUBSTRUCTURE
  1 ****   7 GROUP 4 **** **** 0

# MOE 2024.06 (io_trps.svl 2023.06)
