@<TRIPOS>MOLECULE
NONAME
42 44 1 0 0 
SMALL
USER_CHARGES


@<TRIPOS>ATOM
  1 CL      -0.3340    -1.3720    -2.3270 Cl    1 <1>  -0.1770 
  2 C       -1.1010    -2.6340    -1.3980 C.ar  1 <1>   0.1770 
  3 C       -0.9410    -2.6600    -0.0260 C.ar  1 <1>  -0.1500 
  4 C       -1.8570    -3.5930    -2.0420 C.ar  1 <1>  -0.1500 
  5 C       -1.5520    -3.6630     0.7060 C.ar  1 <1>  -0.1500 
  6 C       -2.4610    -4.5920    -1.2990 C.ar  1 <1>  -0.1500 
  7 C       -2.3270    -4.6500     0.0910 C.ar  1 <1>   0.0530 
  8 C       -2.9550    -5.6840     0.8780 C.2   1 <1>   0.0870 
  9 O       -2.4310    -6.0470     2.0260 O.3   1 <1>  -0.0190 
 10 C       -4.0710    -6.4370     0.7090 C.2   1 <1>  -0.2330 
 11 N       -3.1160    -6.9870     2.6240 N.2   1 <1>  -0.4100 
 12 C       -4.1060    -7.2420     1.8480 C.2   1 <1>   0.3720 
 13 C       -5.0330    -6.4760    -0.3360 C.2   1 <1>   1.0330 
 14 N       -5.0720    -8.2030     2.1790 N.pl3 1 <1>  -0.8210 
 15 O       -4.7730    -7.0310    -1.4160 O.co2 1 <1>  -0.9000 
 16 O       -6.2100    -6.1270    -0.1470 O.co2 1 <1>  -0.9000 
 17 C       -6.3680    -7.6090     2.6150 C.3   1 <1>   0.2090 
 18 C       -5.3390    -9.2480     1.1490 C.3   1 <1>   0.2090 
 19 C       -7.4690    -8.1770     1.7120 C.3   1 <1>   0.2000 
 20 C       -6.8650    -9.4350     1.0670 C.3   1 <1>   0.4230 
 21 O       -8.6180    -8.5120     2.4390 O.3   1 <1>  -0.6800 
 22 N       -7.4260    -9.7980    -0.3020 N.4   1 <1>  -0.9590 
 23 C       -7.1110    -8.7700    -1.3540 C.3   1 <1>   0.2630 
 24 C       -8.9030   -10.0000    -0.2200 C.3   1 <1>   0.2630 
 25 H       -0.3480    -1.9060     0.4580 H     1 <1>   0.1500 
 26 H       -1.9720    -3.5600    -3.1100 H     1 <1>   0.1500 
 27 H       -1.4310    -3.6840     1.7750 H     1 <1>   0.1500 
 28 H       -3.0400    -5.3400    -1.8110 H     1 <1>   0.1500 
 29 H       -6.5390    -7.8810     3.6420 H     1 <1>   0.0800 
 30 H       -6.3400    -6.5340     2.5320 H     1 <1>   0.0800 
 31 H       -4.9200    -8.9680     0.2010 H     1 <1>   0.0800 
 32 H       -4.8770   -10.1660     1.4640 H     1 <1>   0.0800 
 33 H       -7.7480    -7.4490     0.9750 H     1 <1>   0.0800 
 34 H       -7.0880   -10.2440     1.7410 H     1 <1>   0.0800 
 35 H       -8.9880    -7.7110     2.8660 H     1 <1>   0.4000 
 36 H       -6.9850   -10.6790    -0.5950 H     1 <1>   0.4500 
 37 H       -7.4130    -7.7850    -1.0390 H     1 <1>   0.0800 
 38 H       -7.6160    -9.0020    -2.2750 H     1 <1>   0.0800 
 39 H       -6.0530    -8.7520    -1.5530 H     1 <1>   0.0800 
 40 H       -9.3880    -9.0750     0.0490 H     1 <1>   0.0800 
 41 H       -9.1390   -10.7370     0.5300 H     1 <1>   0.0800 
 42 H       -9.2910   -10.3290    -1.1690 H     1 <1>   0.0800 
@<TRIPOS>BOND
  1   1   2  1   
  2   2   3  ar  
  3   2   4  ar  
  4   3   5  ar  
  5   3  25  1   
  6   4   6  ar  
  7   4  26  1   
  8   5   7  ar  
  9   5  27  1   
 10   6   7  ar  
 11   6  28  1   
 12   7   8  1   
 13   8   9  1   
 14   8  10  2   
 15   9  11  1   
 16  10  12  1   
 17  10  13  1   
 18  11  12  2   
 19  12  14  1   
 20  13  15  ar  
 21  13  16  ar  
 22  14  17  1   
 23  14  18  1   
 24  17  19  1   
 25  17  29  1   
 26  17  30  1   
 27  18  20  1   
 28  18  31  1   
 29  18  32  1   
 30  19  20  1   
 31  19  21  1   
 32  19  33  1   
 33  20  22  1   
 34  20  34  1   
 35  21  35  1   
 36  22  23  1   
 37  22  24  1   
 38  22  36  1   
 39  23  37  1   
 40  23  38  1   
 41  23  39  1   
 42  24  40  1   
 43  24  41  1   
 44  24  42  1   
@<TRIPOS>SUBSTRUCTURE
  1 ****  10 GROUP 4 **** **** 0

# MOE 2024.06 (io_trps.svl 2023.06)
