@<TRIPOS>MOLECULE
NONAME
56 58 1 0 0 
SMALL
USER_CHARGES


@<TRIPOS>ATOM
  1 O       -1.0050    -1.0650     0.9420 O.2   1 <1>  -0.5700 
  2 C       -1.3660     0.0090     0.5110 C.2   1 <1>   0.5690 
  3 N       -2.1160     0.0830    -0.6440 N.am  1 <1>  -0.6600 
  4 C       -1.0070     1.2570     1.3390 C.3   1 <1>   0.1710 
  5 C       -2.3480    -1.1430    -1.4570 C.3   1 <1>   0.3200 
  6 C       -2.8090     1.3090    -1.1450 C.3   1 <1>   0.1400 
  7 N        0.3090     1.8860     1.0360 N.3   1 <1>  -0.8100 
  8 C       -3.5110    -1.9150    -0.8750 C.2   1 <1>  -0.3320 
  9 C       -4.2850     1.3140    -0.7340 C.3   1 <1>   0.1200 
 10 C        0.5940     3.0010     1.9680 C.3   1 <1>   0.1100 
 11 C        0.4370     2.3480    -0.3660 C.3   1 <1>   0.1100 
 12 N       -3.4640    -2.4400     0.3610 N.pl3 1 <1>   0.0330 
 13 C       -4.7230    -2.2390    -1.3770 C.2   1 <1>   0.0770 
 14 O       -4.8420     2.5400    -1.0700 O.3   1 <1>  -0.6800 
 15 C        1.9710     3.6430     1.7110 C.3   1 <1>   0.2090 
 16 C        1.8160     2.9720    -0.6490 C.3   1 <1>   0.2090 
 17 C       -4.6570    -3.0460     0.5390 C.2   1 <1>   0.0060 
 18 N       -5.4420    -2.9460    -0.4840 N.2   1 <1>  -0.5650 
 19 N        2.0910     4.0930     0.2940 N.pl3 1 <1>  -0.8380 
 20 C       -5.0240    -3.7670     1.8170 C.3   1 <1>  -0.0600 
 21 C        3.1990     4.8790    -0.0020 C.ar  1 <1>   0.1000 
 22 C        4.4930     4.3720     0.0540 C.ar  1 <1>  -0.1500 
 23 C        3.0170     6.2060    -0.3650 C.ar  1 <1>  -0.1500 
 24 C        5.5850     5.1690    -0.2450 C.ar  1 <1>  -0.1430 
 25 C        4.1010     7.0100    -0.6660 C.ar  1 <1>  -0.1500 
 26 C        5.3840     6.4920    -0.6060 C.ar  1 <1>  -0.1500 
 27 C        6.9960     4.6130    -0.1830 C.3   1 <1>  -0.0970 
 28 H       -0.9900     0.9430     2.3680 H     1 <1>   0.0800 
 29 H       -1.7860     1.9900     1.2540 H     1 <1>   0.0800 
 30 H       -1.4640    -1.7590    -1.4450 H     1 <1>   0.0800 
 31 H       -2.5530    -0.8800    -2.4800 H     1 <1>   0.0800 
 32 H       -2.7410     1.3440    -2.2180 H     1 <1>   0.0800 
 33 H       -2.3330     2.1890    -0.7600 H     1 <1>   0.0800 
 34 H       -4.4020     1.1640     0.3250 H     1 <1>   0.0800 
 35 H       -4.8280     0.5520    -1.2660 H     1 <1>   0.0800 
 36 H        0.5720     2.6340     2.9800 H     1 <1>   0.0800 
 37 H       -0.1600     3.7630     1.8690 H     1 <1>   0.0800 
 38 H       -0.3140     3.0880    -0.5780 H     1 <1>   0.0800 
 39 H        0.2980     1.5170    -1.0340 H     1 <1>   0.0800 
 40 H       -2.6700    -2.3610     1.0110 H     1 <1>   0.2700 
 41 H       -5.1280    -2.0000    -2.3460 H     1 <1>   0.1500 
 42 H       -4.6220     3.2250    -0.4080 H     1 <1>   0.4000 
 43 H        2.7420     2.9250     1.9290 H     1 <1>   0.0800 
 44 H        2.1040     4.4880     2.3630 H     1 <1>   0.0800 
 45 H        1.8450     3.3440    -1.6580 H     1 <1>   0.0800 
 46 H        2.5750     2.2160    -0.5460 H     1 <1>   0.0800 
 47 H       -4.3400    -4.5760     1.9910 H     1 <1>   0.0800 
 48 H       -6.0190    -4.1660     1.7350 H     1 <1>   0.0800 
 49 H       -4.9910    -3.0850     2.6460 H     1 <1>   0.0800 
 50 H        4.6320     3.3460     0.3350 H     1 <1>   0.1500 
 51 H        2.0170     6.5940    -0.4070 H     1 <1>   0.1500 
 52 H        3.9460     8.0370    -0.9460 H     1 <1>   0.1500 
 53 H        6.2230     7.1220    -0.8420 H     1 <1>   0.1500 
 54 H        6.9900     3.5840     0.1310 H     1 <1>   0.0800 
 55 H        7.5820     5.1810     0.5160 H     1 <1>   0.0800 
 56 H        7.4550     4.6730    -1.1530 H     1 <1>   0.0800 
@<TRIPOS>BOND
  1   1   2  2   
  2   2   3  am  
  3   2   4  1   
  4   3   5  1   
  5   3   6  1   
  6   4   7  1   
  7   4  28  1   
  8   4  29  1   
  9   5   8  1   
 10   5  30  1   
 11   5  31  1   
 12   6   9  1   
 13   6  32  1   
 14   6  33  1   
 15   7  10  1   
 16   7  11  1   
 17   8  12  1   
 18   8  13  2   
 19   9  14  1   
 20   9  34  1   
 21   9  35  1   
 22  10  15  1   
 23  10  36  1   
 24  10  37  1   
 25  11  16  1   
 26  11  38  1   
 27  11  39  1   
 28  12  17  1   
 29  12  40  1   
 30  13  18  1   
 31  13  41  1   
 32  14  42  1   
 33  15  19  1   
 34  15  43  1   
 35  15  44  1   
 36  16  19  1   
 37  16  45  1   
 38  16  46  1   
 39  17  18  2   
 40  17  20  1   
 41  19  21  1   
 42  20  47  1   
 43  20  48  1   
 44  20  49  1   
 45  21  22  ar  
 46  21  23  ar  
 47  22  24  ar  
 48  22  50  1   
 49  23  25  ar  
 50  23  51  1   
 51  24  26  ar  
 52  24  27  1   
 53  25  26  ar  
 54  25  52  1   
 55  26  53  1   
 56  27  54  1   
 57  27  55  1   
 58  27  56  1   
@<TRIPOS>SUBSTRUCTURE
  1 ****  11 GROUP 4 **** **** 0

# MOE 2024.06 (io_trps.svl 2023.06)
