@<TRIPOS>MOLECULE
NONAME
40 43 1 0 0 
SMALL
USER_CHARGES


@<TRIPOS>ATOM
  1 N       -0.0510     0.9490     0.6230 N.2   1 <1>  -0.6210 
  2 C       -0.9210    -0.0060     0.7190 C.2   1 <1>   0.5090 
  3 C       -0.4850     2.1460     0.1560 C.2   1 <1>   0.2710 
  4 N       -2.2670     0.1570     0.3630 N.pl3 1 <1>   0.2940 
  5 N       -0.4590    -1.1990     1.1880 N.pl3 1 <1>  -0.8500 
  6 N        0.5070     3.0780     0.0960 N.pl3 1 <1>  -0.8690 
  7 C       -1.7830     2.3800    -0.2060 C.2   1 <1>  -0.1050 
  8 C       -2.7180     1.3350    -0.1020 C.2   1 <1>   0.1420 
  9 C       -3.3710    -0.6010     0.3400 C.2   1 <1>   0.0370 
 10 C        0.7100     3.8450    -1.1590 C.3   1 <1>   0.3900 
 11 N       -3.9950     1.2820    -0.3810 N.2   1 <1>  -0.3380 
 12 N       -4.3980     0.0450    -0.0950 N.2   1 <1>  -0.3380 
 13 C        2.1550     4.3220    -1.2750 C.2   1 <1>   0.1080 
 14 N        2.9480     3.9300    -2.2290 N.2   1 <1>  -0.7070 
 15 C        2.7890     5.2100    -0.4040 C.2   1 <1>  -0.1810 
 16 N        4.1120     4.5580    -1.9860 N.pl3 1 <1>   0.3000 
 17 C        4.0400     5.3390    -0.8890 C.2   1 <1>  -0.3320 
 18 C        2.2130     5.8810     0.8310 C.3   1 <1>   0.0210 
 19 C        5.1910     6.1700    -0.3580 C.3   1 <1>   0.0200 
 20 C        2.3900     7.4040     0.7950 C.3   1 <1>  -0.1600 
 21 C        4.7880     7.6370    -0.1630 C.3   1 <1>  -0.1600 
 22 C        3.8360     7.8820     1.0210 C.3   1 <1>  -0.1600 
 23 H        0.5330    -1.2560     1.4290 H     1 <1>   0.4000 
 24 H       -1.0120    -2.0460     1.3200 H     1 <1>   0.4000 
 25 H        1.4020     2.6590     0.3720 H     1 <1>   0.4000 
 26 H       -2.1160     3.3360    -0.5600 H     1 <1>   0.1500 
 27 H       -3.3780    -1.6270     0.6530 H     1 <1>   0.1500 
 28 H        0.0550     4.6970    -1.1710 H     1 <1>   0.0800 
 29 H        0.4810     3.2220    -2.0060 H     1 <1>   0.0800 
 30 H        4.9350     4.4330    -2.5850 H     1 <1>   0.2700 
 31 H        2.6840     5.4740     1.7070 H     1 <1>   0.0800 
 32 H        1.1630     5.6610     0.8990 H     1 <1>   0.0800 
 33 H        6.0100     6.1290    -1.0540 H     1 <1>   0.0800 
 34 H        5.5330     5.7550     0.5740 H     1 <1>   0.0800 
 35 H        1.7780     7.8230     1.5740 H     1 <1>   0.0800 
 36 H        2.0220     7.7850    -0.1420 H     1 <1>   0.0800 
 37 H        4.3430     8.0100    -1.0700 H     1 <1>   0.0800 
 38 H        5.6850     8.2050     0.0120 H     1 <1>   0.0800 
 39 H        4.2350     7.4280     1.9120 H     1 <1>   0.0800 
 40 H        3.8020     8.9430     1.1960 H     1 <1>   0.0800 
@<TRIPOS>BOND
  1   1   2  2   
  2   1   3  1   
  3   2   4  1   
  4   2   5  1   
  5   3   6  1   
  6   3   7  2   
  7   4   8  1   
  8   4   9  1   
  9   5  23  1   
 10   5  24  1   
 11   6  10  1   
 12   6  25  1   
 13   7   8  1   
 14   7  26  1   
 15   8  11  2   
 16   9  12  2   
 17   9  27  1   
 18  10  13  1   
 19  10  28  1   
 20  10  29  1   
 21  11  12  1   
 22  13  14  2   
 23  13  15  1   
 24  14  16  1   
 25  15  17  2   
 26  15  18  1   
 27  16  17  1   
 28  16  30  1   
 29  17  19  1   
 30  18  20  1   
 31  18  31  1   
 32  18  32  1   
 33  19  21  1   
 34  19  33  1   
 35  19  34  1   
 36  20  22  1   
 37  20  35  1   
 38  20  36  1   
 39  21  22  1   
 40  21  37  1   
 41  21  38  1   
 42  22  39  1   
 43  22  40  1   
@<TRIPOS>SUBSTRUCTURE
  1 ****   6 GROUP 4 **** **** 0

# MOE 2024.06 (io_trps.svl 2023.06)
