@<TRIPOS>MOLECULE
NONAME
45 48 1 0 0 
SMALL
USER_CHARGES


@<TRIPOS>ATOM
  1 F       -4.5140     0.1660    -2.2020 F     1 <1>  -0.1900 
  2 C       -3.9240     0.7120    -1.1700 C.ar  1 <1>   0.1900 
  3 C       -3.6480    -0.0940    -0.0420 C.ar  1 <1>   0.3100 
  4 C       -3.6090     2.0420    -1.2470 C.ar  1 <1>  -0.1500 
  5 N       -3.9790    -1.4110    -0.0170 N.ar  1 <1>  -0.6200 
  6 C       -3.0150     0.5470     1.0470 C.ar  1 <1>   0.0000 
  7 C       -2.9800     2.6530    -0.1580 C.ar  1 <1>  -0.1500 
  8 C       -3.7140    -2.1370     1.0530 C.ar  1 <1>   0.3960 
  9 C       -2.7350    -0.2270     2.1820 C.ar  1 <1>  -0.1500 
 10 C       -2.6920     1.9170     0.9620 C.ar  1 <1>  -0.1500 
 11 C       -4.0500    -3.5700     1.1210 C.2   1 <1>   0.5440 
 12 C       -3.0830    -1.5420     2.1710 C.ar  1 <1>  -0.1500 
 13 O       -3.5300    -4.2670     1.9780 O.2   1 <1>  -0.5700 
 14 N       -4.9420    -4.2070     0.2750 N.am  1 <1>  -0.6600 
 15 C       -5.8520    -3.5730    -0.7160 C.3   1 <1>   0.1400 
 16 C       -5.1260    -5.6830     0.2570 C.3   1 <1>   0.1400 
 17 C       -6.9260    -4.6280    -0.9740 C.3   1 <1>   0.2000 
 18 C       -6.1650    -5.9490    -0.8380 C.3   1 <1>  -0.0800 
 19 O       -7.8700    -4.5330     0.0390 O.3   1 <1>  -0.6800 
 20 C       -7.0350    -7.1920    -0.5810 C.3   1 <1>   0.0210 
 21 C       -6.1780    -8.4380    -0.4760 C.2   1 <1>   0.1080 
 22 N       -5.5330    -8.9360    -1.4860 N.2   1 <1>  -0.7070 
 23 C       -5.9770    -9.1710     0.6890 C.2   1 <1>  -0.1500 
 24 N       -4.8980   -10.0130    -0.9860 N.pl3 1 <1>   0.3000 
 25 C       -5.1510   -10.1750     0.3300 C.2   1 <1>  -0.3320 
 26 C       -4.5770   -11.2970     1.1770 C.3   1 <1>  -0.0600 
 27 H       -3.8400     2.6120    -2.1290 H     1 <1>   0.1500 
 28 H       -2.7300     3.6990    -0.2140 H     1 <1>   0.1500 
 29 H       -2.2540     0.2250     3.0320 H     1 <1>   0.1500 
 30 H       -2.2090     2.3840     1.8020 H     1 <1>   0.1500 
 31 H       -2.8790    -2.1600     3.0280 H     1 <1>   0.1500 
 32 H       -6.2790    -2.6560    -0.3470 H     1 <1>   0.0800 
 33 H       -5.3010    -3.3760    -1.6190 H     1 <1>   0.0800 
 34 H       -4.1950    -6.1810     0.0420 H     1 <1>   0.0800 
 35 H       -5.4850    -6.0040     1.2190 H     1 <1>   0.0800 
 36 H       -7.4210    -4.5100    -1.9230 H     1 <1>   0.0800 
 37 H       -5.6230    -6.1090    -1.7550 H     1 <1>   0.0800 
 38 H       -7.3940    -4.4610     0.8910 H     1 <1>   0.4000 
 39 H       -7.7290    -7.3190    -1.3920 H     1 <1>   0.0800 
 40 H       -7.6010    -7.0790     0.3260 H     1 <1>   0.0800 
 41 H       -6.4020    -8.9570     1.6530 H     1 <1>   0.1500 
 42 H       -4.3030   -10.6140    -1.5670 H     1 <1>   0.2700 
 43 H       -4.9250   -11.2080     2.1910 H     1 <1>   0.0800 
 44 H       -3.5030   -11.2500     1.1780 H     1 <1>   0.0800 
 45 H       -4.8880   -12.2510     0.7900 H     1 <1>   0.0800 
@<TRIPOS>BOND
  1   1   2  1   
  2   2   3  ar  
  3   2   4  ar  
  4   3   5  ar  
  5   3   6  ar  
  6   4   7  ar  
  7   4  27  1   
  8   5   8  ar  
  9   6   9  ar  
 10   6  10  ar  
 11   7  10  ar  
 12   7  28  1   
 13   8  11  1   
 14   8  12  ar  
 15   9  12  ar  
 16   9  29  1   
 17  10  30  1   
 18  11  13  2   
 19  11  14  am  
 20  12  31  1   
 21  14  15  1   
 22  14  16  1   
 23  15  17  1   
 24  15  32  1   
 25  15  33  1   
 26  16  18  1   
 27  16  34  1   
 28  16  35  1   
 29  17  18  1   
 30  17  19  1   
 31  17  36  1   
 32  18  20  1   
 33  18  37  1   
 34  19  38  1   
 35  20  21  1   
 36  20  39  1   
 37  20  40  1   
 38  21  22  2   
 39  21  23  1   
 40  22  24  1   
 41  23  25  2   
 42  23  41  1   
 43  24  25  1   
 44  24  42  1   
 45  25  26  1   
 46  26  43  1   
 47  26  44  1   
 48  26  45  1   
@<TRIPOS>SUBSTRUCTURE
  1 ****  14 GROUP 4 **** **** 0

# MOE 2024.06 (io_trps.svl 2023.06)
