@<TRIPOS>MOLECULE
NONAME
49 51 1 0 0 
SMALL
USER_CHARGES


@<TRIPOS>ATOM
  1 O       -0.6190    -0.3780     1.3510 O.2   1 <1>  -0.5700 
  2 C       -1.3310     0.4480     0.8300 C.2   1 <1>   0.5690 
  3 N       -2.2260     0.1090    -0.1530 N.am  1 <1>  -0.6600 
  4 C       -1.1870     1.8810     1.3200 C.3   1 <1>  -0.0990 
  5 C       -2.3300    -1.3090    -0.6230 C.3   1 <1>   0.3210 
  6 C       -3.1260     1.0850    -0.8580 C.3   1 <1>   0.1400 
  7 C       -0.1820     2.6780     0.4720 C.3   1 <1>  -0.1600 
  8 C       -3.7030    -1.8910    -0.3140 C.2   1 <1>   0.0460 
  9 C       -4.5320     1.1980    -0.2340 C.3   1 <1>   0.1200 
 10 C       -0.0800     4.1350     0.9380 C.3   1 <1>   0.0210 
 11 N       -4.6300    -2.0270    -1.2860 N.2   1 <1>  -0.5650 
 12 C       -4.1880    -2.3160     0.8780 C.2   1 <1>  -0.3320 
 13 O       -4.4760     1.0230     1.1400 O.3   1 <1>  -0.6800 
 14 C        0.8760     4.9520     0.0850 C.2   1 <1>  -0.1810 
 15 C       -5.6510    -2.5280    -0.6710 C.2   1 <1>   0.0360 
 16 N       -5.4480    -2.7270     0.6470 N.pl3 1 <1>   0.0330 
 17 C       -3.5410    -2.3640     2.2520 C.3   1 <1>  -0.0600 
 18 C        1.0760     6.3400     0.2640 C.ar  1 <1>   0.0000 
 19 C        1.6720     4.5570    -0.9400 C.2   1 <1>  -0.3020 
 20 C        2.0100     6.7330    -0.6890 C.ar  1 <1>  -0.1520 
 21 C        0.5500     7.2920     1.1440 C.ar  1 <1>  -0.1500 
 22 N        2.3680     5.6300    -1.4200 N.pl3 1 <1>   0.0330 
 23 C        2.4300     8.0620    -0.7810 C.ar  1 <1>  -0.1500 
 24 C        0.9640     8.6020     1.0540 C.ar  1 <1>  -0.1500 
 25 C        1.9040     8.9870     0.0900 C.ar  1 <1>  -0.1500 
 26 H       -0.8420     1.8500     2.3380 H     1 <1>   0.0800 
 27 H       -2.1450     2.3650     1.3280 H     1 <1>   0.0800 
 28 H       -1.5840    -1.9240    -0.1510 H     1 <1>   0.0800 
 29 H       -2.1570    -1.3490    -1.6830 H     1 <1>   0.0800 
 30 H       -3.2300     0.7960    -1.8900 H     1 <1>   0.0800 
 31 H       -2.6790     2.0620    -0.8600 H     1 <1>   0.0800 
 32 H       -0.4820     2.6590    -0.5600 H     1 <1>   0.0800 
 33 H        0.7860     2.2120     0.5450 H     1 <1>   0.0800 
 34 H       -5.1830     0.4420    -0.6370 H     1 <1>   0.0800 
 35 H       -4.9630     2.1620    -0.4390 H     1 <1>   0.0800 
 36 H        0.2590     4.1650     1.9590 H     1 <1>   0.0800 
 37 H       -1.0520     4.5940     0.8940 H     1 <1>   0.0800 
 38 H       -4.0370     0.1590     1.3030 H     1 <1>   0.4000 
 39 H       -6.5850    -2.7710    -1.1470 H     1 <1>   0.1500 
 40 H       -6.1150    -3.1080     1.3240 H     1 <1>   0.2700 
 41 H       -2.5230    -2.0220     2.2050 H     1 <1>   0.0800 
 42 H       -3.5390    -3.3720     2.6270 H     1 <1>   0.0800 
 43 H       -4.0790    -1.7360     2.9400 H     1 <1>   0.0800 
 44 H        1.7920     3.5740    -1.3610 H     1 <1>   0.1500 
 45 H       -0.1690     6.9860     1.8800 H     1 <1>   0.1500 
 46 H        3.0460     5.6250    -2.1870 H     1 <1>   0.2700 
 47 H        3.1520     8.3490    -1.5240 H     1 <1>   0.1500 
 48 H        0.5680     9.3440     1.7250 H     1 <1>   0.1500 
 49 H        2.2100    10.0170     0.0400 H     1 <1>   0.1500 
@<TRIPOS>BOND
  1   1   2  2   
  2   2   3  am  
  3   2   4  1   
  4   3   5  1   
  5   3   6  1   
  6   4   7  1   
  7   4  26  1   
  8   4  27  1   
  9   5   8  1   
 10   5  28  1   
 11   5  29  1   
 12   6   9  1   
 13   6  30  1   
 14   6  31  1   
 15   7  10  1   
 16   7  32  1   
 17   7  33  1   
 18   8  11  1   
 19   8  12  2   
 20   9  13  1   
 21   9  34  1   
 22   9  35  1   
 23  10  14  1   
 24  10  36  1   
 25  10  37  1   
 26  11  15  2   
 27  12  16  1   
 28  12  17  1   
 29  13  38  1   
 30  14  18  1   
 31  14  19  2   
 32  15  16  1   
 33  15  39  1   
 34  16  40  1   
 35  17  41  1   
 36  17  42  1   
 37  17  43  1   
 38  18  20  ar  
 39  18  21  ar  
 40  19  22  1   
 41  19  44  1   
 42  20  22  1   
 43  20  23  ar  
 44  21  24  ar  
 45  21  45  1   
 46  22  46  1   
 47  23  25  ar  
 48  23  47  1   
 49  24  25  ar  
 50  24  48  1   
 51  25  49  1   
@<TRIPOS>SUBSTRUCTURE
  1 ****   4 GROUP 4 **** **** 0

# MOE 2024.06 (io_trps.svl 2023.06)
