@<TRIPOS>MOLECULE
NONAME
45 48 1 0 0 
SMALL
USER_CHARGES


@<TRIPOS>ATOM
  1 O        3.3110    -1.7670     2.9820 O.2   1 <1>  -0.5700 
  2 C        2.4690    -2.1850     2.2080 C.2   1 <1>   0.5440 
  3 N        1.1790    -1.7570     2.3510 N.am  1 <1>  -0.3680 
  4 C        2.7370    -3.1160     1.1520 C.ar  1 <1>   0.0860 
  5 N        0.1240    -2.1080     1.5670 N.2   1 <1>  -0.5120 
  6 C        1.6640    -3.5070     0.3300 C.ar  1 <1>   0.0860 
  7 C        4.0140    -3.6430     0.9360 C.ar  1 <1>  -0.1500 
  8 C        0.3490    -2.9370     0.5740 C.2   1 <1>   0.3640 
  9 C        1.9360    -4.4520    -0.6740 C.ar  1 <1>  -0.1500 
 10 C        4.2470    -4.5580    -0.0640 C.ar  1 <1>  -0.1500 
 11 C       -0.7500    -3.3020    -0.3070 C.2   1 <1>   0.6300 
 12 C        3.1990    -4.9660    -0.8710 C.ar  1 <1>  -0.1500 
 13 O       -0.6330    -3.1420    -1.5140 O.2   1 <1>  -0.5700 
 14 N       -1.9400    -3.8480     0.1630 N.am  1 <1>  -0.6600 
 15 C       -3.1280    -3.9620    -0.7390 C.3   1 <1>   0.2200 
 16 C       -2.0910    -4.2760     1.5890 C.3   1 <1>   0.0600 
 17 C       -3.4210    -5.4050    -1.1300 C.3   1 <1>  -0.1600 
 18 C       -4.4370    -3.4550    -0.1350 C.3   1 <1>  -0.1600 
 19 C       -4.8740    -5.3820    -1.6220 C.3   1 <1>  -0.0800 
 20 C       -5.5300    -4.1380    -0.9680 C.3   1 <1>  -0.0800 
 21 C       -5.6030    -6.7210    -1.3940 C.3   1 <1>   0.1400 
 22 C       -6.8070    -4.4420    -0.1580 C.3   1 <1>  -0.0990 
 23 N       -7.0640    -6.5070    -1.4490 N.am  1 <1>  -0.7300 
 24 C       -7.6770    -5.4460    -0.8840 C.2   1 <1>   0.5690 
 25 O       -8.8700    -5.3040    -0.9400 O.2   1 <1>  -0.5700 
 26 H        1.0410    -1.0910     3.1190 H     1 <1>   0.3700 
 27 H        4.8230    -3.3240     1.5710 H     1 <1>   0.1500 
 28 H        1.1520    -4.7990    -1.3240 H     1 <1>   0.1500 
 29 H        5.2360    -4.9570    -0.2210 H     1 <1>   0.1500 
 30 H        3.3780    -5.6840    -1.6540 H     1 <1>   0.1500 
 31 H       -2.9600    -3.4020    -1.6440 H     1 <1>   0.0800 
 32 H       -2.7760    -5.1000     1.6700 H     1 <1>   0.0800 
 33 H       -2.4610    -3.4520     2.1740 H     1 <1>   0.0800 
 34 H       -1.1440    -4.5890     1.9940 H     1 <1>   0.0800 
 35 H       -2.7480    -5.7410    -1.8990 H     1 <1>   0.0800 
 36 H       -3.3330    -6.0450    -0.2710 H     1 <1>   0.0800 
 37 H       -4.5310    -3.7560     0.8910 H     1 <1>   0.0800 
 38 H       -4.5040    -2.3830    -0.2000 H     1 <1>   0.0800 
 39 H       -4.8540    -5.2070    -2.6850 H     1 <1>   0.0800 
 40 H       -5.8070    -3.4720    -1.7690 H     1 <1>   0.0800 
 41 H       -5.3560    -7.1210    -0.4260 H     1 <1>   0.0800 
 42 H       -5.3080    -7.4330    -2.1450 H     1 <1>   0.0800 
 43 H       -7.3640    -3.5390     0.0090 H     1 <1>   0.0800 
 44 H       -6.5580    -4.8660     0.7960 H     1 <1>   0.0800 
 45 H       -7.6510    -7.2030    -1.9130 H     1 <1>   0.3700 
@<TRIPOS>BOND
  1   1   2  2   
  2   2   3  am  
  3   2   4  1   
  4   3   5  1   
  5   3  26  1   
  6   4   6  ar  
  7   4   7  ar  
  8   5   8  2   
  9   6   8  1   
 10   6   9  ar  
 11   7  10  ar  
 12   7  27  1   
 13   8  11  1   
 14   9  12  ar  
 15   9  28  1   
 16  10  12  ar  
 17  10  29  1   
 18  11  13  2   
 19  11  14  am  
 20  12  30  1   
 21  14  15  1   
 22  14  16  1   
 23  15  17  1   
 24  15  18  1   
 25  15  31  1   
 26  16  32  1   
 27  16  33  1   
 28  16  34  1   
 29  17  19  1   
 30  17  35  1   
 31  17  36  1   
 32  18  20  1   
 33  18  37  1   
 34  18  38  1   
 35  19  20  1   
 36  19  21  1   
 37  19  39  1   
 38  20  22  1   
 39  20  40  1   
 40  21  23  1   
 41  21  41  1   
 42  21  42  1   
 43  22  24  1   
 44  22  43  1   
 45  22  44  1   
 46  23  24  am  
 47  23  45  1   
 48  24  25  2   
@<TRIPOS>SUBSTRUCTURE
  1 ****  14 GROUP 4 **** **** 0

# MOE 2024.06 (io_trps.svl 2023.06)
