@<TRIPOS>MOLECULE
NONAME
46 48 1 0 0 
SMALL
USER_CHARGES


@<TRIPOS>ATOM
  1 O        0.2440    -0.2720    -0.6350 O.3   1 <1>  -0.5600 
  2 C        1.4750    -0.8660    -0.9720 C.3   1 <1>   0.2000 
  3 C        0.1960     1.1190    -0.7530 C.3   1 <1>   0.1200 
  4 C        2.6410    -0.2580    -0.1440 C.3   1 <1>   0.5660 
  5 C        1.3730    -2.3790    -0.7220 C.3   1 <1>   0.1200 
  6 C        1.2290     1.7610     0.1880 C.3   1 <1>   0.3430 
  7 N        2.6110     1.2380    -0.0680 N.4   1 <1>  -0.9590 
  8 C        3.9950    -0.6620    -0.7130 C.ar  1 <1>  -0.1440 
  9 O        1.4290    -2.6470     0.6450 O.3   1 <1>  -0.6800 
 10 C        3.5930     1.7420     0.9270 C.3   1 <1>   0.4870 
 11 C        4.3800    -0.3070    -2.0010 C.ar  1 <1>  -0.1500 
 12 C        4.8680    -1.3940     0.0780 C.ar  1 <1>  -0.1500 
 13 C        3.7070     3.2450     0.7620 C.ar  1 <1>  -0.1440 
 14 C        5.6270    -0.6670    -2.4800 C.ar  1 <1>  -0.1500 
 15 C        6.1140    -1.7530    -0.4020 C.ar  1 <1>  -0.1500 
 16 C        4.4800     3.8170    -0.2460 C.ar  1 <1>  -0.1440 
 17 C        3.0110     4.0630     1.6430 C.ar  1 <1>  -0.1500 
 18 C        6.4950    -1.3870    -1.6800 C.ar  1 <1>  -0.1500 
 19 C        4.5180     5.1970    -0.3690 C.ar  1 <1>  -0.1500 
 20 C        5.3040     2.9910    -1.2280 C.3   1 <1>  -0.0970 
 21 C        3.0610     5.4380     1.5130 C.ar  1 <1>  -0.1500 
 22 C        3.8120     6.0050     0.5030 C.ar  1 <1>  -0.1500 
 23 H        1.6310    -0.7010    -2.0230 H     1 <1>   0.0800 
 24 H        0.3750     1.3920    -1.7790 H     1 <1>   0.0800 
 25 H       -0.7960     1.4350    -0.4820 H     1 <1>   0.0800 
 26 H        2.5580    -0.6540     0.8550 H     1 <1>   0.0800 
 27 H        2.1920    -2.8970    -1.1920 H     1 <1>   0.0800 
 28 H        0.4430    -2.7580    -1.1130 H     1 <1>   0.0800 
 29 H        0.9390     1.5460     1.2040 H     1 <1>   0.0800 
 30 H        1.2120     2.8310     0.0590 H     1 <1>   0.0800 
 31 H        2.9300     1.5950    -0.9720 H     1 <1>   0.4500 
 32 H        1.1290    -3.5620     0.8290 H     1 <1>   0.4000 
 33 H        3.2710     1.5020     1.9270 H     1 <1>   0.0800 
 34 H        4.5600     1.2920     0.7650 H     1 <1>   0.0800 
 35 H        3.7270     0.2480    -2.6520 H     1 <1>   0.1500 
 36 H        4.5890    -1.6990     1.0750 H     1 <1>   0.1500 
 37 H        5.9280    -0.3930    -3.4780 H     1 <1>   0.1500 
 38 H        6.7910    -2.3210     0.2150 H     1 <1>   0.1500 
 39 H        2.4240     3.6450     2.4440 H     1 <1>   0.1500 
 40 H        7.4660    -1.6690    -2.0540 H     1 <1>   0.1500 
 41 H        5.1050     5.6600    -1.1440 H     1 <1>   0.1500 
 42 H        6.0960     3.5890    -1.6440 H     1 <1>   0.0800 
 43 H        4.6880     2.6500    -2.0390 H     1 <1>   0.0800 
 44 H        5.7640     2.1470    -0.7470 H     1 <1>   0.0800 
 45 H        2.5200     6.0700     2.1970 H     1 <1>   0.1500 
 46 H        3.8540     7.0760     0.3970 H     1 <1>   0.1500 
@<TRIPOS>BOND
  1   1   2  1   
  2   1   3  1   
  3   2   4  1   
  4   2   5  1   
  5   2  23  1   
  6   3   6  1   
  7   3  24  1   
  8   3  25  1   
  9   4   7  1   
 10   4   8  1   
 11   4  26  1   
 12   5   9  1   
 13   5  27  1   
 14   5  28  1   
 15   6   7  1   
 16   6  29  1   
 17   6  30  1   
 18   7  10  1   
 19   7  31  1   
 20   8  11  ar  
 21   8  12  ar  
 22   9  32  1   
 23  10  13  1   
 24  10  33  1   
 25  10  34  1   
 26  11  14  ar  
 27  11  35  1   
 28  12  15  ar  
 29  12  36  1   
 30  13  16  ar  
 31  13  17  ar  
 32  14  18  ar  
 33  14  37  1   
 34  15  18  ar  
 35  15  38  1   
 36  16  19  ar  
 37  16  20  1   
 38  17  21  ar  
 39  17  39  1   
 40  18  40  1   
 41  19  22  ar  
 42  19  41  1   
 43  20  42  1   
 44  20  43  1   
 45  20  44  1   
 46  21  22  ar  
 47  21  45  1   
 48  22  46  1   
@<TRIPOS>SUBSTRUCTURE
  1 ****   7 GROUP 4 **** **** 0

# MOE 2024.06 (io_trps.svl 2023.06)
