@<TRIPOS>MOLECULE
NONAME
56 58 1 0 0 
SMALL
USER_CHARGES


@<TRIPOS>ATOM
  1 O        2.2280    -0.5200    -2.0440 O.2   1 <1>  -0.5700 
  2 C        2.2410    -0.6280    -0.8420 C.2   1 <1>   0.5690 
  3 N        2.5540     0.4440    -0.0460 N.am  1 <1>  -0.6600 
  4 C        1.9580    -1.9900    -0.2270 C.3   1 <1>  -0.0990 
  5 C        3.2900     0.3170     1.2440 C.3   1 <1>   0.1400 
  6 C        2.4070     1.8320    -0.5680 C.3   1 <1>   0.1400 
  7 C        1.0550    -2.8720    -1.1030 C.3   1 <1>  -0.0160 
  8 C        4.7840     0.0240     0.9890 C.3   1 <1>   0.3430 
  9 C        3.7620     2.5020    -0.8220 C.3   1 <1>  -0.1600 
 10 C        0.7750    -4.1940    -0.4060 C.ar  1 <1>  -0.1440 
 11 N        5.5050     1.0970     0.2280 N.4   1 <1>  -0.9590 
 12 C        4.9090     1.5230    -1.0730 C.3   1 <1>   0.3430 
 13 C       -0.3260    -4.3400     0.4270 C.ar  1 <1>   0.1600 
 14 C        1.6160    -5.2740    -0.5880 C.ar  1 <1>  -0.1500 
 15 C        6.9520     0.8070     0.0700 C.3   1 <1>   0.5240 
 16 N       -0.6410    -5.4450     1.0840 N.ar  1 <1>  -0.6200 
 17 C        1.3000    -6.4350     0.0850 C.ar  1 <1>  -0.1500 
 18 C        7.6500     2.1580     0.0710 C.2   1 <1>   0.0460 
 19 C        0.1790    -6.4660     0.8960 C.ar  1 <1>   0.1600 
 20 N        7.2170     3.1160     0.9210 N.2   1 <1>  -0.5650 
 21 C        8.6740     2.6100    -0.6880 C.2   1 <1>  -0.3320 
 22 C        7.9850     4.1250     0.6700 C.2   1 <1>   0.0060 
 23 N        8.8950     3.8800    -0.2970 N.pl3 1 <1>   0.0330 
 24 C        9.4940     1.9410    -1.7800 C.3   1 <1>  -0.0600 
 25 C        7.8930     5.4630     1.3840 C.3   1 <1>   0.0200 
 26 C        7.3150     6.5440     0.4660 C.3   1 <1>  -0.2400 
 27 H        1.4710    -1.8520     0.7200 H     1 <1>   0.0800 
 28 H        2.8900    -2.4960    -0.0620 H     1 <1>   0.0800 
 29 H        2.8680    -0.4800     1.8290 H     1 <1>   0.0800 
 30 H        3.1880     1.2220     1.8180 H     1 <1>   0.0800 
 31 H        1.8300     2.4180     0.1270 H     1 <1>   0.0800 
 32 H        1.8510     1.8060    -1.4920 H     1 <1>   0.0800 
 33 H        1.5310    -3.0580    -2.0520 H     1 <1>   0.0800 
 34 H        0.1290    -2.3600    -1.3020 H     1 <1>   0.0800 
 35 H        4.8560    -0.9060     0.4500 H     1 <1>   0.0800 
 36 H        5.2670    -0.1140     1.9420 H     1 <1>   0.0800 
 37 H        4.0090     3.1660    -0.0120 H     1 <1>   0.0800 
 38 H        3.6510     3.1190    -1.6960 H     1 <1>   0.0800 
 39 H        5.5590     1.9600     0.8040 H     1 <1>   0.4500 
 40 H        5.6610     2.0350    -1.6530 H     1 <1>   0.0800 
 41 H        4.5620     0.6730    -1.6400 H     1 <1>   0.0800 
 42 H       -0.9860    -3.5010     0.5640 H     1 <1>   0.1500 
 43 H        2.4790    -5.2210    -1.2280 H     1 <1>   0.1500 
 44 H        7.1490     0.2680    -0.8410 H     1 <1>   0.0800 
 45 H        7.3120     0.2370     0.9100 H     1 <1>   0.0800 
 46 H        1.9150    -7.3100    -0.0170 H     1 <1>   0.1500 
 47 H       -0.0570    -7.3780     1.4170 H     1 <1>   0.1500 
 48 H        9.6000     4.5350    -0.6510 H     1 <1>   0.2700 
 49 H        9.1700     0.9290    -1.9420 H     1 <1>   0.0800 
 50 H       10.5340     1.9240    -1.5020 H     1 <1>   0.0800 
 51 H        9.3950     2.4830    -2.7040 H     1 <1>   0.0800 
 52 H        8.8700     5.7560     1.7270 H     1 <1>   0.0800 
 53 H        7.2610     5.3560     2.2480 H     1 <1>   0.0800 
 54 H        7.9490     6.6960    -0.3890 H     1 <1>   0.0800 
 55 H        7.2280     7.4730     1.0000 H     1 <1>   0.0800 
 56 H        6.3370     6.2520     0.1240 H     1 <1>   0.0800 
@<TRIPOS>BOND
  1   1   2  2   
  2   2   3  am  
  3   2   4  1   
  4   3   5  1   
  5   3   6  1   
  6   4   7  1   
  7   4  27  1   
  8   4  28  1   
  9   5   8  1   
 10   5  29  1   
 11   5  30  1   
 12   6   9  1   
 13   6  31  1   
 14   6  32  1   
 15   7  10  1   
 16   7  33  1   
 17   7  34  1   
 18   8  11  1   
 19   8  35  1   
 20   8  36  1   
 21   9  12  1   
 22   9  37  1   
 23   9  38  1   
 24  10  13  ar  
 25  10  14  ar  
 26  11  12  1   
 27  11  15  1   
 28  11  39  1   
 29  12  40  1   
 30  12  41  1   
 31  13  16  ar  
 32  13  42  1   
 33  14  17  ar  
 34  14  43  1   
 35  15  18  1   
 36  15  44  1   
 37  15  45  1   
 38  16  19  ar  
 39  17  19  ar  
 40  17  46  1   
 41  18  20  1   
 42  18  21  2   
 43  19  47  1   
 44  20  22  2   
 45  21  23  1   
 46  21  24  1   
 47  22  23  1   
 48  22  25  1   
 49  23  48  1   
 50  24  49  1   
 51  24  50  1   
 52  24  51  1   
 53  25  26  1   
 54  25  52  1   
 55  25  53  1   
 56  26  54  1   
 57  26  55  1   
 58  26  56  1   
@<TRIPOS>SUBSTRUCTURE
  1 ****   8 GROUP 4 **** **** 0

# MOE 2024.06 (io_trps.svl 2023.06)
