@<TRIPOS>MOLECULE
NONAME
51 53 1 0 0 
SMALL
USER_CHARGES


@<TRIPOS>ATOM
  1 O        1.7840     0.5420     2.0200 O.co2 1 <1>  -0.9000 
  2 C        1.9950     0.0050     0.9260 C.2   1 <1>   0.9060 
  3 O        1.9340    -1.2280     0.8030 O.co2 1 <1>  -0.9000 
  4 C        2.3590     0.8530    -0.3110 C.3   1 <1>  -0.1060 
  5 C        3.6090     0.2400    -0.9940 C.3   1 <1>   0.2000 
  6 C        2.7250     2.3150     0.0800 C.3   1 <1>  -0.1600 
  7 C        1.1740     0.8350    -1.3150 C.3   1 <1>  -0.0160 
  8 O        3.3710    -1.0820    -1.3330 O.3   1 <1>  -0.6800 
  9 C        4.8580     0.3200    -0.1030 C.3   1 <1>   0.1400 
 10 C        3.9820     2.3940     0.9580 C.3   1 <1>   0.1400 
 11 C        0.0190     1.7790    -0.9800 C.ar  1 <1>  -0.1440 
 12 N        5.1300     1.7490     0.2550 N.am  1 <1>  -0.6600 
 13 C       -0.2350     2.8840    -1.7790 C.ar  1 <1>  -0.1500 
 14 C       -0.7900     1.5410     0.1200 C.ar  1 <1>  -0.1500 
 15 C        6.3150     2.3580    -0.0670 C.2   1 <1>   0.5690 
 16 C       -1.2820     3.7410    -1.4810 C.ar  1 <1>  -0.1500 
 17 C       -1.8350     2.3960     0.4210 C.ar  1 <1>  -0.1500 
 18 O        7.1870     1.7780    -0.6720 O.2   1 <1>  -0.5700 
 19 C        6.5580     3.8100     0.3370 C.3   1 <1>  -0.0990 
 20 C       -2.0830     3.4970    -0.3800 C.ar  1 <1>  -0.1500 
 21 C        7.9440     4.3580    -0.0540 C.3   1 <1>  -0.1600 
 22 C        8.1310     5.8170     0.3810 C.3   1 <1>   0.0210 
 23 C        9.4950     6.3630    -0.0070 C.2   1 <1>  -0.1810 
 24 C        9.9530     7.6520     0.2540 C.2   1 <1>   0.1390 
 25 C       10.5200     5.7670    -0.6540 C.2   1 <1>  -0.3020 
 26 N       11.1570     7.8510    -0.1890 N.2   1 <1>  -0.7070 
 27 N       11.5060     6.6790    -0.7520 N.pl3 1 <1>   0.3000 
 28 H        3.8250     0.7590    -1.9110 H     1 <1>   0.0800 
 29 H        1.9100     2.7540     0.6290 H     1 <1>   0.0800 
 30 H        2.8780     2.9060    -0.8050 H     1 <1>   0.0800 
 31 H        1.5430     1.0860    -2.2930 H     1 <1>   0.0800 
 32 H        0.7860    -0.1670    -1.3860 H     1 <1>   0.0800 
 33 H        2.8330    -1.4610    -0.5710 H     1 <1>   0.4000 
 34 H        5.6930    -0.1040    -0.6310 H     1 <1>   0.0800 
 35 H        4.7000    -0.2450     0.7990 H     1 <1>   0.0800 
 36 H        3.8140     1.8830     1.8920 H     1 <1>   0.0800 
 37 H        4.1840     3.4220     1.1880 H     1 <1>   0.0800 
 38 H        0.3820     3.0830    -2.6360 H     1 <1>   0.1500 
 39 H       -0.6010     0.6900     0.7550 H     1 <1>   0.1500 
 40 H       -1.4720     4.5950    -2.1060 H     1 <1>   0.1500 
 41 H       -2.4480     2.2000     1.2830 H     1 <1>   0.1500 
 42 H        5.8010     4.4140    -0.1290 H     1 <1>   0.0800 
 43 H        6.4450     3.8800     1.4030 H     1 <1>   0.0800 
 44 H       -2.8960     4.1610    -0.1440 H     1 <1>   0.1500 
 45 H        8.7050     3.7500     0.4040 H     1 <1>   0.0800 
 46 H        8.0620     4.2880    -1.1220 H     1 <1>   0.0800 
 47 H        8.0220     5.8900     1.4490 H     1 <1>   0.0800 
 48 H        7.3730     6.4290    -0.0760 H     1 <1>   0.0800 
 49 H        9.3820     8.4100     0.7650 H     1 <1>   0.1500 
 50 H       10.6040     4.7690    -1.0430 H     1 <1>   0.1500 
 51 H       12.4230     6.5360    -1.1930 H     1 <1>   0.2700 
@<TRIPOS>BOND
  1   1   2  ar  
  2   2   3  ar  
  3   2   4  1   
  4   4   5  1   
  5   4   6  1   
  6   4   7  1   
  7   5   8  1   
  8   5   9  1   
  9   5  28  1   
 10   6  10  1   
 11   6  29  1   
 12   6  30  1   
 13   7  11  1   
 14   7  31  1   
 15   7  32  1   
 16   8  33  1   
 17   9  12  1   
 18   9  34  1   
 19   9  35  1   
 20  10  12  1   
 21  10  36  1   
 22  10  37  1   
 23  11  13  ar  
 24  11  14  ar  
 25  12  15  am  
 26  13  16  ar  
 27  13  38  1   
 28  14  17  ar  
 29  14  39  1   
 30  15  18  2   
 31  15  19  1   
 32  16  20  ar  
 33  16  40  1   
 34  17  20  ar  
 35  17  41  1   
 36  19  21  1   
 37  19  42  1   
 38  19  43  1   
 39  20  44  1   
 40  21  22  1   
 41  21  45  1   
 42  21  46  1   
 43  22  23  1   
 44  22  47  1   
 45  22  48  1   
 46  23  24  1   
 47  23  25  2   
 48  24  26  2   
 49  24  49  1   
 50  25  27  1   
 51  25  50  1   
 52  26  27  1   
 53  27  51  1   
@<TRIPOS>SUBSTRUCTURE
  1 ****  10 GROUP 4 **** **** 0

# MOE 2024.06 (io_trps.svl 2023.06)
