@<TRIPOS>MOLECULE
NONAME
38 39 1 0 0 
SMALL
USER_CHARGES


@<TRIPOS>ATOM
  1 S       -1.4570     0.8750     0.9730 S.3   1 <1>  -0.0800 
  2 C       -0.1040     1.3630    -0.0230 C.2   1 <1>   0.4340 
  3 C       -1.1230    -0.7750     0.5200 C.2   1 <1>  -0.1100 
  4 S        0.2850     3.1060    -0.1220 S.3   1 <1>  -0.2860 
  5 N        0.5160     0.4240    -0.6150 N.2   1 <1>  -0.5650 
  6 C       -0.0630    -0.7960    -0.3070 C.2   1 <1>   0.0460 
  7 C       -0.9730     3.9650     0.9500 C.3   1 <1>   0.1310 
  8 C        0.5600    -2.0240    -0.9350 C.3   1 <1>  -0.0590 
  9 C       -0.7660     5.4720     0.9590 C.2   1 <1>   0.5690 
 10 O       -1.5120     6.1330     1.6400 O.2   1 <1>  -0.5700 
 11 N        0.2440     6.0070     0.2040 N.am  1 <1>  -0.4940 
 12 C        0.6520     7.3550     0.0550 C.2   1 <1>  -0.0880 
 13 N        1.6650     7.7760    -0.7490 N.pl3 1 <1>   0.3140 
 14 C        0.1580     8.4680     0.6450 C.2   1 <1>  -0.1500 
 15 N        1.8280     9.1160    -0.6850 N.2   1 <1>  -0.7070 
 16 C        2.5130     6.9450    -1.6280 C.3   1 <1>   0.0960 
 17 C        0.9240     9.5160     0.1500 C.2   1 <1>   0.1080 
 18 C        3.6000     6.2170    -0.8230 C.3   1 <1>  -0.1600 
 19 C        0.7500    10.9700     0.5210 C.3   1 <1>  -0.0590 
 20 C        4.4470     5.3120    -1.7230 C.3   1 <1>  -0.2400 
 21 H       -1.7530    -1.5480     0.9200 H     1 <1>   0.1500 
 22 H       -0.8700     3.5760     1.9460 H     1 <1>   0.0800 
 23 H       -1.9460     3.7320     0.5590 H     1 <1>   0.0800 
 24 H        0.0370    -2.9110    -0.6310 H     1 <1>   0.0800 
 25 H        1.5890    -2.1020    -0.6310 H     1 <1>   0.0800 
 26 H        0.5200    -1.9410    -2.0060 H     1 <1>   0.0800 
 27 H        0.7900     5.3120    -0.3110 H     1 <1>   0.3700 
 28 H       -0.6510     8.5420     1.3490 H     1 <1>   0.1500 
 29 H        2.9680     7.5900    -2.3590 H     1 <1>   0.0800 
 30 H        1.8850     6.2410    -2.1400 H     1 <1>   0.0800 
 31 H        3.1470     5.6200    -0.0510 H     1 <1>   0.0800 
 32 H        4.2380     6.9490    -0.3550 H     1 <1>   0.0800 
 33 H       -0.0530    11.0850     1.2240 H     1 <1>   0.0800 
 34 H        0.5310    11.5400    -0.3630 H     1 <1>   0.0800 
 35 H        1.6590    11.3380     0.9580 H     1 <1>   0.0800 
 36 H        3.8360     4.5580    -2.1880 H     1 <1>   0.0800 
 37 H        5.2060     4.8210    -1.1390 H     1 <1>   0.0800 
 38 H        4.9310     5.8900    -2.4920 H     1 <1>   0.0800 
@<TRIPOS>BOND
  1   1   2  1   
  2   1   3  1   
  3   2   4  1   
  4   2   5  2   
  5   3   6  2   
  6   3  21  1   
  7   4   7  1   
  8   5   6  1   
  9   6   8  1   
 10   7   9  1   
 11   7  22  1   
 12   7  23  1   
 13   8  24  1   
 14   8  25  1   
 15   8  26  1   
 16   9  10  2   
 17   9  11  am  
 18  11  12  1   
 19  11  27  1   
 20  12  13  1   
 21  12  14  2   
 22  13  15  1   
 23  13  16  1   
 24  14  17  1   
 25  14  28  1   
 26  15  17  2   
 27  16  18  1   
 28  16  29  1   
 29  16  30  1   
 30  17  19  1   
 31  18  20  1   
 32  18  31  1   
 33  18  32  1   
 34  19  33  1   
 35  19  34  1   
 36  19  35  1   
 37  20  36  1   
 38  20  37  1   
 39  20  38  1   
@<TRIPOS>SUBSTRUCTURE
  1 ****  11 GROUP 4 **** **** 0

# MOE 2024.06 (io_trps.svl 2023.06)
