@<TRIPOS>MOLECULE
NONAME
47 49 1 0 0 
SMALL
USER_CHARGES


@<TRIPOS>ATOM
  1 O       -1.7650     0.4810     2.0930 O.2   1 <1>  -0.5700 
  2 C       -2.2950     0.9100     1.0840 C.2   1 <1>   0.5440 
  3 N       -3.3240     0.1920     0.5250 N.am  1 <1>  -0.6600 
  4 C       -1.8420     2.1470     0.4860 C.ar  1 <1>   0.0860 
  5 C       -3.9980     0.5450    -0.7510 C.3   1 <1>   0.1400 
  6 C       -3.6770    -1.1900     0.9370 C.3   1 <1>   0.1400 
  7 C       -1.0450     2.1470    -0.6710 C.ar  1 <1>   0.0830 
  8 C       -2.2200     3.3860     1.0240 C.ar  1 <1>  -0.1440 
  9 C       -5.0180    -0.5740    -0.9720 C.3   1 <1>   0.2000 
 10 C       -4.4030    -1.7900    -0.2750 C.3   1 <1>  -0.0800 
 11 O       -0.6030     1.0140    -1.2650 O.3   1 <1>  -0.3630 
 12 C       -0.6820     3.3360    -1.2790 C.ar  1 <1>  -0.1500 
 13 C       -1.8360     4.5670     0.4120 C.ar  1 <1>  -0.1500 
 14 C       -3.0670     3.4510     2.2900 C.3   1 <1>  -0.0970 
 15 O       -6.1850    -0.2360    -0.3050 O.3   1 <1>  -0.6800 
 16 C       -3.4220    -2.5210    -1.2130 C.3   1 <1>   0.0210 
 17 C        0.1360     0.0770    -0.5060 C.3   1 <1>   0.0400 
 18 C       -1.0720     4.5450    -0.7410 C.ar  1 <1>  -0.1500 
 19 C       -2.7910    -3.7220    -0.5360 C.2   1 <1>   0.1080 
 20 N       -3.4770    -4.7510    -0.1470 N.2   1 <1>  -0.7070 
 21 C       -1.4350    -3.8580    -0.2540 C.2   1 <1>  -0.1500 
 22 N       -2.5680    -5.5800     0.4000 N.pl3 1 <1>   0.3000 
 23 C       -1.3230    -5.0600     0.3480 C.2   1 <1>  -0.3320 
 24 C       -0.0860    -5.7540     0.8860 C.3   1 <1>  -0.0600 
 25 H       -4.4680     1.5120    -0.6980 H     1 <1>   0.0800 
 26 H       -3.2730     0.5410    -1.5460 H     1 <1>   0.0800 
 27 H       -2.7990    -1.7480     1.2150 H     1 <1>   0.0800 
 28 H       -4.3400    -1.1430     1.7830 H     1 <1>   0.0800 
 29 H       -5.2550    -0.7360    -2.0090 H     1 <1>   0.0800 
 30 H       -5.1600    -2.4890     0.0350 H     1 <1>   0.0800 
 31 H       -0.0850     3.3080    -2.1730 H     1 <1>   0.1500 
 32 H       -2.1280     5.5160     0.8260 H     1 <1>   0.1500 
 33 H       -3.2690     4.4680     2.5720 H     1 <1>   0.0800 
 34 H       -2.5490     2.9710     3.1020 H     1 <1>   0.0800 
 35 H       -4.0050     2.9480     2.1340 H     1 <1>   0.0800 
 36 H       -5.9630    -0.0090     0.6190 H     1 <1>   0.4000 
 37 H       -2.6450    -1.8540    -1.5410 H     1 <1>   0.0800 
 38 H       -3.9510    -2.8710    -2.0810 H     1 <1>   0.0800 
 39 H        0.8180    -0.4270    -1.1670 H     1 <1>   0.0800 
 40 H       -0.5410    -0.6360    -0.0720 H     1 <1>   0.0800 
 41 H        0.6830     0.5930     0.2640 H     1 <1>   0.0800 
 42 H       -0.7820     5.4680    -1.2140 H     1 <1>   0.1500 
 43 H       -0.6650    -3.1420    -0.4780 H     1 <1>   0.1500 
 44 H       -2.8280    -6.4890     0.7990 H     1 <1>   0.2700 
 45 H        0.7820    -5.1380     0.7290 H     1 <1>   0.0800 
 46 H        0.0640    -6.6920     0.3820 H     1 <1>   0.0800 
 47 H       -0.1900    -5.9350     1.9410 H     1 <1>   0.0800 
@<TRIPOS>BOND
  1   1   2  2   
  2   2   3  am  
  3   2   4  1   
  4   3   5  1   
  5   3   6  1   
  6   4   7  ar  
  7   4   8  ar  
  8   5   9  1   
  9   5  25  1   
 10   5  26  1   
 11   6  10  1   
 12   6  27  1   
 13   6  28  1   
 14   7  11  1   
 15   7  12  ar  
 16   8  13  ar  
 17   8  14  1   
 18   9  10  1   
 19   9  15  1   
 20   9  29  1   
 21  10  16  1   
 22  10  30  1   
 23  11  17  1   
 24  12  18  ar  
 25  12  31  1   
 26  13  18  ar  
 27  13  32  1   
 28  14  33  1   
 29  14  34  1   
 30  14  35  1   
 31  15  36  1   
 32  16  19  1   
 33  16  37  1   
 34  16  38  1   
 35  17  39  1   
 36  17  40  1   
 37  17  41  1   
 38  18  42  1   
 39  19  20  2   
 40  19  21  1   
 41  20  22  1   
 42  21  23  2   
 43  21  43  1   
 44  22  23  1   
 45  22  44  1   
 46  23  24  1   
 47  24  45  1   
 48  24  46  1   
 49  24  47  1   
@<TRIPOS>SUBSTRUCTURE
  1 ****   3 GROUP 4 **** **** 0

# MOE 2024.06 (io_trps.svl 2023.06)
