@<TRIPOS>MOLECULE
NONAME
48 52 1 0 0 
SMALL
USER_CHARGES


@<TRIPOS>ATOM
  1 S        1.4180     1.7080    -1.6990 S.3   1 <1>  -0.0800 
  2 C       -0.1730     2.1180    -1.0740 C.2   1 <1>  -0.1400 
  3 C        0.7030     0.6680    -2.9240 C.2   1 <1>  -0.1100 
  4 C       -1.1310     1.5020    -1.7780 C.2   1 <1>  -0.1810 
  5 C       -0.3790     3.0550     0.1110 C.3   1 <1>   0.4600 
  6 C       -0.6410     0.6680    -2.8320 C.2   1 <1>  -0.1500 
  7 C       -2.5820     1.7280    -1.4190 C.3   1 <1>   0.0210 
  8 O       -1.7510     3.0420     0.4600 O.3   1 <1>  -0.5600 
  9 C        0.0360     4.4940    -0.2310 C.3   1 <1>  -0.1600 
 10 C        0.3830     2.5570     1.3450 C.3   1 <1>  -0.1600 
 11 C       -2.7000     3.0160    -0.5800 C.3   1 <1>   0.1200 
 12 C       -0.1250     5.4210     0.9740 C.3   1 <1>   0.1400 
 13 C        0.2300     3.5090     2.5330 C.3   1 <1>   0.1400 
 14 N        0.6560     4.8750     2.1190 N.am  1 <1>  -0.6600 
 15 C        1.6030     5.5900     2.8260 C.2   1 <1>   0.5440 
 16 O        1.9210     5.2120     3.9380 O.2   1 <1>  -0.5700 
 17 C        2.2260     6.7840     2.2830 C.ar  1 <1>   0.0860 
 18 C        2.7800     6.7970     1.0060 C.ar  1 <1>  -0.1500 
 19 C        2.2960     7.9610     3.0260 C.ar  1 <1>  -0.1500 
 20 C        3.3520     7.9370     0.4550 C.ar  1 <1>  -0.0230 
 21 C        2.8680     9.1060     2.5040 C.ar  1 <1>  -0.1500 
 22 N        3.8760     7.9070    -0.8690 N.pl3 1 <1>   0.5930 
 23 C        3.3890     9.0980     1.2230 C.ar  1 <1>  -0.1500 
 24 N        3.3190     7.1740    -1.8690 N.2   1 <1>  -0.7070 
 25 C        4.9630     8.5670    -1.3400 C.2   1 <1>  -0.3020 
 26 C        4.0530     7.3920    -2.9140 C.2   1 <1>   0.1390 
 27 C        5.1030     8.2600    -2.6460 C.2   1 <1>  -0.1500 
 28 H        1.3750     0.1600    -3.5930 H     1 <1>   0.1500 
 29 H       -1.3120     0.1140    -3.4640 H     1 <1>   0.1500 
 30 H       -2.9530     0.8900    -0.8560 H     1 <1>   0.0800 
 31 H       -3.1730     1.8290    -2.3110 H     1 <1>   0.0800 
 32 H       -0.5380     4.8600    -1.0600 H     1 <1>   0.0800 
 33 H        1.0660     4.5000    -0.5380 H     1 <1>   0.0800 
 34 H        1.4290     2.4700     1.1150 H     1 <1>   0.0800 
 35 H        0.0260     1.5790     1.6100 H     1 <1>   0.0800 
 36 H       -3.6760     3.0800    -0.1340 H     1 <1>   0.0800 
 37 H       -2.5490     3.8810    -1.2010 H     1 <1>   0.0800 
 38 H       -1.1630     5.4720     1.2560 H     1 <1>   0.0800 
 39 H        0.1940     6.4160     0.7210 H     1 <1>   0.0800 
 40 H        0.8290     3.1560     3.3550 H     1 <1>   0.0800 
 41 H       -0.7970     3.5410     2.8540 H     1 <1>   0.0800 
 42 H        2.7600     5.8900     0.4260 H     1 <1>   0.1500 
 43 H        1.8920     7.9650     4.0250 H     1 <1>   0.1500 
 44 H        2.9060    10.0040     3.0970 H     1 <1>   0.1500 
 45 H        3.8210     9.9990     0.8230 H     1 <1>   0.1500 
 46 H        5.5640     9.2030    -0.7190 H     1 <1>   0.1500 
 47 H        3.8640     6.9460    -3.8770 H     1 <1>   0.1500 
 48 H        5.8480     8.5920    -3.3490 H     1 <1>   0.1500 
@<TRIPOS>BOND
  1   1   2  1   
  2   1   3  1   
  3   2   4  2   
  4   2   5  1   
  5   3   6  2   
  6   3  28  1   
  7   4   6  1   
  8   4   7  1   
  9   5   8  1   
 10   5   9  1   
 11   5  10  1   
 12   6  29  1   
 13   7  11  1   
 14   7  30  1   
 15   7  31  1   
 16   8  11  1   
 17   9  12  1   
 18   9  32  1   
 19   9  33  1   
 20  10  13  1   
 21  10  34  1   
 22  10  35  1   
 23  11  36  1   
 24  11  37  1   
 25  12  14  1   
 26  12  38  1   
 27  12  39  1   
 28  13  14  1   
 29  13  40  1   
 30  13  41  1   
 31  14  15  am  
 32  15  16  2   
 33  15  17  1   
 34  17  18  ar  
 35  17  19  ar  
 36  18  20  ar  
 37  18  42  1   
 38  19  21  ar  
 39  19  43  1   
 40  20  22  1   
 41  20  23  ar  
 42  21  23  ar  
 43  21  44  1   
 44  22  24  1   
 45  22  25  1   
 46  23  45  1   
 47  24  26  2   
 48  25  27  2   
 49  25  46  1   
 50  26  27  1   
 51  26  47  1   
 52  27  48  1   
@<TRIPOS>SUBSTRUCTURE
  1 ****   9 GROUP 4 **** **** 0

# MOE 2024.06 (io_trps.svl 2023.06)
