@<TRIPOS>MOLECULE
NONAME
49 52 1 0 0 
SMALL
USER_CHARGES


@<TRIPOS>ATOM
  1 F        0.8970    -0.0580     2.8480 F     1 <1>  -0.1900 
  2 C        1.9030     0.6450     2.3690 C.ar  1 <1>   0.1900 
  3 C        2.6980     0.1650     1.3320 C.ar  1 <1>   0.4100 
  4 C        2.1760     1.8700     2.9060 C.ar  1 <1>   0.1600 
  5 N        3.7010     0.8990     0.8880 N.ar  1 <1>  -0.6200 
  6 N        2.4860    -1.0620     0.7120 N.pl3 1 <1>  -0.8380 
  7 N        3.1720     2.6100     2.4610 N.ar  1 <1>  -0.6200 
  8 C        3.8770     2.0860     1.4580 C.ar  1 <1>   0.7200 
  9 C        1.1920    -1.2830     0.0000 C.3   1 <1>   0.2090 
 10 C        3.6200    -1.7790     0.0480 C.3   1 <1>   0.2090 
 11 N        4.9000     2.8470     0.9510 N.pl3 1 <1>  -0.8380 
 12 C        1.3460    -1.0350    -1.5130 C.3   1 <1>   0.1200 
 13 C        3.6390    -1.4960    -1.4650 C.3   1 <1>   0.1200 
 14 C        5.0810     4.2810     1.3320 C.3   1 <1>   0.4690 
 15 C        6.1940     2.2190     0.6090 C.3   1 <1>   0.2090 
 16 O        2.3980    -1.7940    -2.0450 O.3   1 <1>  -0.5600 
 17 C        4.1420     5.2560     0.5970 C.2   1 <1>   0.2980 
 18 C        6.5670     4.5480     1.0550 C.3   1 <1>  -0.1600 
 19 C        7.2430     3.1840     1.1420 C.3   1 <1>  -0.1600 
 20 O        2.8700     4.9510     0.5080 O.3   1 <1>  -0.0190 
 21 N        4.4650     6.3740     0.0660 N.2   1 <1>  -0.5650 
 22 N        2.3440     5.9500    -0.1340 N.2   1 <1>  -0.4100 
 23 C        3.2840     6.7710    -0.3900 C.2   1 <1>   0.3350 
 24 C        3.1400     8.1000    -1.1330 C.3   1 <1>   0.1010 
 25 C        2.9830     9.2600    -0.1400 C.3   1 <1>  -0.2400 
 26 C        1.9670     8.0940    -2.1260 C.3   1 <1>  -0.2400 
 27 H        1.5730     2.2510     3.7100 H     1 <1>   0.1500 
 28 H        0.8660    -2.2950     0.1630 H     1 <1>   0.0800 
 29 H        0.4340    -0.6260     0.3870 H     1 <1>   0.0800 
 30 H        4.5560    -1.4780     0.4840 H     1 <1>   0.0800 
 31 H        3.5100    -2.8370     0.2080 H     1 <1>   0.0800 
 32 H        1.5460     0.0060    -1.7020 H     1 <1>   0.0800 
 33 H        0.4460    -1.3150    -2.0290 H     1 <1>   0.0800 
 34 H        4.3830    -2.1050    -1.9470 H     1 <1>   0.0800 
 35 H        3.8660    -0.4600    -1.6470 H     1 <1>   0.0800 
 36 H        4.9140     4.3860     2.3900 H     1 <1>   0.0800 
 37 H        6.2950     1.2440     1.0560 H     1 <1>   0.0800 
 38 H        6.2650     2.1330    -0.4620 H     1 <1>   0.0800 
 39 H        6.6830     4.9320     0.0570 H     1 <1>   0.0800 
 40 H        6.9750     5.2600     1.7500 H     1 <1>   0.0800 
 41 H        7.4530     2.9400     2.1690 H     1 <1>   0.0800 
 42 H        8.1540     3.1380     0.5730 H     1 <1>   0.0800 
 43 H        4.0460     8.2540    -1.6930 H     1 <1>   0.0800 
 44 H        2.0890     9.1310     0.4440 H     1 <1>   0.0800 
 45 H        2.9280    10.1990    -0.6620 H     1 <1>   0.0800 
 46 H        3.8270     9.2860     0.5270 H     1 <1>   0.0800 
 47 H        1.0340     7.9670    -1.6050 H     1 <1>   0.0800 
 48 H        2.0820     7.2830    -2.8230 H     1 <1>   0.0800 
 49 H        1.9350     9.0180    -2.6760 H     1 <1>   0.0800 
@<TRIPOS>BOND
  1   1   2  1   
  2   2   3  ar  
  3   2   4  ar  
  4   3   5  ar  
  5   3   6  1   
  6   4   7  ar  
  7   4  27  1   
  8   5   8  ar  
  9   6   9  1   
 10   6  10  1   
 11   7   8  ar  
 12   8  11  1   
 13   9  12  1   
 14   9  28  1   
 15   9  29  1   
 16  10  13  1   
 17  10  30  1   
 18  10  31  1   
 19  11  14  1   
 20  11  15  1   
 21  12  16  1   
 22  12  32  1   
 23  12  33  1   
 24  13  16  1   
 25  13  34  1   
 26  13  35  1   
 27  14  17  1   
 28  14  18  1   
 29  14  36  1   
 30  15  19  1   
 31  15  37  1   
 32  15  38  1   
 33  17  20  1   
 34  17  21  2   
 35  18  19  1   
 36  18  39  1   
 37  18  40  1   
 38  19  41  1   
 39  19  42  1   
 40  20  22  1   
 41  21  23  1   
 42  22  23  2   
 43  23  24  1   
 44  24  25  1   
 45  24  26  1   
 46  24  43  1   
 47  25  44  1   
 48  25  45  1   
 49  25  46  1   
 50  26  47  1   
 51  26  48  1   
 52  26  49  1   
@<TRIPOS>SUBSTRUCTURE
  1 ****   8 GROUP 4 **** **** 0

# MOE 2024.06 (io_trps.svl 2023.06)
