@<TRIPOS>MOLECULE
NONAME
50 52 1 0 0 
SMALL
USER_CHARGES


@<TRIPOS>ATOM
  1 S        0.5020     0.1090    -0.5690 S.o2  1 <1>   1.3330 
  2 O        1.9460     0.1810    -0.5530 O.2   1 <1>  -0.6500 
  3 O       -0.1980     0.0700    -1.8330 O.2   1 <1>  -0.6500 
  4 N        0.0410    -1.2520     0.3350 N.am  1 <1>  -0.8490 
  5 C       -0.1670     1.4710     0.3810 C.3   1 <1>  -0.0550 
  6 C        0.9310    -1.5280     1.4680 C.3   1 <1>   0.1160 
  7 C       -0.0920    -2.4510    -0.4970 C.3   1 <1>   0.1160 
  8 C        0.0490     2.8430    -0.2880 C.3   1 <1>  -0.0800 
  9 C       -0.6500     4.0040     0.4250 C.3   1 <1>   0.2000 
 10 C        1.5190     3.2790    -0.3720 C.3   1 <1>   0.1400 
 11 O       -0.4280     3.8940     1.7900 O.3   1 <1>  -0.6800 
 12 C        0.0960     5.2360    -0.0780 C.3   1 <1>   0.1400 
 13 N        1.4880     4.7610    -0.2780 N.am  1 <1>  -0.6600 
 14 C        2.6240     5.5510    -0.3110 C.2   1 <1>   0.7160 
 15 O        3.6930     4.9610    -0.2640 O.2   1 <1>  -0.5700 
 16 C        2.5950     7.0170    -0.3820 C.2   1 <1>   0.2030 
 17 N        1.5260     7.7780    -0.5750 N.2   1 <1>  -0.7070 
 18 C        3.7250     7.8450    -0.2530 C.2   1 <1>  -0.1810 
 19 N        1.9550     9.0440    -0.5650 N.pl3 1 <1>   0.3140 
 20 C        3.2830     9.1090    -0.3610 C.2   1 <1>  -0.3320 
 21 C        5.1890     7.4810    -0.0410 C.3   1 <1>   0.0820 
 22 C        1.0340    10.1700    -0.7630 C.3   1 <1>   0.0160 
 23 C        4.1440    10.3580    -0.2770 C.3   1 <1>   0.0200 
 24 C        6.0650     8.7260    -0.0730 C.2   1 <1>   0.4480 
 25 C        5.4550    10.0200     0.4470 C.3   1 <1>  -0.0990 
 26 O        7.1870     8.6980    -0.4820 O.2   1 <1>  -0.5700 
 27 H       -1.2210     1.3150     0.5050 H     1 <1>   0.0800 
 28 H        0.2760     1.4740     1.3570 H     1 <1>   0.0800 
 29 H        0.5430    -2.3440     2.0520 H     1 <1>   0.0800 
 30 H        1.0060    -0.6620     2.1030 H     1 <1>   0.0800 
 31 H        1.9180    -1.7860     1.1180 H     1 <1>   0.0800 
 32 H       -0.4020    -3.2890     0.1020 H     1 <1>   0.0800 
 33 H        0.8470    -2.6820    -0.9740 H     1 <1>   0.0800 
 34 H       -0.8360    -2.2900    -1.2600 H     1 <1>   0.0800 
 35 H       -0.3350     2.7980    -1.2930 H     1 <1>   0.0800 
 36 H       -1.7110     4.0440     0.2480 H     1 <1>   0.0800 
 37 H        1.9730     2.9670    -1.2980 H     1 <1>   0.0800 
 38 H        2.0910     2.8850     0.4510 H     1 <1>   0.0800 
 39 H        0.5100     4.1130     1.9690 H     1 <1>   0.4000 
 40 H        0.0400     6.0460     0.6290 H     1 <1>   0.0800 
 41 H       -0.3030     5.5570    -1.0250 H     1 <1>   0.0800 
 42 H        5.5150     6.8090    -0.8140 H     1 <1>   0.0800 
 43 H        5.3070     6.9910     0.9070 H     1 <1>   0.0800 
 44 H        1.3890    10.7780    -1.5730 H     1 <1>   0.0800 
 45 H        0.9850    10.7480     0.1400 H     1 <1>   0.0800 
 46 H        0.0580     9.7890    -1.0010 H     1 <1>   0.0800 
 47 H        4.3570    10.7070    -1.2730 H     1 <1>   0.0800 
 48 H        3.6320    11.1370     0.2590 H     1 <1>   0.0800 
 49 H        5.2610     9.8990     1.4970 H     1 <1>   0.0800 
 50 H        6.1590    10.8240     0.3260 H     1 <1>   0.0800 
@<TRIPOS>BOND
  1   1   2  2   
  2   1   3  2   
  3   1   4  am  
  4   1   5  1   
  5   4   6  1   
  6   4   7  1   
  7   5   8  1   
  8   5  27  1   
  9   5  28  1   
 10   6  29  1   
 11   6  30  1   
 12   6  31  1   
 13   7  32  1   
 14   7  33  1   
 15   7  34  1   
 16   8   9  1   
 17   8  10  1   
 18   8  35  1   
 19   9  11  1   
 20   9  12  1   
 21   9  36  1   
 22  10  13  1   
 23  10  37  1   
 24  10  38  1   
 25  11  39  1   
 26  12  13  1   
 27  12  40  1   
 28  12  41  1   
 29  13  14  am  
 30  14  15  2   
 31  14  16  1   
 32  16  17  2   
 33  16  18  1   
 34  17  19  1   
 35  18  20  2   
 36  18  21  1   
 37  19  20  1   
 38  19  22  1   
 39  20  23  1   
 40  21  24  1   
 41  21  42  1   
 42  21  43  1   
 43  22  44  1   
 44  22  45  1   
 45  22  46  1   
 46  23  25  1   
 47  23  47  1   
 48  23  48  1   
 49  24  25  1   
 50  24  26  2   
 51  25  49  1   
 52  25  50  1   
@<TRIPOS>SUBSTRUCTURE
  1 ****  13 GROUP 4 **** **** 0

# MOE 2024.06 (io_trps.svl 2023.06)
