@<TRIPOS>MOLECULE
NONAME
40 41 1 0 0 
SMALL
USER_CHARGES


@<TRIPOS>ATOM
  1 F        1.6160    -0.7520     1.9330 F     1 <1>  -0.1900 
  2 C        2.0430     0.1210     1.0620 C.ar  1 <1>   0.1900 
  3 C        2.4050    -0.3150    -0.2090 C.ar  1 <1>   0.0860 
  4 C        2.0990     1.4440     1.4540 C.ar  1 <1>  -0.1500 
  5 C        2.8340     0.6850    -1.0770 C.ar  1 <1>   0.1900 
  6 C        2.3420    -1.6990    -0.5950 C.2   1 <1>   0.5440 
  7 C        2.5350     2.4070     0.5570 C.ar  1 <1>   0.0830 
  8 F        3.1770     0.3590    -2.2930 F     1 <1>  -0.1900 
  9 C        2.9080     2.0210    -0.7280 C.ar  1 <1>  -0.1500 
 10 O        3.2690    -2.4310    -0.3030 O.2   1 <1>  -0.5700 
 11 N        1.2560    -2.2220    -1.2630 N.am  1 <1>  -0.6600 
 12 O        2.5670     3.6830     0.9960 O.3   1 <1>  -0.3630 
 13 C        1.2560    -3.6280    -1.7560 C.3   1 <1>   0.3200 
 14 C        0.0470    -1.4170    -1.6190 C.3   1 <1>   0.1400 
 15 C        3.0480     4.7380     0.1910 C.3   1 <1>   0.0400 
 16 C        0.2170    -4.4350    -1.0040 C.2   1 <1>  -0.3320 
 17 C       -0.9990    -1.4540    -0.4970 C.3   1 <1>   0.1200 
 18 N        0.2970    -4.7620     0.3020 N.pl3 1 <1>   0.0480 
 19 C       -0.9380    -4.9670    -1.4630 C.2   1 <1>   0.0770 
 20 O       -1.9060    -0.4200    -0.6860 O.3   1 <1>  -0.6800 
 21 C       -0.8300    -5.4690     0.5450 C.2   1 <1>   0.0360 
 22 C        1.3680    -4.4410     1.2630 C.3   1 <1>   0.0160 
 23 N       -1.5970    -5.6130    -0.4860 N.2   1 <1>  -0.5650 
 24 H        1.8090     1.7320     2.4490 H     1 <1>   0.1500 
 25 H        3.2520     2.7290    -1.4580 H     1 <1>   0.1500 
 26 H        2.2240    -4.0830    -1.6340 H     1 <1>   0.0800 
 27 H        1.0300    -3.6320    -2.8080 H     1 <1>   0.0800 
 28 H       -0.3940    -1.8040    -2.5210 H     1 <1>   0.0800 
 29 H        0.3370    -0.3990    -1.8070 H     1 <1>   0.0800 
 30 H        2.9960     5.6460     0.7650 H     1 <1>   0.0800 
 31 H        2.4270     4.8240    -0.6830 H     1 <1>   0.0800 
 32 H        4.0690     4.5360    -0.0790 H     1 <1>   0.0800 
 33 H       -0.5450    -1.3300     0.4700 H     1 <1>   0.0800 
 34 H       -1.5450    -2.3810    -0.5210 H     1 <1>   0.0800 
 35 H       -1.3420    -4.9160    -2.4610 H     1 <1>   0.1500 
 36 H       -1.5350     0.4350    -0.3930 H     1 <1>   0.4000 
 37 H       -1.0500    -5.8690     1.5190 H     1 <1>   0.1500 
 38 H        2.3240    -4.6480     0.8180 H     1 <1>   0.0800 
 39 H        1.2510    -5.0350     2.1500 H     1 <1>   0.0800 
 40 H        1.3130    -3.3990     1.5190 H     1 <1>   0.0800 
@<TRIPOS>BOND
  1   1   2  1   
  2   2   3  ar  
  3   2   4  ar  
  4   3   5  ar  
  5   3   6  1   
  6   4   7  ar  
  7   4  24  1   
  8   5   8  1   
  9   5   9  ar  
 10   6  10  2   
 11   6  11  am  
 12   7   9  ar  
 13   7  12  1   
 14   9  25  1   
 15  11  13  1   
 16  11  14  1   
 17  12  15  1   
 18  13  16  1   
 19  13  26  1   
 20  13  27  1   
 21  14  17  1   
 22  14  28  1   
 23  14  29  1   
 24  15  30  1   
 25  15  31  1   
 26  15  32  1   
 27  16  18  1   
 28  16  19  2   
 29  17  20  1   
 30  17  33  1   
 31  17  34  1   
 32  18  21  1   
 33  18  22  1   
 34  19  23  1   
 35  19  35  1   
 36  20  36  1   
 37  21  23  2   
 38  21  37  1   
 39  22  38  1   
 40  22  39  1   
 41  22  40  1   
@<TRIPOS>SUBSTRUCTURE
  1 ****   6 GROUP 4 **** **** 0

# MOE 2024.06 (io_trps.svl 2023.06)
