@<TRIPOS>MOLECULE
NONAME
48 51 1 0 0 
SMALL
USER_CHARGES


@<TRIPOS>ATOM
  1 S       -0.7650    -0.7350     0.2640 S.3   1 <1>  -0.0800 
  2 C       -1.3940    -0.9380    -1.3640 C.2   1 <1>  -0.1400 
  3 C       -0.8350     1.0130     0.1270 C.2   1 <1>  -0.1400 
  4 C       -1.6220     0.2610    -1.9340 C.2   1 <1>  -0.1500 
  5 C       -1.5880    -2.3560    -1.8500 C.3   1 <1>   0.5230 
  6 C       -1.3050     1.3670    -1.0850 C.2   1 <1>  -0.1500 
  7 C       -0.3720     1.8070     1.3370 C.3   1 <1>   0.0200 
  8 N       -2.5380    -3.0310    -0.9300 N.4   1 <1>  -0.9590 
  9 C       -0.4890     3.3180     1.1180 C.3   1 <1>  -0.2400 
 10 C       -3.8900    -2.3640    -0.9370 C.3   1 <1>   0.3430 
 11 C       -2.6580    -4.5010    -1.2100 C.3   1 <1>   0.3430 
 12 C       -4.8900    -3.0740    -0.0030 C.3   1 <1>   0.1900 
 13 C       -3.6850    -5.1810    -0.2820 C.3   1 <1>   0.1100 
 14 N       -5.0030    -4.5150    -0.3520 N.3   1 <1>  -0.8100 
 15 C       -6.2640    -2.3840    -0.0800 C.3   1 <1>   0.1200 
 16 C       -6.0340    -5.1650     0.5030 C.3   1 <1>   0.2850 
 17 O       -7.1570    -3.0220     0.7780 O.3   1 <1>  -0.5600 
 18 C       -6.2950    -6.6010     0.0260 C.3   1 <1>  -0.1950 
 19 C       -7.3600    -4.3720     0.4640 C.3   1 <1>   0.1200 
 20 C       -7.0130    -7.5740     0.9110 C.3   1 <1>  -0.2000 
 21 C       -5.5630    -7.7830     0.5900 C.3   1 <1>  -0.2000 
 22 H       -2.0030     0.4370    -2.9260 H     1 <1>   0.1500 
 23 H       -0.6370    -2.8650    -1.8450 H     1 <1>   0.0800 
 24 H       -1.9750    -2.3530    -2.8550 H     1 <1>   0.0800 
 25 H       -1.4430     2.3790    -1.4290 H     1 <1>   0.1500 
 26 H       -0.9650     1.5260     2.1900 H     1 <1>   0.0800 
 27 H        0.6530     1.5570     1.5490 H     1 <1>   0.0800 
 28 H       -2.1530    -2.9080     0.0160 H     1 <1>   0.4500 
 29 H       -1.5110     3.5900     0.9250 H     1 <1>   0.0800 
 30 H        0.1190     3.6220     0.2840 H     1 <1>   0.0800 
 31 H       -0.1530     3.8430     1.9950 H     1 <1>   0.0800 
 32 H       -3.7910    -1.3360    -0.6280 H     1 <1>   0.0800 
 33 H       -4.2950    -2.3740    -1.9350 H     1 <1>   0.0800 
 34 H       -2.9770    -4.6520    -2.2280 H     1 <1>   0.0800 
 35 H       -1.7000    -4.9800    -1.0870 H     1 <1>   0.0800 
 36 H       -4.5370    -2.9760     1.0100 H     1 <1>   0.0800 
 37 H       -3.3230    -5.1810     0.7320 H     1 <1>   0.0800 
 38 H       -3.7800    -6.2050    -0.5990 H     1 <1>   0.0800 
 39 H       -6.6630    -2.4180    -1.0790 H     1 <1>   0.0800 
 40 H       -6.1940    -1.3570     0.2360 H     1 <1>   0.0800 
 41 H       -5.6940    -5.1890     1.5250 H     1 <1>   0.0800 
 42 H       -6.5630    -6.6310    -1.0160 H     1 <1>   0.1000 
 43 H       -8.0520    -4.7750     1.1820 H     1 <1>   0.0800 
 44 H       -7.8080    -4.4340    -0.5130 H     1 <1>   0.0800 
 45 H       -7.2760    -7.2910     1.9160 H     1 <1>   0.1000 
 46 H       -7.7380    -8.2380     0.4700 H     1 <1>   0.1000 
 47 H       -5.2970    -8.5940    -0.0670 H     1 <1>   0.1000 
 48 H       -4.8490    -7.6460     1.3840 H     1 <1>   0.1000 
@<TRIPOS>BOND
  1   1   2  1   
  2   1   3  1   
  3   2   4  2   
  4   2   5  1   
  5   3   6  2   
  6   3   7  1   
  7   4   6  1   
  8   4  22  1   
  9   5   8  1   
 10   5  23  1   
 11   5  24  1   
 12   6  25  1   
 13   7   9  1   
 14   7  26  1   
 15   7  27  1   
 16   8  10  1   
 17   8  11  1   
 18   8  28  1   
 19   9  29  1   
 20   9  30  1   
 21   9  31  1   
 22  10  12  1   
 23  10  32  1   
 24  10  33  1   
 25  11  13  1   
 26  11  34  1   
 27  11  35  1   
 28  12  14  1   
 29  12  15  1   
 30  12  36  1   
 31  13  14  1   
 32  13  37  1   
 33  13  38  1   
 34  14  16  1   
 35  15  17  1   
 36  15  39  1   
 37  15  40  1   
 38  16  18  1   
 39  16  19  1   
 40  16  41  1   
 41  17  19  1   
 42  18  20  1   
 43  18  21  1   
 44  18  42  1   
 45  19  43  1   
 46  19  44  1   
 47  20  21  1   
 48  20  45  1   
 49  20  46  1   
 50  21  47  1   
 51  21  48  1   
@<TRIPOS>SUBSTRUCTURE
  1 ****  10 GROUP 4 **** **** 0

# MOE 2024.06 (io_trps.svl 2023.06)
