@<TRIPOS>MOLECULE
NONAME
45 47 1 0 0 
SMALL
USER_CHARGES


@<TRIPOS>ATOM
  1 O        0.5930     0.0840     1.3170 O.3   1 <1>  -0.0190 
  2 N        1.0290     0.8790     2.2440 N.2   1 <1>  -0.4100 
  3 C        1.5740     0.0290     0.4510 C.2   1 <1>   0.3170 
  4 C        2.1970     1.2490     1.9070 C.2   1 <1>   0.3350 
  5 N        2.6030     0.7320     0.7470 N.2   1 <1>  -0.5650 
  6 C        1.3770    -0.8390    -0.7840 C.3   1 <1>   0.1610 
  7 C        3.0860     2.1860     2.7300 C.3   1 <1>   0.3900 
  8 C        1.2970    -2.3590    -0.4880 C.3   1 <1>   0.0000 
  9 C        2.6520    -1.1490    -1.6150 C.3   1 <1>   0.0000 
 10 N        3.2850     3.5410     2.0970 N.pl3 1 <1>  -0.8380 
 11 C        2.0790    -2.5760    -1.8090 C.3   1 <1>   0.0000 
 12 C        4.1070     3.8060     1.0450 C.ar  1 <1>   0.7710 
 13 C        2.6080     4.6450     2.8540 C.3   1 <1>   0.1290 
 14 N        4.5640     5.0380     0.8880 N.ar  1 <1>  -0.6200 
 15 N        4.4360     2.8210     0.1890 N.ar  1 <1>  -0.1790 
 16 C        5.3890     5.2960    -0.1130 C.ar  1 <1>   0.4100 
 17 C        5.2630     3.0350    -0.8590 C.ar  1 <1>   0.2110 
 18 N        5.8640     6.5670    -0.2330 N.pl3 1 <1>  -0.8380 
 19 C        5.7570     4.2840    -1.0230 C.ar  1 <1>  -0.1500 
 20 C        7.0920     6.9420    -0.9850 C.3   1 <1>   0.2090 
 21 C        5.2690     7.7070     0.5360 C.3   1 <1>   0.1290 
 22 C        6.7010     7.4610    -2.3660 C.3   1 <1>  -0.2400 
 23 H        0.5610    -0.5070    -1.4050 H     1 <1>   0.0000 
 24 H        4.0430     1.7150     2.8750 H     1 <1>   0.0800 
 25 H        2.6440     2.3020     3.7050 H     1 <1>   0.0800 
 26 H        0.2970    -2.7550    -0.5020 H     1 <1>   0.0000 
 27 H        1.8650    -2.6510     0.3800 H     1 <1>   0.0000 
 28 H        3.5590    -1.1520    -1.0340 H     1 <1>   0.0000 
 29 H        2.7270    -0.5820    -2.5260 H     1 <1>   0.0000 
 30 H        1.4330    -2.6520    -2.6680 H     1 <1>   0.0000 
 31 H        2.8190    -3.3540    -1.7560 H     1 <1>   0.0000 
 32 H        1.6040     4.3560     3.1160 H     1 <1>   0.0800 
 33 H        2.5470     5.5440     2.2630 H     1 <1>   0.0800 
 34 H        3.1570     4.8650     3.7550 H     1 <1>   0.0800 
 35 H        3.9500     1.9320     0.3260 H     1 <1>   0.4570 
 36 H        5.4930     2.2190    -1.5250 H     1 <1>   0.1500 
 37 H        6.4100     4.5180    -1.8400 H     1 <1>   0.1500 
 38 H        7.7500     6.0960    -1.0770 H     1 <1>   0.0800 
 39 H        7.6270     7.7070    -0.4460 H     1 <1>   0.0800 
 40 H        4.2240     7.5320     0.7290 H     1 <1>   0.0800 
 41 H        5.3540     8.6220    -0.0230 H     1 <1>   0.0800 
 42 H        5.7830     7.8170     1.4740 H     1 <1>   0.0800 
 43 H        6.1570     6.7140    -2.9120 H     1 <1>   0.0800 
 44 H        7.5860     7.7150    -2.9200 H     1 <1>   0.0800 
 45 H        6.0940     8.3440    -2.2760 H     1 <1>   0.0800 
@<TRIPOS>BOND
  1   1   2  1   
  2   1   3  1   
  3   2   4  2   
  4   3   5  2   
  5   3   6  1   
  6   4   5  1   
  7   4   7  1   
  8   6   8  1   
  9   6   9  1   
 10   6  23  1   
 11   7  10  1   
 12   7  24  1   
 13   7  25  1   
 14   8  11  1   
 15   8  26  1   
 16   8  27  1   
 17   9  11  1   
 18   9  28  1   
 19   9  29  1   
 20  10  12  1   
 21  10  13  1   
 22  11  30  1   
 23  11  31  1   
 24  12  14  ar  
 25  12  15  ar  
 26  13  32  1   
 27  13  33  1   
 28  13  34  1   
 29  14  16  ar  
 30  15  17  ar  
 31  15  35  1   
 32  16  18  1   
 33  16  19  ar  
 34  17  19  ar  
 35  17  36  1   
 36  18  20  1   
 37  18  21  1   
 38  19  37  1   
 39  20  22  1   
 40  20  38  1   
 41  20  39  1   
 42  21  40  1   
 43  21  41  1   
 44  21  42  1   
 45  22  43  1   
 46  22  44  1   
 47  22  45  1   
@<TRIPOS>SUBSTRUCTURE
  1 ****  15 GROUP 4 **** **** 0

# MOE 2024.06 (io_trps.svl 2023.06)
