@<TRIPOS>MOLECULE
NONAME
28 27 1 0 0 
SMALL
USER_CHARGES


@<TRIPOS>ATOM
  1 O      -10.2300    -1.3090     0.4800 O.2   1 <1>  -0.5700 
  2 C      -10.1940    -0.1840     0.0700 C.2   1 <1>   0.4480 
  3 C      -11.4690     0.5920    -0.3040 C.3   1 <1>   0.2510 
  4 C       -8.8790     0.5670    -0.1160 C.3   1 <1>  -0.0990 
  5 N      -11.6290     1.8370     0.4780 N.3   1 <1>  -0.9900 
  6 C      -12.7210    -0.3020    -0.1780 C.3   1 <1>   0.1200 
  7 C       -7.6280    -0.3020     0.0980 C.3   1 <1>  -0.1600 
  8 O      -13.8910     0.4360    -0.3540 O.3   1 <1>  -0.6800 
  9 C       -6.3410     0.5060    -0.1150 C.3   1 <1>  -0.1600 
 10 C       -5.1000    -0.3680     0.1020 C.3   1 <1>  -0.1600 
 11 C       -3.8160     0.4380    -0.1110 C.3   1 <1>  -0.2400 
 12 H      -11.3750     0.8630    -1.3410 H     1 <1>   0.0800 
 13 H       -8.8620     1.3890     0.5770 H     1 <1>   0.0800 
 14 H       -8.8590     0.9750    -1.1100 H     1 <1>   0.0800 
 15 H      -11.7940     1.5940     1.4620 H     1 <1>   0.3600 
 16 H      -12.4740     2.3080     0.1300 H     1 <1>   0.3600 
 17 H      -12.7590    -0.7750     0.7880 H     1 <1>   0.0800 
 18 H      -12.6950    -1.0720    -0.9310 H     1 <1>   0.0800 
 19 H       -7.6510    -1.1330    -0.5880 H     1 <1>   0.0800 
 20 H       -7.6410    -0.7010     1.0980 H     1 <1>   0.0800 
 21 H      -14.1010     0.9400     0.4550 H     1 <1>   0.4000 
 22 H       -6.3190     1.3330     0.5730 H     1 <1>   0.0800 
 23 H       -6.3270     0.9020    -1.1170 H     1 <1>   0.0800 
 24 H       -5.1170    -1.1970    -0.5850 H     1 <1>   0.0800 
 25 H       -5.1080    -0.7640     1.1030 H     1 <1>   0.0800 
 26 H       -3.7760     0.8250    -1.1140 H     1 <1>   0.0800 
 27 H       -2.9580    -0.1920     0.0470 H     1 <1>   0.0800 
 28 H       -3.7680     1.2600     0.5810 H     1 <1>   0.0800 
@<TRIPOS>BOND
  1   1   2  2   
  2   2   3  1   
  3   2   4  1   
  4   3   5  1   
  5   3   6  1   
  6   3  12  1   
  7   4   7  1   
  8   4  13  1   
  9   4  14  1   
 10   5  15  1   
 11   5  16  1   
 12   6   8  1   
 13   6  17  1   
 14   6  18  1   
 15   7   9  1   
 16   7  19  1   
 17   7  20  1   
 18   8  21  1   
 19   9  10  1   
 20   9  22  1   
 21   9  23  1   
 22  10  11  1   
 23  10  24  1   
 24  10  25  1   
 25  11  26  1   
 26  11  27  1   
 27  11  28  1   
@<TRIPOS>SUBSTRUCTURE
  1 ****   4 GROUP 4 **** **** 0

# MOE 2024.06 (io_trps.svl 2023.06)
