@<TRIPOS>MOLECULE
NONAME
42 43 1 0 0 
SMALL
USER_CHARGES


@<TRIPOS>ATOM
  1 S        1.2140     0.8920    -1.2280 S.o2  1 <1>   1.3330 
  2 O        0.8920     1.9880    -2.1130 O.2   1 <1>  -0.6500 
  3 O        0.7900    -0.4480    -1.5650 O.2   1 <1>  -0.6500 
  4 N        0.5770     1.2660     0.3010 N.am  1 <1>  -0.8490 
  5 C        2.9860     0.8570    -0.9600 C.3   1 <1>  -0.0550 
  6 C       -0.8480     0.9350     0.3900 C.3   1 <1>   0.1160 
  7 C        0.7900     2.6640     0.6940 C.3   1 <1>   0.1160 
  8 C        3.4260    -0.0790     0.1810 C.3   1 <1>  -0.0800 
  9 C        4.9000     0.0490     0.5010 C.3   1 <1>   0.2890 
 10 C        3.2720    -1.5710    -0.1190 C.3   1 <1>   0.1200 
 11 N        5.1330     1.1700     1.4380 N.pl3 1 <1>  -0.8690 
 12 C        5.2140    -1.3120     1.1010 C.3   1 <1>   0.1200 
 13 O        4.3840    -2.2140     0.4320 O.3   1 <1>  -0.5600 
 14 C        5.4100     2.4100     0.9640 C.ar  1 <1>   0.4100 
 15 N        4.5320     3.3340     1.3160 N.ar  1 <1>  -0.6200 
 16 C        6.5170     2.6650     0.1610 C.ar  1 <1>  -0.1500 
 17 C        4.7670     4.5510     0.8540 C.ar  1 <1>   0.1600 
 18 C        6.7380     3.9350    -0.3110 C.ar  1 <1>  -0.1500 
 19 C        5.8370     4.9350     0.0460 C.ar  1 <1>   0.0860 
 20 C        6.0020     6.2980    -0.4020 C.2   1 <1>   0.5440 
 21 O        6.5750     6.5570    -1.4370 O.2   1 <1>  -0.5700 
 22 N        5.5460     7.3580     0.3060 N.am  1 <1>  -0.8000 
 23 H        3.4740     0.5670    -1.8700 H     1 <1>   0.0800 
 24 H        3.3090     1.8530    -0.7290 H     1 <1>   0.0800 
 25 H       -1.2210     1.1550     1.3760 H     1 <1>   0.0800 
 26 H       -0.9940    -0.1150     0.2010 H     1 <1>   0.0800 
 27 H       -1.4100     1.4990    -0.3370 H     1 <1>   0.0800 
 28 H        0.4140     2.8290     1.6890 H     1 <1>   0.0800 
 29 H        0.2860     3.3300     0.0130 H     1 <1>   0.0800 
 30 H        1.8410     2.8960     0.6920 H     1 <1>   0.0800 
 31 H        2.8560     0.1320     1.0680 H     1 <1>   0.0800 
 32 H        5.4790     0.1730    -0.3990 H     1 <1>   0.0800 
 33 H        3.2710    -1.7720    -1.1770 H     1 <1>   0.0800 
 34 H        2.3770    -1.9780     0.3220 H     1 <1>   0.0800 
 35 H        4.4240     1.2120     2.1740 H     1 <1>   0.4000 
 36 H        4.9610    -1.3430     2.1460 H     1 <1>   0.0800 
 37 H        6.2400    -1.5970     0.9490 H     1 <1>   0.0800 
 38 H        7.1900     1.8630    -0.0750 H     1 <1>   0.1500 
 39 H        4.0530     5.3070     1.1280 H     1 <1>   0.1500 
 40 H        7.5820     4.1670    -0.9390 H     1 <1>   0.1500 
 41 H        5.7420     8.2910    -0.0630 H     1 <1>   0.3700 
 42 H        5.2640     7.3200     1.2850 H     1 <1>   0.3700 
@<TRIPOS>BOND
  1   1   2  2   
  2   1   3  2   
  3   1   4  am  
  4   1   5  1   
  5   4   6  1   
  6   4   7  1   
  7   5   8  1   
  8   5  23  1   
  9   5  24  1   
 10   6  25  1   
 11   6  26  1   
 12   6  27  1   
 13   7  28  1   
 14   7  29  1   
 15   7  30  1   
 16   8   9  1   
 17   8  10  1   
 18   8  31  1   
 19   9  11  1   
 20   9  12  1   
 21   9  32  1   
 22  10  13  1   
 23  10  33  1   
 24  10  34  1   
 25  11  14  1   
 26  11  35  1   
 27  12  13  1   
 28  12  36  1   
 29  12  37  1   
 30  14  15  ar  
 31  14  16  ar  
 32  15  17  ar  
 33  16  18  ar  
 34  16  38  1   
 35  17  19  ar  
 36  17  39  1   
 37  18  19  ar  
 38  18  40  1   
 39  19  20  1   
 40  20  21  2   
 41  20  22  am  
 42  22  41  1   
 43  22  42  1   
@<TRIPOS>SUBSTRUCTURE
  1 ****   5 GROUP 4 **** **** 0

# MOE 2024.06 (io_trps.svl 2023.06)
