@<TRIPOS>MOLECULE
NONAME
53 55 1 0 0 
SMALL
USER_CHARGES


@<TRIPOS>ATOM
  1 CL      -0.2160     0.5110     1.5610 Cl    1 <1>  -0.1770 
  2 C       -1.8330     0.7390     0.9500 C.ar  1 <1>   0.1770 
  3 C       -2.2500     2.0040     0.5820 C.ar  1 <1>  -0.1500 
  4 C       -2.6800    -0.3470     0.8410 C.ar  1 <1>  -0.1500 
  5 C       -3.5350     2.1780     0.0980 C.ar  1 <1>  -0.1500 
  6 C       -3.9620    -0.1600     0.3540 C.ar  1 <1>  -0.1500 
  7 C       -4.4200     1.1040    -0.0250 C.ar  1 <1>   0.0530 
  8 C       -5.7490     1.3110    -0.5430 C.2   1 <1>   0.0870 
  9 O       -5.9210     2.1390    -1.5440 O.3   1 <1>  -0.0190 
 10 C       -6.9750     0.8050    -0.2340 C.2   1 <1>  -0.0860 
 11 N       -7.1640     2.2200    -1.9350 N.2   1 <1>  -0.4100 
 12 C       -7.8150     1.4360    -1.1610 C.2   1 <1>   0.3720 
 13 C       -7.3810    -0.1370     0.7660 C.2   1 <1>   0.7160 
 14 N       -9.1910     1.3000    -1.3000 N.pl3 1 <1>  -0.8520 
 15 O       -6.6600    -0.4290     1.7000 O.2   1 <1>  -0.5700 
 16 N       -8.6000    -0.7330     0.6750 N.am  1 <1>  -0.7300 
 17 C       -9.9800     2.0890    -0.3120 C.3   1 <1>   0.2090 
 18 C       -9.1550    -1.7890     1.5540 C.3   1 <1>   0.1400 
 19 C      -11.3490     1.4450    -0.0950 C.3   1 <1>   0.1200 
 20 C       -9.7320    -2.9560     0.7250 C.3   1 <1>   0.0000 
 21 O      -12.0740     2.2340     0.7940 O.3   1 <1>  -0.5600 
 22 C       -8.6610    -3.6350    -0.1390 C.3   1 <1>  -0.1600 
 23 C      -10.1950    -4.0990     1.6380 C.3   1 <1>  -0.1600 
 24 C      -10.9090    -2.4800    -0.1520 C.3   1 <1>  -0.2400 
 25 C      -13.3420     1.7400     1.0840 C.3   1 <1>   0.0400 
 26 C       -9.1330    -5.0770    -0.3450 C.3   1 <1>  -0.1600 
 27 C      -10.1140    -5.3750     0.7940 C.3   1 <1>  -0.1600 
 28 H       -1.5750     2.8360     0.6740 H     1 <1>   0.1500 
 29 H       -2.3380    -1.3230     1.1340 H     1 <1>   0.1500 
 30 H       -3.8620     3.1630    -0.1900 H     1 <1>   0.1500 
 31 H       -4.6170    -1.0090     0.2660 H     1 <1>   0.1500 
 32 H       -9.4230     1.6490    -2.2380 H     1 <1>   0.4000 
 33 H       -9.1780    -0.4390    -0.1210 H     1 <1>   0.3700 
 34 H      -10.1090     3.0920    -0.6810 H     1 <1>   0.0800 
 35 H       -9.4590     2.1310     0.6300 H     1 <1>   0.0800 
 36 H       -9.9290    -1.3610     2.1680 H     1 <1>   0.0800 
 37 H       -8.3800    -2.1540     2.2070 H     1 <1>   0.0800 
 38 H      -11.2350     0.4650     0.3330 H     1 <1>   0.0800 
 39 H      -11.8890     1.3920    -1.0240 H     1 <1>   0.0800 
 40 H       -7.7280    -3.6530     0.3980 H     1 <1>   0.0800 
 41 H       -8.5040    -3.1250    -1.0740 H     1 <1>   0.0800 
 42 H      -11.1850    -3.9400     2.0300 H     1 <1>   0.0800 
 43 H       -9.5130    -4.1990     2.4650 H     1 <1>   0.0800 
 44 H      -10.5790    -1.7610    -0.8800 H     1 <1>   0.0800 
 45 H      -11.6710    -2.0280     0.4570 H     1 <1>   0.0800 
 46 H      -11.3520    -3.3030    -0.6840 H     1 <1>   0.0800 
 47 H      -13.8150     2.4170     1.7730 H     1 <1>   0.0800 
 48 H      -13.2510     0.7680     1.5380 H     1 <1>   0.0800 
 49 H      -13.9190     1.6840     0.1770 H     1 <1>   0.0800 
 50 H       -8.3000    -5.7570    -0.3350 H     1 <1>   0.0800 
 51 H       -9.6410    -5.1640    -1.2900 H     1 <1>   0.0800 
 52 H      -11.0830    -5.6080     0.3850 H     1 <1>   0.0800 
 53 H       -9.7820    -6.2080     1.3900 H     1 <1>   0.0800 
@<TRIPOS>BOND
  1   1   2  1   
  2   2   3  ar  
  3   2   4  ar  
  4   3   5  ar  
  5   3  28  1   
  6   4   6  ar  
  7   4  29  1   
  8   5   7  ar  
  9   5  30  1   
 10   6   7  ar  
 11   6  31  1   
 12   7   8  1   
 13   8   9  1   
 14   8  10  2   
 15   9  11  1   
 16  10  12  1   
 17  10  13  1   
 18  11  12  2   
 19  12  14  1   
 20  13  15  2   
 21  13  16  am  
 22  14  17  1   
 23  14  32  1   
 24  16  18  1   
 25  16  33  1   
 26  17  19  1   
 27  17  34  1   
 28  17  35  1   
 29  18  20  1   
 30  18  36  1   
 31  18  37  1   
 32  19  21  1   
 33  19  38  1   
 34  19  39  1   
 35  20  22  1   
 36  20  23  1   
 37  20  24  1   
 38  21  25  1   
 39  22  26  1   
 40  22  40  1   
 41  22  41  1   
 42  23  27  1   
 43  23  42  1   
 44  23  43  1   
 45  24  44  1   
 46  24  45  1   
 47  24  46  1   
 48  25  47  1   
 49  25  48  1   
 50  25  49  1   
 51  26  27  1   
 52  26  50  1   
 53  26  51  1   
 54  27  52  1   
 55  27  53  1   
@<TRIPOS>SUBSTRUCTURE
  1 ****  13 GROUP 4 **** **** 0

# MOE 2024.06 (io_trps.svl 2023.06)
