@<TRIPOS>MOLECULE
NONAME
46 48 1 0 0 
SMALL
USER_CHARGES


@<TRIPOS>ATOM
  1 F        0.4390     0.4150    -1.1390 F     1 <1>  -0.3400 
  2 C        1.5750    -0.2700    -1.0690 C.3   1 <1>   1.1640 
  3 F        2.2150    -0.0430    -2.2100 F     1 <1>  -0.3400 
  4 F        2.2990     0.3030    -0.1170 F     1 <1>  -0.3400 
  5 C        1.3620    -1.7640    -0.8080 C.ar  1 <1>  -0.1440 
  6 C        0.1970    -2.2680    -0.2650 C.ar  1 <1>  -0.1500 
  7 C        2.3430    -2.7000    -1.0930 C.ar  1 <1>  -0.1500 
  8 C        0.0430    -3.6340    -0.0380 C.ar  1 <1>   0.4100 
  9 C        2.1160    -4.0390    -0.8290 C.ar  1 <1>   0.1660 
 10 N        1.0000    -4.5130    -0.3110 N.ar  1 <1>  -0.6200 
 11 N       -1.1380    -4.1140     0.5070 N.pl3 1 <1>  -0.8380 
 12 C        3.1820    -5.0690    -1.1350 C.3   1 <1>  -0.0970 
 13 C       -2.4400    -3.6990    -0.0620 C.3   1 <1>   0.2090 
 14 C       -1.2500    -5.5260     0.9590 C.3   1 <1>   0.2090 
 15 C       -3.4710    -4.5320     0.6980 C.3   1 <1>  -0.0800 
 16 C       -2.7480    -5.8480     1.0370 C.3   1 <1>  -0.0800 
 17 C       -4.8580    -4.6850     0.0110 C.3   1 <1>   0.2800 
 18 C       -3.1580    -6.9930     0.0960 C.3   1 <1>  -0.1600 
 19 O       -4.6910    -4.7840    -1.3580 O.3   1 <1>  -0.6800 
 20 C       -5.5140    -6.0020     0.4660 C.3   1 <1>  -0.1600 
 21 C       -5.7730    -3.4570     0.2130 C.3   1 <1>  -0.1600 
 22 C       -4.6760    -7.2570     0.1340 C.3   1 <1>  -0.1600 
 23 C       -6.2800    -3.2130     1.6460 C.3   1 <1>  -0.2400 
 24 H       -0.6120    -1.6160     0.0030 H     1 <1>   0.1500 
 25 H        3.2820    -2.3900    -1.5170 H     1 <1>   0.1500 
 26 H        4.0580    -4.6120    -1.5550 H     1 <1>   0.0800 
 27 H        2.7950    -5.7880    -1.8330 H     1 <1>   0.0800 
 28 H        3.4550    -5.5800    -0.2290 H     1 <1>   0.0800 
 29 H       -2.6170    -2.6490     0.0790 H     1 <1>   0.0800 
 30 H       -2.4400    -3.9290    -1.1140 H     1 <1>   0.0800 
 31 H       -0.7590    -6.1850     0.2630 H     1 <1>   0.0800 
 32 H       -0.7840    -5.6270     1.9240 H     1 <1>   0.0800 
 33 H       -3.6150    -4.0360     1.6380 H     1 <1>   0.0800 
 34 H       -2.9860    -6.1420     2.0440 H     1 <1>   0.0800 
 35 H       -2.8750    -6.7240    -0.9090 H     1 <1>   0.0800 
 36 H       -2.6270    -7.8940     0.3490 H     1 <1>   0.0800 
 37 H       -5.5080    -5.1350    -1.7550 H     1 <1>   0.4000 
 38 H       -5.6270    -5.9620     1.5350 H     1 <1>   0.0800 
 39 H       -6.5010    -6.0960     0.0500 H     1 <1>   0.0800 
 40 H       -5.2420    -2.5790    -0.1110 H     1 <1>   0.0800 
 41 H       -6.6380    -3.5620    -0.4200 H     1 <1>   0.0800 
 42 H       -4.8890    -8.0160     0.8670 H     1 <1>   0.0800 
 43 H       -4.9740    -7.6450    -0.8250 H     1 <1>   0.0800 
 44 H       -5.4690    -3.0560     2.3330 H     1 <1>   0.0800 
 45 H       -6.8750    -4.0400     1.9920 H     1 <1>   0.0800 
 46 H       -6.8990    -2.3330     1.6620 H     1 <1>   0.0800 
@<TRIPOS>BOND
  1   1   2  1   
  2   2   3  1   
  3   2   4  1   
  4   2   5  1   
  5   5   6  ar  
  6   5   7  ar  
  7   6   8  ar  
  8   6  24  1   
  9   7   9  ar  
 10   7  25  1   
 11   8  10  ar  
 12   8  11  1   
 13   9  10  ar  
 14   9  12  1   
 15  11  13  1   
 16  11  14  1   
 17  12  26  1   
 18  12  27  1   
 19  12  28  1   
 20  13  15  1   
 21  13  29  1   
 22  13  30  1   
 23  14  16  1   
 24  14  31  1   
 25  14  32  1   
 26  15  16  1   
 27  15  17  1   
 28  15  33  1   
 29  16  18  1   
 30  16  34  1   
 31  17  19  1   
 32  17  20  1   
 33  17  21  1   
 34  18  22  1   
 35  18  35  1   
 36  18  36  1   
 37  19  37  1   
 38  20  22  1   
 39  20  38  1   
 40  20  39  1   
 41  21  23  1   
 42  21  40  1   
 43  21  41  1   
 44  22  42  1   
 45  22  43  1   
 46  23  44  1   
 47  23  45  1   
 48  23  46  1   
@<TRIPOS>SUBSTRUCTURE
  1 ****  11 GROUP 4 **** **** 0

# MOE 2024.06 (io_trps.svl 2023.06)
