@<TRIPOS>MOLECULE
NONAME
52 54 1 0 0 
SMALL
USER_CHARGES


@<TRIPOS>ATOM
  1 F       -0.4960     0.1020    -1.4820 F     1 <1>  -0.1900 
  2 C       -1.7550     0.3580    -1.2330 C.ar  1 <1>   0.1900 
  3 C       -2.1640     1.5490    -0.6210 C.ar  1 <1>   0.0830 
  4 C       -2.6650    -0.6120    -1.6080 C.ar  1 <1>  -0.1500 
  5 O       -1.3670     2.5770    -0.2080 O.3   1 <1>  -0.3630 
  6 C       -3.5200     1.7250    -0.4020 C.ar  1 <1>  -0.1500 
  7 C       -4.0120    -0.4030    -1.3740 C.ar  1 <1>  -0.1500 
  8 C        0.0390     2.5510    -0.3170 C.3   1 <1>   0.0400 
  9 C       -4.4670     0.7650    -0.7620 C.ar  1 <1>   0.0530 
 10 C       -5.8670     0.9970    -0.5150 C.2   1 <1>   0.0870 
 11 O       -6.3980     2.1370    -0.8760 O.3   1 <1>  -0.0190 
 12 C       -6.8570     0.2630     0.0640 C.2   1 <1>  -0.0860 
 13 N       -7.6700     2.2210    -0.5960 N.2   1 <1>  -0.4100 
 14 C       -7.9740     1.1060    -0.0310 C.2   1 <1>   0.3720 
 15 C       -6.8430    -1.0380     0.6610 C.2   1 <1>   0.7160 
 16 N       -9.2700     0.7960     0.4130 N.pl3 1 <1>  -0.8210 
 17 O       -5.9630    -1.8450     0.4280 O.2   1 <1>  -0.5700 
 18 N       -7.8570    -1.4230     1.4710 N.am  1 <1>  -0.7300 
 19 C      -10.0730    -0.0020    -0.5570 C.3   1 <1>   0.1290 
 20 C      -10.0450     1.9540     0.9440 C.3   1 <1>   0.1290 
 21 C       -8.2150    -2.8020     1.7980 C.3   1 <1>   0.4000 
 22 C       -9.3340    -3.2390     0.8520 C.2   1 <1>   0.0060 
 23 C       -8.6360    -2.8350     3.2660 C.3   1 <1>  -0.2400 
 24 N      -10.5970    -3.1350     1.0920 N.2   1 <1>  -0.5650 
 25 N       -9.1180    -3.7680    -0.3650 N.pl3 1 <1>   0.3140 
 26 C      -11.1310    -3.6350    -0.0260 C.2   1 <1>   0.3660 
 27 N      -10.2940    -4.0200    -0.9270 N.2   1 <1>  -0.7070 
 28 C       -7.8530    -4.0730    -1.0760 C.3   1 <1>   0.0960 
 29 C       -7.6230    -3.1140    -2.2530 C.3   1 <1>  -0.2400 
 30 H       -2.3210    -1.5160    -2.0770 H     1 <1>   0.1500 
 31 H       -3.8500     2.6360     0.0650 H     1 <1>   0.1500 
 32 H       -4.7210    -1.1550    -1.6710 H     1 <1>   0.1500 
 33 H        0.4220     3.4660     0.0970 H     1 <1>   0.0800 
 34 H        0.3080     2.4810    -1.3560 H     1 <1>   0.0800 
 35 H        0.4180     1.7120     0.2380 H     1 <1>   0.0800 
 36 H       -8.6550    -0.7700     1.4930 H     1 <1>   0.3700 
 37 H       -9.4740    -0.7900    -0.9800 H     1 <1>   0.0800 
 38 H      -10.4270     0.6290    -1.3540 H     1 <1>   0.0800 
 39 H      -10.9150    -0.4490    -0.0560 H     1 <1>   0.0800 
 40 H       -9.4320     2.5250     1.6190 H     1 <1>   0.0800 
 41 H      -10.9120     1.6030     1.4770 H     1 <1>   0.0800 
 42 H      -10.3580     2.5930     0.1360 H     1 <1>   0.0800 
 43 H       -7.3600    -3.4450     1.6800 H     1 <1>   0.0800 
 44 H       -9.4700    -2.1770     3.4340 H     1 <1>   0.0800 
 45 H       -7.8150    -2.5400     3.8930 H     1 <1>   0.0800 
 46 H       -8.9330    -3.8320     3.5330 H     1 <1>   0.0800 
 47 H      -12.2010    -3.7010    -0.1450 H     1 <1>   0.1500 
 48 H       -7.9170    -5.0810    -1.4430 H     1 <1>   0.0800 
 49 H       -7.0290    -4.0180    -0.3910 H     1 <1>   0.0800 
 50 H       -8.4240    -3.2050    -2.9670 H     1 <1>   0.0800 
 51 H       -6.6990    -3.3580    -2.7450 H     1 <1>   0.0800 
 52 H       -7.5680    -2.0970    -1.9110 H     1 <1>   0.0800 
@<TRIPOS>BOND
  1   1   2  1   
  2   2   3  ar  
  3   2   4  ar  
  4   3   5  1   
  5   3   6  ar  
  6   4   7  ar  
  7   4  30  1   
  8   5   8  1   
  9   6   9  ar  
 10   6  31  1   
 11   7   9  ar  
 12   7  32  1   
 13   8  33  1   
 14   8  34  1   
 15   8  35  1   
 16   9  10  1   
 17  10  11  1   
 18  10  12  2   
 19  11  13  1   
 20  12  14  1   
 21  12  15  1   
 22  13  14  2   
 23  14  16  1   
 24  15  17  2   
 25  15  18  am  
 26  16  19  1   
 27  16  20  1   
 28  18  21  1   
 29  18  36  1   
 30  19  37  1   
 31  19  38  1   
 32  19  39  1   
 33  20  40  1   
 34  20  41  1   
 35  20  42  1   
 36  21  22  1   
 37  21  23  1   
 38  21  43  1   
 39  22  24  2   
 40  22  25  1   
 41  23  44  1   
 42  23  45  1   
 43  23  46  1   
 44  24  26  1   
 45  25  27  1   
 46  25  28  1   
 47  26  27  2   
 48  26  47  1   
 49  28  29  1   
 50  28  48  1   
 51  28  49  1   
 52  29  50  1   
 53  29  51  1   
 54  29  52  1   
@<TRIPOS>SUBSTRUCTURE
  1 ****  12 GROUP 4 **** **** 0

# MOE 2024.06 (io_trps.svl 2023.06)
