@<TRIPOS>MOLECULE
NONAME
48 50 1 0 0 
SMALL
USER_CHARGES


@<TRIPOS>ATOM
  1 O        0.9330    -1.7240    -2.2110 O.3   1 <1>  -0.6800 
  2 C        0.2370    -1.9210    -1.0290 C.3   1 <1>   0.1200 
  3 C        1.1560    -1.8560     0.2270 C.3   1 <1>   0.0000 
  4 C        2.5030    -2.6300     0.0940 C.3   1 <1>   0.4230 
  5 C        1.4570    -0.3700     0.5690 C.3   1 <1>  -0.1600 
  6 C        0.3680    -2.4710     1.4210 C.3   1 <1>  -0.1600 
  7 N        2.3290    -4.1170    -0.2030 N.4   1 <1>  -0.9590 
  8 C        3.5770    -1.9120    -0.7720 C.3   1 <1>   0.2090 
  9 C        2.4790     0.2910    -0.3610 C.3   1 <1>   0.2090 
 10 C        0.6910    -3.9570     1.6830 C.3   1 <1>  -0.1600 
 11 C        1.1000    -4.7120     0.4160 C.3   1 <1>   0.3430 
 12 C        2.3570    -4.4540    -1.6650 C.3   1 <1>   0.2630 
 13 N        3.7470    -0.4960    -0.3250 N.pl3 1 <1>  -0.8380 
 14 C        4.9080     0.0370     0.1320 C.ar  1 <1>   0.4100 
 15 N        4.8290     0.8850     1.1390 N.ar  1 <1>  -0.6200 
 16 C        6.1440    -0.2980    -0.4540 C.ar  1 <1>  -0.1500 
 17 C        5.9500     1.4130     1.5810 C.ar  1 <1>   0.7710 
 18 C        7.2820     0.2620     0.0260 C.ar  1 <1>   0.2170 
 19 N        7.1570     1.1260     1.0610 N.ar  1 <1>  -0.1790 
 20 N        5.8420     2.2660     2.5950 N.pl3 1 <1>  -0.9000 
 21 C        8.6650    -0.0210    -0.5370 C.3   1 <1>  -0.0960 
 22 H        0.3230    -1.4560    -2.9320 H     1 <1>   0.4000 
 23 H       -0.5280    -1.1650    -0.9660 H     1 <1>   0.0800 
 24 H       -0.2530    -2.8750    -1.1070 H     1 <1>   0.0800 
 25 H        2.9180    -2.5850     1.0870 H     1 <1>   0.0800 
 26 H        1.8570    -0.2900     1.5650 H     1 <1>   0.0800 
 27 H        0.5490     0.2060     0.5510 H     1 <1>   0.0800 
 28 H        0.5790    -1.9390     2.3340 H     1 <1>   0.0800 
 29 H       -0.6910    -2.3590     1.2550 H     1 <1>   0.0800 
 30 H        3.1310    -4.5870     0.2370 H     1 <1>   0.4500 
 31 H        3.3070    -1.9100    -1.8110 H     1 <1>   0.0800 
 32 H        4.5070    -2.4370    -0.6630 H     1 <1>   0.0800 
 33 H        2.6520     1.3060    -0.0430 H     1 <1>   0.0800 
 34 H        2.1090     0.3320    -1.3710 H     1 <1>   0.0800 
 35 H       -0.1720    -4.4340     2.1150 H     1 <1>   0.0800 
 36 H        1.4860    -4.0380     2.4050 H     1 <1>   0.0800 
 37 H        0.2830    -4.6670    -0.2850 H     1 <1>   0.0800 
 38 H        1.2750    -5.7500     0.6500 H     1 <1>   0.0800 
 39 H        1.5340    -3.9830    -2.1760 H     1 <1>   0.0800 
 40 H        2.2800    -5.5200    -1.8040 H     1 <1>   0.0800 
 41 H        3.2760    -4.1190    -2.1160 H     1 <1>   0.0800 
 42 H        6.1550    -0.9780    -1.2840 H     1 <1>   0.1500 
 43 H        7.9590     1.5900     1.4720 H     1 <1>   0.4570 
 44 H        6.5750     2.7810     3.0830 H     1 <1>   0.4000 
 45 H        4.9000     2.4550     2.9530 H     1 <1>   0.4000 
 46 H        8.6050    -0.7210    -1.3530 H     1 <1>   0.0800 
 47 H        9.3020    -0.4440     0.2200 H     1 <1>   0.0800 
 48 H        9.1120     0.8840    -0.9080 H     1 <1>   0.0800 
@<TRIPOS>BOND
  1   1   2  1   
  2   1  22  1   
  3   2   3  1   
  4   2  23  1   
  5   2  24  1   
  6   3   4  1   
  7   3   5  1   
  8   3   6  1   
  9   4   7  1   
 10   4   8  1   
 11   4  25  1   
 12   5   9  1   
 13   5  26  1   
 14   5  27  1   
 15   6  10  1   
 16   6  28  1   
 17   6  29  1   
 18   7  11  1   
 19   7  12  1   
 20   7  30  1   
 21   8  13  1   
 22   8  31  1   
 23   8  32  1   
 24   9  13  1   
 25   9  33  1   
 26   9  34  1   
 27  10  11  1   
 28  10  35  1   
 29  10  36  1   
 30  11  37  1   
 31  11  38  1   
 32  12  39  1   
 33  12  40  1   
 34  12  41  1   
 35  13  14  1   
 36  14  15  ar  
 37  14  16  ar  
 38  15  17  ar  
 39  16  18  ar  
 40  16  42  1   
 41  17  19  ar  
 42  17  20  1   
 43  18  19  ar  
 44  18  21  1   
 45  19  43  1   
 46  20  44  1   
 47  20  45  1   
 48  21  46  1   
 49  21  47  1   
 50  21  48  1   
@<TRIPOS>SUBSTRUCTURE
  1 ****  13 GROUP 4 **** **** 0

# MOE 2024.06 (io_trps.svl 2023.06)
