@<TRIPOS>MOLECULE
NONAME
26 27 1 0 0 
SMALL
USER_CHARGES


@<TRIPOS>ATOM
  1 O       -0.0910    -1.1460     2.0580 O.2   1 <1>  -0.5700 
  2 C       -0.0930    -2.0640     1.2710 C.2   1 <1>   0.7150 
  3 N        1.0770    -2.7110     1.0370 N.am  1 <1>  -0.4900 
  4 C       -1.2530    -2.5010     0.5550 C.2   1 <1>  -0.2370 
  5 C        1.2320    -3.7670     0.1950 C.2   1 <1>   0.5690 
  6 N       -1.1980    -3.5970    -0.2650 N.pl3 1 <1>   0.0480 
  7 C       -2.5260    -1.9960     0.4980 C.2   1 <1>  -0.1500 
  8 O        2.3380    -4.1640    -0.0580 O.2   1 <1>  -0.5700 
  9 C        0.0050    -4.4560    -0.4260 C.3   1 <1>   0.2370 
 10 C       -2.4190    -3.7590    -0.8310 C.2   1 <1>  -0.3020 
 11 C       -3.2590    -2.7900    -0.3790 C.2   1 <1>  -0.1500 
 12 C       -0.2740    -5.8230     0.2140 C.3   1 <1>  -0.0990 
 13 C        0.8480    -6.7770    -0.0970 C.2   1 <1>   0.6590 
 14 O        1.0120    -7.1880    -1.2140 O.2   1 <1>  -0.5700 
 15 O        1.6290    -7.1120     0.9200 O.3   1 <1>  -0.4300 
 16 C        2.7630    -7.9330     0.7360 C.3   1 <1>   0.0400 
 17 H        1.9050    -2.3150     1.4720 H     1 <1>   0.3700 
 18 H       -2.9010    -1.1360     1.0290 H     1 <1>   0.1500 
 19 H        0.1840    -4.5820    -1.4790 H     1 <1>   0.0800 
 20 H       -2.6430    -4.5520    -1.5250 H     1 <1>   0.1500 
 21 H       -4.2950    -2.6420    -0.6360 H     1 <1>   0.1500 
 22 H       -1.1780    -6.2410    -0.1880 H     1 <1>   0.0800 
 23 H       -0.3790    -5.7250     1.2790 H     1 <1>   0.0800 
 24 H        3.2390    -8.0760     1.6890 H     1 <1>   0.0800 
 25 H        3.4380    -7.4420     0.0550 H     1 <1>   0.0800 
 26 H        2.4480    -8.8780     0.3300 H     1 <1>   0.0800 
@<TRIPOS>BOND
  1   1   2  2   
  2   2   3  am  
  3   2   4  1   
  4   3   5  am  
  5   3  17  1   
  6   4   6  1   
  7   4   7  2   
  8   5   8  2   
  9   5   9  1   
 10   6   9  1   
 11   6  10  1   
 12   7  11  1   
 13   7  18  1   
 14   9  12  1   
 15   9  19  1   
 16  10  11  2   
 17  10  20  1   
 18  11  21  1   
 19  12  13  1   
 20  12  22  1   
 21  12  23  1   
 22  13  14  2   
 23  13  15  1   
 24  15  16  1   
 25  16  24  1   
 26  16  25  1   
 27  16  26  1   
@<TRIPOS>SUBSTRUCTURE
  1 ****   9 GROUP 4 **** **** 0

# MOE 2024.06 (io_trps.svl 2023.06)
