@<TRIPOS>MOLECULE
NONAME
44 46 1 0 0 
SMALL
USER_CHARGES


@<TRIPOS>ATOM
  1 O       -0.0890    -1.1260     0.3780 O.2   1 <1>  -0.5700 
  2 C        1.0440    -1.5490     0.4850 C.2   1 <1>   0.6900 
  3 N        1.3140    -2.8720     0.7720 N.am  1 <1>  -0.4200 
  4 N        2.0860    -0.6830     0.3010 N.am  1 <1>  -0.5390 
  5 C        2.6250    -3.3160     0.8130 C.2   1 <1>   0.6160 
  6 C        0.1890    -3.8170     1.0190 C.3   1 <1>   0.1400 
  7 C        3.4060    -1.0730     0.3650 C.2   1 <1>  -0.0290 
  8 O        2.8730    -4.4930     1.0000 O.2   1 <1>  -0.5700 
  9 C        3.6750    -2.3720     0.6160 C.2   1 <1>  -0.1360 
 10 C       -0.2350    -4.4840    -0.2940 C.3   1 <1>   0.1100 
 11 C        4.4550    -0.0020     0.1430 C.3   1 <1>  -0.1020 
 12 N       -1.4220    -5.3360    -0.0940 N.3   1 <1>  -0.8100 
 13 C       -1.4720    -6.4070    -1.1110 C.3   1 <1>   0.2900 
 14 C       -2.6600    -4.5340    -0.0860 C.3   1 <1>   0.0300 
 15 C       -2.5990    -7.3940    -0.8580 C.2   1 <1>  -0.0400 
 16 O       -3.7750    -7.2050    -1.3910 O.3   1 <1>  -0.0190 
 17 C       -2.6540    -8.5300    -0.1520 C.2   1 <1>  -0.1500 
 18 N       -4.6130    -8.1470    -1.0810 N.2   1 <1>  -0.4100 
 19 C       -3.9690    -8.9860    -0.3180 C.2   1 <1>   0.2350 
 20 C       -4.5130   -10.2000     0.2690 C.ar  1 <1>   0.3640 
 21 N       -3.6990   -10.9790     0.9940 N.ar  1 <1>  -0.6200 
 22 C       -5.8550   -10.5350     0.0700 C.ar  1 <1>  -0.1500 
 23 C       -4.2220   -12.0750     1.5130 C.ar  1 <1>   0.1600 
 24 C       -6.3890   -11.6800     0.6160 C.ar  1 <1>  -0.1500 
 25 C       -5.5390   -12.4680     1.3590 C.ar  1 <1>  -0.1500 
 26 H        1.8080     0.2800     0.1060 H     1 <1>   0.3700 
 27 H       -0.6370    -3.2810     1.4490 H     1 <1>   0.0800 
 28 H        0.4960    -4.5740     1.7200 H     1 <1>   0.0800 
 29 H        4.6730    -2.7600     0.6790 H     1 <1>   0.1500 
 30 H        0.5910    -5.0870    -0.6320 H     1 <1>   0.0800 
 31 H       -0.4440    -3.7350    -1.0390 H     1 <1>   0.0800 
 32 H        4.3370     0.4330    -0.8330 H     1 <1>   0.0800 
 33 H        5.4430    -0.4200     0.2150 H     1 <1>   0.0800 
 34 H        4.3550     0.7700     0.8850 H     1 <1>   0.0800 
 35 H       -0.5450    -6.9540    -1.0790 H     1 <1>   0.0800 
 36 H       -1.5770    -5.9830    -2.0950 H     1 <1>   0.0800 
 37 H       -2.5880    -3.7320     0.6280 H     1 <1>   0.0800 
 38 H       -3.4980    -5.1470     0.1970 H     1 <1>   0.0800 
 39 H       -2.8460    -4.1140    -1.0600 H     1 <1>   0.0800 
 40 H       -1.8930    -9.0180     0.4280 H     1 <1>   0.1500 
 41 H       -6.4780    -9.8850    -0.5180 H     1 <1>   0.1500 
 42 H       -3.5650   -12.6980     2.0960 H     1 <1>   0.1500 
 43 H       -7.4220   -11.9470     0.4690 H     1 <1>   0.1500 
 44 H       -5.8900   -13.3770     1.8130 H     1 <1>   0.1500 
@<TRIPOS>BOND
  1   1   2  2   
  2   2   3  am  
  3   2   4  am  
  4   3   5  am  
  5   3   6  1   
  6   4   7  1   
  7   4  26  1   
  8   5   8  2   
  9   5   9  1   
 10   6  10  1   
 11   6  27  1   
 12   6  28  1   
 13   7   9  2   
 14   7  11  1   
 15   9  29  1   
 16  10  12  1   
 17  10  30  1   
 18  10  31  1   
 19  11  32  1   
 20  11  33  1   
 21  11  34  1   
 22  12  13  1   
 23  12  14  1   
 24  13  15  1   
 25  13  35  1   
 26  13  36  1   
 27  14  37  1   
 28  14  38  1   
 29  14  39  1   
 30  15  16  1   
 31  15  17  2   
 32  16  18  1   
 33  17  19  1   
 34  17  40  1   
 35  18  19  2   
 36  19  20  1   
 37  20  21  ar  
 38  20  22  ar  
 39  21  23  ar  
 40  22  24  ar  
 41  22  41  1   
 42  23  25  ar  
 43  23  42  1   
 44  24  25  ar  
 45  24  43  1   
 46  25  44  1   
@<TRIPOS>SUBSTRUCTURE
  1 ****  12 GROUP 4 **** **** 0

# MOE 2024.06 (io_trps.svl 2023.06)
