@<TRIPOS>MOLECULE
NONAME
54 56 1 0 0 
SMALL
USER_CHARGES


@<TRIPOS>ATOM
  1 O       -5.1060    -3.6260    -0.8100 O.co2 1 <1>  -0.9000 
  2 C       -5.1760    -3.2190     0.3520 C.2   1 <1>   0.9060 
  3 O       -5.9960    -3.7610     1.1050 O.co2 1 <1>  -0.9000 
  4 C       -4.5920    -1.8730     0.7360 C.3   1 <1>   0.0140 
  5 O       -5.6460    -1.0030     1.1560 O.3   1 <1>  -0.3630 
  6 C       -5.9110     0.1280     0.4690 C.ar  1 <1>   0.0830 
  7 C       -6.5990     0.1260    -0.7450 C.ar  1 <1>  -0.1440 
  8 C       -5.5260     1.3230     1.0540 C.ar  1 <1>  -0.1500 
  9 C       -6.8820     1.3420    -1.3530 C.ar  1 <1>  -0.1500 
 10 C       -7.0390    -1.1440    -1.4560 C.3   1 <1>   0.4870 
 11 C       -5.8130     2.5260     0.4380 C.ar  1 <1>  -0.1500 
 12 C       -6.4920     2.5340    -0.7670 C.ar  1 <1>  -0.1500 
 13 N       -7.7570    -2.0750    -0.5480 N.4   1 <1>  -0.9590 
 14 C       -8.0270    -3.3880    -1.1700 C.3   1 <1>   0.3430 
 15 C       -8.8930    -1.5700     0.2630 C.3   1 <1>   0.3430 
 16 C       -8.6670    -4.2340    -0.0560 C.3   1 <1>   0.4230 
 17 C      -10.1510    -2.5000     0.1870 C.3   1 <1>  -0.1600 
 18 N       -7.8680    -5.4770     0.2780 N.4   1 <1>  -0.9590 
 19 C      -10.2580    -4.1040    -0.0970 C.3   1 <1>   0.0000 
 20 C       -8.5970    -6.2860     1.2640 C.3   1 <1>   0.3430 
 21 C       -7.2270    -6.2550    -0.8290 C.3   1 <1>   0.2630 
 22 C      -10.4080    -5.6670    -0.4470 C.3   1 <1>  -0.1600 
 23 C      -11.8580    -3.9560    -0.0640 C.3   1 <1>   0.1200 
 24 C       -9.9520    -6.6380     0.6680 C.3   1 <1>  -0.1600 
 25 O      -12.3240    -4.4980     1.1290 O.3   1 <1>  -0.6800 
 26 H       -4.0750    -1.4390    -0.1000 H     1 <1>   0.0800 
 27 H       -3.9160    -2.0000     1.5590 H     1 <1>   0.0800 
 28 H       -5.0040     1.3060     1.9950 H     1 <1>   0.1500 
 29 H       -7.4050     1.3810    -2.2940 H     1 <1>   0.1500 
 30 H       -6.1610    -1.6380    -1.8450 H     1 <1>   0.0800 
 31 H       -7.6730    -0.8870    -2.2860 H     1 <1>   0.0800 
 32 H       -5.5090     3.4530     0.8940 H     1 <1>   0.1500 
 33 H       -6.7150     3.4720    -1.2470 H     1 <1>   0.1500 
 34 H       -7.0230    -2.2890     0.1660 H     1 <1>   0.4500 
 35 H       -8.7110    -3.2810    -1.9940 H     1 <1>   0.0800 
 36 H       -7.1150    -3.8350    -1.5190 H     1 <1>   0.0800 
 37 H       -8.5670    -1.5040     1.2900 H     1 <1>   0.0800 
 38 H       -9.1560    -0.5710    -0.0500 H     1 <1>   0.0800 
 39 H       -8.4410    -3.6850     0.8410 H     1 <1>   0.0800 
 40 H      -10.6700    -2.2760     1.1080 H     1 <1>   0.0800 
 41 H      -10.6760    -1.9970    -0.6100 H     1 <1>   0.0800 
 42 H       -7.0360    -5.0570     0.7800 H     1 <1>   0.4500 
 43 H       -8.0440    -7.1750     1.5230 H     1 <1>   0.0800 
 44 H       -8.7440    -5.7020     2.1590 H     1 <1>   0.0800 
 45 H       -7.9660    -6.6560    -1.5000 H     1 <1>   0.0800 
 46 H       -6.6560    -7.0700    -0.4170 H     1 <1>   0.0800 
 47 H       -6.5460    -5.6240    -1.3790 H     1 <1>   0.0800 
 48 H      -11.3740    -6.0620    -0.7180 H     1 <1>   0.0800 
 49 H       -9.8550    -5.8720    -1.3480 H     1 <1>   0.0800 
 50 H      -12.3640    -4.4280    -0.8900 H     1 <1>   0.0800 
 51 H      -12.2930    -2.9690    -0.0880 H     1 <1>   0.0800 
 52 H       -9.9080    -7.6370     0.2710 H     1 <1>   0.0800 
 53 H      -10.6770    -6.6490     1.4630 H     1 <1>   0.0800 
 54 H      -13.3030    -4.4680     1.1760 H     1 <1>   0.4000 
@<TRIPOS>BOND
  1   1   2  ar  
  2   2   3  ar  
  3   2   4  1   
  4   4   5  1   
  5   4  26  1   
  6   4  27  1   
  7   5   6  1   
  8   6   7  ar  
  9   6   8  ar  
 10   7   9  ar  
 11   7  10  1   
 12   8  11  ar  
 13   8  28  1   
 14   9  12  ar  
 15   9  29  1   
 16  10  13  1   
 17  10  30  1   
 18  10  31  1   
 19  11  12  ar  
 20  11  32  1   
 21  12  33  1   
 22  13  14  1   
 23  13  15  1   
 24  13  34  1   
 25  14  16  1   
 26  14  35  1   
 27  14  36  1   
 28  15  17  1   
 29  15  37  1   
 30  15  38  1   
 31  16  18  1   
 32  16  19  1   
 33  16  39  1   
 34  17  19  1   
 35  17  40  1   
 36  17  41  1   
 37  18  20  1   
 38  18  21  1   
 39  18  42  1   
 40  19  22  1   
 41  19  23  1   
 42  20  24  1   
 43  20  43  1   
 44  20  44  1   
 45  21  45  1   
 46  21  46  1   
 47  21  47  1   
 48  22  24  1   
 49  22  48  1   
 50  22  49  1   
 51  23  25  1   
 52  23  50  1   
 53  23  51  1   
 54  24  52  1   
 55  24  53  1   
 56  25  54  1   
@<TRIPOS>SUBSTRUCTURE
  1 ****  13 GROUP 4 **** **** 0

# MOE 2024.06 (io_trps.svl 2023.06)
