@<TRIPOS>MOLECULE
NONAME
49 51 1 0 0 
SMALL
USER_CHARGES


@<TRIPOS>ATOM
  1 CL       0.3980    -0.2120    -0.7610 Cl    1 <1>  -0.1770 
  2 C        1.5900     1.0340    -0.4360 C.ar  1 <1>   0.1770 
  3 C        2.8540     0.6980     0.0670 C.ar  1 <1>   0.1000 
  4 C        1.2220     2.3380    -0.6860 C.ar  1 <1>  -0.1500 
  5 N        3.2330    -0.6230     0.3230 N.pl3 1 <1>  -0.8380 
  6 C        3.7310     1.7550     0.2950 C.ar  1 <1>  -0.1500 
  7 C        2.0970     3.3970    -0.4440 C.ar  1 <1>   0.0860 
  8 C        3.3260    -1.5960    -0.7900 C.3   1 <1>   0.2090 
  9 C        4.1060    -1.0350     1.4510 C.3   1 <1>   0.2090 
 10 C        3.3640     3.0640     0.0460 C.ar  1 <1>  -0.1500 
 11 C        1.6940     4.7670    -0.6960 C.2   1 <1>   0.5440 
 12 C        4.5010    -2.4940    -0.4270 C.3   1 <1>  -0.1600 
 13 C        4.5560    -2.4470     1.0970 C.3   1 <1>  -0.1600 
 14 O        0.7920     5.0220    -1.4700 O.2   1 <1>  -0.5700 
 15 N        2.3130     5.8120    -0.0680 N.am  1 <1>  -0.7300 
 16 C        1.9730     7.2440    -0.2440 C.3   1 <1>   0.2200 
 17 C        3.1410     7.9550    -0.9490 C.3   1 <1>   0.1400 
 18 C        1.8950     7.8930     1.1420 C.3   1 <1>  -0.0990 
 19 N        3.9660     8.4510     0.1710 N.am  1 <1>  -0.6600 
 20 C        3.2930     8.4050     1.3430 C.2   1 <1>   0.5690 
 21 C        5.3700     8.9000    -0.0260 C.3   1 <1>   0.1400 
 22 O        3.7300     8.7210     2.4210 O.2   1 <1>  -0.5700 
 23 C        5.5170    10.3850     0.3040 C.3   1 <1>   0.1200 
 24 O        6.7940    10.7960    -0.0740 O.3   1 <1>  -0.5600 
 25 C        7.0780    12.1160     0.2580 C.3   1 <1>   0.0400 
 26 H        0.2390     2.5410    -1.0720 H     1 <1>   0.1500 
 27 H        4.7190     1.5500     0.6600 H     1 <1>   0.1500 
 28 H        3.4800    -1.0980    -1.7330 H     1 <1>   0.0800 
 29 H        2.4170    -2.1710    -0.8280 H     1 <1>   0.0800 
 30 H        3.5600    -1.0160     2.3780 H     1 <1>   0.0800 
 31 H        4.9620    -0.3890     1.5190 H     1 <1>   0.0800 
 32 H        4.0830     3.8420     0.2300 H     1 <1>   0.1500 
 33 H        5.4010    -2.0730    -0.8400 H     1 <1>   0.0800 
 34 H        4.3720    -3.4930    -0.8040 H     1 <1>   0.0800 
 35 H        3.8510    -3.1480     1.5090 H     1 <1>   0.0800 
 36 H        5.5360    -2.6640     1.4820 H     1 <1>   0.0800 
 37 H        3.0650     5.6280     0.5990 H     1 <1>   0.3700 
 38 H        1.0530     7.3490    -0.7950 H     1 <1>   0.0800 
 39 H        2.7840     8.7920    -1.5230 H     1 <1>   0.0800 
 40 H        3.6910     7.2810    -1.5830 H     1 <1>   0.0800 
 41 H        1.6040     7.2030     1.9120 H     1 <1>   0.0800 
 42 H        1.2240     8.7310     1.1280 H     1 <1>   0.0800 
 43 H        5.6610     8.7320    -1.0480 H     1 <1>   0.0800 
 44 H        6.0140     8.3310     0.6220 H     1 <1>   0.0800 
 45 H        5.3970    10.5430     1.3630 H     1 <1>   0.0800 
 46 H        4.7970    10.9650    -0.2460 H     1 <1>   0.0800 
 47 H        8.0760    12.3380    -0.0770 H     1 <1>   0.0800 
 48 H        7.0190    12.2340     1.3260 H     1 <1>   0.0800 
 49 H        6.3760    12.7660    -0.2350 H     1 <1>   0.0800 
@<TRIPOS>BOND
  1   1   2  1   
  2   2   3  ar  
  3   2   4  ar  
  4   3   5  1   
  5   3   6  ar  
  6   4   7  ar  
  7   4  26  1   
  8   5   8  1   
  9   5   9  1   
 10   6  10  ar  
 11   6  27  1   
 12   7  10  ar  
 13   7  11  1   
 14   8  12  1   
 15   8  28  1   
 16   8  29  1   
 17   9  13  1   
 18   9  30  1   
 19   9  31  1   
 20  10  32  1   
 21  11  14  2   
 22  11  15  am  
 23  12  13  1   
 24  12  33  1   
 25  12  34  1   
 26  13  35  1   
 27  13  36  1   
 28  15  16  1   
 29  15  37  1   
 30  16  17  1   
 31  16  18  1   
 32  16  38  1   
 33  17  19  1   
 34  17  39  1   
 35  17  40  1   
 36  18  20  1   
 37  18  41  1   
 38  18  42  1   
 39  19  20  am  
 40  19  21  1   
 41  20  22  2   
 42  21  23  1   
 43  21  43  1   
 44  21  44  1   
 45  23  24  1   
 46  23  45  1   
 47  23  46  1   
 48  24  25  1   
 49  25  47  1   
 50  25  48  1   
 51  25  49  1   
@<TRIPOS>SUBSTRUCTURE
  1 ****  10 GROUP 4 **** **** 0

# MOE 2024.06 (io_trps.svl 2023.06)
