@<TRIPOS>MOLECULE
NONAME
37 38 1 0 0 
SMALL
USER_CHARGES


@<TRIPOS>ATOM
  1 O        1.0010    -0.0280     1.1670 O.2   1 <1>  -0.5700 
  2 C        1.6760    -0.6770     0.3940 C.2   1 <1>   0.6340 
  3 O        2.8020    -0.1400    -0.0880 O.3   1 <1>  -0.4300 
  4 C        1.3120    -2.0140    -0.0410 C.ar  1 <1>   0.0860 
  5 C        3.2300     1.1550     0.2850 C.3   1 <1>   0.0400 
  6 C        0.2530    -2.6950     0.5620 C.ar  1 <1>  -0.1500 
  7 C        1.9870    -2.6730    -1.0710 C.ar  1 <1>  -0.1500 
  8 C       -0.1330    -3.9630     0.1590 C.ar  1 <1>  -0.1440 
  9 C        1.6170    -3.9420    -1.4790 C.ar  1 <1>  -0.1500 
 10 C        0.5580    -4.5870    -0.8660 C.ar  1 <1>  -0.1500 
 11 C       -1.3030    -4.6640     0.8340 C.3   1 <1>  -0.0170 
 12 C       -2.6010    -4.5340     0.0120 C.3   1 <1>  -0.0800 
 13 C       -3.0050    -3.0620    -0.2020 C.3   1 <1>  -0.1600 
 14 C       -3.7510    -5.2990     0.6910 C.3   1 <1>  -0.1600 
 15 C       -4.3390    -2.9340    -0.9370 C.3   1 <1>   0.3430 
 16 C       -5.0720    -5.1320    -0.0620 C.3   1 <1>   0.3430 
 17 N       -5.3890    -3.6850    -0.1960 N.4   1 <1>  -0.9060 
 18 H        4.1530     1.3690    -0.2230 H     1 <1>   0.0800 
 19 H        3.3780     1.1780     1.3510 H     1 <1>   0.0800 
 20 H        2.4750     1.8670    -0.0010 H     1 <1>   0.0800 
 21 H       -0.2740    -2.2080     1.3650 H     1 <1>   0.1500 
 22 H        2.8120    -2.1870    -1.5600 H     1 <1>   0.1500 
 23 H        2.1560    -4.4290    -2.2740 H     1 <1>   0.1500 
 24 H        0.2820    -5.5750    -1.1910 H     1 <1>   0.1500 
 25 H       -1.4470    -4.2530     1.8190 H     1 <1>   0.0800 
 26 H       -1.0550    -5.7040     0.9590 H     1 <1>   0.0800 
 27 H       -2.4210    -4.9790    -0.9540 H     1 <1>   0.0800 
 28 H       -2.2530    -2.5630    -0.7900 H     1 <1>   0.0800 
 29 H       -3.0630    -2.5490     0.7420 H     1 <1>   0.0800 
 30 H       -3.8750    -4.9610     1.7060 H     1 <1>   0.0800 
 31 H       -3.5080    -6.3480     0.7310 H     1 <1>   0.0800 
 32 H       -4.2380    -3.3330    -1.9340 H     1 <1>   0.0800 
 33 H       -4.6100    -1.8920    -1.0140 H     1 <1>   0.0800 
 34 H       -5.8610    -5.6370     0.4740 H     1 <1>   0.0800 
 35 H       -4.9870    -5.5800    -1.0400 H     1 <1>   0.0800 
 36 H       -6.2950    -3.5680    -0.6670 H     1 <1>   0.4500 
 37 H       -5.4810    -3.2770     0.7420 H     1 <1>   0.4500 
@<TRIPOS>BOND
  1   1   2  2   
  2   2   3  1   
  3   2   4  1   
  4   3   5  1   
  5   4   6  ar  
  6   4   7  ar  
  7   5  18  1   
  8   5  19  1   
  9   5  20  1   
 10   6   8  ar  
 11   6  21  1   
 12   7   9  ar  
 13   7  22  1   
 14   8  10  ar  
 15   8  11  1   
 16   9  10  ar  
 17   9  23  1   
 18  10  24  1   
 19  11  12  1   
 20  11  25  1   
 21  11  26  1   
 22  12  13  1   
 23  12  14  1   
 24  12  27  1   
 25  13  15  1   
 26  13  28  1   
 27  13  29  1   
 28  14  16  1   
 29  14  30  1   
 30  14  31  1   
 31  15  17  1   
 32  15  32  1   
 33  15  33  1   
 34  16  17  1   
 35  16  34  1   
 36  16  35  1   
 37  17  36  1   
 38  17  37  1   
@<TRIPOS>SUBSTRUCTURE
  1 ****   6 GROUP 4 **** **** 0

# MOE 2024.06 (io_trps.svl 2023.06)
