@<TRIPOS>MOLECULE
NONAME
52 54 1 0 0 
SMALL
USER_CHARGES


@<TRIPOS>ATOM
  1 O       -0.5880     0.8040     1.0560 O.2   1 <1>  -0.5700 
  2 C       -1.4890     1.1690     0.3400 C.2   1 <1>   0.5690 
  3 N       -2.4920     0.3120    -0.0150 N.am  1 <1>  -0.6600 
  4 C       -1.5170     2.6070    -0.1650 C.3   1 <1>  -0.0990 
  5 C       -3.7090     0.6280    -0.8060 C.3   1 <1>   0.1400 
  6 C       -2.5320    -1.0970     0.4490 C.3   1 <1>   0.1400 
  7 C       -0.2070     3.3860     0.0600 C.3   1 <1>  -0.1600 
  8 C       -4.7010    -0.4670    -0.4200 C.3   1 <1>   0.2000 
  9 C       -3.8100    -1.6880    -0.1610 C.3   1 <1>  -0.0800 
 10 C       -0.3010     4.8200    -0.4740 C.3   1 <1>  -0.0160 
 11 O       -5.3210    -0.0850     0.7600 O.3   1 <1>  -0.6800 
 12 C       -4.4580    -2.7940     0.6930 C.3   1 <1>   0.0200 
 13 C        1.0010     5.5670    -0.2380 C.ar  1 <1>  -0.1440 
 14 C       -3.6010    -4.0450     0.8020 C.2   1 <1>  -0.0400 
 15 C        1.2300     6.2090     0.9690 C.ar  1 <1>  -0.1500 
 16 C        1.9740     5.6110    -1.2250 C.ar  1 <1>  -0.1500 
 17 O       -3.9930    -5.0030     1.5990 O.3   1 <1>  -0.0190 
 18 C       -2.4510    -4.4370     0.2300 C.2   1 <1>  -0.1500 
 19 C        2.4130     6.8930     1.1900 C.ar  1 <1>  -0.1500 
 20 C        3.1580     6.2930    -1.0080 C.ar  1 <1>  -0.1500 
 21 N       -3.1690    -6.0100     1.5950 N.2   1 <1>  -0.4100 
 22 C       -2.2280    -5.6960     0.7790 C.2   1 <1>   0.1080 
 23 C        3.3870     6.9380     0.1960 C.ar  1 <1>   0.0820 
 24 C       -1.0440    -6.5830     0.4650 C.3   1 <1>  -0.0590 
 25 O        4.5730     7.5850     0.3290 O.3   1 <1>  -0.3620 
 26 C        4.9090     8.2570     1.5210 C.3   1 <1>   0.0400 
 27 H       -1.7310     2.5910    -1.2170 H     1 <1>   0.0800 
 28 H       -2.3190     3.1160     0.3370 H     1 <1>   0.0800 
 29 H       -4.0960     1.6080    -0.5870 H     1 <1>   0.0800 
 30 H       -3.4730     0.5560    -1.8540 H     1 <1>   0.0800 
 31 H       -1.6510    -1.6230     0.1260 H     1 <1>   0.0800 
 32 H       -2.5740    -1.1100     1.5260 H     1 <1>   0.0800 
 33 H        0.0170     3.4130     1.1130 H     1 <1>   0.0800 
 34 H        0.6030     2.8740    -0.4310 H     1 <1>   0.0800 
 35 H       -5.4580    -0.6370    -1.1660 H     1 <1>   0.0800 
 36 H       -3.5520    -2.1050    -1.1180 H     1 <1>   0.0800 
 37 H       -1.1030     5.3420     0.0180 H     1 <1>   0.0800 
 38 H       -0.5200     4.8040    -1.5280 H     1 <1>   0.0800 
 39 H       -4.6360     0.1880     1.4040 H     1 <1>   0.4000 
 40 H       -5.4040    -3.0690     0.2620 H     1 <1>   0.0800 
 41 H       -4.6490    -2.4280     1.6870 H     1 <1>   0.0800 
 42 H        0.4840     6.1770     1.7440 H     1 <1>   0.1500 
 43 H        1.8160     5.1140    -2.1660 H     1 <1>   0.1500 
 44 H       -1.8180    -3.9410    -0.4820 H     1 <1>   0.1500 
 45 H        2.5570     7.3780     2.1350 H     1 <1>   0.1500 
 46 H        3.9130     6.3290    -1.7710 H     1 <1>   0.1500 
 47 H       -0.1310    -6.0750     0.7170 H     1 <1>   0.0800 
 48 H       -1.0390    -6.8280    -0.5810 H     1 <1>   0.0800 
 49 H       -1.1050    -7.4920     1.0350 H     1 <1>   0.0800 
 50 H        5.8880     8.6840     1.3990 H     1 <1>   0.0800 
 51 H        4.9170     7.5490     2.3300 H     1 <1>   0.0800 
 52 H        4.1890     9.0370     1.6960 H     1 <1>   0.0800 
@<TRIPOS>BOND
  1   1   2  2   
  2   2   3  am  
  3   2   4  1   
  4   3   5  1   
  5   3   6  1   
  6   4   7  1   
  7   4  27  1   
  8   4  28  1   
  9   5   8  1   
 10   5  29  1   
 11   5  30  1   
 12   6   9  1   
 13   6  31  1   
 14   6  32  1   
 15   7  10  1   
 16   7  33  1   
 17   7  34  1   
 18   8   9  1   
 19   8  11  1   
 20   8  35  1   
 21   9  12  1   
 22   9  36  1   
 23  10  13  1   
 24  10  37  1   
 25  10  38  1   
 26  11  39  1   
 27  12  14  1   
 28  12  40  1   
 29  12  41  1   
 30  13  15  ar  
 31  13  16  ar  
 32  14  17  1   
 33  14  18  2   
 34  15  19  ar  
 35  15  42  1   
 36  16  20  ar  
 37  16  43  1   
 38  17  21  1   
 39  18  22  1   
 40  18  44  1   
 41  19  23  ar  
 42  19  45  1   
 43  20  23  ar  
 44  20  46  1   
 45  21  22  2   
 46  22  24  1   
 47  23  25  1   
 48  24  47  1   
 49  24  48  1   
 50  24  49  1   
 51  25  26  1   
 52  26  50  1   
 53  26  51  1   
 54  26  52  1   
@<TRIPOS>SUBSTRUCTURE
  1 ****   2 GROUP 4 **** **** 0

# MOE 2024.06 (io_trps.svl 2023.06)
