@<TRIPOS>MOLECULE
NONAME
58 61 1 0 0 
SMALL
USER_CHARGES


@<TRIPOS>ATOM
  1 O       -0.1580    -0.6270     0.5090 O.2   1 <1>  -0.5700 
  2 C       -0.7970    -0.2090     1.4570 C.2   1 <1>   0.7150 
  3 N       -1.7200    -1.0320     2.0300 N.am  1 <1>  -0.7300 
  4 C       -0.6070     1.1360     1.9550 C.2   1 <1>   0.0550 
  5 C       -1.9760    -2.4430     1.6530 C.3   1 <1>   0.2200 
  6 O        0.3540     1.9060     1.4560 O.3   1 <1>  -0.2800 
  7 C       -1.2650     1.8540     2.9090 C.2   1 <1>  -0.1500 
  8 C       -3.2780    -2.5780     0.8730 C.3   1 <1>  -0.0800 
  9 C       -2.3310    -3.2170     2.9130 C.3   1 <1>   0.1200 
 10 C        0.3310     3.0790     2.0450 C.2   1 <1>  -0.0400 
 11 C       -0.6590     3.1110     2.9640 C.2   1 <1>  -0.1500 
 12 C       -4.3390    -2.6500     1.9800 C.3   1 <1>   0.1200 
 13 C       -3.5430    -1.4980    -0.1920 C.3   1 <1>  -0.0160 
 14 O       -3.6530    -2.8630     3.1800 O.3   1 <1>  -0.5600 
 15 C        1.3420     4.1320     1.6230 C.3   1 <1>   0.5230 
 16 C       -4.8290    -1.7860    -0.9510 C.ar  1 <1>  -0.1440 
 17 N        1.2390     4.3540     0.1520 N.4   1 <1>  -0.9590 
 18 C       -6.0140    -1.1430    -0.6560 C.ar  1 <1>  -0.1500 
 19 C       -4.8750    -2.7100    -1.9750 C.ar  1 <1>  -0.1500 
 20 C        1.9910     3.3120    -0.6130 C.3   1 <1>   0.3430 
 21 C        1.6430     5.7330    -0.2360 C.3   1 <1>   0.3430 
 22 C       -7.1570    -1.4500    -1.3760 C.ar  1 <1>   0.1600 
 23 C       -6.0710    -2.9440    -2.6320 C.ar  1 <1>   0.1600 
 24 C        1.7310     3.4860    -2.1090 C.3   1 <1>  -0.1600 
 25 C        1.3740     5.9480    -1.7260 C.3   1 <1>  -0.1600 
 26 N       -7.2140    -2.3380    -2.3550 N.ar  1 <1>  -0.6200 
 27 C        2.0910     4.9000    -2.5890 C.3   1 <1>  -0.0800 
 28 C        1.7270     5.0760    -4.0670 C.3   1 <1>  -0.2400 
 29 H       -2.2880    -0.7120     2.8150 H     1 <1>   0.3700 
 30 H       -1.1310    -2.8650     1.1340 H     1 <1>   0.0800 
 31 H       -2.0960     1.5430     3.5180 H     1 <1>   0.1500 
 32 H       -3.2670    -3.5350     0.3810 H     1 <1>   0.0800 
 33 H       -1.7070    -2.9650     3.7530 H     1 <1>   0.0800 
 34 H       -2.2990    -4.2790     2.7360 H     1 <1>   0.0800 
 35 H       -0.9560     3.9100     3.6240 H     1 <1>   0.1500 
 36 H       -5.0250    -3.4640     1.8190 H     1 <1>   0.0800 
 37 H       -4.8850    -1.7280     2.0750 H     1 <1>   0.0800 
 38 H       -2.7190    -1.4720    -0.8860 H     1 <1>   0.0800 
 39 H       -3.6120    -0.5260     0.2640 H     1 <1>   0.0800 
 40 H        2.3370     3.8100     1.8840 H     1 <1>   0.0800 
 41 H        1.1280     5.0460     2.1520 H     1 <1>   0.0800 
 42 H        0.2470     4.2220    -0.0850 H     1 <1>   0.4500 
 43 H       -6.0620    -0.4050     0.1240 H     1 <1>   0.1500 
 44 H       -3.9930    -3.2500    -2.2680 H     1 <1>   0.1500 
 45 H        3.0480     3.4050    -0.4190 H     1 <1>   0.0800 
 46 H        1.6800     2.3230    -0.3160 H     1 <1>   0.0800 
 47 H        1.0850     6.4590     0.3350 H     1 <1>   0.0800 
 48 H        2.6930     5.8770    -0.0380 H     1 <1>   0.0800 
 49 H       -8.0720    -0.9390    -1.1330 H     1 <1>   0.1500 
 50 H       -6.0890    -3.6680    -3.4290 H     1 <1>   0.1500 
 51 H        2.3190     2.7630    -2.6480 H     1 <1>   0.0800 
 52 H        0.6960     3.2730    -2.3130 H     1 <1>   0.0800 
 53 H        0.3130     5.9130    -1.9030 H     1 <1>   0.0800 
 54 H        1.7140     6.9310    -2.0020 H     1 <1>   0.0800 
 55 H        3.1560     5.0370    -2.4870 H     1 <1>   0.0800 
 56 H        0.6710     4.9440    -4.2230 H     1 <1>   0.0800 
 57 H        2.2530     4.3560    -4.6710 H     1 <1>   0.0800 
 58 H        2.0020     6.0600    -4.4070 H     1 <1>   0.0800 
@<TRIPOS>BOND
  1   1   2  2   
  2   2   3  am  
  3   2   4  1   
  4   3   5  1   
  5   3  29  1   
  6   4   6  1   
  7   4   7  2   
  8   5   8  1   
  9   5   9  1   
 10   5  30  1   
 11   6  10  1   
 12   7  11  1   
 13   7  31  1   
 14   8  12  1   
 15   8  13  1   
 16   8  32  1   
 17   9  14  1   
 18   9  33  1   
 19   9  34  1   
 20  10  11  2   
 21  10  15  1   
 22  11  35  1   
 23  12  14  1   
 24  12  36  1   
 25  12  37  1   
 26  13  16  1   
 27  13  38  1   
 28  13  39  1   
 29  15  17  1   
 30  15  40  1   
 31  15  41  1   
 32  16  18  ar  
 33  16  19  ar  
 34  17  20  1   
 35  17  21  1   
 36  17  42  1   
 37  18  22  ar  
 38  18  43  1   
 39  19  23  ar  
 40  19  44  1   
 41  20  24  1   
 42  20  45  1   
 43  20  46  1   
 44  21  25  1   
 45  21  47  1   
 46  21  48  1   
 47  22  26  ar  
 48  22  49  1   
 49  23  26  ar  
 50  23  50  1   
 51  24  27  1   
 52  24  51  1   
 53  24  52  1   
 54  25  27  1   
 55  25  53  1   
 56  25  54  1   
 57  27  28  1   
 58  27  55  1   
 59  28  56  1   
 60  28  57  1   
 61  28  58  1   
@<TRIPOS>SUBSTRUCTURE
  1 ****   2 GROUP 4 **** **** 0

# MOE 2024.06 (io_trps.svl 2023.06)
