@<TRIPOS>MOLECULE
NONAME
51 53 1 0 0 
SMALL
USER_CHARGES


@<TRIPOS>ATOM
  1 O       -0.7170     0.2930    -1.7340 O.2   1 <1>  -0.5700 
  2 C       -1.3730     0.9620    -0.9560 C.2   1 <1>   0.5440 
  3 N       -2.4830     0.4090    -0.3540 N.am  1 <1>  -0.6600 
  4 C       -0.9770     2.3350    -0.7000 C.ar  1 <1>   0.0860 
  5 C       -2.8280    -1.0420    -0.4780 C.3   1 <1>   0.1400 
  6 C       -3.4350     1.1820     0.4950 C.3   1 <1>   0.1400 
  7 C       -0.3280     2.7370     0.4750 C.ar  1 <1>  -0.1440 
  8 C       -1.2560     3.3070    -1.6600 C.ar  1 <1>  -0.1500 
  9 C       -4.2560    -1.1930    -1.0230 C.3   1 <1>   0.2000 
 10 C       -4.8660     1.0170    -0.0350 C.3   1 <1>  -0.1600 
 11 C        0.0100     4.0690     0.6620 C.ar  1 <1>  -0.1500 
 12 C        0.0350     1.7320     1.5660 C.3   1 <1>  -0.0160 
 13 C       -0.9190     4.6330    -1.4680 C.ar  1 <1>  -0.1500 
 14 O       -4.5650    -2.5400    -1.1310 O.3   1 <1>  -0.6800 
 15 C       -5.3030    -0.4740    -0.1340 C.3   1 <1>  -0.1060 
 16 C       -0.2850     5.0160    -0.3020 C.ar  1 <1>  -0.1500 
 17 C        1.3520     1.0270     1.2340 C.3   1 <1>  -0.2400 
 18 C       -5.3400    -1.1560     1.2490 C.2   1 <1>   0.9060 
 19 C       -6.7000    -0.5880    -0.8050 C.3   1 <1>  -0.0160 
 20 O       -5.4230    -2.3940     1.2970 O.co2 1 <1>  -0.9000 
 21 O       -5.2780    -0.4880     2.2880 O.co2 1 <1>  -0.9000 
 22 C       -7.7480     0.4040    -0.3050 C.ar  1 <1>  -0.1440 
 23 C       -8.2000     1.4220    -1.1330 C.ar  1 <1>  -0.1500 
 24 C       -8.2630     0.3000     0.9770 C.ar  1 <1>  -0.1500 
 25 C       -9.1530     2.3210    -0.6860 C.ar  1 <1>  -0.1500 
 26 C       -9.2140     1.1980     1.4280 C.ar  1 <1>  -0.1500 
 27 C       -9.6610     2.2100     0.5960 C.ar  1 <1>  -0.1500 
 28 H       -2.1440    -1.5380    -1.1430 H     1 <1>   0.0800 
 29 H       -2.7580    -1.5020     0.4930 H     1 <1>   0.0800 
 30 H       -3.3720     0.8220     1.5080 H     1 <1>   0.0800 
 31 H       -3.1860     2.2270     0.5060 H     1 <1>   0.0800 
 32 H       -1.7460     3.0040    -2.5690 H     1 <1>   0.1500 
 33 H       -4.2730    -0.7900    -2.0200 H     1 <1>   0.0800 
 34 H       -5.5270     1.5410     0.6330 H     1 <1>   0.0800 
 35 H       -4.9360     1.4880    -0.9980 H     1 <1>   0.0800 
 36 H        0.5100     4.3770     1.5640 H     1 <1>   0.1500 
 37 H        0.1320     2.2370     2.5100 H     1 <1>   0.0800 
 38 H       -0.7450     0.9990     1.6820 H     1 <1>   0.0800 
 39 H       -1.1460     5.3640    -2.2240 H     1 <1>   0.1500 
 40 H       -4.8930    -2.8120    -0.2190 H     1 <1>   0.4000 
 41 H       -0.0180     6.0470    -0.1450 H     1 <1>   0.1500 
 42 H        2.1440     1.7470     1.1320 H     1 <1>   0.0800 
 43 H        1.2600     0.4840     0.3090 H     1 <1>   0.0800 
 44 H        1.6070     0.3340     2.0150 H     1 <1>   0.0800 
 45 H       -6.5870    -0.4560    -1.8660 H     1 <1>   0.0800 
 46 H       -7.0790    -1.5860    -0.6620 H     1 <1>   0.0800 
 47 H       -7.8090     1.5170    -2.1300 H     1 <1>   0.1500 
 48 H       -7.9170    -0.4810     1.6360 H     1 <1>   0.1500 
 49 H       -9.4980     3.1060    -1.3350 H     1 <1>   0.1500 
 50 H       -9.5980     1.1060     2.4280 H     1 <1>   0.1500 
 51 H      -10.3990     2.9080     0.9480 H     1 <1>   0.1500 
@<TRIPOS>BOND
  1   1   2  2   
  2   2   3  am  
  3   2   4  1   
  4   3   5  1   
  5   3   6  1   
  6   4   7  ar  
  7   4   8  ar  
  8   5   9  1   
  9   5  28  1   
 10   5  29  1   
 11   6  10  1   
 12   6  30  1   
 13   6  31  1   
 14   7  11  ar  
 15   7  12  1   
 16   8  13  ar  
 17   8  32  1   
 18   9  14  1   
 19   9  15  1   
 20   9  33  1   
 21  10  15  1   
 22  10  34  1   
 23  10  35  1   
 24  11  16  ar  
 25  11  36  1   
 26  12  17  1   
 27  12  37  1   
 28  12  38  1   
 29  13  16  ar  
 30  13  39  1   
 31  14  40  1   
 32  15  18  1   
 33  15  19  1   
 34  16  41  1   
 35  17  42  1   
 36  17  43  1   
 37  17  44  1   
 38  18  20  ar  
 39  18  21  ar  
 40  19  22  1   
 41  19  45  1   
 42  19  46  1   
 43  22  23  ar  
 44  22  24  ar  
 45  23  25  ar  
 46  23  47  1   
 47  24  26  ar  
 48  24  48  1   
 49  25  27  ar  
 50  25  49  1   
 51  26  27  ar  
 52  26  50  1   
 53  27  51  1   
@<TRIPOS>SUBSTRUCTURE
  1 ****   6 GROUP 4 **** **** 0

# MOE 2024.06 (io_trps.svl 2023.06)
