@<TRIPOS>MOLECULE
NONAME
44 46 1 0 0 
SMALL
USER_CHARGES


@<TRIPOS>ATOM
  1 O        1.4820     1.6470    -1.3710 O.3   1 <1>  -0.0190 
  2 N        2.3290     0.6620    -1.4010 N.2   1 <1>  -0.4100 
  3 C        0.8740     1.7320    -0.2180 C.2   1 <1>  -0.0400 
  4 C        2.2430     0.0810    -0.2580 C.2   1 <1>   0.1080 
  5 C        1.3210     0.7320     0.5570 C.2   1 <1>  -0.1500 
  6 C       -0.1180     2.8520     0.0440 C.3   1 <1>   0.0200 
  7 C        3.0380    -1.1440     0.1380 C.3   1 <1>  -0.0590 
  8 C        0.4370     4.2050    -0.4470 C.3   1 <1>  -0.0800 
  9 C       -0.3140     5.4550     0.0150 C.3   1 <1>   0.2000 
 10 C        1.8900     4.4700    -0.0450 C.3   1 <1>   0.2090 
 11 O       -0.5530     5.3740     1.3800 O.3   1 <1>  -0.6800 
 12 C        0.6910     6.5820    -0.2380 C.3   1 <1>   0.2090 
 13 N        2.0440     5.9530    -0.0750 N.pl3 1 <1>  -0.8380 
 14 C        3.1850     6.6820    -0.1030 C.ar  1 <1>   0.7710 
 15 N        3.0980     8.0020    -0.1760 N.ar  1 <1>  -0.6200 
 16 N        4.3690     6.0430    -0.0590 N.ar  1 <1>  -0.1790 
 17 C        4.2150     8.6920    -0.2010 C.ar  1 <1>   0.4100 
 18 C        5.5410     6.7240    -0.0910 C.ar  1 <1>   0.2110 
 19 N        4.0560    10.0210    -0.2680 N.pl3 1 <1>  -0.8690 
 20 C        5.4790     8.0740    -0.1650 C.ar  1 <1>  -0.1500 
 21 C        5.0530    11.1090    -0.2290 C.3   1 <1>   0.2090 
 22 C        4.4310    12.2880     0.5050 C.3   1 <1>  -0.2400 
 23 H        1.0580     0.4670     1.5650 H     1 <1>   0.1500 
 24 H       -1.0390     2.6380    -0.4680 H     1 <1>   0.0800 
 25 H       -0.3270     2.8770     1.0990 H     1 <1>   0.0800 
 26 H        2.3690    -1.9460     0.3910 H     1 <1>   0.0800 
 27 H        3.6600    -0.9210     0.9850 H     1 <1>   0.0800 
 28 H        3.6610    -1.4590    -0.6800 H     1 <1>   0.0800 
 29 H        0.4110     4.1920    -1.5240 H     1 <1>   0.0800 
 30 H       -1.2540     5.6020    -0.4900 H     1 <1>   0.0800 
 31 H        2.5630     3.9840    -0.7320 H     1 <1>   0.0800 
 32 H        2.0640     4.1100     0.9560 H     1 <1>   0.0800 
 33 H        0.2670     5.5650     1.8760 H     1 <1>   0.4000 
 34 H        0.5410     7.4060     0.4400 H     1 <1>   0.0800 
 35 H        0.5890     6.9370    -1.2500 H     1 <1>   0.0800 
 36 H        4.3230     5.0310    -0.0120 H     1 <1>   0.4570 
 37 H        6.4720     6.1790    -0.0610 H     1 <1>   0.1500 
 38 H        3.0880    10.3520    -0.3270 H     1 <1>   0.4000 
 39 H        6.3640     8.6800    -0.1990 H     1 <1>   0.1500 
 40 H        5.9420    10.7920     0.2880 H     1 <1>   0.0800 
 41 H        5.3130    11.3970    -1.2340 H     1 <1>   0.0800 
 42 H        4.1620    12.0050     1.5070 H     1 <1>   0.0800 
 43 H        3.5590    12.6390    -0.0160 H     1 <1>   0.0800 
 44 H        5.1400    13.0950     0.5590 H     1 <1>   0.0800 
@<TRIPOS>BOND
  1   1   2  1   
  2   1   3  1   
  3   2   4  2   
  4   3   5  2   
  5   3   6  1   
  6   4   5  1   
  7   4   7  1   
  8   5  23  1   
  9   6   8  1   
 10   6  24  1   
 11   6  25  1   
 12   7  26  1   
 13   7  27  1   
 14   7  28  1   
 15   8   9  1   
 16   8  10  1   
 17   8  29  1   
 18   9  11  1   
 19   9  12  1   
 20   9  30  1   
 21  10  13  1   
 22  10  31  1   
 23  10  32  1   
 24  11  33  1   
 25  12  13  1   
 26  12  34  1   
 27  12  35  1   
 28  13  14  1   
 29  14  15  ar  
 30  14  16  ar  
 31  15  17  ar  
 32  16  18  ar  
 33  16  36  1   
 34  17  19  1   
 35  17  20  ar  
 36  18  20  ar  
 37  18  37  1   
 38  19  21  1   
 39  19  38  1   
 40  20  39  1   
 41  21  22  1   
 42  21  40  1   
 43  21  41  1   
 44  22  42  1   
 45  22  43  1   
 46  22  44  1   
@<TRIPOS>SUBSTRUCTURE
  1 ****  13 GROUP 4 **** **** 0

# MOE 2024.06 (io_trps.svl 2023.06)
