@<TRIPOS>MOLECULE
NONAME
45 47 1 0 0 
SMALL
USER_CHARGES


@<TRIPOS>ATOM
  1 O       -1.9250     0.4640    -1.9780 O.2   1 <1>  -0.5700 
  2 C       -1.6790     0.5260    -0.7850 C.2   1 <1>   0.7160 
  3 N       -1.7690    -0.6180    -0.0470 N.am  1 <1>  -0.7300 
  4 C       -1.3180     1.7730    -0.1290 C.2   1 <1>   0.2030 
  5 C       -2.1310    -1.9650    -0.5400 C.3   1 <1>   0.2200 
  6 N       -1.0830     1.9210     1.1650 N.2   1 <1>  -0.7070 
  7 C       -1.1730     3.0010    -0.7880 C.2   1 <1>  -0.1500 
  8 C       -3.5510    -2.3380    -0.1390 C.3   1 <1>  -0.0800 
  9 C       -1.3360    -3.0110     0.2290 C.3   1 <1>   0.1200 
 10 N       -0.7910     3.2200     1.3240 N.pl3 1 <1>   0.3000 
 11 C       -0.8390     3.8980     0.1600 C.2   1 <1>  -0.3320 
 12 C       -3.3740    -2.8730     1.2840 C.3   1 <1>   0.1200 
 13 C       -4.6040    -1.2210    -0.2680 C.3   1 <1>  -0.0160 
 14 O       -2.0210    -3.1980     1.4310 O.3   1 <1>  -0.5600 
 15 C       -0.5570     5.3830     0.0240 C.3   1 <1>   0.0200 
 16 C       -5.9890    -1.7400     0.0850 C.ar  1 <1>  -0.1430 
 17 C       -1.6390     6.2080     0.7300 C.3   1 <1>  -0.1600 
 18 C       -6.5540    -1.5340     1.3280 C.ar  1 <1>  -0.1500 
 19 C       -6.7530    -2.4470    -0.8210 C.ar  1 <1>  -0.1500 
 20 C       -1.3890     7.7120     0.5770 C.3   1 <1>  -0.2400 
 21 C       -7.8160    -2.0360     1.5980 C.ar  1 <1>   0.1600 
 22 C       -8.0060    -2.9060    -0.4500 C.ar  1 <1>   0.1600 
 23 N       -8.5560    -2.7200     0.7390 N.ar  1 <1>  -0.6200 
 24 H       -1.5740    -0.5350     0.9560 H     1 <1>   0.3700 
 25 H       -1.9690    -2.0340    -1.6030 H     1 <1>   0.0800 
 26 H       -1.3110     3.1490    -1.8450 H     1 <1>   0.1500 
 27 H       -3.8590    -3.1630    -0.7560 H     1 <1>   0.0800 
 28 H       -0.3250    -2.7030     0.4310 H     1 <1>   0.0800 
 29 H       -1.3350    -3.9500    -0.2960 H     1 <1>   0.0800 
 30 H       -0.5610     3.6250     2.2400 H     1 <1>   0.2700 
 31 H       -3.9690    -3.7530     1.4600 H     1 <1>   0.0800 
 32 H       -3.6070    -2.1230     2.0200 H     1 <1>   0.0800 
 33 H       -4.6090    -0.8490    -1.2780 H     1 <1>   0.0800 
 34 H       -4.3600    -0.3960     0.3780 H     1 <1>   0.0800 
 35 H        0.4110     5.6070     0.4390 H     1 <1>   0.0800 
 36 H       -0.5360     5.6430    -1.0210 H     1 <1>   0.0800 
 37 H       -2.5990     5.9630     0.3090 H     1 <1>   0.0800 
 38 H       -1.6620     5.9590     1.7760 H     1 <1>   0.0800 
 39 H       -6.0260    -0.9880     2.0880 H     1 <1>   0.1500 
 40 H       -6.3860    -2.6450    -1.8110 H     1 <1>   0.1500 
 41 H       -1.3900     7.9900    -0.4630 H     1 <1>   0.0800 
 42 H       -0.4410     7.9850     1.0080 H     1 <1>   0.0800 
 43 H       -2.1640     8.2660     1.0770 H     1 <1>   0.0800 
 44 H       -8.2400    -1.8660     2.5730 H     1 <1>   0.1500 
 45 H       -8.5880    -3.4560    -1.1700 H     1 <1>   0.1500 
@<TRIPOS>BOND
  1   1   2  2   
  2   2   3  am  
  3   2   4  1   
  4   3   5  1   
  5   3  24  1   
  6   4   6  2   
  7   4   7  1   
  8   5   8  1   
  9   5   9  1   
 10   5  25  1   
 11   6  10  1   
 12   7  11  2   
 13   7  26  1   
 14   8  12  1   
 15   8  13  1   
 16   8  27  1   
 17   9  14  1   
 18   9  28  1   
 19   9  29  1   
 20  10  11  1   
 21  10  30  1   
 22  11  15  1   
 23  12  14  1   
 24  12  31  1   
 25  12  32  1   
 26  13  16  1   
 27  13  33  1   
 28  13  34  1   
 29  15  17  1   
 30  15  35  1   
 31  15  36  1   
 32  16  18  ar  
 33  16  19  ar  
 34  17  20  1   
 35  17  37  1   
 36  17  38  1   
 37  18  21  ar  
 38  18  39  1   
 39  19  22  ar  
 40  19  40  1   
 41  20  41  1   
 42  20  42  1   
 43  20  43  1   
 44  21  23  ar  
 45  21  44  1   
 46  22  23  ar  
 47  22  45  1   
@<TRIPOS>SUBSTRUCTURE
  1 ****   3 GROUP 4 **** **** 0

# MOE 2024.06 (io_trps.svl 2023.06)
