@<TRIPOS>MOLECULE
NONAME
49 50 1 0 0 
SMALL
USER_CHARGES


@<TRIPOS>ATOM
  1 CL       0.0470     0.9820     0.9550 Cl    1 <1>  -0.1770 
  2 C       -1.6570     1.2490     0.7010 C.ar  1 <1>   0.1770 
  3 C       -2.0730     2.0240    -0.3650 C.ar  1 <1>  -0.1500 
  4 C       -2.5730     0.6860     1.5690 C.ar  1 <1>  -0.1500 
  5 C       -3.4270     2.2340    -0.5610 C.ar  1 <1>  -0.1500 
  6 C       -3.9240     0.9040     1.3630 C.ar  1 <1>  -0.1500 
  7 C       -4.3810     1.6770     0.2940 C.ar  1 <1>   0.0530 
  8 C       -5.7840     1.9230     0.0730 C.2   1 <1>   0.0870 
  9 O       -6.1760     3.1440    -0.1900 O.3   1 <1>  -0.0190 
 10 C       -6.8960     1.1350     0.0580 C.2   1 <1>  -0.0860 
 11 N       -7.4650     3.2420    -0.3660 N.2   1 <1>  -0.4100 
 12 C       -7.9200     2.0550    -0.2090 C.2   1 <1>   0.3720 
 13 C       -7.0440    -0.2830     0.2130 C.2   1 <1>   0.7160 
 14 N       -9.2850     1.8200    -0.3110 N.pl3 1 <1>  -0.8520 
 15 O       -6.1100    -0.9770     0.5640 O.2   1 <1>  -0.5700 
 16 N       -8.2500    -0.8620    -0.0430 N.am  1 <1>  -0.7300 
 17 C       -9.9760     1.7060     1.0040 C.3   1 <1>   0.2090 
 18 C       -8.6860    -2.2600     0.0090 C.3   1 <1>   0.3000 
 19 C      -11.4480     1.3500     0.7960 C.3   1 <1>   0.1200 
 20 C      -10.1910    -2.2930    -0.3340 C.3   1 <1>  -0.1600 
 21 C       -8.4930    -2.7980     1.4290 C.3   1 <1>  -0.2400 
 22 C       -7.8710    -3.0820    -0.9930 C.3   1 <1>  -0.2400 
 23 O      -12.0290     1.1260     2.0410 O.3   1 <1>  -0.5600 
 24 C      -10.5880    -1.6900    -1.6950 C.3   1 <1>  -0.2400 
 25 C      -13.3740     0.7770     1.9830 C.3   1 <1>   0.0400 
 26 H       -1.3440     2.4540    -1.0280 H     1 <1>   0.1500 
 27 H       -2.2300     0.0850     2.3920 H     1 <1>   0.1500 
 28 H       -3.7550     2.8370    -1.3900 H     1 <1>   0.1500 
 29 H       -4.6360     0.4680     2.0410 H     1 <1>   0.1500 
 30 H       -9.6760     2.6320    -0.8040 H     1 <1>   0.4000 
 31 H       -8.9720    -0.2120    -0.3730 H     1 <1>   0.3700 
 32 H       -9.9040     2.6420     1.5320 H     1 <1>   0.0800 
 33 H       -9.5080     0.9380     1.5950 H     1 <1>   0.0800 
 34 H      -11.5350     0.4510     0.2120 H     1 <1>   0.0800 
 35 H      -11.9660     2.1610     0.3140 H     1 <1>   0.0800 
 36 H      -10.7310    -1.7790     0.4420 H     1 <1>   0.0800 
 37 H      -10.5220    -3.3160    -0.3120 H     1 <1>   0.0800 
 38 H       -9.0100    -2.1800     2.1410 H     1 <1>   0.0800 
 39 H       -7.4510    -2.8310     1.6890 H     1 <1>   0.0800 
 40 H       -8.8800    -3.7980     1.5010 H     1 <1>   0.0800 
 41 H       -7.9080    -2.6420    -1.9720 H     1 <1>   0.0800 
 42 H       -8.2560    -4.0840    -1.0510 H     1 <1>   0.0800 
 43 H       -6.8430    -3.1410    -0.6850 H     1 <1>   0.0800 
 44 H      -10.2920    -0.6590    -1.7720 H     1 <1>   0.0800 
 45 H      -11.6550    -1.7430    -1.8170 H     1 <1>   0.0800 
 46 H      -10.1360    -2.2380    -2.5030 H     1 <1>   0.0800 
 47 H      -13.7250     0.6280     2.9890 H     1 <1>   0.0800 
 48 H      -13.4820    -0.1370     1.4230 H     1 <1>   0.0800 
 49 H      -13.9300     1.5740     1.5200 H     1 <1>   0.0800 
@<TRIPOS>BOND
  1   1   2  1   
  2   2   3  ar  
  3   2   4  ar  
  4   3   5  ar  
  5   3  26  1   
  6   4   6  ar  
  7   4  27  1   
  8   5   7  ar  
  9   5  28  1   
 10   6   7  ar  
 11   6  29  1   
 12   7   8  1   
 13   8   9  1   
 14   8  10  2   
 15   9  11  1   
 16  10  12  1   
 17  10  13  1   
 18  11  12  2   
 19  12  14  1   
 20  13  15  2   
 21  13  16  am  
 22  14  17  1   
 23  14  30  1   
 24  16  18  1   
 25  16  31  1   
 26  17  19  1   
 27  17  32  1   
 28  17  33  1   
 29  18  20  1   
 30  18  21  1   
 31  18  22  1   
 32  19  23  1   
 33  19  34  1   
 34  19  35  1   
 35  20  24  1   
 36  20  36  1   
 37  20  37  1   
 38  21  38  1   
 39  21  39  1   
 40  21  40  1   
 41  22  41  1   
 42  22  42  1   
 43  22  43  1   
 44  23  25  1   
 45  24  44  1   
 46  24  45  1   
 47  24  46  1   
 48  25  47  1   
 49  25  48  1   
 50  25  49  1   
@<TRIPOS>SUBSTRUCTURE
  1 ****  10 GROUP 4 **** **** 0

# MOE 2024.06 (io_trps.svl 2023.06)
