@<TRIPOS>MOLECULE
NONAME
46 47 1 0 0 
SMALL
USER_CHARGES


@<TRIPOS>ATOM
  1 CL       0.1790     0.4430    -0.5080 Cl    1 <1>  -0.1770 
  2 C       -1.4950     0.8100    -0.1830 C.ar  1 <1>   0.1770 
  3 C       -1.8500     1.3400     1.0420 C.ar  1 <1>  -0.1500 
  4 C       -2.4470     0.5690    -1.1550 C.ar  1 <1>  -0.1500 
  5 C       -3.1790     1.6290     1.2940 C.ar  1 <1>  -0.1500 
  6 C       -3.7720     0.8640    -0.8920 C.ar  1 <1>  -0.1500 
  7 C       -4.1690     1.3950     0.3370 C.ar  1 <1>   0.0530 
  8 C       -5.5440     1.7170     0.6230 C.2   1 <1>   0.0870 
  9 O       -5.8230     2.8760     1.1640 O.3   1 <1>  -0.0190 
 10 C       -6.7250     1.0540     0.4730 C.2   1 <1>  -0.0860 
 11 N       -7.0990     3.0500     1.3750 N.2   1 <1>  -0.4100 
 12 C       -7.6610     1.9790     0.9560 C.2   1 <1>   0.3720 
 13 C       -7.0090    -0.2700     0.0010 C.2   1 <1>   0.7160 
 14 N       -9.0420     1.8520     1.0130 N.pl3 1 <1>  -0.8520 
 15 O       -6.1800    -0.9060    -0.6190 O.2   1 <1>  -0.5700 
 16 N       -8.2300    -0.8220     0.2520 N.am  1 <1>  -0.7300 
 17 C       -9.7180     2.0660    -0.2970 C.3   1 <1>   0.2090 
 18 C       -8.7970    -2.1100    -0.1460 C.3   1 <1>   0.3000 
 19 C      -11.2280     1.8770    -0.1490 C.3   1 <1>   0.1200 
 20 C       -7.9710    -3.2470     0.4560 C.3   1 <1>  -0.2400 
 21 C       -8.8500    -2.2010    -1.6710 C.3   1 <1>  -0.2400 
 22 C      -10.2150    -2.1540     0.4180 C.3   1 <1>  -0.2400 
 23 O      -11.8100     1.9770    -1.4100 O.3   1 <1>  -0.5600 
 24 C      -13.1930     1.8190    -1.4090 C.3   1 <1>   0.0400 
 25 H       -1.0930     1.5220     1.7840 H     1 <1>   0.1500 
 26 H       -2.1510     0.1550    -2.1020 H     1 <1>   0.1500 
 27 H       -3.4600     2.0430     2.2470 H     1 <1>   0.1500 
 28 H       -4.5130     0.6790    -1.6510 H     1 <1>   0.1500 
 29 H       -9.3680     2.5800     1.6610 H     1 <1>   0.4000 
 30 H       -8.8830    -0.2020     0.7440 H     1 <1>   0.3700 
 31 H       -9.3440     1.3590    -1.0180 H     1 <1>   0.0800 
 32 H       -9.5140     3.0630    -0.6500 H     1 <1>   0.0800 
 33 H      -11.6420     2.6440     0.4820 H     1 <1>   0.0800 
 34 H      -11.4450     0.9030     0.2510 H     1 <1>   0.0800 
 35 H       -6.9780    -3.2550     0.0460 H     1 <1>   0.0800 
 36 H       -8.4270    -4.1950     0.2330 H     1 <1>   0.0800 
 37 H       -7.9070    -3.1410     1.5240 H     1 <1>   0.0800 
 38 H       -7.8590    -2.2060    -2.0870 H     1 <1>   0.0800 
 39 H       -9.3980    -1.3710    -2.0800 H     1 <1>   0.0800 
 40 H       -9.3370    -3.1110    -1.9700 H     1 <1>   0.0800 
 41 H      -10.2000    -2.0530     1.4880 H     1 <1>   0.0800 
 42 H      -10.6790    -3.0930     0.1760 H     1 <1>   0.0800 
 43 H      -10.8140    -1.3680    -0.0060 H     1 <1>   0.0800 
 44 H      -13.5410     1.9130    -2.4230 H     1 <1>   0.0800 
 45 H      -13.6390     2.5880    -0.8020 H     1 <1>   0.0800 
 46 H      -13.4410     0.8430    -1.0310 H     1 <1>   0.0800 
@<TRIPOS>BOND
  1   1   2  1   
  2   2   3  ar  
  3   2   4  ar  
  4   3   5  ar  
  5   3  25  1   
  6   4   6  ar  
  7   4  26  1   
  8   5   7  ar  
  9   5  27  1   
 10   6   7  ar  
 11   6  28  1   
 12   7   8  1   
 13   8   9  1   
 14   8  10  2   
 15   9  11  1   
 16  10  12  1   
 17  10  13  1   
 18  11  12  2   
 19  12  14  1   
 20  13  15  2   
 21  13  16  am  
 22  14  17  1   
 23  14  29  1   
 24  16  18  1   
 25  16  30  1   
 26  17  19  1   
 27  17  31  1   
 28  17  32  1   
 29  18  20  1   
 30  18  21  1   
 31  18  22  1   
 32  19  23  1   
 33  19  33  1   
 34  19  34  1   
 35  20  35  1   
 36  20  36  1   
 37  20  37  1   
 38  21  38  1   
 39  21  39  1   
 40  21  40  1   
 41  22  41  1   
 42  22  42  1   
 43  22  43  1   
 44  23  24  1   
 45  24  44  1   
 46  24  45  1   
 47  24  46  1   
@<TRIPOS>SUBSTRUCTURE
  1 ****  10 GROUP 4 **** **** 0

# MOE 2024.06 (io_trps.svl 2023.06)
