@<TRIPOS>MOLECULE
NONAME
42 44 1 0 0 
SMALL
USER_CHARGES


@<TRIPOS>ATOM
  1 S       -1.5990    -2.8290     3.2130 S.3   1 <1>  -0.0800 
  2 C       -1.4780    -1.6990     1.8890 C.2   1 <1>   0.2280 
  3 C       -2.6820    -3.7840     2.2530 C.2   1 <1>  -0.1100 
  4 N       -2.1710    -2.0060     0.8680 N.2   1 <1>  -0.5650 
  5 C       -2.8840    -3.2080     1.0470 C.2   1 <1>   0.1410 
  6 C       -3.7270    -3.7840     0.0010 C.2   1 <1>   0.7160 
  7 O       -3.7190    -4.9960    -0.1430 O.2   1 <1>  -0.5700 
  8 N       -4.5630    -3.0440    -0.8200 N.am  1 <1>  -0.6600 
  9 C       -5.2550    -3.6830    -1.9780 C.3   1 <1>   0.1400 
 10 C       -5.0120    -1.6550    -0.5270 C.3   1 <1>   0.1400 
 11 C       -6.5060    -4.4780    -1.5590 C.3   1 <1>   0.1400 
 12 C       -6.3670    -1.6390     0.1890 C.3   1 <1>  -0.1600 
 13 N       -7.3140    -3.8340    -0.4700 N.am  1 <1>  -0.6600 
 14 C       -7.4950    -2.3580    -0.5610 C.3   1 <1>   0.1400 
 15 C       -7.8770    -4.5450     0.5730 C.2   1 <1>   0.5440 
 16 O       -8.5620    -3.9610     1.3900 O.2   1 <1>  -0.5700 
 17 C       -7.6930    -5.9740     0.7210 C.ar  1 <1>   0.0860 
 18 C       -8.7220    -6.8730     0.5100 C.ar  1 <1>  -0.1500 
 19 C       -6.4820    -6.5420     1.0880 C.ar  1 <1>  -0.1500 
 20 C       -8.5060    -8.2320     0.6450 C.ar  1 <1>   0.3930 
 21 C       -6.3600    -7.9130     1.1960 C.ar  1 <1>   0.1600 
 22 O       -9.5600    -9.0430     0.4130 O.3   1 <1>  -0.3630 
 23 N       -7.3390    -8.7740     0.9800 N.ar  1 <1>  -0.6200 
 24 C       -9.4390   -10.4460     0.5430 C.3   1 <1>   0.0400 
 25 H       -0.8390    -0.8450     2.0330 H     1 <1>   0.1500 
 26 H       -3.0660    -4.6950     2.6740 H     1 <1>   0.1500 
 27 H       -4.5720    -4.3480    -2.4780 H     1 <1>   0.0800 
 28 H       -5.5360    -2.9280    -2.6910 H     1 <1>   0.0800 
 29 H       -5.0830    -1.1070    -1.4510 H     1 <1>   0.0800 
 30 H       -4.2970    -1.1390     0.0850 H     1 <1>   0.0800 
 31 H       -6.1770    -5.4530    -1.2520 H     1 <1>   0.0800 
 32 H       -7.1340    -4.6170    -2.4210 H     1 <1>   0.0800 
 33 H       -6.6560    -0.6120     0.3160 H     1 <1>   0.0800 
 34 H       -6.2660    -2.0600     1.1730 H     1 <1>   0.0800 
 35 H       -7.5260    -2.0500    -1.5910 H     1 <1>   0.0800 
 36 H       -8.4390    -2.0870    -0.1170 H     1 <1>   0.0800 
 37 H       -9.6990    -6.5170     0.2410 H     1 <1>   0.1500 
 38 H       -5.6370    -5.9080     1.2830 H     1 <1>   0.1500 
 39 H       -5.4040    -8.3240     1.4740 H     1 <1>   0.1500 
 40 H      -10.3910   -10.8900     0.3170 H     1 <1>   0.0800 
 41 H       -9.1510   -10.6780     1.5530 H     1 <1>   0.0800 
 42 H       -8.6930   -10.7970    -0.1490 H     1 <1>   0.0800 
@<TRIPOS>BOND
  1   1   2  1   
  2   1   3  1   
  3   2   4  2   
  4   2  25  1   
  5   3   5  2   
  6   3  26  1   
  7   4   5  1   
  8   5   6  1   
  9   6   7  2   
 10   6   8  am  
 11   8   9  1   
 12   8  10  1   
 13   9  11  1   
 14   9  27  1   
 15   9  28  1   
 16  10  12  1   
 17  10  29  1   
 18  10  30  1   
 19  11  13  1   
 20  11  31  1   
 21  11  32  1   
 22  12  14  1   
 23  12  33  1   
 24  12  34  1   
 25  13  14  1   
 26  13  15  am  
 27  14  35  1   
 28  14  36  1   
 29  15  16  2   
 30  15  17  1   
 31  17  18  ar  
 32  17  19  ar  
 33  18  20  ar  
 34  18  37  1   
 35  19  21  ar  
 36  19  38  1   
 37  20  22  1   
 38  20  23  ar  
 39  21  23  ar  
 40  21  39  1   
 41  22  24  1   
 42  24  40  1   
 43  24  41  1   
 44  24  42  1   
@<TRIPOS>SUBSTRUCTURE
  1 ****  19 GROUP 4 **** **** 0

# MOE 2024.06 (io_trps.svl 2023.06)
