@<TRIPOS>MOLECULE
NONAME
56 60 1 0 0 
SMALL
USER_CHARGES


@<TRIPOS>ATOM
  1 N        0.5450     0.3200    -0.7660 N.ar  1 <1>  -0.6200 
  2 C       -0.5330     1.0840    -0.9730 C.ar  1 <1>   0.7200 
  3 C        1.3260     0.7260     0.2010 C.ar  1 <1>   0.1660 
  4 N       -0.8580     2.1900    -0.2970 N.ar  1 <1>  -0.6200 
  5 N       -1.3820     0.6960    -1.9880 N.pl3 1 <1>  -0.8380 
  6 C        1.0850     1.8340     0.9520 C.ar  1 <1>  -0.1440 
  7 C        2.6070     0.0360     0.6020 C.3   1 <1>   0.1430 
  8 C       -0.0460     2.5560     0.6670 C.ar  1 <1>   0.1600 
  9 C       -1.5480    -0.7290    -2.3840 C.3   1 <1>   0.1290 
 10 C       -2.3920     1.6320    -2.5550 C.3   1 <1>   0.1290 
 11 C        2.1610     2.0540     1.9850 C.3   1 <1>  -0.0160 
 12 C        3.4300    -0.2320    -0.6800 C.3   1 <1>   0.3430 
 13 C        2.2940    -1.2740     1.3550 C.3   1 <1>  -0.1600 
 14 C        3.2740     1.0860     1.5350 C.3   1 <1>  -0.1600 
 15 N        4.1380    -1.5660    -0.6940 N.4   1 <1>  -0.9590 
 16 C        3.5690    -2.0880     1.6580 C.3   1 <1>  -0.1600 
 17 C        4.7060    -1.8790     0.6470 C.3   1 <1>   0.3430 
 18 C        5.1440    -1.6480    -1.8030 C.3   1 <1>   0.4860 
 19 C        6.2860    -0.6630    -1.5880 C.ar  1 <1>  -0.1440 
 20 C        7.4480    -1.0410    -0.8650 C.ar  1 <1>   0.0000 
 21 C        6.1760     0.6050    -2.1050 C.ar  1 <1>  -0.1500 
 22 C        8.4280    -0.0560    -0.5940 C.ar  1 <1>   0.3100 
 23 C        7.7170    -2.3480    -0.4020 C.ar  1 <1>  -0.1500 
 24 C        7.1680     1.5600    -1.8750 C.ar  1 <1>  -0.1500 
 25 N        9.5330    -0.2960     0.1530 N.ar  1 <1>  -0.6200 
 26 C        8.2610     1.2310    -1.1240 C.ar  1 <1>  -0.1500 
 27 C        8.8510    -2.5680     0.3190 C.ar  1 <1>  -0.1500 
 28 C        9.7240    -1.5050     0.5780 C.ar  1 <1>   0.1600 
 29 H       -0.2880     3.4420     1.2300 H     1 <1>   0.1500 
 30 H       -1.0790    -1.3830    -1.6710 H     1 <1>   0.0800 
 31 H       -1.1060    -0.8870    -3.3510 H     1 <1>   0.0800 
 32 H       -2.5950    -0.9760    -2.4290 H     1 <1>   0.0800 
 33 H       -2.0210     2.6430    -2.5310 H     1 <1>   0.0800 
 34 H       -3.2980     1.5800    -1.9770 H     1 <1>   0.0800 
 35 H       -2.6050     1.3730    -3.5770 H     1 <1>   0.0800 
 36 H        1.7870     1.7840     2.9580 H     1 <1>   0.0800 
 37 H        2.5010     3.0760     1.9960 H     1 <1>   0.0800 
 38 H        4.1440     0.5660    -0.7870 H     1 <1>   0.0800 
 39 H        2.7680    -0.1830    -1.5300 H     1 <1>   0.0800 
 40 H        1.6390    -1.8680     0.7400 H     1 <1>   0.0800 
 41 H        1.7590    -1.0650     2.2670 H     1 <1>   0.0800 
 42 H        4.0040     1.6560     0.9860 H     1 <1>   0.0800 
 43 H        3.7640     0.6450     2.3850 H     1 <1>   0.0800 
 44 H        3.4090    -2.2690    -0.8750 H     1 <1>   0.4500 
 45 H        3.3170    -3.1340     1.7000 H     1 <1>   0.0800 
 46 H        3.9420    -1.8240     2.6330 H     1 <1>   0.0800 
 47 H        5.3320    -1.0610     0.9680 H     1 <1>   0.0800 
 48 H        5.3120    -2.7690     0.6060 H     1 <1>   0.0800 
 49 H        4.6610    -1.4220    -2.7400 H     1 <1>   0.0800 
 50 H        5.5360    -2.6480    -1.8760 H     1 <1>   0.0800 
 51 H        5.3260     0.9070    -2.6970 H     1 <1>   0.1500 
 52 H        7.0610    -3.1690    -0.6180 H     1 <1>   0.1500 
 53 H        7.0620     2.5490    -2.2890 H     1 <1>   0.1500 
 54 H        9.0320     1.9540    -0.9230 H     1 <1>   0.1500 
 55 H        9.1050    -3.5440     0.6950 H     1 <1>   0.1500 
 56 H       10.6080    -1.7050     1.1610 H     1 <1>   0.1500 
@<TRIPOS>BOND
  1   1   2  ar  
  2   1   3  ar  
  3   2   4  ar  
  4   2   5  1   
  5   3   6  ar  
  6   3   7  1   
  7   4   8  ar  
  8   5   9  1   
  9   5  10  1   
 10   6   8  ar  
 11   6  11  1   
 12   7  12  1   
 13   7  13  1   
 14   7  14  1   
 15   8  29  1   
 16   9  30  1   
 17   9  31  1   
 18   9  32  1   
 19  10  33  1   
 20  10  34  1   
 21  10  35  1   
 22  11  14  1   
 23  11  36  1   
 24  11  37  1   
 25  12  15  1   
 26  12  38  1   
 27  12  39  1   
 28  13  16  1   
 29  13  40  1   
 30  13  41  1   
 31  14  42  1   
 32  14  43  1   
 33  15  17  1   
 34  15  18  1   
 35  15  44  1   
 36  16  17  1   
 37  16  45  1   
 38  16  46  1   
 39  17  47  1   
 40  17  48  1   
 41  18  19  1   
 42  18  49  1   
 43  18  50  1   
 44  19  20  ar  
 45  19  21  ar  
 46  20  22  ar  
 47  20  23  ar  
 48  21  24  ar  
 49  21  51  1   
 50  22  25  ar  
 51  22  26  ar  
 52  23  27  ar  
 53  23  52  1   
 54  24  26  ar  
 55  24  53  1   
 56  25  28  ar  
 57  26  54  1   
 58  27  28  ar  
 59  27  55  1   
 60  28  56  1   
@<TRIPOS>SUBSTRUCTURE
  1 ****  12 GROUP 4 **** **** 0

# MOE 2024.06 (io_trps.svl 2023.06)
