@<TRIPOS>MOLECULE
NONAME
45 48 1 0 0 
SMALL
USER_CHARGES


@<TRIPOS>ATOM
  1 O       -0.6380     0.5400     1.1880 O.3   1 <1>  -0.0190 
  2 N        0.3460     1.3550     1.0230 N.2   1 <1>  -0.4100 
  3 C       -1.7250     1.0640     0.6930 C.2   1 <1>   0.5620 
  4 C       -0.1820     2.3720     0.4300 C.2   1 <1>   0.4620 
  5 N       -1.5060     2.2200     0.1980 N.2   1 <1>  -0.5650 
  6 N       -2.9350     0.4000     0.7220 N.pl3 1 <1>  -0.8220 
  7 C        0.5390     3.5710     0.0320 C.ar  1 <1>   0.0540 
  8 C       -4.0900     0.8810    -0.0800 C.3   1 <1>   0.2090 
  9 C       -3.0290    -1.0660     0.8980 C.3   1 <1>   0.2090 
 10 C        1.9170     3.6870     0.2270 C.ar  1 <1>  -0.1500 
 11 C       -0.1110     4.6570    -0.5610 C.ar  1 <1>  -0.1500 
 12 C       -4.9440    -0.3610    -0.3810 C.3   1 <1>   0.2000 
 13 C       -3.9620    -1.5270    -0.2220 C.3   1 <1>  -0.0800 
 14 C        2.6120     4.8220    -0.1500 C.ar  1 <1>  -0.1500 
 15 C        0.5770     5.7960    -0.9400 C.ar  1 <1>  -0.1500 
 16 O       -5.9610    -0.5030     0.5730 O.3   1 <1>  -0.5600 
 17 C       -4.6170    -2.8930     0.0490 C.3   1 <1>   0.0200 
 18 C        1.9420     5.8810    -0.7360 C.ar  1 <1>  -0.1500 
 19 C       -7.1140     0.2410     0.3300 C.3   1 <1>   0.0400 
 20 C       -3.6240    -4.0430     0.0290 C.2   1 <1>  -0.0400 
 21 O       -4.0310    -5.2290     0.3970 O.3   1 <1>  -0.0190 
 22 C       -2.3280    -4.1440    -0.3060 C.2   1 <1>  -0.1500 
 23 N       -3.0800    -6.1150     0.3290 N.2   1 <1>  -0.4100 
 24 C       -2.0410    -5.4890    -0.0920 C.2   1 <1>   0.1080 
 25 C       -0.6930    -6.1360    -0.3200 C.3   1 <1>  -0.0590 
 26 H       -4.6420     1.6250     0.4670 H     1 <1>   0.0800 
 27 H       -3.7300     1.3070    -1.0000 H     1 <1>   0.0800 
 28 H       -2.0650    -1.5400     0.8360 H     1 <1>   0.0800 
 29 H       -3.4680    -1.2700     1.8610 H     1 <1>   0.0800 
 30 H        2.4560     2.8740     0.6810 H     1 <1>   0.1500 
 31 H       -1.1730     4.6110    -0.7270 H     1 <1>   0.1500 
 32 H       -5.3820    -0.3350    -1.3640 H     1 <1>   0.0800 
 33 H       -3.3840    -1.5900    -1.1270 H     1 <1>   0.0800 
 34 H        3.6740     4.8830     0.0120 H     1 <1>   0.1500 
 35 H        0.0500     6.6170    -1.3950 H     1 <1>   0.1500 
 36 H       -5.3710    -3.0830    -0.6950 H     1 <1>   0.0800 
 37 H       -5.1050    -2.8780     1.0080 H     1 <1>   0.0800 
 38 H        2.4790     6.7650    -1.0300 H     1 <1>   0.1500 
 39 H       -7.8090     0.0470     1.1280 H     1 <1>   0.0800 
 40 H       -7.5460    -0.0660    -0.6060 H     1 <1>   0.0800 
 41 H       -6.8720     1.2900     0.3130 H     1 <1>   0.0800 
 42 H       -1.6380    -3.4020    -0.6620 H     1 <1>   0.1500 
 43 H       -0.3950    -6.0080    -1.3440 H     1 <1>   0.0800 
 44 H       -0.7490    -7.1870    -0.1020 H     1 <1>   0.0800 
 45 H        0.0410    -5.6870     0.3240 H     1 <1>   0.0800 
@<TRIPOS>BOND
  1   1   2  1   
  2   1   3  1   
  3   2   4  2   
  4   3   5  2   
  5   3   6  1   
  6   4   5  1   
  7   4   7  1   
  8   6   8  1   
  9   6   9  1   
 10   7  10  ar  
 11   7  11  ar  
 12   8  12  1   
 13   8  26  1   
 14   8  27  1   
 15   9  13  1   
 16   9  28  1   
 17   9  29  1   
 18  10  14  ar  
 19  10  30  1   
 20  11  15  ar  
 21  11  31  1   
 22  12  13  1   
 23  12  16  1   
 24  12  32  1   
 25  13  17  1   
 26  13  33  1   
 27  14  18  ar  
 28  14  34  1   
 29  15  18  ar  
 30  15  35  1   
 31  16  19  1   
 32  17  20  1   
 33  17  36  1   
 34  17  37  1   
 35  18  38  1   
 36  19  39  1   
 37  19  40  1   
 38  19  41  1   
 39  20  21  1   
 40  20  22  2   
 41  21  23  1   
 42  22  24  1   
 43  22  42  1   
 44  23  24  2   
 45  24  25  1   
 46  25  43  1   
 47  25  44  1   
 48  25  45  1   
@<TRIPOS>SUBSTRUCTURE
  1 ****   6 GROUP 4 **** **** 0

# MOE 2024.06 (io_trps.svl 2023.06)
