@<TRIPOS>MOLECULE
NONAME
49 51 1 0 0 
SMALL
USER_CHARGES


@<TRIPOS>ATOM
  1 F       -0.5140    -1.0510    -1.1890 F     1 <1>  -0.3400 
  2 C        0.7180    -1.4630    -1.4770 C.3   1 <1>   0.7810 
  3 F        0.7330    -1.5640    -2.8040 F     1 <1>  -0.3400 
  4 C        0.9860    -2.8290    -0.8320 C.2   1 <1>   0.1080 
  5 N        1.9580    -3.0710     0.0070 N.2   1 <1>  -0.7070 
  6 C        0.2280    -3.9650    -1.0630 C.2   1 <1>  -0.1500 
  7 N        1.8370    -4.3690     0.3220 N.pl3 1 <1>   0.3140 
  8 C        0.7800    -4.9530    -0.3040 C.2   1 <1>  -0.2370 
  9 C        2.7970    -4.9860     1.2520 C.3   1 <1>   0.0160 
 10 C        0.3780    -6.3250    -0.1670 C.2   1 <1>   0.7150 
 11 O        1.1120    -7.1660     0.3260 O.2   1 <1>  -0.5700 
 12 N       -0.8730    -6.7370    -0.5610 N.am  1 <1>  -0.6600 
 13 C       -1.1220    -8.1590    -0.8590 C.3   1 <1>   0.1400 
 14 C       -2.0960    -6.0610    -0.0580 C.3   1 <1>   0.1400 
 15 C       -1.6630    -8.7520     0.4540 C.3   1 <1>   0.4230 
 16 C       -2.7550    -6.8930     1.0740 C.3   1 <1>  -0.1600 
 17 N       -1.1800   -10.1510     0.7590 N.4   1 <1>  -0.9590 
 18 C       -3.2150    -8.3860     0.6260 C.3   1 <1>   0.0000 
 19 C       -1.5240   -11.1100    -0.3060 C.3   1 <1>   0.3430 
 20 C        0.2890   -10.1590     1.0580 C.3   1 <1>   0.2630 
 21 C       -3.7190    -9.8370     0.1140 C.3   1 <1>  -0.1600 
 22 C       -4.7450    -7.9870     0.8810 C.3   1 <1>   0.1200 
 23 C       -2.8980   -10.7440    -0.8370 C.3   1 <1>  -0.1600 
 24 O       -5.2120    -7.2510    -0.2060 O.3   1 <1>  -0.6800 
 25 H        1.4150    -0.7000    -1.1820 H     1 <1>   0.0800 
 26 H       -0.6220    -4.0240    -1.7210 H     1 <1>   0.1500 
 27 H        2.2660    -5.4120     2.0820 H     1 <1>   0.0800 
 28 H        3.4790    -4.2360     1.6090 H     1 <1>   0.0800 
 29 H        3.3460    -5.7520     0.7370 H     1 <1>   0.0800 
 30 H       -1.8460    -8.2310    -1.6510 H     1 <1>   0.0800 
 31 H       -0.2080    -8.6320    -1.1700 H     1 <1>   0.0800 
 32 H       -1.8500    -5.0800     0.3160 H     1 <1>   0.0800 
 33 H       -2.7930    -5.9370    -0.8720 H     1 <1>   0.0800 
 34 H       -1.1160    -8.2020     1.1970 H     1 <1>   0.0800 
 35 H       -2.1120    -6.9060     1.9400 H     1 <1>   0.0800 
 36 H       -3.5060    -6.1950     1.4040 H     1 <1>   0.0800 
 37 H       -1.6850   -10.4410     1.6070 H     1 <1>   0.4500 
 38 H       -0.8030   -11.0660    -1.1070 H     1 <1>   0.0800 
 39 H       -1.5340   -12.1120     0.0940 H     1 <1>   0.0800 
 40 H        0.8540    -9.8530     0.1920 H     1 <1>   0.0800 
 41 H        0.6100   -11.1460     1.3490 H     1 <1>   0.0800 
 42 H        0.5120    -9.4740     1.8600 H     1 <1>   0.0800 
 43 H       -3.9690   -10.4320     0.9790 H     1 <1>   0.0800 
 44 H       -4.6200    -9.7650    -0.4820 H     1 <1>   0.0800 
 45 H       -4.9160    -7.4220     1.7830 H     1 <1>   0.0800 
 46 H       -5.4450    -8.7950     1.0310 H     1 <1>   0.0800 
 47 H       -2.7910   -10.2630    -1.7940 H     1 <1>   0.0800 
 48 H       -3.4410   -11.6550    -1.0230 H     1 <1>   0.0800 
 49 H       -6.1530    -7.0050    -0.0900 H     1 <1>   0.4000 
@<TRIPOS>BOND
  1   1   2  1   
  2   2   3  1   
  3   2   4  1   
  4   2  25  1   
  5   4   5  2   
  6   4   6  1   
  7   5   7  1   
  8   6   8  2   
  9   6  26  1   
 10   7   8  1   
 11   7   9  1   
 12   8  10  1   
 13   9  27  1   
 14   9  28  1   
 15   9  29  1   
 16  10  11  2   
 17  10  12  am  
 18  12  13  1   
 19  12  14  1   
 20  13  15  1   
 21  13  30  1   
 22  13  31  1   
 23  14  16  1   
 24  14  32  1   
 25  14  33  1   
 26  15  17  1   
 27  15  18  1   
 28  15  34  1   
 29  16  18  1   
 30  16  35  1   
 31  16  36  1   
 32  17  19  1   
 33  17  20  1   
 34  17  37  1   
 35  18  21  1   
 36  18  22  1   
 37  19  23  1   
 38  19  38  1   
 39  19  39  1   
 40  20  40  1   
 41  20  41  1   
 42  20  42  1   
 43  21  23  1   
 44  21  43  1   
 45  21  44  1   
 46  22  24  1   
 47  22  45  1   
 48  22  46  1   
 49  23  47  1   
 50  23  48  1   
 51  24  49  1   
@<TRIPOS>SUBSTRUCTURE
  1 ****  12 GROUP 4 **** **** 0

# MOE 2024.06 (io_trps.svl 2023.06)
