@<TRIPOS>MOLECULE
Untitled Document
47 48 1 0 0 
SMALL
USER_CHARGES


@<TRIPOS>ATOM
  1 O        1.4310     7.2190     2.3130 O.3   1 <1>  -0.6800 
  2 C        2.2730     6.2630     1.7450 C.3   1 <1>   0.2000 
  3 C        2.6130     6.7060     0.2960 C.3   1 <1>   0.3430 
  4 C        1.6350     4.8660     1.9280 C.3   1 <1>  -0.1600 
  5 N        1.5050     7.5240    -0.2830 N.4   1 <1>  -0.9060 
  6 C        0.9340     4.2040     0.7210 C.3   1 <1>   0.2070 
  7 C        1.8680     8.4660    -1.3440 C.3   1 <1>   0.4230 
  8 C       -0.1370     5.0580     0.0350 C.ar  1 <1>  -0.1440 
  9 C        0.3930     2.8370     1.1350 C.ar  1 <1>  -0.1440 
 10 C        2.6890     9.6050    -0.7450 C.3   1 <1>  -0.2400 
 11 C        0.5790     9.0020    -1.9500 C.3   1 <1>  -0.2400 
 12 C       -0.2790     4.9690    -1.3430 C.ar  1 <1>  -0.1500 
 13 C       -0.9700     5.9210     0.7370 C.ar  1 <1>  -0.1500 
 14 C       -0.8510     2.6960     1.7380 C.ar  1 <1>  -0.1500 
 15 C        1.1610     1.7000     0.9170 C.ar  1 <1>  -0.1500 
 16 C       -1.2170     5.7390    -2.0080 C.ar  1 <1>  -0.1500 
 17 C       -1.9050     6.6960     0.0740 C.ar  1 <1>  -0.1500 
 18 C       -1.3160     1.4480     2.1140 C.ar  1 <1>  -0.1500 
 19 C        0.6970     0.4510     1.2930 C.ar  1 <1>  -0.1500 
 20 C       -2.0280     6.6070    -1.3000 C.ar  1 <1>  -0.1500 
 21 C       -0.5420     0.3240     1.8920 C.ar  1 <1>  -0.1500 
 22 H        1.3080     7.0440     3.2720 H     1 <1>   0.4000 
 23 H        3.1860     6.2810     2.3170 H     1 <1>   0.0800 
 24 H        2.8260     5.8530    -0.3250 H     1 <1>   0.0800 
 25 H        3.5080     7.3030     0.3430 H     1 <1>   0.0800 
 26 H        0.9590     4.8780     2.7650 H     1 <1>   0.0800 
 27 H        2.4290     4.1960     2.2080 H     1 <1>   0.0800 
 28 H        1.1120     8.0340     0.5250 H     1 <1>   0.4500 
 29 H        0.7250     6.9120    -0.5800 H     1 <1>   0.4500 
 30 H        1.6970     4.0180    -0.0140 H     1 <1>   0.0800 
 31 H        2.4390     7.9620    -2.1090 H     1 <1>   0.0800 
 32 H        2.1500    10.0960     0.0470 H     1 <1>   0.0800 
 33 H        2.8980    10.3360    -1.5060 H     1 <1>   0.0800 
 34 H        3.6330     9.2550    -0.3720 H     1 <1>   0.0800 
 35 H       -0.0440     9.4610    -1.2020 H     1 <1>   0.0800 
 36 H        0.0360     8.2130    -2.4360 H     1 <1>   0.0800 
 37 H        0.8080     9.7420    -2.6960 H     1 <1>   0.0800 
 38 H        0.3280     4.2840    -1.9130 H     1 <1>   0.1500 
 39 H       -0.9090     5.9950     1.8090 H     1 <1>   0.1500 
 40 H       -1.4750     3.5510     1.9210 H     1 <1>   0.1500 
 41 H        2.1290     1.7690     0.4530 H     1 <1>   0.1500 
 42 H       -1.3270     5.6530    -3.0770 H     1 <1>   0.1500 
 43 H       -2.5490     7.3580     0.6290 H     1 <1>   0.1500 
 44 H       -2.2820     1.3510     2.5780 H     1 <1>   0.1500 
 45 H        1.2990    -0.4240     1.1180 H     1 <1>   0.1500 
 46 H       -2.7650     7.2010    -1.8160 H     1 <1>   0.1500 
 47 H       -0.9040    -0.6460     2.1840 H     1 <1>   0.1500 
@<TRIPOS>BOND
  1   1   2  1   
  2   1  22  1   
  3   2   3  1   
  4   2   4  1   
  5   2  23  1   
  6   3   5  1   
  7   3  24  1   
  8   3  25  1   
  9   4   6  1   
 10   4  26  1   
 11   4  27  1   
 12   5   7  1   
 13   5  28  1   
 14   5  29  1   
 15   6   8  1   
 16   6   9  1   
 17   6  30  1   
 18   7  10  1   
 19   7  11  1   
 20   7  31  1   
 21   8  12  ar  
 22   8  13  ar  
 23   9  14  ar  
 24   9  15  ar  
 25  10  32  1   
 26  10  33  1   
 27  10  34  1   
 28  11  35  1   
 29  11  36  1   
 30  11  37  1   
 31  12  16  ar  
 32  12  38  1   
 33  13  17  ar  
 34  13  39  1   
 35  14  18  ar  
 36  14  40  1   
 37  15  19  ar  
 38  15  41  1   
 39  16  20  ar  
 40  16  42  1   
 41  17  20  ar  
 42  17  43  1   
 43  18  21  ar  
 44  18  44  1   
 45  19  21  ar  
 46  19  45  1   
 47  20  46  1   
 48  21  47  1   
@<TRIPOS>SUBSTRUCTURE
  1 ****   8 GROUP 4 **** **** 0

# MOE 2024.06 (io_trps.svl 2023.06)
