@<TRIPOS>MOLECULE
NONAME
46 47 1 0 0 
SMALL
USER_CHARGES


@<TRIPOS>ATOM
  1 S        0.2990     1.5410    -0.8850 S.3   1 <1>  -0.0800 
  2 C        1.3760     0.6200     0.1500 C.2   1 <1>   0.1980 
  3 C       -0.7130     0.1360    -1.0400 C.2   1 <1>  -0.1100 
  4 N        0.9970    -0.5810     0.3520 N.2   1 <1>  -0.5650 
  5 C        2.5960     1.3480     0.7120 C.3   1 <1>   0.2900 
  6 C       -0.1780    -0.8630    -0.3220 C.2   1 <1>   0.0460 
  7 N        3.8240     1.2280    -0.1230 N.3   1 <1>  -0.8100 
  8 C       -0.7270    -2.2640    -0.1750 C.3   1 <1>  -0.0590 
  9 C        5.0030     1.7880     0.5940 C.3   1 <1>   0.1710 
 10 C        3.6580     1.7990    -1.4660 C.3   1 <1>   0.0300 
 11 C        4.9380     3.2870     0.9210 C.2   1 <1>   0.5690 
 12 O        4.4670     3.6360     1.9780 O.2   1 <1>  -0.5700 
 13 N        5.4120     4.1860     0.0160 N.am  1 <1>  -0.7300 
 14 C        5.3770     5.6580     0.1790 C.3   1 <1>   0.1400 
 15 C        6.7750     6.1800     0.5060 C.3   1 <1>  -0.0170 
 16 C        6.7600     7.7000     0.5990 C.ar  1 <1>  -0.1440 
 17 C        6.7750     8.4910    -0.5490 C.ar  1 <1>   0.0820 
 18 C        6.7250     8.3030     1.8470 C.ar  1 <1>  -0.1500 
 19 O        6.7990     7.8590    -1.7540 O.3   1 <1>  -0.3620 
 20 C        6.7600     9.8790    -0.4260 C.ar  1 <1>  -0.1500 
 21 C        6.7100     9.6820     1.9610 C.ar  1 <1>  -0.1500 
 22 C        6.8610     8.5790    -2.9650 C.3   1 <1>   0.0400 
 23 C        6.7280    10.4690     0.8240 C.ar  1 <1>  -0.1500 
 24 H       -1.5940     0.2100    -1.6490 H     1 <1>   0.1500 
 25 H        2.7980     0.9270     1.6810 H     1 <1>   0.0800 
 26 H        2.3470     2.3850     0.8540 H     1 <1>   0.0800 
 27 H       -1.6350    -2.3740    -0.7390 H     1 <1>   0.0800 
 28 H       -0.9270    -2.4660     0.8610 H     1 <1>   0.0800 
 29 H       -0.0020    -2.9730    -0.5330 H     1 <1>   0.0800 
 30 H        5.8850     1.6020     0.0080 H     1 <1>   0.0800 
 31 H        5.1260     1.2540     1.5190 H     1 <1>   0.0800 
 32 H        2.9240     1.2340    -2.0150 H     1 <1>   0.0800 
 33 H        4.5860     1.7430    -2.0080 H     1 <1>   0.0800 
 34 H        3.3400     2.8260    -1.4080 H     1 <1>   0.0800 
 35 H        5.8000     3.8520    -0.8680 H     1 <1>   0.3700 
 36 H        4.7000     5.9270     0.9730 H     1 <1>   0.0800 
 37 H        5.0210     6.1090    -0.7320 H     1 <1>   0.0800 
 38 H        7.4690     5.8750    -0.2570 H     1 <1>   0.0800 
 39 H        7.0990     5.7580     1.4410 H     1 <1>   0.0800 
 40 H        6.7080     7.7020     2.7390 H     1 <1>   0.1500 
 41 H        6.7720    10.5170    -1.2890 H     1 <1>   0.1500 
 42 H        6.6830    10.1410     2.9340 H     1 <1>   0.1500 
 43 H        6.8920     7.8710    -3.7740 H     1 <1>   0.0800 
 44 H        7.7550     9.1770    -2.9690 H     1 <1>   0.0800 
 45 H        5.9840     9.1940    -3.0520 H     1 <1>   0.0800 
 46 H        6.7170    11.5410     0.9140 H     1 <1>   0.1500 
@<TRIPOS>BOND
  1   1   2  1   
  2   1   3  1   
  3   2   4  2   
  4   2   5  1   
  5   3   6  2   
  6   3  24  1   
  7   4   6  1   
  8   5   7  1   
  9   5  25  1   
 10   5  26  1   
 11   6   8  1   
 12   7   9  1   
 13   7  10  1   
 14   8  27  1   
 15   8  28  1   
 16   8  29  1   
 17   9  11  1   
 18   9  30  1   
 19   9  31  1   
 20  10  32  1   
 21  10  33  1   
 22  10  34  1   
 23  11  12  2   
 24  11  13  am  
 25  13  14  1   
 26  13  35  1   
 27  14  15  1   
 28  14  36  1   
 29  14  37  1   
 30  15  16  1   
 31  15  38  1   
 32  15  39  1   
 33  16  17  ar  
 34  16  18  ar  
 35  17  19  1   
 36  17  20  ar  
 37  18  21  ar  
 38  18  40  1   
 39  19  22  1   
 40  20  23  ar  
 41  20  41  1   
 42  21  23  ar  
 43  21  42  1   
 44  22  43  1   
 45  22  44  1   
 46  22  45  1   
 47  23  46  1   
@<TRIPOS>SUBSTRUCTURE
  1 ****  13 GROUP 4 **** **** 0

# MOE 2024.06 (io_trps.svl 2023.06)
