@<TRIPOS>MOLECULE
NONAME
43 45 1 0 0 
SMALL
USER_CHARGES


@<TRIPOS>ATOM
  1 O       -0.5090     0.2800     0.8530 O.2   1 <1>  -0.5700 
  2 C       -1.5030     0.9440     0.6230 C.2   1 <1>   0.5440 
  3 N       -2.7210     0.3060     0.5470 N.am  1 <1>  -0.6600 
  4 C       -1.3810     2.3730     0.4090 C.ar  1 <1>   0.0860 
  5 C       -3.8710     0.8010    -0.2560 C.3   1 <1>   0.1400 
  6 C       -2.8990    -1.1390     0.8230 C.3   1 <1>   0.1400 
  7 C       -2.2430     3.2850     1.0220 C.ar  1 <1>  -0.1500 
  8 C       -0.3830     2.8870    -0.4220 C.ar  1 <1>  -0.1500 
  9 C       -4.7880    -0.4120    -0.4790 C.3   1 <1>   0.2000 
 10 C       -3.8710    -1.6190    -0.2540 C.3   1 <1>  -0.0800 
 11 C       -2.1290     4.6450     0.8000 C.ar  1 <1>  -0.1500 
 12 C       -0.2590     4.2450    -0.6500 C.ar  1 <1>  -0.1500 
 13 O       -5.8000    -0.4270     0.4880 O.3   1 <1>  -0.5600 
 14 C       -4.6010    -2.9240     0.1120 C.3   1 <1>   0.0200 
 15 C       -1.1390     5.1230    -0.0390 C.ar  1 <1>   0.0830 
 16 C       -6.9320     0.3220     0.1760 C.3   1 <1>   0.0400 
 17 C       -3.6800    -4.1320     0.1550 C.2   1 <1>  -0.0400 
 18 O       -1.0370     6.4400    -0.2490 O.3   1 <1>  -0.5320 
 19 O       -4.1700    -5.2830     0.5340 O.3   1 <1>  -0.0190 
 20 C       -2.3800    -4.3180    -0.1290 C.2   1 <1>  -0.1500 
 21 N       -3.2720    -6.2250     0.5210 N.2   1 <1>  -0.4100 
 22 C       -2.1820    -5.6710     0.1270 C.2   1 <1>   0.1080 
 23 C       -0.8670    -6.4000    -0.0340 C.3   1 <1>  -0.0590 
 24 H       -4.3880     1.5900     0.2600 H     1 <1>   0.0800 
 25 H       -3.5070     1.1630    -1.2010 H     1 <1>   0.0800 
 26 H       -1.9640    -1.6700     0.7860 H     1 <1>   0.0800 
 27 H       -3.3340    -1.2510     1.8020 H     1 <1>   0.0800 
 28 H       -3.0040     2.9170     1.6870 H     1 <1>   0.1500 
 29 H        0.3030     2.2000    -0.8880 H     1 <1>   0.1500 
 30 H       -5.2320    -0.4240    -1.4600 H     1 <1>   0.0800 
 31 H       -3.3090    -1.7760    -1.1570 H     1 <1>   0.0800 
 32 H       -2.7980     5.3400     1.2750 H     1 <1>   0.1500 
 33 H        0.5180     4.6120    -1.2960 H     1 <1>   0.1500 
 34 H       -5.3730    -3.1140    -0.6120 H     1 <1>   0.0800 
 35 H       -5.0740    -2.8200     1.0730 H     1 <1>   0.0800 
 36 H       -7.6210     0.2410     0.9980 H     1 <1>   0.0800 
 37 H       -7.3860    -0.0750    -0.7150 H     1 <1>   0.0800 
 38 H       -6.6580     1.3530     0.0360 H     1 <1>   0.0800 
 39 H       -0.2990     6.6910    -0.8310 H     1 <1>   0.4500 
 40 H       -1.6340    -3.6260    -0.4730 H     1 <1>   0.1500 
 41 H       -0.1090    -5.9190     0.5580 H     1 <1>   0.0800 
 42 H       -0.5700    -6.3920    -1.0660 H     1 <1>   0.0800 
 43 H       -0.9700    -7.4190     0.2920 H     1 <1>   0.0800 
@<TRIPOS>BOND
  1   1   2  2   
  2   2   3  am  
  3   2   4  1   
  4   3   5  1   
  5   3   6  1   
  6   4   7  ar  
  7   4   8  ar  
  8   5   9  1   
  9   5  24  1   
 10   5  25  1   
 11   6  10  1   
 12   6  26  1   
 13   6  27  1   
 14   7  11  ar  
 15   7  28  1   
 16   8  12  ar  
 17   8  29  1   
 18   9  10  1   
 19   9  13  1   
 20   9  30  1   
 21  10  14  1   
 22  10  31  1   
 23  11  15  ar  
 24  11  32  1   
 25  12  15  ar  
 26  12  33  1   
 27  13  16  1   
 28  14  17  1   
 29  14  34  1   
 30  14  35  1   
 31  15  18  1   
 32  16  36  1   
 33  16  37  1   
 34  16  38  1   
 35  17  19  1   
 36  17  20  2   
 37  18  39  1   
 38  19  21  1   
 39  20  22  1   
 40  20  40  1   
 41  21  22  2   
 42  22  23  1   
 43  23  41  1   
 44  23  42  1   
 45  23  43  1   
@<TRIPOS>SUBSTRUCTURE
  1 ****   3 GROUP 4 **** **** 0

# MOE 2024.06 (io_trps.svl 2023.06)
