@<TRIPOS>MOLECULE
NONAME
44 45 1 0 0 
SMALL
USER_CHARGES


@<TRIPOS>ATOM
  1 O        1.0660     3.4180    -0.7730 O.2   1 <1>  -0.5700 
  2 C       -0.1000     3.0930    -0.7570 C.2   1 <1>   0.5690 
  3 N       -0.8980     3.3070     0.3400 N.am  1 <1>  -0.6600 
  4 C       -0.6680     2.4640    -2.0190 C.3   1 <1>  -0.0990 
  5 C       -2.3310     2.9130     0.4170 C.3   1 <1>   0.1400 
  6 C       -0.3250     3.8760     1.5840 C.3   1 <1>   0.1400 
  7 C       -2.0120     1.7560    -1.8040 C.3   1 <1>  -0.1600 
  8 C       -2.9310     2.6500    -0.9680 C.3   1 <1>  -0.1600 
  9 C       -0.2500     5.3980     1.4510 C.3   1 <1>  -0.1600 
 10 C        0.6130     6.0190     2.5630 C.3   1 <1>  -0.0990 
 11 C        0.9100     7.4820     2.2990 C.2   1 <1>   0.5690 
 12 O        0.4500     8.3080     3.0450 O.2   1 <1>  -0.5700 
 13 N        1.6890     7.7690     1.2170 N.am  1 <1>  -0.4940 
 14 C        2.1450     9.0020     0.7400 C.2   1 <1>   0.2040 
 15 O        1.9910    10.1210     1.4070 O.3   1 <1>  -0.0190 
 16 C        2.8010     9.2930    -0.4000 C.2   1 <1>  -0.1810 
 17 N        2.5140    11.1410     0.7730 N.2   1 <1>  -0.4100 
 18 C        3.0060    10.6690    -0.3150 C.2   1 <1>   0.1080 
 19 C        3.2240     8.3610    -1.5240 C.3   1 <1>   0.0210 
 20 C        3.7060    11.5260    -1.3470 C.3   1 <1>  -0.0590 
 21 C        4.6670     7.8940    -1.3240 C.3   1 <1>  -0.2400 
 22 H        0.0490     1.7670    -2.4110 H     1 <1>   0.0800 
 23 H       -0.7910     3.2490    -2.7410 H     1 <1>   0.0800 
 24 H       -2.8920     3.6930     0.9040 H     1 <1>   0.0800 
 25 H       -2.4070     2.0200     1.0150 H     1 <1>   0.0800 
 26 H        0.6640     3.4720     1.7240 H     1 <1>   0.0800 
 27 H       -0.9230     3.5990     2.4360 H     1 <1>   0.0800 
 28 H       -1.8490     0.8260    -1.2860 H     1 <1>   0.0800 
 29 H       -2.4660     1.5380    -2.7550 H     1 <1>   0.0800 
 30 H       -3.0860     3.5890    -1.4710 H     1 <1>   0.0800 
 31 H       -3.8910     2.1790    -0.8520 H     1 <1>   0.0800 
 32 H       -1.2410     5.8170     1.4850 H     1 <1>   0.0800 
 33 H        0.1820     5.6350     0.4940 H     1 <1>   0.0800 
 34 H        1.5500     5.4980     2.6390 H     1 <1>   0.0800 
 35 H        0.1070     5.9290     3.5080 H     1 <1>   0.0800 
 36 H        1.9650     6.9670     0.6560 H     1 <1>   0.3700 
 37 H        3.1290     8.8660    -2.4700 H     1 <1>   0.0800 
 38 H        2.5720     7.5040    -1.5470 H     1 <1>   0.0800 
 39 H        4.7160    11.1860    -1.4820 H     1 <1>   0.0800 
 40 H        3.7270    12.5500    -1.0200 H     1 <1>   0.0800 
 41 H        3.1820    11.4730    -2.2830 H     1 <1>   0.0800 
 42 H        5.3360     8.7360    -1.3220 H     1 <1>   0.0800 
 43 H        4.9530     7.2270    -2.1170 H     1 <1>   0.0800 
 44 H        4.7630     7.3770    -0.3860 H     1 <1>   0.0800 
@<TRIPOS>BOND
  1   1   2  2   
  2   2   3  am  
  3   2   4  1   
  4   3   5  1   
  5   3   6  1   
  6   4   7  1   
  7   4  22  1   
  8   4  23  1   
  9   5   8  1   
 10   5  24  1   
 11   5  25  1   
 12   6   9  1   
 13   6  26  1   
 14   6  27  1   
 15   7   8  1   
 16   7  28  1   
 17   7  29  1   
 18   8  30  1   
 19   8  31  1   
 20   9  10  1   
 21   9  32  1   
 22   9  33  1   
 23  10  11  1   
 24  10  34  1   
 25  10  35  1   
 26  11  12  2   
 27  11  13  am  
 28  13  14  1   
 29  13  36  1   
 30  14  15  1   
 31  14  16  2   
 32  15  17  1   
 33  16  18  1   
 34  16  19  1   
 35  17  18  2   
 36  18  20  1   
 37  19  21  1   
 38  19  37  1   
 39  19  38  1   
 40  20  39  1   
 41  20  40  1   
 42  20  41  1   
 43  21  42  1   
 44  21  43  1   
 45  21  44  1   
@<TRIPOS>SUBSTRUCTURE
  1 ****  13 GROUP 4 **** **** 0

# MOE 2024.06 (io_trps.svl 2023.06)
