@<TRIPOS>MOLECULE
NONAME
42 43 1 0 0 
SMALL
USER_CHARGES


@<TRIPOS>ATOM
  1 CL      -1.8500    -3.9440     3.5500 Cl    1 <1>  -0.1770 
  2 C       -2.9630    -3.6950     2.2290 C.ar  1 <1>   0.1770 
  3 C       -2.9860    -4.5970     1.1830 C.ar  1 <1>  -0.1500 
  4 C       -3.8050    -2.6000     2.2480 C.ar  1 <1>  -0.1500 
  5 C       -3.8710    -4.3970     0.1370 C.ar  1 <1>  -0.1500 
  6 C       -4.6890    -2.4060     1.2000 C.ar  1 <1>  -0.1500 
  7 C       -4.7310    -3.3050     0.1410 C.ar  1 <1>  -0.1430 
  8 C       -5.7170    -3.0900    -1.0100 C.3   1 <1>   0.1250 
  9 C       -6.5540    -4.3550    -1.2850 C.2   1 <1>   0.5690 
 10 C       -4.9560    -2.5830    -2.2480 C.3   1 <1>  -0.2400 
 11 O       -6.1640    -5.1330    -2.1300 O.2   1 <1>  -0.5700 
 12 N       -7.7080    -4.6120    -0.5830 N.am  1 <1>  -0.6600 
 13 C       -8.5560    -5.7780    -0.9450 C.3   1 <1>   0.3200 
 14 C       -8.0570    -3.9700     0.7180 C.3   1 <1>   0.1400 
 15 C       -8.0440    -6.9900    -0.2020 C.2   1 <1>  -0.3320 
 16 C       -9.1030    -2.8700     0.5140 C.3   1 <1>   0.1200 
 17 N       -6.7950    -7.4520    -0.3820 N.pl3 1 <1>   0.0330 
 18 C       -8.6220    -7.8050     0.7070 C.2   1 <1>   0.0770 
 19 O       -9.2710    -2.1700     1.6990 O.3   1 <1>  -0.6800 
 20 C       -6.6880    -8.5200     0.4360 C.2   1 <1>   0.0060 
 21 N       -7.7670    -8.7650     1.1060 N.2   1 <1>  -0.5650 
 22 C       -5.4210    -9.3380     0.5480 C.3   1 <1>  -0.0600 
 23 H       -2.3190    -5.4390     1.1890 H     1 <1>   0.1500 
 24 H       -3.7660    -1.9110     3.0730 H     1 <1>   0.1500 
 25 H       -3.8860    -5.0970    -0.6820 H     1 <1>   0.1500 
 26 H       -5.3420    -1.5500     1.2180 H     1 <1>   0.1500 
 27 H       -6.4020    -2.3100    -0.7360 H     1 <1>   0.0800 
 28 H       -4.2390    -3.3150    -2.5760 H     1 <1>   0.0800 
 29 H       -4.4340    -1.6720    -2.0150 H     1 <1>   0.0800 
 30 H       -5.6430    -2.3930    -3.0530 H     1 <1>   0.0800 
 31 H       -8.5100    -5.9550    -2.0070 H     1 <1>   0.0800 
 32 H       -9.5820    -5.5850    -0.6830 H     1 <1>   0.0800 
 33 H       -7.1780    -3.5480     1.1690 H     1 <1>   0.0800 
 34 H       -8.4400    -4.7170     1.3920 H     1 <1>   0.0800 
 35 H      -10.0540    -3.2830     0.2240 H     1 <1>   0.0800 
 36 H       -8.7710    -2.1680    -0.2310 H     1 <1>   0.0800 
 37 H       -6.0930    -7.0420    -1.0110 H     1 <1>   0.2700 
 38 H       -9.6220    -7.7570     1.1040 H     1 <1>   0.1500 
 39 H       -9.6900    -2.7270     2.3850 H     1 <1>   0.4000 
 40 H       -5.1710    -9.7620    -0.4080 H     1 <1>   0.0800 
 41 H       -5.5660   -10.1370     1.2530 H     1 <1>   0.0800 
 42 H       -4.6120    -8.7180     0.8880 H     1 <1>   0.0800 
@<TRIPOS>BOND
  1   1   2  1   
  2   2   3  ar  
  3   2   4  ar  
  4   3   5  ar  
  5   3  23  1   
  6   4   6  ar  
  7   4  24  1   
  8   5   7  ar  
  9   5  25  1   
 10   6   7  ar  
 11   6  26  1   
 12   7   8  1   
 13   8   9  1   
 14   8  10  1   
 15   8  27  1   
 16   9  11  2   
 17   9  12  am  
 18  10  28  1   
 19  10  29  1   
 20  10  30  1   
 21  12  13  1   
 22  12  14  1   
 23  13  15  1   
 24  13  31  1   
 25  13  32  1   
 26  14  16  1   
 27  14  33  1   
 28  14  34  1   
 29  15  17  1   
 30  15  18  2   
 31  16  19  1   
 32  16  35  1   
 33  16  36  1   
 34  17  20  1   
 35  17  37  1   
 36  18  21  1   
 37  18  38  1   
 38  19  39  1   
 39  20  21  2   
 40  20  22  1   
 41  22  40  1   
 42  22  41  1   
 43  22  42  1   
@<TRIPOS>SUBSTRUCTURE
  1 ****   9 GROUP 4 **** **** 0

# MOE 2024.06 (io_trps.svl 2023.06)
