@<TRIPOS>MOLECULE
NONAME
50 52 1 0 0 
SMALL
USER_CHARGES


@<TRIPOS>ATOM
  1 O        0.4810    -2.8350    -1.5770 O.2   1 <1>  -0.5700 
  2 C       -0.4440    -2.6000    -0.8140 C.2   1 <1>   0.5440 
  3 N       -0.1240    -2.0980     0.4430 N.am  1 <1>  -0.6600 
  4 C       -1.8160    -2.8890    -1.2560 C.ar  1 <1>   0.3960 
  5 C        1.2460    -1.6130     0.7740 C.3   1 <1>   0.0600 
  6 C       -1.0970    -2.0110     1.5650 C.3   1 <1>   0.0600 
  7 N       -2.8350    -2.1000    -0.8740 N.ar  1 <1>  -0.6200 
  8 C       -2.0250    -3.9930    -2.0830 C.ar  1 <1>  -0.1500 
  9 C       -4.0470    -2.4130    -1.2990 C.ar  1 <1>   0.4100 
 10 C       -3.2870    -4.3190    -2.5330 C.ar  1 <1>  -0.1500 
 11 N       -5.0870    -1.6050    -0.8830 N.pl3 1 <1>  -0.8380 
 12 C       -4.3100    -3.5020    -2.1250 C.ar  1 <1>  -0.1500 
 13 C       -6.2010    -2.1970    -0.0950 C.3   1 <1>   0.2090 
 14 C       -4.8430    -0.1520    -0.6400 C.3   1 <1>   0.2090 
 15 C       -7.5640    -1.5340    -0.4380 C.3   1 <1>   0.0000 
 16 C       -6.1160     0.5620    -0.1550 C.3   1 <1>  -0.1600 
 17 C       -8.5250    -1.7940     0.7440 C.3   1 <1>   0.2000 
 18 C       -7.3720    -0.0330    -0.8090 C.3   1 <1>  -0.1600 
 19 C       -8.2440    -2.2990    -1.5860 C.3   1 <1>  -0.1600 
 20 O       -9.6610    -0.9840     0.6360 O.3   1 <1>  -0.5600 
 21 C       -8.9700    -3.2500     0.5590 C.3   1 <1>  -0.1600 
 22 C       -8.9160    -3.5240    -0.9510 C.3   1 <1>  -0.1600 
 23 C      -10.3190    -0.7230     1.8350 C.3   1 <1>   0.0400 
 24 H        1.1850    -0.6580     1.2670 H     1 <1>   0.0800 
 25 H        1.8380    -1.4980    -0.1170 H     1 <1>   0.0800 
 26 H        1.7320    -2.3200     1.4230 H     1 <1>   0.0800 
 27 H       -0.5910    -2.1320     2.5070 H     1 <1>   0.0800 
 28 H       -1.8410    -2.7840     1.4780 H     1 <1>   0.0800 
 29 H       -1.5860    -1.0520     1.5430 H     1 <1>   0.0800 
 30 H       -1.1820    -4.5950    -2.3740 H     1 <1>   0.1500 
 31 H       -3.4570    -5.1660    -3.1740 H     1 <1>   0.1500 
 32 H       -5.3190    -3.6820    -2.4410 H     1 <1>   0.1500 
 33 H       -6.2440    -3.2600    -0.2550 H     1 <1>   0.0800 
 34 H       -5.9760    -2.0410     0.9460 H     1 <1>   0.0800 
 35 H       -4.0560    -0.0260     0.0850 H     1 <1>   0.0800 
 36 H       -4.5160     0.2890    -1.5660 H     1 <1>   0.0800 
 37 H       -6.1890     0.4770     0.9140 H     1 <1>   0.0800 
 38 H       -6.0390     1.6090    -0.3900 H     1 <1>   0.0800 
 39 H       -8.0520    -1.6140     1.6940 H     1 <1>   0.0800 
 40 H       -7.2470     0.0470    -1.8750 H     1 <1>   0.0800 
 41 H       -8.2340     0.5560    -0.5520 H     1 <1>   0.0800 
 42 H       -9.0120    -1.6770    -2.0160 H     1 <1>   0.0800 
 43 H       -7.5490    -2.5670    -2.3620 H     1 <1>   0.0800 
 44 H       -8.2740    -3.8970     1.0600 H     1 <1>   0.0800 
 45 H       -9.9510    -3.4290     0.9610 H     1 <1>   0.0800 
 46 H       -8.3470    -4.4160    -1.1480 H     1 <1>   0.0800 
 47 H       -9.9080    -3.6470    -1.3510 H     1 <1>   0.0800 
 48 H      -11.1860    -0.1260     1.6150 H     1 <1>   0.0800 
 49 H       -9.6600    -0.1760     2.4870 H     1 <1>   0.0800 
 50 H      -10.6220    -1.6490     2.2900 H     1 <1>   0.0800 
@<TRIPOS>BOND
  1   1   2  2   
  2   2   3  am  
  3   2   4  1   
  4   3   5  1   
  5   3   6  1   
  6   4   7  ar  
  7   4   8  ar  
  8   5  24  1   
  9   5  25  1   
 10   5  26  1   
 11   6  27  1   
 12   6  28  1   
 13   6  29  1   
 14   7   9  ar  
 15   8  10  ar  
 16   8  30  1   
 17   9  11  1   
 18   9  12  ar  
 19  10  12  ar  
 20  10  31  1   
 21  11  13  1   
 22  11  14  1   
 23  12  32  1   
 24  13  15  1   
 25  13  33  1   
 26  13  34  1   
 27  14  16  1   
 28  14  35  1   
 29  14  36  1   
 30  15  17  1   
 31  15  18  1   
 32  15  19  1   
 33  16  18  1   
 34  16  37  1   
 35  16  38  1   
 36  17  20  1   
 37  17  21  1   
 38  17  39  1   
 39  18  40  1   
 40  18  41  1   
 41  19  22  1   
 42  19  42  1   
 43  19  43  1   
 44  20  23  1   
 45  21  22  1   
 46  21  44  1   
 47  21  45  1   
 48  22  46  1   
 49  22  47  1   
 50  23  48  1   
 51  23  49  1   
 52  23  50  1   
@<TRIPOS>SUBSTRUCTURE
  1 ****  11 GROUP 4 **** **** 0

# MOE 2024.06 (io_trps.svl 2023.06)
