@<TRIPOS>MOLECULE
NONAME
42 44 1 0 0 
SMALL
USER_CHARGES


@<TRIPOS>ATOM
  1 F       -2.9930     1.0180     0.7080 F     1 <1>  -0.3400 
  2 C       -2.4400     0.0240     0.0260 C.3   1 <1>   1.0200 
  3 F       -1.1520     0.0190     0.3350 F     1 <1>  -0.3400 
  4 F       -2.5250     0.3580    -1.2540 F     1 <1>  -0.3400 
  5 C       -3.1140    -1.3150     0.3180 C.3   1 <1>  -0.1600 
  6 C       -4.6220    -1.3370    -0.0290 C.3   1 <1>  -0.0990 
  7 C       -5.3090    -2.6630     0.2750 C.2   1 <1>   0.5690 
  8 O       -4.6440    -3.5480     0.7600 O.2   1 <1>  -0.5700 
  9 N       -6.6440    -2.8270     0.0040 N.am  1 <1>  -0.6600 
 10 C       -7.5520    -1.7800    -0.5690 C.3   1 <1>   0.1400 
 11 C       -7.3290    -4.1280     0.2590 C.3   1 <1>   0.1400 
 12 C       -8.7530    -1.5180     0.3610 C.3   1 <1>   0.1440 
 13 C       -8.5320    -3.9180     1.1880 C.3   1 <1>  -0.1600 
 14 C       -9.6520    -0.4860    -0.2950 C.ar  1 <1>   0.1660 
 15 C       -9.4910    -2.8440     0.6440 C.3   1 <1>  -0.1600 
 16 C       -8.3240    -0.8030     1.6730 C.3   1 <1>  -0.1600 
 17 N      -10.4140    -0.6970    -1.3420 N.ar  1 <1>  -0.6200 
 18 C       -9.5660     0.7250     0.3270 C.ar  1 <1>  -0.1440 
 19 C       -8.5990     0.6990     1.4830 C.3   1 <1>  -0.0170 
 20 C      -11.0970     0.3670    -1.7360 C.ar  1 <1>   0.7200 
 21 C      -10.3310     1.7550    -0.1660 C.ar  1 <1>   0.1600 
 22 N      -11.1150     1.5820    -1.2070 N.ar  1 <1>  -0.6200 
 23 N      -11.8940     0.1850    -2.7900 N.pl3 1 <1>  -0.9000 
 24 H       -2.9830    -1.5340     1.3620 H     1 <1>   0.0800 
 25 H       -2.6060    -2.0770    -0.2440 H     1 <1>   0.0800 
 26 H       -4.7440    -1.1330    -1.0770 H     1 <1>   0.0800 
 27 H       -5.1220    -0.5680     0.5300 H     1 <1>   0.0800 
 28 H       -7.9180    -2.1270    -1.5200 H     1 <1>   0.0800 
 29 H       -7.0320    -0.8560    -0.7430 H     1 <1>   0.0800 
 30 H       -6.6520    -4.8370     0.7050 H     1 <1>   0.0800 
 31 H       -7.6610    -4.5360    -0.6800 H     1 <1>   0.0800 
 32 H       -8.1720    -3.6380     2.1620 H     1 <1>   0.0800 
 33 H       -9.0590    -4.8490     1.2940 H     1 <1>   0.0800 
 34 H       -9.9250    -3.2030    -0.2740 H     1 <1>   0.0800 
 35 H      -10.2980    -2.6810     1.3360 H     1 <1>   0.0800 
 36 H       -7.2970    -0.9920     1.9300 H     1 <1>   0.0800 
 37 H       -8.9380    -1.1510     2.4860 H     1 <1>   0.0800 
 38 H       -7.6970     1.2210     1.2140 H     1 <1>   0.0800 
 39 H       -9.0240     1.1380     2.3690 H     1 <1>   0.0800 
 40 H      -10.3010     2.7270     0.2950 H     1 <1>   0.1500 
 41 H      -12.6290     0.8780    -2.8980 H     1 <1>   0.4000 
 42 H      -12.1400    -0.7810    -2.9840 H     1 <1>   0.4000 
@<TRIPOS>BOND
  1   1   2  1   
  2   2   3  1   
  3   2   4  1   
  4   2   5  1   
  5   5   6  1   
  6   5  24  1   
  7   5  25  1   
  8   6   7  1   
  9   6  26  1   
 10   6  27  1   
 11   7   8  2   
 12   7   9  am  
 13   9  10  1   
 14   9  11  1   
 15  10  12  1   
 16  10  28  1   
 17  10  29  1   
 18  11  13  1   
 19  11  30  1   
 20  11  31  1   
 21  12  14  1   
 22  12  15  1   
 23  12  16  1   
 24  13  15  1   
 25  13  32  1   
 26  13  33  1   
 27  14  17  ar  
 28  14  18  ar  
 29  15  34  1   
 30  15  35  1   
 31  16  19  1   
 32  16  36  1   
 33  16  37  1   
 34  17  20  ar  
 35  18  19  1   
 36  18  21  ar  
 37  19  38  1   
 38  19  39  1   
 39  20  22  ar  
 40  20  23  1   
 41  21  22  ar  
 42  21  40  1   
 43  23  41  1   
 44  23  42  1   
@<TRIPOS>SUBSTRUCTURE
  1 ****  10 GROUP 4 **** **** 0

# MOE 2024.06 (io_trps.svl 2023.06)
