@<TRIPOS>MOLECULE
NONAME
47 50 1 0 0 
SMALL
USER_CHARGES


@<TRIPOS>ATOM
  1 O        0.3890     0.0960    -0.1820 O.3   1 <1>  -0.5600 
  2 C        1.6550    -0.4610    -0.4120 C.3   1 <1>   0.3440 
  3 C        0.3350     1.4770    -0.3840 C.3   1 <1>   0.2950 
  4 C        1.6040    -1.9670    -0.1710 C.ar  1 <1>  -0.1440 
  5 C        2.6980     0.1990     0.5150 C.3   1 <1>   0.1100 
  6 C       -1.1020     1.9270    -0.1020 C.3   1 <1>  -0.1950 
  7 C        1.3450     2.1950     0.5370 C.3   1 <1>   0.1100 
  8 C        2.3580    -2.8180    -0.9680 C.ar  1 <1>  -0.1500 
  9 C        0.8270    -2.5070     0.8440 C.ar  1 <1>  -0.1500 
 10 N        2.7230     1.6710     0.3620 N.3   1 <1>  -0.8100 
 11 C       -2.1780     1.7790    -1.1310 C.3   1 <1>  -0.2000 
 12 C       -1.6720     3.1450    -0.7610 C.3   1 <1>  -0.2000 
 13 C        2.3370    -4.1850    -0.7500 C.ar  1 <1>  -0.1500 
 14 C        0.8050    -3.8730     1.0630 C.ar  1 <1>  -0.1500 
 15 C        3.6470     2.2850     1.3360 C.3   1 <1>   0.2900 
 16 C        1.5620    -4.7130     0.2660 C.ar  1 <1>  -0.1500 
 17 C        3.7730     3.7860     1.1240 C.2   1 <1>   0.0070 
 18 N        3.4980     4.6690     2.0180 N.2   1 <1>  -0.5650 
 19 N        4.1850     4.3580    -0.0170 N.pl3 1 <1>   0.3140 
 20 C        3.7630     5.8050     1.3630 C.2   1 <1>   0.3660 
 21 N        4.1750     5.6750     0.1460 N.2   1 <1>  -0.7070 
 22 C        4.5970     3.7380    -1.2960 C.3   1 <1>   0.0960 
 23 C        6.0610     3.2830    -1.2510 C.3   1 <1>  -0.2400 
 24 H        1.9150    -0.2730    -1.4400 H     1 <1>   0.0800 
 25 H        0.5790     1.6760    -1.4130 H     1 <1>   0.0800 
 26 H        3.6690    -0.2020     0.2830 H     1 <1>   0.0800 
 27 H        2.4630    -0.0640     1.5320 H     1 <1>   0.0800 
 28 H       -1.3800     1.7540     0.9230 H     1 <1>   0.1000 
 29 H        1.0310     2.0720     1.5590 H     1 <1>   0.0800 
 30 H        1.3240     3.2480     0.3120 H     1 <1>   0.0800 
 31 H        2.9650    -2.4220    -1.7630 H     1 <1>   0.1500 
 32 H        0.2310    -1.8600     1.4650 H     1 <1>   0.1500 
 33 H       -1.9180     1.3630    -2.0890 H     1 <1>   0.1000 
 34 H       -3.1560     1.4730    -0.8030 H     1 <1>   0.1000 
 35 H       -2.3110     3.7930    -0.1850 H     1 <1>   0.1000 
 36 H       -1.0820     3.6840    -1.4820 H     1 <1>   0.1000 
 37 H        2.9240    -4.8380    -1.3720 H     1 <1>   0.1500 
 38 H        0.1980    -4.2810     1.8520 H     1 <1>   0.1500 
 39 H        3.2980     2.1000     2.3380 H     1 <1>   0.0800 
 40 H        4.6220     1.8400     1.2360 H     1 <1>   0.0800 
 41 H        1.5450    -5.7760     0.4360 H     1 <1>   0.1500 
 42 H        3.6330     6.7610     1.8430 H     1 <1>   0.1500 
 43 H        3.9520     2.9070    -1.5080 H     1 <1>   0.0800 
 44 H        4.4690     4.4680    -2.0740 H     1 <1>   0.0800 
 45 H        6.2020     2.5290    -0.4970 H     1 <1>   0.0800 
 46 H        6.7010     4.1230    -1.0400 H     1 <1>   0.0800 
 47 H        6.3430     2.8700    -2.2030 H     1 <1>   0.0800 
@<TRIPOS>BOND
  1   1   2  1   
  2   1   3  1   
  3   2   4  1   
  4   2   5  1   
  5   2  24  1   
  6   3   6  1   
  7   3   7  1   
  8   3  25  1   
  9   4   8  ar  
 10   4   9  ar  
 11   5  10  1   
 12   5  26  1   
 13   5  27  1   
 14   6  11  1   
 15   6  12  1   
 16   6  28  1   
 17   7  10  1   
 18   7  29  1   
 19   7  30  1   
 20   8  13  ar  
 21   8  31  1   
 22   9  14  ar  
 23   9  32  1   
 24  10  15  1   
 25  11  12  1   
 26  11  33  1   
 27  11  34  1   
 28  12  35  1   
 29  12  36  1   
 30  13  16  ar  
 31  13  37  1   
 32  14  16  ar  
 33  14  38  1   
 34  15  17  1   
 35  15  39  1   
 36  15  40  1   
 37  16  41  1   
 38  17  18  2   
 39  17  19  1   
 40  18  20  1   
 41  19  21  1   
 42  19  22  1   
 43  20  21  2   
 44  20  42  1   
 45  22  23  1   
 46  22  43  1   
 47  22  44  1   
 48  23  45  1   
 49  23  46  1   
 50  23  47  1   
@<TRIPOS>SUBSTRUCTURE
  1 ****  10 GROUP 4 **** **** 0

# MOE 2024.06 (io_trps.svl 2023.06)
