@<TRIPOS>MOLECULE
NONAME
50 52 1 0 0 
SMALL
USER_CHARGES


@<TRIPOS>ATOM
  1 O        3.2860    -1.4840    -1.7240 O.2   1 <1>  -0.5700 
  2 C        2.1420    -1.2620    -1.3900 C.2   1 <1>   0.5690 
  3 N        1.7240     0.0240    -1.2510 N.am  1 <1>  -0.7300 
  4 C        1.1660    -2.4150    -1.0260 C.3   1 <1>   0.3410 
  5 C        2.6460     1.1770    -1.1600 C.3   1 <1>   0.2200 
  6 O        1.1030    -2.4330     0.4060 O.3   1 <1>  -0.3630 
  7 C        1.6830    -3.7830    -1.5070 C.3   1 <1>  -0.2400 
  8 C       -0.2250    -2.1710    -1.6500 C.3   1 <1>  -0.2400 
  9 C        3.2380     1.2120     0.2490 C.3   1 <1>   0.3430 
 10 C        1.8390     2.4660    -1.1950 C.3   1 <1>  -0.1600 
 11 C        0.1250    -3.0630     1.1010 C.ar  1 <1>   0.0820 
 12 N        2.1200     1.7180     1.0920 N.4   1 <1>  -0.9590 
 13 C        1.2500     2.6050     0.2180 C.3   1 <1>   0.3170 
 14 C        0.3700    -4.3480     1.6510 C.ar  1 <1>   0.0000 
 15 C       -1.0720    -2.4250     1.3080 C.ar  1 <1>  -0.1500 
 16 C        2.4680     2.2950     2.4140 C.3   1 <1>   0.2630 
 17 C       -0.2130     2.1150     0.2410 C.2   1 <1>   0.9060 
 18 C       -0.6900    -5.0030     2.3180 C.ar  1 <1>   0.0000 
 19 C        1.6190    -5.0040     1.5900 C.ar  1 <1>  -0.1500 
 20 C       -2.1070    -3.0670     1.9910 C.ar  1 <1>  -0.1500 
 21 O       -0.3680     0.8920     0.3930 O.co2 1 <1>  -0.9000 
 22 O       -1.1400     2.9140     0.1340 O.co2 1 <1>  -0.9000 
 23 C       -1.9200    -4.3330     2.4730 C.ar  1 <1>  -0.1500 
 24 C       -0.4800    -6.3020     2.8260 C.ar  1 <1>  -0.1500 
 25 C        1.7990    -6.2580     2.1020 C.ar  1 <1>  -0.1500 
 26 C        0.7340    -6.9200     2.7200 C.ar  1 <1>  -0.1500 
 27 H        0.7880     0.1700    -0.8150 H     1 <1>   0.3700 
 28 H        3.4010     1.1210    -1.9270 H     1 <1>   0.0800 
 29 H        1.7710    -3.7820    -2.5780 H     1 <1>   0.0800 
 30 H        1.0070    -4.5690    -1.2240 H     1 <1>   0.0800 
 31 H        2.6570    -3.9800    -1.0990 H     1 <1>   0.0800 
 32 H       -0.1300    -2.0820    -2.7170 H     1 <1>   0.0800 
 33 H       -0.6610    -1.2600    -1.2820 H     1 <1>   0.0800 
 34 H       -0.8890    -2.9910    -1.4450 H     1 <1>   0.0800 
 35 H        4.0630     1.9030     0.2750 H     1 <1>   0.0800 
 36 H        3.5680     0.2330     0.5560 H     1 <1>   0.0800 
 37 H        1.0790     2.4550    -1.9590 H     1 <1>   0.0800 
 38 H        2.4900     3.3000    -1.3810 H     1 <1>   0.0800 
 39 H        1.4640     0.9110     1.2310 H     1 <1>   0.4500 
 40 H        1.2690     3.6300     0.5420 H     1 <1>   0.0800 
 41 H       -1.2320    -1.4240     0.9470 H     1 <1>   0.1500 
 42 H        3.0900     3.1660     2.2900 H     1 <1>   0.0800 
 43 H        2.9960     1.5670     3.0090 H     1 <1>   0.0800 
 44 H        1.5690     2.5800     2.9370 H     1 <1>   0.0800 
 45 H        2.4430    -4.4900     1.1320 H     1 <1>   0.1500 
 46 H       -3.0400    -2.5490     2.1260 H     1 <1>   0.1500 
 47 H       -2.7170    -4.8360     2.9910 H     1 <1>   0.1500 
 48 H       -1.3010    -6.8000     3.3080 H     1 <1>   0.1500 
 49 H        2.7560    -6.7470     2.0400 H     1 <1>   0.1500 
 50 H        0.8890    -7.9110     3.1110 H     1 <1>   0.1500 
@<TRIPOS>BOND
  1   1   2  2   
  2   2   3  am  
  3   2   4  1   
  4   3   5  1   
  5   3  27  1   
  6   4   6  1   
  7   4   7  1   
  8   4   8  1   
  9   5   9  1   
 10   5  10  1   
 11   5  28  1   
 12   6  11  1   
 13   7  29  1   
 14   7  30  1   
 15   7  31  1   
 16   8  32  1   
 17   8  33  1   
 18   8  34  1   
 19   9  12  1   
 20   9  35  1   
 21   9  36  1   
 22  10  13  1   
 23  10  37  1   
 24  10  38  1   
 25  11  14  ar  
 26  11  15  ar  
 27  12  13  1   
 28  12  16  1   
 29  12  39  1   
 30  13  17  1   
 31  13  40  1   
 32  14  18  ar  
 33  14  19  ar  
 34  15  20  ar  
 35  15  41  1   
 36  16  42  1   
 37  16  43  1   
 38  16  44  1   
 39  17  21  ar  
 40  17  22  ar  
 41  18  23  ar  
 42  18  24  ar  
 43  19  25  ar  
 44  19  45  1   
 45  20  23  ar  
 46  20  46  1   
 47  23  47  1   
 48  24  26  ar  
 49  24  48  1   
 50  25  26  ar  
 51  25  49  1   
 52  26  50  1   
@<TRIPOS>SUBSTRUCTURE
  1 ****   6 GROUP 4 **** **** 0

# MOE 2024.06 (io_trps.svl 2023.06)
