@<TRIPOS>MOLECULE
NONAME
56 60 1 0 0 
SMALL
USER_CHARGES


@<TRIPOS>ATOM
  1 N        0.3600     0.2120     0.3310 N.ar  1 <1>  -0.6200 
  2 C       -0.5320     1.0090     0.9410 C.ar  1 <1>   0.6200 
  3 C        1.2380     0.8200    -0.4270 C.ar  1 <1>   0.1660 
  4 N       -0.5560     2.3460     0.8450 N.ar  1 <1>  -0.6200 
  5 C       -1.5490     0.3740     1.7690 C.ar  1 <1>   0.0000 
  6 C        1.2920     2.1700    -0.5730 C.ar  1 <1>  -0.1430 
  7 C        2.3260     0.1210    -1.2080 C.3   1 <1>   0.1440 
  8 C        0.3560     2.9180     0.0920 C.ar  1 <1>   0.1600 
  9 C       -1.3240    -0.8520     2.4030 C.ar  1 <1>  -0.1500 
 10 C       -2.8020     0.9630     1.9690 C.ar  1 <1>  -0.1500 
 11 C        2.4290     2.6000    -1.4650 C.3   1 <1>  -0.0160 
 12 C        3.3160    -0.4480    -0.1790 C.3   1 <1>   0.3430 
 13 C        1.7720    -1.0180    -2.0910 C.3   1 <1>  -0.1600 
 14 C        2.9460     1.2720    -2.0510 C.3   1 <1>  -0.1600 
 15 C       -2.2900    -1.4550     3.1880 C.ar  1 <1>  -0.1500 
 16 C       -3.7720     0.3670     2.7530 C.ar  1 <1>  -0.1500 
 17 N        4.3920    -1.2660    -0.8330 N.4   1 <1>  -0.9590 
 18 C        2.9050    -1.8580    -2.7080 C.3   1 <1>  -0.1600 
 19 C       -3.5180    -0.8460     3.3650 C.ar  1 <1>  -0.1500 
 20 C        3.8660    -2.3950    -1.6430 C.3   1 <1>   0.3430 
 21 C        5.4490    -1.6450     0.1390 C.3   1 <1>   0.5230 
 22 C        6.3640    -0.4370     0.3030 C.2   1 <1>   0.0060 
 23 N        6.3380     0.5820    -0.5050 N.2   1 <1>  -0.5650 
 24 N        7.2870    -0.3250     1.2920 N.pl3 1 <1>   0.0480 
 25 C        7.2910     1.4000    -0.0220 C.2   1 <1>   0.0770 
 26 C        7.8750     0.8630     1.0690 C.2   1 <1>  -0.3020 
 27 C        7.6330    -1.2570     2.3910 C.3   1 <1>   0.0960 
 28 C        8.5550    -2.3710     1.8880 C.3   1 <1>  -0.2400 
 29 H        0.3520     3.9920     0.0100 H     1 <1>   0.1500 
 30 H       -0.3760    -1.3430     2.2800 H     1 <1>   0.1500 
 31 H       -3.0200     1.9070     1.5010 H     1 <1>   0.1500 
 32 H        3.1920     3.0830    -0.8780 H     1 <1>   0.0800 
 33 H        2.0900     3.2680    -2.2390 H     1 <1>   0.0800 
 34 H        2.7670    -1.0590     0.5180 H     1 <1>   0.0800 
 35 H        3.7570     0.3710     0.3670 H     1 <1>   0.0800 
 36 H        1.1420    -0.6150    -2.8660 H     1 <1>   0.0800 
 37 H        1.1540    -1.6630    -1.4880 H     1 <1>   0.0800 
 38 H        2.6030     1.2060    -3.0690 H     1 <1>   0.0800 
 39 H        4.0210     1.2520    -2.0600 H     1 <1>   0.0800 
 40 H       -2.0880    -2.4000     3.6630 H     1 <1>   0.1500 
 41 H       -4.7260     0.8470     2.8870 H     1 <1>   0.1500 
 42 H        4.9040    -0.6040    -1.4460 H     1 <1>   0.4500 
 43 H        3.4570    -1.2710    -3.4230 H     1 <1>   0.0800 
 44 H        2.4780    -2.6890    -3.2420 H     1 <1>   0.0800 
 45 H       -4.2720    -1.3130     3.9760 H     1 <1>   0.1500 
 46 H        3.3400    -3.0880    -1.0050 H     1 <1>   0.0800 
 47 H        4.6780    -2.9190    -2.1220 H     1 <1>   0.0800 
 48 H        6.0290    -2.4680    -0.2440 H     1 <1>   0.0800 
 49 H        5.0130    -1.9260     1.0830 H     1 <1>   0.0800 
 50 H        7.5160     2.3460    -0.4890 H     1 <1>   0.1500 
 51 H        8.6650     1.2610     1.6820 H     1 <1>   0.1500 
 52 H        6.7310    -1.6720     2.8040 H     1 <1>   0.0800 
 53 H        8.1290    -0.7010     3.1680 H     1 <1>   0.0800 
 54 H        8.0760    -2.9610     1.1280 H     1 <1>   0.0800 
 55 H        8.8170    -3.0210     2.7050 H     1 <1>   0.0800 
 56 H        9.4630    -1.9510     1.4910 H     1 <1>   0.0800 
@<TRIPOS>BOND
  1   1   2  ar  
  2   1   3  ar  
  3   2   4  ar  
  4   2   5  1   
  5   3   6  ar  
  6   3   7  1   
  7   4   8  ar  
  8   5   9  ar  
  9   5  10  ar  
 10   6   8  ar  
 11   6  11  1   
 12   7  12  1   
 13   7  13  1   
 14   7  14  1   
 15   8  29  1   
 16   9  15  ar  
 17   9  30  1   
 18  10  16  ar  
 19  10  31  1   
 20  11  14  1   
 21  11  32  1   
 22  11  33  1   
 23  12  17  1   
 24  12  34  1   
 25  12  35  1   
 26  13  18  1   
 27  13  36  1   
 28  13  37  1   
 29  14  38  1   
 30  14  39  1   
 31  15  19  ar  
 32  15  40  1   
 33  16  19  ar  
 34  16  41  1   
 35  17  20  1   
 36  17  21  1   
 37  17  42  1   
 38  18  20  1   
 39  18  43  1   
 40  18  44  1   
 41  19  45  1   
 42  20  46  1   
 43  20  47  1   
 44  21  22  1   
 45  21  48  1   
 46  21  49  1   
 47  22  23  2   
 48  22  24  1   
 49  23  25  1   
 50  24  26  1   
 51  24  27  1   
 52  25  26  2   
 53  25  50  1   
 54  26  51  1   
 55  27  28  1   
 56  27  52  1   
 57  27  53  1   
 58  28  54  1   
 59  28  55  1   
 60  28  56  1   
@<TRIPOS>SUBSTRUCTURE
  1 ****  12 GROUP 4 **** **** 0

# MOE 2024.06 (io_trps.svl 2023.06)
