@<TRIPOS>MOLECULE
NONAME
56 58 1 0 0 
SMALL
USER_CHARGES


@<TRIPOS>ATOM
  1 O       -1.4460     0.1960     0.1230 O.2   1 <1>  -0.5700 
  2 C       -2.2820     1.0540     0.3520 C.2   1 <1>   0.5440 
  3 N       -3.5120     0.6390     0.8110 N.am  1 <1>  -0.6600 
  4 C       -1.9780     2.4550     0.1150 C.ar  1 <1>   0.0860 
  5 C       -3.6790    -0.7380     1.3560 C.3   1 <1>   0.1400 
  6 C       -4.7830     1.2120     0.2820 C.3   1 <1>   0.1400 
  7 C       -1.1520     2.8430    -0.9400 C.ar  1 <1>  -0.1500 
  8 C       -2.4880     3.4660     0.9300 C.ar  1 <1>  -0.1500 
  9 C       -4.1290    -1.6670     0.2050 C.3   1 <1>   0.4230 
 10 C       -5.3070     0.2960    -0.8350 C.3   1 <1>  -0.1600 
 11 C       -0.8610     4.1740    -1.1800 C.ar  1 <1>  -0.1500 
 12 C       -2.2010     4.7980     0.6950 C.ar  1 <1>  -0.1500 
 13 N       -4.2090    -3.1210     0.5730 N.4   1 <1>  -0.9590 
 14 C       -5.4810    -1.1770    -0.3620 C.3   1 <1>  -0.1060 
 15 C       -1.3880     5.1630    -0.3650 C.ar  1 <1>  -0.1430 
 16 C       -4.5260    -3.9720    -0.6010 C.3   1 <1>   0.3430 
 17 C       -3.0510    -3.6350     1.3500 C.3   1 <1>   0.2630 
 18 C       -6.5430    -1.2730     0.7510 C.2   1 <1>   0.9060 
 19 C       -5.8790    -2.0470    -1.5780 C.3   1 <1>  -0.1600 
 20 C       -1.0690     6.6260    -0.6260 C.3   1 <1>  -0.0170 
 21 C       -5.8530    -3.5440    -1.2310 C.3   1 <1>  -0.1600 
 22 O       -6.4480    -2.1790     1.5960 O.co2 1 <1>  -0.9000 
 23 O       -7.4550    -0.4490     0.7930 O.co2 1 <1>  -0.9000 
 24 C        0.1920     7.0470     0.1370 C.3   1 <1>  -0.1600 
 25 C        0.5370     8.5210    -0.1110 C.3   1 <1>  -0.1600 
 26 C        1.7980     8.9270     0.6570 C.3   1 <1>  -0.2400 
 27 H       -2.7400    -1.0640     1.7640 H     1 <1>   0.0800 
 28 H       -4.4060    -0.7210     2.1500 H     1 <1>   0.0800 
 29 H       -5.5070     1.2820     1.0790 H     1 <1>   0.0800 
 30 H       -4.6260     2.2010    -0.1110 H     1 <1>   0.0800 
 31 H       -0.7320     2.0840    -1.5770 H     1 <1>   0.1500 
 32 H       -3.1150     3.2000     1.7630 H     1 <1>   0.1500 
 33 H       -3.3870    -1.5660    -0.5700 H     1 <1>   0.0800 
 34 H       -6.2550     0.6790    -1.1740 H     1 <1>   0.0800 
 35 H       -4.6250     0.3460    -1.6650 H     1 <1>   0.0800 
 36 H       -0.2190     4.4380    -2.0020 H     1 <1>   0.1500 
 37 H       -2.6120     5.5530     1.3430 H     1 <1>   0.1500 
 38 H       -5.0730    -3.1200     1.1820 H     1 <1>   0.4500 
 39 H       -3.7370    -3.8870    -1.3300 H     1 <1>   0.0800 
 40 H       -4.5990    -5.0030    -0.2940 H     1 <1>   0.0800 
 41 H       -2.1410    -3.5190     0.7840 H     1 <1>   0.0800 
 42 H       -3.1930    -4.6780     1.5800 H     1 <1>   0.0800 
 43 H       -2.9570    -3.0950     2.2780 H     1 <1>   0.0800 
 44 H       -6.8690    -1.7710    -1.9030 H     1 <1>   0.0800 
 45 H       -5.2010    -1.8650    -2.3940 H     1 <1>   0.0800 
 46 H       -0.9240     6.7810    -1.6810 H     1 <1>   0.0800 
 47 H       -1.9010     7.2360    -0.3180 H     1 <1>   0.0800 
 48 H       -6.0230    -4.1200    -2.1240 H     1 <1>   0.0800 
 49 H       -6.6550    -3.7740    -0.5490 H     1 <1>   0.0800 
 50 H        0.0370     6.8840     1.1900 H     1 <1>   0.0800 
 51 H        1.0150     6.4270    -0.1750 H     1 <1>   0.0800 
 52 H        0.6960     8.6850    -1.1630 H     1 <1>   0.0800 
 53 H       -0.2840     9.1430     0.2040 H     1 <1>   0.0800 
 54 H        2.6370     8.3320     0.3430 H     1 <1>   0.0800 
 55 H        1.6540     8.7930     1.7150 H     1 <1>   0.0800 
 56 H        2.0240     9.9620     0.4710 H     1 <1>   0.0800 
@<TRIPOS>BOND
  1   1   2  2   
  2   2   3  am  
  3   2   4  1   
  4   3   5  1   
  5   3   6  1   
  6   4   7  ar  
  7   4   8  ar  
  8   5   9  1   
  9   5  27  1   
 10   5  28  1   
 11   6  10  1   
 12   6  29  1   
 13   6  30  1   
 14   7  11  ar  
 15   7  31  1   
 16   8  12  ar  
 17   8  32  1   
 18   9  13  1   
 19   9  14  1   
 20   9  33  1   
 21  10  14  1   
 22  10  34  1   
 23  10  35  1   
 24  11  15  ar  
 25  11  36  1   
 26  12  15  ar  
 27  12  37  1   
 28  13  16  1   
 29  13  17  1   
 30  13  38  1   
 31  14  18  1   
 32  14  19  1   
 33  15  20  1   
 34  16  21  1   
 35  16  39  1   
 36  16  40  1   
 37  17  41  1   
 38  17  42  1   
 39  17  43  1   
 40  18  22  ar  
 41  18  23  ar  
 42  19  21  1   
 43  19  44  1   
 44  19  45  1   
 45  20  24  1   
 46  20  46  1   
 47  20  47  1   
 48  21  48  1   
 49  21  49  1   
 50  24  25  1   
 51  24  50  1   
 52  24  51  1   
 53  25  26  1   
 54  25  52  1   
 55  25  53  1   
 56  26  54  1   
 57  26  55  1   
 58  26  56  1   
@<TRIPOS>SUBSTRUCTURE
  1 ****   2 GROUP 4 **** **** 0

# MOE 2024.06 (io_trps.svl 2023.06)
