@<TRIPOS>MOLECULE
NONAME
41 41 1 0 0 
SMALL
USER_CHARGES


@<TRIPOS>ATOM
  1 O       -0.0620     0.3250     0.0120 O.2   1 <1>  -0.5700 
  2 C        1.0310    -0.2010    -0.0040 C.2   1 <1>   0.5690 
  3 N        2.1990     0.5030     0.0920 N.am  1 <1>  -0.4940 
  4 C        1.1530    -1.7450    -0.1380 C.3   1 <1>   0.3410 
  5 C        2.4510     1.8890     0.2210 C.2   1 <1>  -0.0880 
  6 O        2.5370    -2.0800    -0.1330 O.3   1 <1>  -0.5600 
  7 C        0.4670    -2.4300     1.0570 C.3   1 <1>  -0.2400 
  8 C        0.5300    -2.2060    -1.4670 C.3   1 <1>  -0.2400 
  9 N        3.6850     2.4650     0.2930 N.pl3 1 <1>   0.3140 
 10 C        1.5570     2.9010     0.2980 C.2   1 <1>  -0.1500 
 11 C        2.9380    -3.4170    -0.2470 C.3   1 <1>   0.0400 
 12 N        3.5900     3.8120     0.4130 N.2   1 <1>  -0.7070 
 13 C        5.0250     1.8110     0.2500 C.3   1 <1>   0.1760 
 14 C        2.3190     4.0560     0.4140 C.2   1 <1>   0.1080 
 15 C        5.2560     1.1280    -1.1160 C.3   1 <1>  -0.1600 
 16 C        5.2120     0.8550     1.4420 C.3   1 <1>  -0.2400 
 17 C        1.7630     5.4550     0.5310 C.3   1 <1>  -0.0590 
 18 C        6.7000     0.6470    -1.3170 C.3   1 <1>  -0.2400 
 19 H        3.0100    -0.1230     0.0620 H     1 <1>   0.3700 
 20 H        0.9780    -2.1790     1.9690 H     1 <1>   0.0800 
 21 H        0.4310    -3.4960     0.9380 H     1 <1>   0.0800 
 22 H       -0.5470    -2.0800     1.1360 H     1 <1>   0.0800 
 23 H        1.0840    -1.8000    -2.2940 H     1 <1>   0.0800 
 24 H       -0.4810    -1.8430    -1.5340 H     1 <1>   0.0800 
 25 H        0.4930    -3.2760    -1.5410 H     1 <1>   0.0800 
 26 H        0.4850     2.8380     0.2750 H     1 <1>   0.1500 
 27 H        4.0130    -3.4420    -0.2170 H     1 <1>   0.0800 
 28 H        2.6060    -3.8230    -1.1850 H     1 <1>   0.0800 
 29 H        2.5540    -3.9890     0.5780 H     1 <1>   0.0800 
 30 H        5.7470     2.6020     0.3490 H     1 <1>   0.0800 
 31 H        5.0280     1.8410    -1.8910 H     1 <1>   0.0800 
 32 H        4.5920     0.2900    -1.2310 H     1 <1>   0.0800 
 33 H        4.5990    -0.0220     1.3420 H     1 <1>   0.0800 
 34 H        4.9560     1.3620     2.3570 H     1 <1>   0.0800 
 35 H        6.2380     0.5460     1.5130 H     1 <1>   0.0800 
 36 H        0.6900     5.4350     0.5110 H     1 <1>   0.0800 
 37 H        2.1220     6.0510    -0.2870 H     1 <1>   0.0800 
 38 H        2.0920     5.8930     1.4550 H     1 <1>   0.0800 
 39 H        7.3910     1.4610    -1.1820 H     1 <1>   0.0800 
 40 H        6.8200     0.2640    -2.3160 H     1 <1>   0.0800 
 41 H        6.9460    -0.1390    -0.6260 H     1 <1>   0.0800 
@<TRIPOS>BOND
  1   1   2  2   
  2   2   3  am  
  3   2   4  1   
  4   3   5  1   
  5   3  19  1   
  6   4   6  1   
  7   4   7  1   
  8   4   8  1   
  9   5   9  1   
 10   5  10  2   
 11   6  11  1   
 12   7  20  1   
 13   7  21  1   
 14   7  22  1   
 15   8  23  1   
 16   8  24  1   
 17   8  25  1   
 18   9  12  1   
 19   9  13  1   
 20  10  14  1   
 21  10  26  1   
 22  11  27  1   
 23  11  28  1   
 24  11  29  1   
 25  12  14  2   
 26  13  15  1   
 27  13  16  1   
 28  13  30  1   
 29  14  17  1   
 30  15  18  1   
 31  15  31  1   
 32  15  32  1   
 33  16  33  1   
 34  16  34  1   
 35  16  35  1   
 36  17  36  1   
 37  17  37  1   
 38  17  38  1   
 39  18  39  1   
 40  18  40  1   
 41  18  41  1   
@<TRIPOS>SUBSTRUCTURE
  1 ****   3 GROUP 4 **** **** 0

# MOE 2024.06 (io_trps.svl 2023.06)
