@<TRIPOS>MOLECULE
NONAME
41 44 1 0 0 
SMALL
USER_CHARGES


@<TRIPOS>ATOM
  1 O       -0.3400     0.1430     0.7390 O.2   1 <1>  -0.5700 
  2 C       -1.3830     0.7630     0.7660 C.2   1 <1>   0.7160 
  3 N       -2.5560     0.0740     0.5560 N.am  1 <1>  -0.6600 
  4 C       -1.3470     2.1920     0.9820 C.2   1 <1>  -0.0860 
  5 C       -3.8660     0.6710     0.1950 C.3   1 <1>   0.1400 
  6 C       -2.5770    -1.3950     0.3210 C.3   1 <1>   0.1400 
  7 C       -0.2700     3.0530     0.6860 C.2   1 <1>   0.2120 
  8 C       -2.2830     3.0300     1.5160 C.2   1 <1>  -0.3020 
  9 C       -4.6500    -0.4620    -0.4650 C.3   1 <1>   0.2000 
 10 C       -4.0490    -1.7500     0.0910 C.3   1 <1>  -0.0800 
 11 N       -0.5490     4.2970     0.9840 N.2   1 <1>  -0.7070 
 12 N        0.9880     2.6450     0.1100 N.pl3 1 <1>   0.6470 
 13 N       -1.7840     4.2720     1.5070 N.pl3 1 <1>   0.3000 
 14 O       -6.0000    -0.3900    -0.1580 O.3   1 <1>  -0.6800 
 15 C       -4.2720    -2.9550    -0.8390 C.3   1 <1>  -0.0160 
 16 N        2.1930     2.9590     0.5730 N.2   1 <1>  -0.4180 
 17 C        1.1970     1.9780    -1.0160 C.2   1 <1>   0.0360 
 18 C       -3.7110    -4.2370    -0.2470 C.ar  1 <1>   0.1670 
 19 N        3.0530     2.4840    -0.2560 N.2   1 <1>   0.0000 
 20 N        2.4460     1.8670    -1.2620 N.2   1 <1>  -0.3380 
 21 N       -2.4110    -4.4360    -0.4020 N.ar  1 <1>  -0.6200 
 22 C       -4.5570    -5.1160     0.4130 C.ar  1 <1>  -0.1500 
 23 C       -1.9350    -5.5560     0.1190 C.ar  1 <1>   0.1600 
 24 C       -4.0480    -6.2790     0.9510 C.ar  1 <1>  -0.1500 
 25 C       -2.6960    -6.4950     0.7940 C.ar  1 <1>  -0.1500 
 26 H       -4.3630     0.9960     1.0920 H     1 <1>   0.0800 
 27 H       -3.7380     1.4940    -0.4860 H     1 <1>   0.0800 
 28 H       -1.9870    -1.6230    -0.5520 H     1 <1>   0.0800 
 29 H       -2.1710    -1.9280     1.1650 H     1 <1>   0.0800 
 30 H       -3.2570     2.8030     1.9070 H     1 <1>   0.1500 
 31 H       -4.5400    -0.4060    -1.5350 H     1 <1>   0.0800 
 32 H       -4.4780    -1.9610     1.0540 H     1 <1>   0.0800 
 33 H       -2.2450     5.1250     1.8530 H     1 <1>   0.2700 
 34 H       -6.1460    -0.5420     0.7950 H     1 <1>   0.4000 
 35 H       -3.8040    -2.7780    -1.7920 H     1 <1>   0.0800 
 36 H       -5.3260    -3.0760    -1.0160 H     1 <1>   0.0800 
 37 H        0.4020     1.5920    -1.6220 H     1 <1>   0.1500 
 38 H       -5.6050    -4.8970     0.5060 H     1 <1>   0.1500 
 39 H       -0.8800    -5.7360     0.0010 H     1 <1>   0.1500 
 40 H       -4.6750    -6.9840     1.4690 H     1 <1>   0.1500 
 41 H       -2.2340    -7.3810     1.1890 H     1 <1>   0.1500 
@<TRIPOS>BOND
  1   1   2  2   
  2   2   3  am  
  3   2   4  1   
  4   3   5  1   
  5   3   6  1   
  6   4   7  1   
  7   4   8  2   
  8   5   9  1   
  9   5  26  1   
 10   5  27  1   
 11   6  10  1   
 12   6  28  1   
 13   6  29  1   
 14   7  11  2   
 15   7  12  1   
 16   8  13  1   
 17   8  30  1   
 18   9  10  1   
 19   9  14  1   
 20   9  31  1   
 21  10  15  1   
 22  10  32  1   
 23  11  13  1   
 24  12  16  1   
 25  12  17  1   
 26  13  33  1   
 27  14  34  1   
 28  15  18  1   
 29  15  35  1   
 30  15  36  1   
 31  16  19  2   
 32  17  20  2   
 33  17  37  1   
 34  18  21  ar  
 35  18  22  ar  
 36  19  20  1   
 37  21  23  ar  
 38  22  24  ar  
 39  22  38  1   
 40  23  25  ar  
 41  23  39  1   
 42  24  25  ar  
 43  24  40  1   
 44  25  41  1   
@<TRIPOS>SUBSTRUCTURE
  1 ****   3 GROUP 4 **** **** 0

# MOE 2024.06 (io_trps.svl 2023.06)
