@<TRIPOS>MOLECULE
NONAME
46 48 1 0 0 
SMALL
USER_CHARGES


@<TRIPOS>ATOM
  1 S       -0.5520    -0.3060    -0.0650 S.3   1 <1>  -0.3320 
  2 C       -0.2970     1.4750    -0.1820 C.ar  1 <1>   0.1020 
  3 C       -1.2660    -0.8490    -1.6930 C.3   1 <1>   0.1310 
  4 C        0.1320     2.1240     0.9600 C.ar  1 <1>  -0.1500 
  5 C       -0.5160     2.1760    -1.3580 C.ar  1 <1>  -0.1500 
  6 C       -1.5720    -2.3410    -1.6930 C.2   1 <1>   0.5690 
  7 C        0.3430     3.4930     0.9410 C.ar  1 <1>   0.0830 
  8 C       -0.3050     3.5450    -1.3790 C.ar  1 <1>  -0.1500 
  9 O       -0.8960    -3.0510    -2.4000 O.2   1 <1>  -0.5700 
 10 N       -2.6040    -2.8530    -0.9500 N.am  1 <1>  -0.6600 
 11 O        0.7620     4.0630     2.0980 O.3   1 <1>  -0.3630 
 12 C        0.1210     4.2030    -0.2370 C.ar  1 <1>  -0.1500 
 13 C       -3.4660    -2.1050     0.0000 C.3   1 <1>   0.1400 
 14 C       -2.9050    -4.3040    -0.8970 C.3   1 <1>   0.1400 
 15 C        1.0210     5.4470     2.1840 C.3   1 <1>   0.0400 
 16 C       -4.3700    -3.1640     0.6340 C.3   1 <1>   0.2000 
 17 C       -3.6590    -4.4990     0.4190 C.3   1 <1>  -0.0800 
 18 O       -4.5490    -2.9390     1.9890 O.3   1 <1>  -0.6800 
 19 C       -4.6300    -5.6920     0.4210 C.3   1 <1>  -0.0160 
 20 C       -3.9030    -7.0120     0.2200 C.ar  1 <1>   0.1670 
 21 N       -3.6510    -7.3640    -1.0300 N.ar  1 <1>  -0.6200 
 22 C       -3.5360    -7.7800     1.3240 C.ar  1 <1>   0.1600 
 23 C       -3.0110    -8.5190    -1.1030 C.ar  1 <1>   0.1600 
 24 N       -2.8970    -8.9360     1.2540 N.ar  1 <1>  -0.6200 
 25 C       -2.6460    -9.2790     0.0020 C.ar  1 <1>   0.1600 
 26 H       -2.1610    -0.2810    -1.8620 H     1 <1>   0.0800 
 27 H       -0.5350    -0.6260    -2.4480 H     1 <1>   0.0800 
 28 H        0.3030     1.5710     1.8650 H     1 <1>   0.1500 
 29 H       -0.8410     1.6850    -2.2540 H     1 <1>   0.1500 
 30 H       -0.4720     4.1000    -2.2870 H     1 <1>   0.1500 
 31 H        0.2760     5.2640    -0.2840 H     1 <1>   0.1500 
 32 H       -2.8550    -1.6330     0.7490 H     1 <1>   0.0800 
 33 H       -4.0520    -1.3690    -0.5230 H     1 <1>   0.0800 
 34 H       -3.5230    -4.5650    -1.7390 H     1 <1>   0.0800 
 35 H       -2.0020    -4.8910    -0.9270 H     1 <1>   0.0800 
 36 H        1.3440     5.6640     3.1860 H     1 <1>   0.0800 
 37 H        0.1170     5.9860     1.9660 H     1 <1>   0.0800 
 38 H        1.8010     5.6990     1.4870 H     1 <1>   0.0800 
 39 H       -5.3360    -3.1530     0.1570 H     1 <1>   0.0800 
 40 H       -2.9190    -4.6380     1.1880 H     1 <1>   0.0800 
 41 H       -3.6840    -2.8840     2.4410 H     1 <1>   0.4000 
 42 H       -5.3610    -5.5740    -0.3600 H     1 <1>   0.0800 
 43 H       -5.1600    -5.7140     1.3570 H     1 <1>   0.0800 
 44 H       -3.7800    -7.4220     2.3090 H     1 <1>   0.1500 
 45 H       -2.7620    -8.8820    -2.0840 H     1 <1>   0.1500 
 46 H       -2.1270   -10.2070    -0.1590 H     1 <1>   0.1500 
@<TRIPOS>BOND
  1   1   2  1   
  2   1   3  1   
  3   2   4  ar  
  4   2   5  ar  
  5   3   6  1   
  6   3  26  1   
  7   3  27  1   
  8   4   7  ar  
  9   4  28  1   
 10   5   8  ar  
 11   5  29  1   
 12   6   9  2   
 13   6  10  am  
 14   7  11  1   
 15   7  12  ar  
 16   8  12  ar  
 17   8  30  1   
 18  10  13  1   
 19  10  14  1   
 20  11  15  1   
 21  12  31  1   
 22  13  16  1   
 23  13  32  1   
 24  13  33  1   
 25  14  17  1   
 26  14  34  1   
 27  14  35  1   
 28  15  36  1   
 29  15  37  1   
 30  15  38  1   
 31  16  17  1   
 32  16  18  1   
 33  16  39  1   
 34  17  19  1   
 35  17  40  1   
 36  18  41  1   
 37  19  20  1   
 38  19  42  1   
 39  19  43  1   
 40  20  21  ar  
 41  20  22  ar  
 42  21  23  ar  
 43  22  24  ar  
 44  22  44  1   
 45  23  25  ar  
 46  23  45  1   
 47  24  25  ar  
 48  25  46  1   
@<TRIPOS>SUBSTRUCTURE
  1 ****  10 GROUP 4 **** **** 0

# MOE 2024.06 (io_trps.svl 2023.06)
