@<TRIPOS>MOLECULE
NONAME
49 51 1 0 0 
SMALL
USER_CHARGES


@<TRIPOS>ATOM
  1 O       -3.6140     1.4960    -3.1440 O.2   1 <1>  -0.5700 
  2 C       -2.7780     1.6130    -2.2790 C.2   1 <1>   0.5690 
  3 N       -2.3150     0.5400    -1.5890 N.am  1 <1>  -0.7300 
  4 C       -2.2370     3.0010    -1.9570 C.3   1 <1>   0.1810 
  5 C       -2.7520    -0.8610    -1.7640 C.3   1 <1>   0.2200 
  6 O       -1.4240     2.9720    -0.7900 O.3   1 <1>  -0.3630 
  7 C       -3.6090    -1.2660    -0.5780 C.3   1 <1>  -0.0800 
  8 C       -1.5540    -1.7970    -1.6260 C.3   1 <1>   0.1200 
  9 C       -0.8030     4.0840    -0.3150 C.ar  1 <1>   0.0820 
 10 C       -2.5480    -1.6590     0.4530 C.3   1 <1>   0.1200 
 11 C       -4.5450    -2.4380    -0.9290 C.3   1 <1>  -0.0160 
 12 O       -1.4290    -2.0920    -0.2640 O.3   1 <1>  -0.5600 
 13 C        0.0140     3.9430     0.8080 C.ar  1 <1>  -0.1440 
 14 C       -0.9560     5.3310    -0.9150 C.ar  1 <1>  -0.1500 
 15 C       -5.4120    -2.8320     0.2580 C.ar  1 <1>  -0.1440 
 16 C        0.6880     5.0550     1.3090 C.ar  1 <1>  -0.1440 
 17 C        0.1570     2.5640     1.4550 C.3   1 <1>  -0.0970 
 18 C       -0.2930     6.4300    -0.4050 C.ar  1 <1>  -0.1500 
 19 C       -5.1650    -3.9700     1.0000 C.ar  1 <1>  -0.1500 
 20 C       -6.4920    -2.0690     0.6520 C.ar  1 <1>  -0.1500 
 21 C        0.5250     6.2900     0.7000 C.ar  1 <1>  -0.1500 
 22 C        1.6150     4.9710     2.5150 C.3   1 <1>  -0.0970 
 23 C       -5.9850    -4.2770     2.0740 C.ar  1 <1>   0.1600 
 24 C       -7.2490    -2.4660     1.7420 C.ar  1 <1>   0.1600 
 25 N       -7.0200    -3.5510     2.4640 N.ar  1 <1>  -0.6200 
 26 H       -1.6210     0.7030    -0.8530 H     1 <1>   0.3700 
 27 H       -3.0580     3.6710    -1.7830 H     1 <1>   0.0800 
 28 H       -1.6410     3.3490    -2.7800 H     1 <1>   0.0800 
 29 H       -3.2530    -0.9780    -2.7110 H     1 <1>   0.0800 
 30 H       -4.2030    -0.4400    -0.2260 H     1 <1>   0.0800 
 31 H       -0.6410    -1.3560    -1.9850 H     1 <1>   0.0800 
 32 H       -1.7370    -2.7230    -2.1410 H     1 <1>   0.0800 
 33 H       -2.8660    -2.4420     1.1180 H     1 <1>   0.0800 
 34 H       -2.2490    -0.8020     1.0310 H     1 <1>   0.0800 
 35 H       -3.9720    -3.2890    -1.2540 H     1 <1>   0.0800 
 36 H       -5.1880    -2.1490    -1.7420 H     1 <1>   0.0800 
 37 H       -1.5810     5.4740    -1.7740 H     1 <1>   0.1500 
 38 H        0.4720     2.6270     2.4790 H     1 <1>   0.0800 
 39 H        0.8750     1.9820     0.9070 H     1 <1>   0.0800 
 40 H       -0.7850     2.0450     1.4480 H     1 <1>   0.0800 
 41 H       -0.4110     7.3950    -0.8660 H     1 <1>   0.1500 
 42 H       -4.3440    -4.6190     0.7570 H     1 <1>   0.1500 
 43 H       -6.7520    -1.1710     0.1230 H     1 <1>   0.1500 
 44 H        1.0360     7.1550     1.0820 H     1 <1>   0.1500 
 45 H        2.1480     5.8940     2.6600 H     1 <1>   0.0800 
 46 H        2.3390     4.1890     2.3720 H     1 <1>   0.0800 
 47 H        1.0440     4.7680     3.4030 H     1 <1>   0.0800 
 48 H       -5.7770    -5.1680     2.6420 H     1 <1>   0.1500 
 49 H       -8.0880    -1.8580     2.0360 H     1 <1>   0.1500 
@<TRIPOS>BOND
  1   1   2  2   
  2   2   3  am  
  3   2   4  1   
  4   3   5  1   
  5   3  26  1   
  6   4   6  1   
  7   4  27  1   
  8   4  28  1   
  9   5   7  1   
 10   5   8  1   
 11   5  29  1   
 12   6   9  1   
 13   7  10  1   
 14   7  11  1   
 15   7  30  1   
 16   8  12  1   
 17   8  31  1   
 18   8  32  1   
 19   9  13  ar  
 20   9  14  ar  
 21  10  12  1   
 22  10  33  1   
 23  10  34  1   
 24  11  15  1   
 25  11  35  1   
 26  11  36  1   
 27  13  16  ar  
 28  13  17  1   
 29  14  18  ar  
 30  14  37  1   
 31  15  19  ar  
 32  15  20  ar  
 33  16  21  ar  
 34  16  22  1   
 35  17  38  1   
 36  17  39  1   
 37  17  40  1   
 38  18  21  ar  
 39  18  41  1   
 40  19  23  ar  
 41  19  42  1   
 42  20  24  ar  
 43  20  43  1   
 44  21  44  1   
 45  22  45  1   
 46  22  46  1   
 47  22  47  1   
 48  23  25  ar  
 49  23  48  1   
 50  24  25  ar  
 51  24  49  1   
@<TRIPOS>SUBSTRUCTURE
  1 ****   3 GROUP 4 **** **** 0

# MOE 2024.06 (io_trps.svl 2023.06)
