@<TRIPOS>MOLECULE
NONAME
51 53 1 0 0 
SMALL
USER_CHARGES


@<TRIPOS>ATOM
  1 O       -0.7130     0.2730     1.2030 O.2   1 <1>  -0.5700 
  2 C       -1.5380     1.1170     0.9080 C.2   1 <1>   0.5440 
  3 N       -2.8780     0.7710     0.8810 N.am  1 <1>  -0.6600 
  4 C       -1.0940     2.4640     0.5970 C.ar  1 <1>   0.0860 
  5 C       -3.9190     1.6970     0.3420 C.3   1 <1>   0.2200 
  6 C       -3.2970    -0.5850     1.3560 C.3   1 <1>   0.0600 
  7 C       -0.5450     2.8020    -0.6450 C.ar  1 <1>  -0.1440 
  8 C       -1.2290     3.4700     1.5520 C.ar  1 <1>  -0.1500 
  9 C       -4.8190     2.2620     1.4390 C.3   1 <1>  -0.1600 
 10 C       -4.8790     1.0530    -0.6580 C.3   1 <1>  -0.1600 
 11 C       -0.1610     4.1080    -0.9070 C.ar  1 <1>  -0.1500 
 12 C       -0.3590     1.7370    -1.7180 C.3   1 <1>  -0.0970 
 13 C       -0.8470     4.7720     1.2870 C.ar  1 <1>  -0.1500 
 14 C       -6.0910     2.7070     0.7040 C.3   1 <1>  -0.0800 
 15 C       -6.1200     1.9570    -0.6330 C.3   1 <1>  -0.0800 
 16 C       -0.3120     5.0920     0.0540 C.ar  1 <1>  -0.1500 
 17 C       -7.4110     2.3590     1.4070 C.3   1 <1>  -0.1600 
 18 C       -7.4690     1.2220    -0.6740 C.3   1 <1>  -0.1600 
 19 C       -8.3870     1.9880     0.2850 C.3   1 <1>   0.4230 
 20 N       -8.9430     3.2160    -0.3710 N.4   1 <1>  -0.9590 
 21 C       -9.7330     4.0720     0.5730 C.3   1 <1>   0.2630 
 22 C       -9.8080     2.8970    -1.5540 C.3   1 <1>   0.2630 
 23 H       -3.4520     2.5270    -0.1610 H     1 <1>   0.0800 
 24 H       -4.2850    -0.5570     1.7760 H     1 <1>   0.0800 
 25 H       -2.6200    -0.9400     2.1150 H     1 <1>   0.0800 
 26 H       -3.2780    -1.2750     0.5320 H     1 <1>   0.0800 
 27 H       -1.6380     3.2180     2.5140 H     1 <1>   0.1500 
 28 H       -5.0400     1.4990     2.1610 H     1 <1>   0.0800 
 29 H       -4.3430     3.0880     1.9360 H     1 <1>   0.0800 
 30 H       -4.4400     1.0110    -1.6390 H     1 <1>   0.0800 
 31 H       -5.1400     0.0590    -0.3480 H     1 <1>   0.0800 
 32 H        0.2630     4.3690    -1.8610 H     1 <1>   0.1500 
 33 H        0.0590     2.1560    -2.6150 H     1 <1>   0.0800 
 34 H       -1.3040     1.2850    -1.9600 H     1 <1>   0.0800 
 35 H        0.3070     0.9710    -1.3590 H     1 <1>   0.0800 
 36 H       -0.9590     5.5330     2.0400 H     1 <1>   0.1500 
 37 H       -6.0400     3.7660     0.5080 H     1 <1>   0.0800 
 38 H       -6.0570     2.6740    -1.4360 H     1 <1>   0.0800 
 39 H       -0.0100     6.1030    -0.1580 H     1 <1>   0.1500 
 40 H       -7.7450     3.1410     2.0620 H     1 <1>   0.0800 
 41 H       -7.2730     1.4780     2.0100 H     1 <1>   0.0800 
 42 H       -7.3510     0.2310    -0.2720 H     1 <1>   0.0800 
 43 H       -7.8440     1.1150    -1.6740 H     1 <1>   0.0800 
 44 H       -9.1870     1.3620     0.6500 H     1 <1>   0.0800 
 45 H       -8.1300     3.7560    -0.6990 H     1 <1>   0.4500 
 46 H      -10.5400     3.5040     1.0070 H     1 <1>   0.0800 
 47 H      -10.1500     4.9170     0.0490 H     1 <1>   0.0800 
 48 H       -9.1070     4.4460     1.3650 H     1 <1>   0.0800 
 49 H      -10.6220     2.2540    -1.2610 H     1 <1>   0.0800 
 50 H       -9.2390     2.4060    -2.3250 H     1 <1>   0.0800 
 51 H      -10.2200     3.8030    -1.9690 H     1 <1>   0.0800 
@<TRIPOS>BOND
  1   1   2  2   
  2   2   3  am  
  3   2   4  1   
  4   3   5  1   
  5   3   6  1   
  6   4   7  ar  
  7   4   8  ar  
  8   5   9  1   
  9   5  10  1   
 10   5  23  1   
 11   6  24  1   
 12   6  25  1   
 13   6  26  1   
 14   7  11  ar  
 15   7  12  1   
 16   8  13  ar  
 17   8  27  1   
 18   9  14  1   
 19   9  28  1   
 20   9  29  1   
 21  10  15  1   
 22  10  30  1   
 23  10  31  1   
 24  11  16  ar  
 25  11  32  1   
 26  12  33  1   
 27  12  34  1   
 28  12  35  1   
 29  13  16  ar  
 30  13  36  1   
 31  14  15  1   
 32  14  17  1   
 33  14  37  1   
 34  15  18  1   
 35  15  38  1   
 36  16  39  1   
 37  17  19  1   
 38  17  40  1   
 39  17  41  1   
 40  18  19  1   
 41  18  42  1   
 42  18  43  1   
 43  19  20  1   
 44  19  44  1   
 45  20  21  1   
 46  20  22  1   
 47  20  45  1   
 48  21  46  1   
 49  21  47  1   
 50  21  48  1   
 51  22  49  1   
 52  22  50  1   
 53  22  51  1   
@<TRIPOS>SUBSTRUCTURE
  1 ****   5 GROUP 4 **** **** 0

# MOE 2024.06 (io_trps.svl 2023.06)
