@<TRIPOS>MOLECULE
NONAME
49 51 1 0 0 
SMALL
USER_CHARGES


@<TRIPOS>ATOM
  1 O        1.6130     0.7460     1.9700 O.2   1 <1>  -0.5700 
  2 C        2.2820     0.4350     1.0160 C.2   1 <1>   0.5690 
  3 N        2.8530     1.2820     0.1080 N.am  1 <1>  -0.4770 
  4 C        2.5790    -1.0030     0.6910 C.3   1 <1>  -0.0990 
  5 C        2.7000     2.6750     0.0280 C.ar  1 <1>   0.1170 
  6 C        3.5720     0.5260    -0.9380 C.3   1 <1>   0.1400 
  7 C        3.6320    -0.9170    -0.4210 C.3   1 <1>  -0.1600 
  8 C        3.7700     3.5030    -0.2960 C.ar  1 <1>  -0.1500 
  9 C        1.4670     3.2740     0.2620 C.ar  1 <1>  -0.1500 
 10 C        3.6120     4.8730    -0.3830 C.ar  1 <1>  -0.1500 
 11 C        1.3100     4.6430     0.1750 C.ar  1 <1>  -0.1500 
 12 C        2.3780     5.4820    -0.1410 C.ar  1 <1>   0.0860 
 13 C        2.2040     6.9180    -0.2060 C.2   1 <1>   0.5440 
 14 O        1.1780     7.3920    -0.6550 O.2   1 <1>  -0.5700 
 15 N        3.2080     7.7400     0.2530 N.am  1 <1>  -0.4940 
 16 C        3.3700     9.1470     0.2310 C.2   1 <1>  -0.0880 
 17 N        2.4140    10.1080     0.3790 N.pl3 1 <1>   0.3140 
 18 C        4.5470     9.8040     0.0930 C.2   1 <1>  -0.1810 
 19 N        2.9520    11.3460     0.3440 N.2   1 <1>  -0.7070 
 20 C        0.9810     9.9530     0.6610 C.3   1 <1>   0.0160 
 21 C        4.2210    11.1560     0.1680 C.2   1 <1>   0.1080 
 22 C        5.9290     9.2050    -0.1100 C.3   1 <1>   0.0210 
 23 C        5.1920    12.3190     0.0640 C.3   1 <1>   0.0210 
 24 C        6.6180     8.9750     1.2360 C.3   1 <1>  -0.2400 
 25 C        5.3640    12.7660    -1.3910 C.3   1 <1>  -0.2400 
 26 H        1.6790    -1.4730     0.3400 H     1 <1>   0.0800 
 27 H        2.9500    -1.5200     1.5580 H     1 <1>   0.0800 
 28 H        4.5610     0.9190    -1.0930 H     1 <1>   0.0800 
 29 H        3.0110     0.5790    -1.8560 H     1 <1>   0.0800 
 30 H        3.4500    -1.6280    -1.2080 H     1 <1>   0.0800 
 31 H        4.6090    -1.1000    -0.0090 H     1 <1>   0.0800 
 32 H        4.7370     3.0710    -0.4760 H     1 <1>   0.1500 
 33 H        0.6220     2.6570     0.5170 H     1 <1>   0.1500 
 34 H        4.4600     5.4790    -0.6510 H     1 <1>   0.1500 
 35 H        0.3420     5.0800     0.3570 H     1 <1>   0.1500 
 36 H        4.0200     7.2440     0.6160 H     1 <1>   0.3700 
 37 H        0.8320     9.0990     1.2940 H     1 <1>   0.0800 
 38 H        0.4580     9.8170    -0.2660 H     1 <1>   0.0800 
 39 H        0.6210    10.8360     1.1520 H     1 <1>   0.0800 
 40 H        6.5240     9.8640    -0.7180 H     1 <1>   0.0800 
 41 H        5.8410     8.2720    -0.6370 H     1 <1>   0.0800 
 42 H        6.1420    12.0370     0.4780 H     1 <1>   0.0800 
 43 H        4.8090    13.1380     0.6470 H     1 <1>   0.0800 
 44 H        6.7270     9.9080     1.7600 H     1 <1>   0.0800 
 45 H        7.5920     8.5460     1.0870 H     1 <1>   0.0800 
 46 H        6.0320     8.3100     1.8450 H     1 <1>   0.0800 
 47 H        5.7490    11.9590    -1.9870 H     1 <1>   0.0800 
 48 H        6.0420    13.5990    -1.4470 H     1 <1>   0.0800 
 49 H        4.4110    13.0640    -1.7910 H     1 <1>   0.0800 
@<TRIPOS>BOND
  1   1   2  2   
  2   2   3  am  
  3   2   4  1   
  4   3   5  1   
  5   3   6  1   
  6   4   7  1   
  7   4  26  1   
  8   4  27  1   
  9   5   8  ar  
 10   5   9  ar  
 11   6   7  1   
 12   6  28  1   
 13   6  29  1   
 14   7  30  1   
 15   7  31  1   
 16   8  10  ar  
 17   8  32  1   
 18   9  11  ar  
 19   9  33  1   
 20  10  12  ar  
 21  10  34  1   
 22  11  12  ar  
 23  11  35  1   
 24  12  13  1   
 25  13  14  2   
 26  13  15  am  
 27  15  16  1   
 28  15  36  1   
 29  16  17  1   
 30  16  18  2   
 31  17  19  1   
 32  17  20  1   
 33  18  21  1   
 34  18  22  1   
 35  19  21  2   
 36  20  37  1   
 37  20  38  1   
 38  20  39  1   
 39  21  23  1   
 40  22  24  1   
 41  22  40  1   
 42  22  41  1   
 43  23  25  1   
 44  23  42  1   
 45  23  43  1   
 46  24  44  1   
 47  24  45  1   
 48  24  46  1   
 49  25  47  1   
 50  25  48  1   
 51  25  49  1   
@<TRIPOS>SUBSTRUCTURE
  1 ****  12 GROUP 4 **** **** 0

# MOE 2024.06 (io_trps.svl 2023.06)
