@<TRIPOS>MOLECULE
NONAME
49 51 1 0 0 
SMALL
USER_CHARGES


@<TRIPOS>ATOM
  1 O       -1.7540    -3.2970     0.8370 O.2   1 <1>  -0.5700 
  2 C       -0.5950    -3.5910     0.7130 C.2   1 <1>   0.5690 
  3 N       -0.1660    -4.8620     0.8520 N.am  1 <1>  -0.7300 
  4 C        0.4440    -2.5370     0.4020 C.3   1 <1>  -0.0990 
  5 C        1.2470    -5.2660     0.7280 C.3   1 <1>   0.1400 
  6 C        1.4320    -3.0510    -0.6650 C.3   1 <1>  -0.0800 
  7 C        1.9020    -4.5130    -0.4500 C.3   1 <1>  -0.0800 
  8 C        2.7000    -2.1930    -0.7800 C.3   1 <1>  -0.1600 
  9 C        3.4330    -4.4500    -0.3540 C.3   1 <1>  -0.1600 
 10 C        3.8020    -3.1870    -1.1300 C.3   1 <1>   0.4230 
 11 N        5.1670    -2.6640    -0.8500 N.4   1 <1>  -0.9590 
 12 C        5.4910    -2.4070     0.5820 C.3   1 <1>   0.5240 
 13 C        6.2220    -3.5130    -1.4880 C.3   1 <1>   0.2630 
 14 C        6.7220    -1.5350     0.6090 C.2   1 <1>  -0.1810 
 15 C        7.9730    -1.8810     1.1070 C.2   1 <1>   0.1080 
 16 C        6.8690    -0.2690     0.1580 C.2   1 <1>  -0.3020 
 17 N        8.8270    -0.9210     0.9660 N.2   1 <1>  -0.7070 
 18 C        8.3650    -3.1930     1.7530 C.3   1 <1>  -0.0590 
 19 N        8.1500     0.0900     0.3900 N.pl3 1 <1>   0.3140 
 20 C        8.8020     1.3850     0.0780 C.3   1 <1>   0.2340 
 21 C        7.8390     2.5570     0.2340 C.2   1 <1>  -0.2880 
 22 C        7.4740     3.3960    -0.7410 C.2   1 <1>  -0.3000 
 23 H       -0.8660    -5.5680     1.1000 H     1 <1>   0.3700 
 24 H       -0.0480    -1.6450     0.0570 H     1 <1>   0.0800 
 25 H        0.9530    -2.3080     1.3200 H     1 <1>   0.0800 
 26 H        1.7440    -5.0320     1.6550 H     1 <1>   0.0800 
 27 H        1.3080    -6.3300     0.5680 H     1 <1>   0.0800 
 28 H        0.9140    -3.0240    -1.6120 H     1 <1>   0.0800 
 29 H        1.6510    -5.0590    -1.3450 H     1 <1>   0.0800 
 30 H        2.8910    -1.7130     0.1620 H     1 <1>   0.0800 
 31 H        2.5860    -1.4440    -1.5450 H     1 <1>   0.0800 
 32 H        3.8810    -5.3290    -0.7840 H     1 <1>   0.0800 
 33 H        3.7160    -4.3660     0.6790 H     1 <1>   0.0800 
 34 H        3.7150    -3.4060    -2.1830 H     1 <1>   0.0800 
 35 H        5.2360    -1.7350    -1.2870 H     1 <1>   0.4500 
 36 H        4.6860    -1.8870     1.0710 H     1 <1>   0.0800 
 37 H        5.6750    -3.3320     1.1030 H     1 <1>   0.0800 
 38 H        6.2380    -4.4940    -1.0420 H     1 <1>   0.0800 
 39 H        7.1950    -3.0610    -1.3610 H     1 <1>   0.0800 
 40 H        6.0330    -3.6160    -2.5440 H     1 <1>   0.0800 
 41 H        6.1650     0.4040    -0.2990 H     1 <1>   0.1500 
 42 H        8.0490    -4.0240     1.1520 H     1 <1>   0.0800 
 43 H        7.9260    -3.2640     2.7310 H     1 <1>   0.0800 
 44 H        9.4350    -3.2370     1.8590 H     1 <1>   0.0800 
 45 H        9.6370     1.5090     0.7440 H     1 <1>   0.0800 
 46 H        9.1760     1.3370    -0.9270 H     1 <1>   0.0800 
 47 H        7.4710     2.6480     1.2430 H     1 <1>   0.1500 
 48 H        6.7940     4.2200    -0.5990 H     1 <1>   0.1500 
 49 H        7.8220     3.3420    -1.7590 H     1 <1>   0.1500 
@<TRIPOS>BOND
  1   1   2  2   
  2   2   3  am  
  3   2   4  1   
  4   3   5  1   
  5   3  23  1   
  6   4   6  1   
  7   4  24  1   
  8   4  25  1   
  9   5   7  1   
 10   5  26  1   
 11   5  27  1   
 12   6   7  1   
 13   6   8  1   
 14   6  28  1   
 15   7   9  1   
 16   7  29  1   
 17   8  10  1   
 18   8  30  1   
 19   8  31  1   
 20   9  10  1   
 21   9  32  1   
 22   9  33  1   
 23  10  11  1   
 24  10  34  1   
 25  11  12  1   
 26  11  13  1   
 27  11  35  1   
 28  12  14  1   
 29  12  36  1   
 30  12  37  1   
 31  13  38  1   
 32  13  39  1   
 33  13  40  1   
 34  14  15  1   
 35  14  16  2   
 36  15  17  2   
 37  15  18  1   
 38  16  19  1   
 39  16  41  1   
 40  17  19  1   
 41  18  42  1   
 42  18  43  1   
 43  18  44  1   
 44  19  20  1   
 45  20  21  1   
 46  20  45  1   
 47  20  46  1   
 48  21  22  2   
 49  21  47  1   
 50  22  48  1   
 51  22  49  1   
@<TRIPOS>SUBSTRUCTURE
  1 ****  12 GROUP 4 **** **** 0

# MOE 2024.06 (io_trps.svl 2023.06)
