@<TRIPOS>MOLECULE
NONAME
40 41 1 0 0 
SMALL
USER_CHARGES


@<TRIPOS>ATOM
  1 O        0.8210     1.9010     0.3140 O.co2 1 <1>  -0.9000 
  2 C       -0.4160     1.7880     0.2110 C.2   1 <1>   0.9060 
  3 O       -1.0520     0.7390     0.1910 O.co2 1 <1>  -0.9000 
  4 C       -1.1030     3.0990     0.1870 C.3   1 <1>  -0.1860 
  5 C       -2.5540     3.3280    -0.1740 C.3   1 <1>   0.2000 
  6 C       -0.8560     3.7410     1.5410 C.3   1 <1>   0.2090 
  7 O       -3.3040     2.4210     0.5400 O.3   1 <1>  -0.6800 
  8 C       -2.9710     4.7800     0.2160 C.3   1 <1>  -0.1600 
  9 N       -0.5910     5.1270     1.1490 N.pl3 1 <1>  -0.8380 
 10 C       -1.8130     5.7840     0.5510 C.3   1 <1>   0.2090 
 11 C        0.6760     5.4880     0.8030 C.ar  1 <1>   0.7710 
 12 N        0.9410     6.7700     0.6180 N.ar  1 <1>  -0.6200 
 13 N        1.6170     4.5270     0.6180 N.ar  1 <1>  -0.1790 
 14 C        2.1710     7.1100     0.2790 C.ar  1 <1>   0.4100 
 15 C        2.8860     4.8380     0.2960 C.ar  1 <1>   0.2110 
 16 N        2.3920     8.4370     0.0800 N.pl3 1 <1>  -0.8380 
 17 C        3.2050     6.1460     0.1310 C.ar  1 <1>  -0.1430 
 18 C        2.9180     8.9830    -1.2010 C.3   1 <1>   0.1290 
 19 C        1.7630     9.4610     0.9630 C.3   1 <1>   0.1290 
 20 C        4.6480     6.5460    -0.1720 C.3   1 <1>  -0.0970 
 21 H       -0.5700     3.6020    -0.5990 H     1 <1>   0.0800 
 22 H       -2.7150     3.1340    -1.2220 H     1 <1>   0.0800 
 23 H       -0.0260     3.3170     2.0820 H     1 <1>   0.0800 
 24 H       -1.7140     3.6710     2.1910 H     1 <1>   0.0800 
 25 H       -2.8380     1.5440     0.4820 H     1 <1>   0.4000 
 26 H       -3.5670     5.1950    -0.5750 H     1 <1>   0.0800 
 27 H       -3.6080     4.7320     1.0830 H     1 <1>   0.0800 
 28 H       -2.1760     6.5360     1.2320 H     1 <1>   0.0800 
 29 H       -1.5230     6.2860    -0.3570 H     1 <1>   0.0800 
 30 H        1.3120     3.5290     0.6430 H     1 <1>   0.4570 
 31 H        3.5920     4.0310     0.1850 H     1 <1>   0.1500 
 32 H        2.2380     9.7200    -1.5920 H     1 <1>   0.0800 
 33 H        3.0190     8.1980    -1.9300 H     1 <1>   0.0800 
 34 H        3.8770     9.4420    -1.0360 H     1 <1>   0.0800 
 35 H        2.4590    10.2580     1.1570 H     1 <1>   0.0800 
 36 H        1.4770     9.0190     1.9030 H     1 <1>   0.0800 
 37 H        0.8840     9.8610     0.4890 H     1 <1>   0.0800 
 38 H        5.3270     5.7390     0.0390 H     1 <1>   0.0800 
 39 H        4.9330     7.3880     0.4350 H     1 <1>   0.0800 
 40 H        4.7540     6.8140    -1.2070 H     1 <1>   0.0800 
@<TRIPOS>BOND
  1   1   2  ar  
  2   2   3  ar  
  3   2   4  1   
  4   4   5  1   
  5   4   6  1   
  6   4  21  1   
  7   5   7  1   
  8   5   8  1   
  9   5  22  1   
 10   6   9  1   
 11   6  23  1   
 12   6  24  1   
 13   7  25  1   
 14   8  10  1   
 15   8  26  1   
 16   8  27  1   
 17   9  10  1   
 18   9  11  1   
 19  10  28  1   
 20  10  29  1   
 21  11  12  ar  
 22  11  13  ar  
 23  12  14  ar  
 24  13  15  ar  
 25  13  30  1   
 26  14  16  1   
 27  14  17  ar  
 28  15  17  ar  
 29  15  31  1   
 30  16  18  1   
 31  16  19  1   
 32  17  20  1   
 33  18  32  1   
 34  18  33  1   
 35  18  34  1   
 36  19  35  1   
 37  19  36  1   
 38  19  37  1   
 39  20  38  1   
 40  20  39  1   
 41  20  40  1   
@<TRIPOS>SUBSTRUCTURE
  1 ****  11 GROUP 4 **** **** 0

# MOE 2024.06 (io_trps.svl 2023.06)
