@<TRIPOS>MOLECULE
NONAME
53 56 1 0 0 
SMALL
USER_CHARGES


@<TRIPOS>ATOM
  1 O        0.5030     0.9150     0.9190 O.3   1 <1>  -0.5600 
  2 C        1.6150     1.7620     0.9570 C.3   1 <1>   0.1200 
  3 C       -0.4870     1.3160     0.0210 C.3   1 <1>   0.1200 
  4 C        1.1990     3.1790     1.3870 C.3   1 <1>   0.2090 
  5 C       -1.0280     2.7080     0.4010 C.3   1 <1>   0.2090 
  6 N        0.0880     3.7140     0.5110 N.pl3 1 <1>  -0.8380 
  7 C        0.1730     4.9330    -0.0880 C.ar  1 <1>   0.7710 
  8 N        1.3020     5.6210    -0.0020 N.ar  1 <1>  -0.6200 
  9 N       -0.8950     5.4190    -0.7500 N.ar  1 <1>  -0.1790 
 10 C        1.3730     6.7970    -0.5940 C.ar  1 <1>   0.4100 
 11 C       -0.8710     6.6220    -1.3710 C.ar  1 <1>   0.2180 
 12 N        2.5380     7.4780    -0.5180 N.3   1 <1>  -0.5900 
 13 C        0.2800     7.3320    -1.3000 C.ar  1 <1>  -0.1500 
 14 C       -2.1130     7.1010    -2.1020 C.3   1 <1>  -0.0970 
 15 C        3.7400     7.2370     0.3570 C.3   1 <1>   0.2450 
 16 C        2.8230     8.9530    -0.5330 C.3   1 <1>   0.2450 
 17 C        3.7390     8.7440     0.7020 C.3   1 <1>   0.2580 
 18 O        5.0360     9.3010     0.5650 O.3   1 <1>  -0.3400 
 19 C        5.1360    10.5960     0.1770 C.ar  1 <1>   0.0820 
 20 C        5.7150    10.8610    -1.0620 C.ar  1 <1>  -0.1440 
 21 C        4.6790    11.6400     0.9850 C.ar  1 <1>  -0.1440 
 22 C        5.7860    12.1690    -1.5130 C.ar  1 <1>  -0.1500 
 23 C        6.2760     9.7390    -1.9260 C.3   1 <1>  -0.0970 
 24 C        4.7580    12.9390     0.5100 C.ar  1 <1>  -0.1500 
 25 C        4.1200    11.4200     2.3840 C.3   1 <1>  -0.0970 
 26 C        5.3030    13.2040    -0.7340 C.ar  1 <1>  -0.1500 
 27 H        2.0770     1.7770    -0.0150 H     1 <1>   0.0800 
 28 H        2.3150     1.3510     1.6640 H     1 <1>   0.0800 
 29 H       -1.2760     0.5850     0.0610 H     1 <1>   0.0800 
 30 H       -0.0710     1.3200    -0.9720 H     1 <1>   0.0800 
 31 H        2.0720     3.8070     1.3660 H     1 <1>   0.0800 
 32 H        0.8580     3.1420     2.4070 H     1 <1>   0.0800 
 33 H       -1.5300     2.6290     1.3510 H     1 <1>   0.0800 
 34 H       -1.7540     2.9980    -0.3350 H     1 <1>   0.0800 
 35 H       -1.7220     4.8380    -0.7370 H     1 <1>   0.4570 
 36 H        0.3920     8.2920    -1.7700 H     1 <1>   0.1500 
 37 H       -2.3750     6.4180    -2.8910 H     1 <1>   0.0800 
 38 H       -1.9400     8.0680    -2.5430 H     1 <1>   0.0800 
 39 H       -2.9420     7.1880    -1.4220 H     1 <1>   0.0800 
 40 H        4.5840     6.9200    -0.2290 H     1 <1>   0.0000 
 41 H        3.5100     6.6030     1.1940 H     1 <1>   0.0000 
 42 H        1.9400     9.5300    -0.3220 H     1 <1>   0.0000 
 43 H        3.3330     9.2320    -1.4370 H     1 <1>   0.0000 
 44 H        3.2920     8.9750     1.6510 H     1 <1>   0.0000 
 45 H        6.2200    12.3900    -2.4720 H     1 <1>   0.1500 
 46 H        6.9070     9.1010    -1.3330 H     1 <1>   0.0800 
 47 H        6.8620    10.1330    -2.7360 H     1 <1>   0.0800 
 48 H        5.4760     9.1510    -2.3350 H     1 <1>   0.0800 
 49 H        4.4000    13.7580     1.1090 H     1 <1>   0.1500 
 50 H        4.6130    10.5900     2.8590 H     1 <1>   0.0800 
 51 H        3.0640    11.2260     2.3340 H     1 <1>   0.0800 
 52 H        4.2800    12.2900     2.9940 H     1 <1>   0.0800 
 53 H        5.3580    14.2170    -1.0920 H     1 <1>   0.1500 
@<TRIPOS>BOND
  1   1   2  1   
  2   1   3  1   
  3   2   4  1   
  4   2  27  1   
  5   2  28  1   
  6   3   5  1   
  7   3  29  1   
  8   3  30  1   
  9   4   6  1   
 10   4  31  1   
 11   4  32  1   
 12   5   6  1   
 13   5  33  1   
 14   5  34  1   
 15   6   7  1   
 16   7   8  ar  
 17   7   9  ar  
 18   8  10  ar  
 19   9  11  ar  
 20   9  35  1   
 21  10  12  1   
 22  10  13  ar  
 23  11  13  ar  
 24  11  14  1   
 25  12  15  1   
 26  12  16  1   
 27  13  36  1   
 28  14  37  1   
 29  14  38  1   
 30  14  39  1   
 31  15  17  1   
 32  15  40  1   
 33  15  41  1   
 34  16  17  1   
 35  16  42  1   
 36  16  43  1   
 37  17  18  1   
 38  17  44  1   
 39  18  19  1   
 40  19  20  ar  
 41  19  21  ar  
 42  20  22  ar  
 43  20  23  1   
 44  21  24  ar  
 45  21  25  1   
 46  22  26  ar  
 47  22  45  1   
 48  23  46  1   
 49  23  47  1   
 50  23  48  1   
 51  24  26  ar  
 52  24  49  1   
 53  25  50  1   
 54  25  51  1   
 55  25  52  1   
 56  26  53  1   
@<TRIPOS>SUBSTRUCTURE
  1 ****  12 GROUP 4 **** **** 0

# MOE 2024.06 (io_trps.svl 2023.06)
