@<TRIPOS>MOLECULE
NONAME
50 52 1 0 0 
SMALL
USER_CHARGES


@<TRIPOS>ATOM
  1 CL      -0.0560     0.3270    -0.9340 Cl    1 <1>  -0.1770 
  2 C       -1.7180     0.6580    -0.5230 C.ar  1 <1>   0.1770 
  3 C       -2.7320     0.0690    -1.2530 C.ar  1 <1>  -0.1500 
  4 C       -2.0020     1.5080     0.5290 C.ar  1 <1>  -0.1500 
  5 C       -4.0490     0.3380    -0.9230 C.ar  1 <1>  -0.1500 
  6 C       -3.3230     1.7680     0.8510 C.ar  1 <1>  -0.1500 
  7 C       -4.3740     1.1870     0.1370 C.ar  1 <1>   0.0530 
  8 C       -5.7390     1.4840     0.4870 C.2   1 <1>   0.0870 
  9 O       -6.0800     2.7300     0.7070 O.3   1 <1>  -0.0190 
 10 C       -6.8570     0.7280     0.6760 C.2   1 <1>  -0.0860 
 11 N       -7.3410     2.8700     1.0130 N.2   1 <1>  -0.4100 
 12 C       -7.8300     1.6880     0.9860 C.2   1 <1>   0.3720 
 13 C       -7.0530    -0.6910     0.6370 C.2   1 <1>   0.7160 
 14 N       -9.1800     1.4870     1.2420 N.pl3 1 <1>  -0.8520 
 15 O       -6.2310    -1.4370     0.1420 O.2   1 <1>  -0.5700 
 16 N       -8.1820    -1.2340     1.1640 N.am  1 <1>  -0.7300 
 17 C      -10.0020     1.3040     0.0130 C.3   1 <1>   0.2090 
 18 C       -8.6190    -2.6350     1.0460 C.3   1 <1>   0.2350 
 19 C      -11.4440     0.9610     0.3870 C.3   1 <1>   0.1200 
 20 C      -10.0810    -2.6400     0.5950 C.3   1 <1>  -0.1950 
 21 O      -12.1820     0.8110    -0.7840 O.3   1 <1>  -0.5600 
 22 C      -10.7000    -3.7380    -0.2080 C.3   1 <1>  -0.1900 
 23 C      -10.4370    -2.4120    -0.8520 C.3   1 <1>  -0.2000 
 24 C      -13.5020     0.4240    -0.5740 C.3   1 <1>   0.0400 
 25 C       -9.8820    -4.9460    -0.6820 C.3   1 <1>  -0.1450 
 26 C      -12.1530    -4.1190     0.0930 C.3   1 <1>  -0.1450 
 27 H       -2.4910    -0.5900    -2.0670 H     1 <1>   0.1500 
 28 H       -1.1980     1.9580     1.0830 H     1 <1>   0.1500 
 29 H       -4.8380    -0.1180    -1.4950 H     1 <1>   0.1500 
 30 H       -3.5480     2.4300     1.6690 H     1 <1>   0.1500 
 31 H       -9.5100     2.3350     1.7180 H     1 <1>   0.4000 
 32 H       -8.8830    -0.5640     1.5040 H     1 <1>   0.3700 
 33 H       -9.5940     0.5070    -0.5850 H     1 <1>   0.0800 
 34 H       -9.9890     2.2140    -0.5640 H     1 <1>   0.0800 
 35 H       -8.5250    -3.1240     2.0000 H     1 <1>   0.0800 
 36 H       -7.9970    -3.1500     0.3350 H     1 <1>   0.0800 
 37 H      -11.8820     1.7540     0.9670 H     1 <1>   0.0800 
 38 H      -11.4730     0.0350     0.9350 H     1 <1>   0.0800 
 39 H      -10.7160    -2.1990     1.3440 H     1 <1>   0.1000 
 40 H       -9.6400    -2.3260    -1.5700 H     1 <1>   0.1000 
 41 H      -11.2680    -1.7710    -1.0900 H     1 <1>   0.1000 
 42 H      -13.9820     0.3430    -1.5330 H     1 <1>   0.0800 
 43 H      -14.0020     1.1690     0.0200 H     1 <1>   0.0800 
 44 H      -13.5190    -0.5320    -0.0790 H     1 <1>   0.0800 
 45 H       -8.8990    -4.6550    -1.0040 H     1 <1>   0.0800 
 46 H      -10.3730    -5.4190    -1.5140 H     1 <1>   0.0800 
 47 H       -9.7870    -5.6630     0.1140 H     1 <1>   0.0800 
 48 H      -12.7230    -3.2570     0.3900 H     1 <1>   0.0800 
 49 H      -12.1880    -4.8420     0.8890 H     1 <1>   0.0800 
 50 H      -12.6140    -4.5440    -0.7810 H     1 <1>   0.0800 
@<TRIPOS>BOND
  1   1   2  1   
  2   2   3  ar  
  3   2   4  ar  
  4   3   5  ar  
  5   3  27  1   
  6   4   6  ar  
  7   4  28  1   
  8   5   7  ar  
  9   5  29  1   
 10   6   7  ar  
 11   6  30  1   
 12   7   8  1   
 13   8   9  1   
 14   8  10  2   
 15   9  11  1   
 16  10  12  1   
 17  10  13  1   
 18  11  12  2   
 19  12  14  1   
 20  13  15  2   
 21  13  16  am  
 22  14  17  1   
 23  14  31  1   
 24  16  18  1   
 25  16  32  1   
 26  17  19  1   
 27  17  33  1   
 28  17  34  1   
 29  18  20  1   
 30  18  35  1   
 31  18  36  1   
 32  19  21  1   
 33  19  37  1   
 34  19  38  1   
 35  20  22  1   
 36  20  23  1   
 37  20  39  1   
 38  21  24  1   
 39  22  23  1   
 40  22  25  1   
 41  22  26  1   
 42  23  40  1   
 43  23  41  1   
 44  24  42  1   
 45  24  43  1   
 46  24  44  1   
 47  25  45  1   
 48  25  46  1   
 49  25  47  1   
 50  26  48  1   
 51  26  49  1   
 52  26  50  1   
@<TRIPOS>SUBSTRUCTURE
  1 ****  13 GROUP 4 **** **** 0

# MOE 2024.06 (io_trps.svl 2023.06)
