@<TRIPOS>MOLECULE
NONAME
53 55 1 0 0 
SMALL
USER_CHARGES


@<TRIPOS>ATOM
  1 O       -0.3200     0.0500     0.8440 O.2   1 <1>  -0.5700 
  2 C       -1.2550     0.6950     0.4090 C.2   1 <1>   0.6900 
  3 N       -2.5020     0.1350     0.3580 N.am  1 <1>  -0.6600 
  4 N       -1.1020     1.9800    -0.0290 N.am  1 <1>  -0.5470 
  5 C       -3.7640     0.8100    -0.0160 C.3   1 <1>   0.1400 
  6 C       -2.7410    -1.2800     0.7050 C.3   1 <1>   0.1400 
  7 C        0.0150     2.8290    -0.0940 C.ar  1 <1>   0.1170 
  8 C       -4.8790    -0.1420     0.4410 C.3   1 <1>  -0.0800 
  9 C       -4.2230    -1.5360     0.4180 C.3   1 <1>  -0.0800 
 10 C       -0.1960     4.1980    -0.1700 C.ar  1 <1>  -0.1500 
 11 C        1.3250     2.3670    -0.1020 C.ar  1 <1>  -0.1500 
 12 C       -6.2340    -0.0380    -0.3260 C.3   1 <1>   0.2800 
 13 C       -4.4510    -2.2250    -0.9370 C.3   1 <1>  -0.1600 
 14 C        0.8550     5.0950    -0.2440 C.ar  1 <1>   0.0830 
 15 C        2.3910     3.2450    -0.1850 C.ar  1 <1>  -0.1500 
 16 O       -6.0280     0.4490    -1.6030 O.3   1 <1>  -0.6800 
 17 C       -6.8630    -1.4350    -0.4890 C.3   1 <1>  -0.1600 
 18 C       -7.2380     0.9140     0.3620 C.3   1 <1>  -0.1600 
 19 C       -5.9490    -2.4430    -1.2180 C.3   1 <1>  -0.1600 
 20 O        0.4930     6.4080    -0.2960 O.3   1 <1>  -0.3620 
 21 C        2.1760     4.6190    -0.2670 C.ar  1 <1>   0.0830 
 22 C       -6.7740     2.3740     0.5120 C.3   1 <1>  -0.2400 
 23 C        1.2530     7.3840     0.3830 C.3   1 <1>   0.0400 
 24 O        3.2170     5.4990    -0.3870 O.3   1 <1>  -0.3630 
 25 C        4.5220     5.0550    -0.6860 C.3   1 <1>   0.0400 
 26 H       -1.9750     2.3870    -0.3400 H     1 <1>   0.3700 
 27 H       -3.8480     1.7670     0.4660 H     1 <1>   0.0800 
 28 H       -3.7640     0.9410    -1.0840 H     1 <1>   0.0800 
 29 H       -2.0990    -1.9240     0.1270 H     1 <1>   0.0800 
 30 H       -2.5300    -1.4200     1.7510 H     1 <1>   0.0800 
 31 H       -5.0690     0.0740     1.4770 H     1 <1>   0.0800 
 32 H       -4.6310    -2.1630     1.1920 H     1 <1>   0.0800 
 33 H       -1.1970     4.5850    -0.1650 H     1 <1>   0.1500 
 34 H        1.5210     1.3120    -0.0490 H     1 <1>   0.1500 
 35 H       -4.0370    -1.6040    -1.7140 H     1 <1>   0.0800 
 36 H       -3.9360    -3.1700    -0.9690 H     1 <1>   0.0800 
 37 H        3.3800     2.8300    -0.1840 H     1 <1>   0.1500 
 38 H       -6.8620     0.4000    -2.1030 H     1 <1>   0.4000 
 39 H       -7.0690    -1.8200     0.4940 H     1 <1>   0.0800 
 40 H       -7.8080    -1.3690    -0.9990 H     1 <1>   0.0800 
 41 H       -8.1610     0.9050    -0.1910 H     1 <1>   0.0800 
 42 H       -7.4610     0.5290     1.3410 H     1 <1>   0.0800 
 43 H       -6.2300    -3.4390    -0.9210 H     1 <1>   0.0800 
 44 H       -6.1080    -2.3690    -2.2810 H     1 <1>   0.0800 
 45 H       -6.4960     2.7860    -0.4420 H     1 <1>   0.0800 
 46 H       -5.9360     2.4430     1.1810 H     1 <1>   0.0800 
 47 H       -7.5730     2.9690     0.9170 H     1 <1>   0.0800 
 48 H        0.6210     8.2330     0.5670 H     1 <1>   0.0800 
 49 H        2.0790     7.6750    -0.2390 H     1 <1>   0.0800 
 50 H        1.6030     6.9740     1.3140 H     1 <1>   0.0800 
 51 H        5.1410     5.9200    -0.8430 H     1 <1>   0.0800 
 52 H        4.4920     4.4600    -1.5820 H     1 <1>   0.0800 
 53 H        4.8970     4.4850     0.1460 H     1 <1>   0.0800 
@<TRIPOS>BOND
  1   1   2  2   
  2   2   3  am  
  3   2   4  am  
  4   3   5  1   
  5   3   6  1   
  6   4   7  1   
  7   4  26  1   
  8   5   8  1   
  9   5  27  1   
 10   5  28  1   
 11   6   9  1   
 12   6  29  1   
 13   6  30  1   
 14   7  10  ar  
 15   7  11  ar  
 16   8   9  1   
 17   8  12  1   
 18   8  31  1   
 19   9  13  1   
 20   9  32  1   
 21  10  14  ar  
 22  10  33  1   
 23  11  15  ar  
 24  11  34  1   
 25  12  16  1   
 26  12  17  1   
 27  12  18  1   
 28  13  19  1   
 29  13  35  1   
 30  13  36  1   
 31  14  20  1   
 32  14  21  ar  
 33  15  21  ar  
 34  15  37  1   
 35  16  38  1   
 36  17  19  1   
 37  17  39  1   
 38  17  40  1   
 39  18  22  1   
 40  18  41  1   
 41  18  42  1   
 42  19  43  1   
 43  19  44  1   
 44  20  23  1   
 45  21  24  1   
 46  22  45  1   
 47  22  46  1   
 48  22  47  1   
 49  23  48  1   
 50  23  49  1   
 51  23  50  1   
 52  24  25  1   
 53  25  51  1   
 54  25  52  1   
 55  25  53  1   
@<TRIPOS>SUBSTRUCTURE
  1 ****   4 GROUP 4 **** **** 0

# MOE 2024.06 (io_trps.svl 2023.06)
