@<TRIPOS>MOLECULE
NONAME
54 57 1 0 0 
SMALL
USER_CHARGES


@<TRIPOS>ATOM
  1 O       -0.1010     1.8030     2.5810 O.co2 1 <1>  -0.9000 
  2 C       -0.5960     1.8370     1.4520 C.2   1 <1>   0.9060 
  3 O       -0.1260     1.2140     0.4860 O.co2 1 <1>  -0.9000 
  4 C       -1.9780     2.5020     1.2420 C.3   1 <1>   0.4600 
  5 N       -2.8520     1.6830     0.3050 N.4   1 <1>  -0.9590 
  6 C       -1.8680     3.9240     0.6880 C.ar  1 <1>  -0.1430 
  7 C       -4.0830     2.3720    -0.1590 C.3   1 <1>   0.3430 
  8 C       -3.0770     0.3290     0.8760 C.3   1 <1>   0.3430 
  9 C       -2.4950     4.9680     1.3170 C.ar  1 <1>  -0.1500 
 10 C       -1.1360     4.1690    -0.4850 C.ar  1 <1>  -0.1500 
 11 C       -4.8050     1.4970    -1.1830 C.3   1 <1>  -0.1600 
 12 C       -3.8130    -0.5460    -0.1390 C.3   1 <1>  -0.1600 
 13 C       -2.4410     6.2800     0.8050 C.ar  1 <1>   0.0000 
 14 C       -1.0680     5.4320    -1.0040 C.ar  1 <1>  -0.1500 
 15 C       -5.1300     0.0890    -0.6450 C.3   1 <1>   0.0000 
 16 C       -1.7200     6.5160    -0.3840 C.ar  1 <1>   0.0000 
 17 C       -3.0830     7.3670     1.4330 C.ar  1 <1>  -0.1500 
 18 C       -6.1900     0.1740     0.4790 C.3   1 <1>  -0.1600 
 19 C       -5.7220    -0.7590    -1.7900 C.3   1 <1>  -0.1600 
 20 C       -1.6740     7.8240    -0.9000 C.ar  1 <1>  -0.1500 
 21 C       -3.0230     8.6290     0.9100 C.ar  1 <1>  -0.1500 
 22 C       -6.7700    -1.2000     0.8430 C.3   1 <1>   0.1200 
 23 C       -6.3250    -2.0780    -1.2910 C.3   1 <1>   0.1200 
 24 C       -2.3070     8.8660    -0.2790 C.ar  1 <1>   0.0830 
 25 O       -7.2700    -1.8040    -0.3060 O.3   1 <1>  -0.5600 
 26 O       -2.2070    10.0900    -0.8520 O.3   1 <1>  -0.3630 
 27 C       -2.7950    11.2330    -0.2720 C.3   1 <1>   0.0400 
 28 H       -2.4410     2.5500     2.2090 H     1 <1>   0.0800 
 29 H       -2.2030     1.5350    -0.4860 H     1 <1>   0.4500 
 30 H       -3.8300     3.3170    -0.6140 H     1 <1>   0.0800 
 31 H       -4.7310     2.5620     0.6800 H     1 <1>   0.0800 
 32 H       -3.6540     0.4060     1.7820 H     1 <1>   0.0800 
 33 H       -2.1290    -0.1290     1.1170 H     1 <1>   0.0800 
 34 H       -3.0460     4.8110     2.2260 H     1 <1>   0.1500 
 35 H       -0.6170     3.3580    -0.9700 H     1 <1>   0.1500 
 36 H       -4.1860     1.4210    -2.0600 H     1 <1>   0.0800 
 37 H       -5.7120     1.9940    -1.4810 H     1 <1>   0.0800 
 38 H       -3.9980    -1.5020     0.3130 H     1 <1>   0.0800 
 39 H       -3.1490    -0.7190    -0.9680 H     1 <1>   0.0800 
 40 H       -0.5040     5.6200    -1.9000 H     1 <1>   0.1500 
 41 H       -3.6250     7.1850     2.3430 H     1 <1>   0.1500 
 42 H       -7.0130     0.7870     0.1520 H     1 <1>   0.0800 
 43 H       -5.7900     0.6290     1.3660 H     1 <1>   0.0800 
 44 H       -4.9720    -0.9720    -2.5310 H     1 <1>   0.0800 
 45 H       -6.5080    -0.2120    -2.2810 H     1 <1>   0.0800 
 46 H       -1.1250     8.0060    -1.8050 H     1 <1>   0.1500 
 47 H       -3.5230     9.4340     1.4140 H     1 <1>   0.1500 
 48 H       -7.5880    -1.0910     1.5340 H     1 <1>   0.0800 
 49 H       -6.0320    -1.8490     1.2820 H     1 <1>   0.0800 
 50 H       -5.5770    -2.7350    -0.8810 H     1 <1>   0.0800 
 51 H       -6.8300    -2.5880    -2.0930 H     1 <1>   0.0800 
 52 H       -2.5680    12.0780    -0.8980 H     1 <1>   0.0800 
 53 H       -2.3770    11.3820     0.7080 H     1 <1>   0.0800 
 54 H       -3.8590    11.0920    -0.2220 H     1 <1>   0.0800 
@<TRIPOS>BOND
  1   1   2  ar  
  2   2   3  ar  
  3   2   4  1   
  4   4   5  1   
  5   4   6  1   
  6   4  28  1   
  7   5   7  1   
  8   5   8  1   
  9   5  29  1   
 10   6   9  ar  
 11   6  10  ar  
 12   7  11  1   
 13   7  30  1   
 14   7  31  1   
 15   8  12  1   
 16   8  32  1   
 17   8  33  1   
 18   9  13  ar  
 19   9  34  1   
 20  10  14  ar  
 21  10  35  1   
 22  11  15  1   
 23  11  36  1   
 24  11  37  1   
 25  12  15  1   
 26  12  38  1   
 27  12  39  1   
 28  13  16  ar  
 29  13  17  ar  
 30  14  16  ar  
 31  14  40  1   
 32  15  18  1   
 33  15  19  1   
 34  16  20  ar  
 35  17  21  ar  
 36  17  41  1   
 37  18  22  1   
 38  18  42  1   
 39  18  43  1   
 40  19  23  1   
 41  19  44  1   
 42  19  45  1   
 43  20  24  ar  
 44  20  46  1   
 45  21  24  ar  
 46  21  47  1   
 47  22  25  1   
 48  22  48  1   
 49  22  49  1   
 50  23  25  1   
 51  23  50  1   
 52  23  51  1   
 53  24  26  1   
 54  26  27  1   
 55  27  52  1   
 56  27  53  1   
 57  27  54  1   
@<TRIPOS>SUBSTRUCTURE
  1 ****   7 GROUP 4 **** **** 0

# MOE 2024.06 (io_trps.svl 2023.06)
