@<TRIPOS>MOLECULE
NONAME
47 49 1 0 0 
SMALL
USER_CHARGES


@<TRIPOS>ATOM
  1 O       -0.8550     0.2840    -0.6200 O.2   1 <1>  -0.5700 
  2 C       -1.6860     0.8990     0.0210 C.2   1 <1>   0.5440 
  3 N       -2.7360     0.1990     0.5760 N.am  1 <1>  -0.6600 
  4 C       -1.5640     2.3320     0.1570 C.ar  1 <1>   0.0860 
  5 C       -2.6980    -1.2920     0.7010 C.3   1 <1>   0.1400 
  6 C       -4.1280     0.7420     0.6280 C.3   1 <1>   0.1400 
  7 C       -1.0940     3.1050    -0.9040 C.ar  1 <1>   0.1600 
  8 C       -1.8980     3.0100     1.3270 C.ar  1 <1>  -0.1500 
  9 C       -3.6840    -1.9470    -0.2800 C.3   1 <1>   0.3440 
 10 C       -5.0590    -0.0260    -0.3400 C.3   1 <1>   0.2000 
 11 N       -0.9620     4.4210    -0.9100 N.ar  1 <1>  -0.6200 
 12 C       -1.7630     4.3770     1.3420 C.ar  1 <1>  -0.1500 
 13 O       -4.9660    -1.4040    -0.0930 O.3   1 <1>  -0.5600 
 14 C       -3.7280    -3.4580    -0.0710 C.ar  1 <1>  -0.1440 
 15 C       -6.5440     0.3860    -0.2120 C.3   1 <1>  -0.0800 
 16 C       -1.3000     5.0350     0.2080 C.ar  1 <1>   0.4100 
 17 C       -4.6180    -4.0450     0.8190 C.ar  1 <1>  -0.1500 
 18 C       -2.8490    -4.2690    -0.7760 C.ar  1 <1>  -0.1500 
 19 C       -7.4380    -0.4250    -1.1660 C.3   1 <1>  -0.2400 
 20 C       -6.7610     1.8840    -0.4930 C.3   1 <1>  -0.2400 
 21 N       -1.1500     6.3770     0.1770 N.pl3 1 <1>  -0.9000 
 22 C       -4.6290    -5.4170     1.0020 C.ar  1 <1>  -0.1500 
 23 C       -2.8580    -5.6410    -0.5940 C.ar  1 <1>  -0.1500 
 24 C       -3.7480    -6.2160     0.2950 C.ar  1 <1>  -0.1500 
 25 H       -1.7070    -1.6660     0.5100 H     1 <1>   0.0800 
 26 H       -2.9640    -1.5730     1.7040 H     1 <1>   0.0800 
 27 H       -4.5060     0.6540     1.6310 H     1 <1>   0.0800 
 28 H       -4.1280     1.7830     0.3610 H     1 <1>   0.0800 
 29 H       -0.8120     2.5880    -1.8060 H     1 <1>   0.1500 
 30 H       -2.2470     2.4700     2.1900 H     1 <1>   0.1500 
 31 H       -3.3780    -1.7380    -1.2910 H     1 <1>   0.0800 
 32 H       -4.7380     0.1490    -1.3530 H     1 <1>   0.0800 
 33 H       -2.0110     4.9500     2.2150 H     1 <1>   0.1500 
 34 H       -6.8610     0.1870     0.7980 H     1 <1>   0.0800 
 35 H       -5.3100    -3.4320     1.3710 H     1 <1>   0.1500 
 36 H       -2.1500    -3.8350    -1.4700 H     1 <1>   0.1500 
 37 H       -7.1410    -0.2720    -2.1880 H     1 <1>   0.0800 
 38 H       -8.4680    -0.1350    -1.0580 H     1 <1>   0.0800 
 39 H       -7.3670    -1.4760    -0.9450 H     1 <1>   0.0800 
 40 H       -6.3930     2.1430    -1.4700 H     1 <1>   0.0800 
 41 H       -6.2640     2.4940     0.2390 H     1 <1>   0.0800 
 42 H       -7.8100     2.1200    -0.4530 H     1 <1>   0.0800 
 43 H       -0.6880     6.7230    -0.6660 H     1 <1>   0.4000 
 44 H       -0.8970     6.8770     1.0280 H     1 <1>   0.4000 
 45 H       -5.3240    -5.8600     1.6920 H     1 <1>   0.1500 
 46 H       -2.1730    -6.2610    -1.1450 H     1 <1>   0.1500 
 47 H       -3.7560    -7.2830     0.4370 H     1 <1>   0.1500 
@<TRIPOS>BOND
  1   1   2  2   
  2   2   3  am  
  3   2   4  1   
  4   3   5  1   
  5   3   6  1   
  6   4   7  ar  
  7   4   8  ar  
  8   5   9  1   
  9   5  25  1   
 10   5  26  1   
 11   6  10  1   
 12   6  27  1   
 13   6  28  1   
 14   7  11  ar  
 15   7  29  1   
 16   8  12  ar  
 17   8  30  1   
 18   9  13  1   
 19   9  14  1   
 20   9  31  1   
 21  10  13  1   
 22  10  15  1   
 23  10  32  1   
 24  11  16  ar  
 25  12  16  ar  
 26  12  33  1   
 27  14  17  ar  
 28  14  18  ar  
 29  15  19  1   
 30  15  20  1   
 31  15  34  1   
 32  16  21  1   
 33  17  22  ar  
 34  17  35  1   
 35  18  23  ar  
 36  18  36  1   
 37  19  37  1   
 38  19  38  1   
 39  19  39  1   
 40  20  40  1   
 41  20  41  1   
 42  20  42  1   
 43  21  43  1   
 44  21  44  1   
 45  22  24  ar  
 46  22  45  1   
 47  23  24  ar  
 48  23  46  1   
 49  24  47  1   
@<TRIPOS>SUBSTRUCTURE
  1 ****   3 GROUP 4 **** **** 0

# MOE 2024.06 (io_trps.svl 2023.06)
