@<TRIPOS>MOLECULE
NONAME
46 47 1 0 0 
SMALL
USER_CHARGES


@<TRIPOS>ATOM
  1 F       -1.5160    -0.1060    -0.9320 F     1 <1>  -0.1900 
  2 C       -2.2030     0.4770     0.0120 C.ar  1 <1>   0.1900 
  3 C       -3.5630     0.2440     0.0810 C.ar  1 <1>  -0.1500 
  4 C       -1.5480     1.3040     0.9020 C.ar  1 <1>  -0.1500 
  5 C       -4.3020     0.8720     1.0750 C.ar  1 <1>  -0.1440 
  6 C       -2.2860     1.9170     1.8990 C.ar  1 <1>  -0.1500 
  7 C       -3.6530     1.7000     1.9850 C.ar  1 <1>  -0.1500 
  8 C       -5.8000     0.6540     1.1690 C.3   1 <1>   0.4870 
  9 N       -6.4740     1.1750    -0.0570 N.4   1 <1>  -0.9590 
 10 C       -6.5340     2.6550    -0.2650 C.3   1 <1>   0.4230 
 11 C       -7.8100     0.5340    -0.2450 C.3   1 <1>   0.4860 
 12 C       -5.1920     3.2570    -0.7270 C.3   1 <1>   0.1200 
 13 C       -7.0790     3.3570     0.9840 C.3   1 <1>  -0.2400 
 14 C       -7.6200    -0.9260    -0.6600 C.ar  1 <1>   0.1670 
 15 O       -5.4350     4.5310    -1.2300 O.3   1 <1>  -0.5600 
 16 N       -6.5630    -1.1570    -1.4360 N.ar  1 <1>  -0.6200 
 17 C       -8.5050    -1.9100    -0.2250 C.ar  1 <1>  -0.1430 
 18 C       -4.2950     5.1950    -1.6780 C.3   1 <1>   0.0400 
 19 C       -6.3830    -2.4170    -1.8040 C.ar  1 <1>   0.1600 
 20 C       -8.2870    -3.2160    -0.6180 C.ar  1 <1>  -0.1500 
 21 C       -9.7080    -1.6060     0.6620 C.3   1 <1>  -0.0970 
 22 C       -7.2000    -3.4640    -1.4260 C.ar  1 <1>  -0.1500 
 23 H       -4.0120    -0.4220    -0.6360 H     1 <1>   0.1500 
 24 H       -0.4860     1.4580     0.8150 H     1 <1>   0.1500 
 25 H       -1.7930     2.5610     2.6100 H     1 <1>   0.1500 
 26 H       -4.2010     2.1870     2.7750 H     1 <1>   0.1500 
 27 H       -6.1920     1.1350     2.0480 H     1 <1>   0.0800 
 28 H       -5.9780    -0.4060     1.2580 H     1 <1>   0.0800 
 29 H       -5.9400     0.7600    -0.8410 H     1 <1>   0.4500 
 30 H       -7.2230     2.8400    -1.0730 H     1 <1>   0.0800 
 31 H       -8.3430     1.0350    -1.0360 H     1 <1>   0.0800 
 32 H       -8.3910     0.6020     0.6580 H     1 <1>   0.0800 
 33 H       -4.7620     2.6640    -1.5160 H     1 <1>   0.0800 
 34 H       -4.5000     3.3490     0.0900 H     1 <1>   0.0800 
 35 H       -6.3780     3.3150     1.7960 H     1 <1>   0.0800 
 36 H       -8.0220     2.9420     1.2880 H     1 <1>   0.0800 
 37 H       -7.2400     4.3960     0.7550 H     1 <1>   0.0800 
 38 H       -4.5910     6.1620    -2.0440 H     1 <1>   0.0800 
 39 H       -3.8410     4.6310    -2.4750 H     1 <1>   0.0800 
 40 H       -3.6060     5.3150    -0.8590 H     1 <1>   0.0800 
 41 H       -5.5390    -2.6310    -2.4410 H     1 <1>   0.1500 
 42 H       -8.9370    -4.0210    -0.3150 H     1 <1>   0.1500 
 43 H      -10.3360    -0.8600     0.2060 H     1 <1>   0.0800 
 44 H       -9.3870    -1.2620     1.6290 H     1 <1>   0.0800 
 45 H      -10.3060    -2.4890     0.8080 H     1 <1>   0.0800 
 46 H       -6.9890    -4.4640    -1.7640 H     1 <1>   0.1500 
@<TRIPOS>BOND
  1   1   2  1   
  2   2   3  ar  
  3   2   4  ar  
  4   3   5  ar  
  5   3  23  1   
  6   4   6  ar  
  7   4  24  1   
  8   5   7  ar  
  9   5   8  1   
 10   6   7  ar  
 11   6  25  1   
 12   7  26  1   
 13   8   9  1   
 14   8  27  1   
 15   8  28  1   
 16   9  10  1   
 17   9  11  1   
 18   9  29  1   
 19  10  12  1   
 20  10  13  1   
 21  10  30  1   
 22  11  14  1   
 23  11  31  1   
 24  11  32  1   
 25  12  15  1   
 26  12  33  1   
 27  12  34  1   
 28  13  35  1   
 29  13  36  1   
 30  13  37  1   
 31  14  16  ar  
 32  14  17  ar  
 33  15  18  1   
 34  16  19  ar  
 35  17  20  ar  
 36  17  21  1   
 37  18  38  1   
 38  18  39  1   
 39  18  40  1   
 40  19  22  ar  
 41  19  41  1   
 42  20  22  ar  
 43  20  42  1   
 44  21  43  1   
 45  21  44  1   
 46  21  45  1   
 47  22  46  1   
@<TRIPOS>SUBSTRUCTURE
  1 ****   9 GROUP 4 **** **** 0

# MOE 2024.06 (io_trps.svl 2023.06)
