@<TRIPOS>MOLECULE
NONAME
47 50 1 0 0 
SMALL
USER_CHARGES


@<TRIPOS>ATOM
  1 O        2.4910    -0.5110     2.7110 O.2   1 <1>  -0.5700 
  2 C        2.3390    -0.8750     1.5570 C.2   1 <1>   0.5440 
  3 N        2.6020     0.0380     0.5450 N.am  1 <1>  -0.6600 
  4 C        1.9370    -2.2380     1.2900 C.ar  1 <1>   0.0860 
  5 C        2.9020     1.4590     0.9100 C.3   1 <1>   0.1400 
  6 C        2.9100    -0.4210    -0.8490 C.3   1 <1>   0.1400 
  7 C        0.8140    -2.5240     0.4890 C.ar  1 <1>   0.0000 
  8 C        2.6500    -3.3150     1.7930 C.ar  1 <1>  -0.1500 
  9 C        4.4150     1.8020     0.9110 C.3   1 <1>   0.4230 
 10 C        4.2820     0.0310    -1.3960 C.3   1 <1>  -0.0800 
 11 C        0.4690    -3.8410     0.1890 C.ar  1 <1>  -0.1520 
 12 C       -0.1460    -1.7140    -0.1530 C.2   1 <1>  -0.1500 
 13 C        2.2960    -4.6340     1.5030 C.ar  1 <1>  -0.1500 
 14 N        4.9170     2.2810    -0.4300 N.4   1 <1>  -0.9590 
 15 C        5.3400     0.6780     1.4550 C.3   1 <1>   0.1200 
 16 C        5.5110    -0.5420    -0.6560 C.3   1 <1>   0.1200 
 17 C        4.3410     1.5460    -1.5950 C.3   1 <1>   0.3430 
 18 N       -0.6440    -3.8290    -0.6170 N.pl3 1 <1>   0.0480 
 19 C        1.2130    -4.9060     0.7000 C.ar  1 <1>  -0.1500 
 20 C       -1.0030    -2.5280    -0.8130 C.2   1 <1>  -0.3020 
 21 C        4.7290     3.7560    -0.5920 C.3   1 <1>   0.2630 
 22 O        5.3600    -0.5250     0.7280 O.3   1 <1>  -0.5600 
 23 C       -1.3460    -5.0110    -1.1430 C.3   1 <1>   0.0160 
 24 H        2.3660     2.1180     0.2530 H     1 <1>   0.0800 
 25 H        2.5240     1.6560     1.8980 H     1 <1>   0.0800 
 26 H        2.8880    -1.4960    -0.8930 H     1 <1>   0.0800 
 27 H        2.1280    -0.0690    -1.4990 H     1 <1>   0.0800 
 28 H        3.5030    -3.1260     2.4220 H     1 <1>   0.1500 
 29 H        4.5270     2.6230     1.5980 H     1 <1>   0.0800 
 30 H        4.3290    -0.3770    -2.3900 H     1 <1>   0.0800 
 31 H       -0.1660    -0.6390    -0.0970 H     1 <1>   0.1500 
 32 H        2.8820    -5.4380     1.9160 H     1 <1>   0.1500 
 33 H        5.9260     2.0800    -0.4240 H     1 <1>   0.4500 
 34 H        5.0170     0.4220     2.4500 H     1 <1>   0.0800 
 35 H        6.3520     1.0340     1.5270 H     1 <1>   0.0800 
 36 H        6.4220    -0.0320    -0.9160 H     1 <1>   0.0800 
 37 H        5.6260    -1.5780    -0.9260 H     1 <1>   0.0800 
 38 H        3.3440     1.9050    -1.7970 H     1 <1>   0.0800 
 39 H        4.9420     1.7550    -2.4650 H     1 <1>   0.0800 
 40 H        0.9370    -5.9200     0.4710 H     1 <1>   0.1500 
 41 H       -1.8580    -2.2550    -1.4070 H     1 <1>   0.1500 
 42 H        3.6790     4.0030    -0.5920 H     1 <1>   0.0800 
 43 H        5.1610     4.0890    -1.5220 H     1 <1>   0.0800 
 44 H        5.2080     4.2870     0.2150 H     1 <1>   0.0800 
 45 H       -2.1770    -4.6980    -1.7470 H     1 <1>   0.0800 
 46 H       -1.7010    -5.6040    -0.3210 H     1 <1>   0.0800 
 47 H       -0.6650    -5.5900    -1.7400 H     1 <1>   0.0800 
@<TRIPOS>BOND
  1   1   2  2   
  2   2   3  am  
  3   2   4  1   
  4   3   5  1   
  5   3   6  1   
  6   4   7  ar  
  7   4   8  ar  
  8   5   9  1   
  9   5  24  1   
 10   5  25  1   
 11   6  10  1   
 12   6  26  1   
 13   6  27  1   
 14   7  11  ar  
 15   7  12  1   
 16   8  13  ar  
 17   8  28  1   
 18   9  14  1   
 19   9  15  1   
 20   9  29  1   
 21  10  16  1   
 22  10  17  1   
 23  10  30  1   
 24  11  18  1   
 25  11  19  ar  
 26  12  20  2   
 27  12  31  1   
 28  13  19  ar  
 29  13  32  1   
 30  14  17  1   
 31  14  21  1   
 32  14  33  1   
 33  15  22  1   
 34  15  34  1   
 35  15  35  1   
 36  16  22  1   
 37  16  36  1   
 38  16  37  1   
 39  17  38  1   
 40  17  39  1   
 41  18  20  1   
 42  18  23  1   
 43  19  40  1   
 44  20  41  1   
 45  21  42  1   
 46  21  43  1   
 47  21  44  1   
 48  23  45  1   
 49  23  46  1   
 50  23  47  1   
@<TRIPOS>SUBSTRUCTURE
  1 ****   3 GROUP 4 **** **** 0

# MOE 2024.06 (io_trps.svl 2023.06)
