@<TRIPOS>MOLECULE
NONAME
33 33 1 0 0 
SMALL
USER_CHARGES


@<TRIPOS>ATOM
  1 S       -0.3150     0.4120     1.3070 S.o2  1 <1>   1.0900 
  2 O        0.5610     0.3700     2.4550 O.2   1 <1>  -0.6500 
  3 O       -1.7450     0.3790     1.4840 O.2   1 <1>  -0.6500 
  4 C        0.0900     1.8850     0.3700 C.3   1 <1>  -0.0550 
  5 C        0.1290    -0.9320     0.2210 C.3   1 <1>  -0.1350 
  6 C        1.6030     2.1280     0.2330 C.3   1 <1>  -0.0990 
  7 C        1.8640     3.3640    -0.5960 C.2   1 <1>   0.5690 
  8 O        1.5850     3.3130    -1.7640 O.2   1 <1>  -0.5700 
  9 N        2.3920     4.4590     0.0240 N.am  1 <1>  -0.4940 
 10 C        2.6500     5.7100    -0.4960 C.2   1 <1>   0.4420 
 11 S        3.4260     6.8410     0.5620 S.3   1 <1>  -0.0800 
 12 N        2.4110     6.2110    -1.6510 N.2   1 <1>  -0.3380 
 13 C        3.3490     7.9960    -0.7280 C.2   1 <1>   0.1980 
 14 N        2.8110     7.5130    -1.7770 N.2   1 <1>  -0.3380 
 15 C        3.9310     9.3890    -0.4770 C.3   1 <1>   0.3800 
 16 O        3.4980     9.8510     0.7730 O.3   1 <1>  -0.5600 
 17 C        3.4940    10.4050    -1.5400 C.3   1 <1>  -0.2400 
 18 C        4.3440    10.7540     1.4150 C.3   1 <1>   0.0400 
 19 H       -0.3440     2.7350     0.8630 H     1 <1>   0.0800 
 20 H       -0.3540     1.8250    -0.6070 H     1 <1>   0.0800 
 21 H       -0.1060    -1.8680     0.6890 H     1 <1>   0.0800 
 22 H        1.1790    -0.9190     0.0050 H     1 <1>   0.0800 
 23 H       -0.4190    -0.8690    -0.6990 H     1 <1>   0.0800 
 24 H        2.0670     1.2930    -0.2600 H     1 <1>   0.0800 
 25 H        2.0470     2.2300     1.2060 H     1 <1>   0.0800 
 26 H        2.6240     4.3570     1.0070 H     1 <1>   0.3700 
 27 H        5.0030     9.3040    -0.4620 H     1 <1>   0.0800 
 28 H        2.4230    10.5080    -1.5260 H     1 <1>   0.0800 
 29 H        3.7870    10.0570    -2.5140 H     1 <1>   0.0800 
 30 H        3.9510    11.3610    -1.3730 H     1 <1>   0.0800 
 31 H        3.9020    11.0080     2.3620 H     1 <1>   0.0800 
 32 H        4.4460    11.6440     0.8190 H     1 <1>   0.0800 
 33 H        5.3020    10.2920     1.5780 H     1 <1>   0.0800 
@<TRIPOS>BOND
  1   1   2  2   
  2   1   3  2   
  3   1   4  1   
  4   1   5  1   
  5   4   6  1   
  6   4  19  1   
  7   4  20  1   
  8   5  21  1   
  9   5  22  1   
 10   5  23  1   
 11   6   7  1   
 12   6  24  1   
 13   6  25  1   
 14   7   8  2   
 15   7   9  am  
 16   9  10  1   
 17   9  26  1   
 18  10  11  1   
 19  10  12  2   
 20  11  13  1   
 21  12  14  1   
 22  13  14  2   
 23  13  15  1   
 24  15  16  1   
 25  15  17  1   
 26  15  27  1   
 27  16  18  1   
 28  17  28  1   
 29  17  29  1   
 30  17  30  1   
 31  18  31  1   
 32  18  32  1   
 33  18  33  1   
@<TRIPOS>SUBSTRUCTURE
  1 ****   9 GROUP 4 **** **** 0

# MOE 2024.06 (io_trps.svl 2023.06)
