@<TRIPOS>MOLECULE
NONAME
59 61 1 0 0 
SMALL
USER_CHARGES


@<TRIPOS>ATOM
  1 F       -2.4410     1.4210     2.2930 F     1 <1>  -0.1900 
  2 C       -2.3650     1.8550     1.0630 C.ar  1 <1>   0.1900 
  3 C       -2.9700     1.1230     0.0420 C.ar  1 <1>   0.0860 
  4 C       -1.6810     3.0370     0.8440 C.ar  1 <1>  -0.1500 
  5 C       -3.6940    -0.1030     0.2870 C.2   1 <1>   0.5440 
  6 C       -2.8490     1.6350    -1.2480 C.ar  1 <1>  -0.1500 
  7 C       -1.5860     3.5280    -0.4460 C.ar  1 <1>  -0.1500 
  8 O       -3.2820    -1.1390    -0.2010 O.2   1 <1>  -0.5700 
  9 N       -4.8700    -0.1370     1.0100 N.am  1 <1>  -0.6600 
 10 C       -2.1740     2.8200    -1.4840 C.ar  1 <1>   0.0830 
 11 C       -5.5290    -1.4420     1.2900 C.3   1 <1>   0.1400 
 12 C       -5.6090     1.0810     1.4460 C.3   1 <1>   0.1400 
 13 O       -2.0970     3.2790    -2.7410 O.3   1 <1>  -0.5320 
 14 C       -6.3590    -1.9060     0.0810 C.3   1 <1>   0.1400 
 15 C       -7.0950     1.0410     1.0620 C.3   1 <1>  -0.1600 
 16 N       -7.5960    -1.0860    -0.1430 N.am  1 <1>  -0.6600 
 17 C       -7.3690     0.3860    -0.2970 C.3   1 <1>   0.1400 
 18 C       -8.8760    -1.5690    -0.2640 C.2   1 <1>   0.5690 
 19 O       -9.8310    -0.8580    -0.0690 O.2   1 <1>  -0.5700 
 20 C       -9.2200    -3.0160    -0.6080 C.3   1 <1>  -0.0190 
 21 C       -9.2670    -3.7780     0.7270 C.3   1 <1>   0.3430 
 22 C       -8.3770    -3.6350    -1.7480 C.3   1 <1>  -0.2400 
 23 N       -9.7880    -5.1900     0.6710 N.4   1 <1>  -0.9590 
 24 C       -8.7770    -6.1730     0.1800 C.3   1 <1>   0.3430 
 25 C      -11.0890    -5.3080    -0.0560 C.3   1 <1>   0.3430 
 26 C       -9.3060    -7.5940     0.3810 C.3   1 <1>  -0.1600 
 27 C      -11.6580    -6.7160     0.1340 C.3   1 <1>  -0.1600 
 28 C      -10.6630    -7.7980    -0.3060 C.3   1 <1>  -0.1600 
 29 H       -1.2320     3.5600     1.6710 H     1 <1>   0.1500 
 30 H       -3.2850     1.1010    -2.0740 H     1 <1>   0.1500 
 31 H       -1.0600     4.4470    -0.6360 H     1 <1>   0.1500 
 32 H       -6.1470    -1.3700     2.1670 H     1 <1>   0.0800 
 33 H       -4.7660    -2.1750     1.4900 H     1 <1>   0.0800 
 34 H       -5.1720     1.9510     0.9890 H     1 <1>   0.0800 
 35 H       -5.5110     1.1920     2.5130 H     1 <1>   0.0800 
 36 H       -1.5780     4.0990    -2.8260 H     1 <1>   0.4500 
 37 H       -6.6240    -2.9260     0.2650 H     1 <1>   0.0800 
 38 H       -5.7450    -1.8790    -0.8030 H     1 <1>   0.0800 
 39 H       -7.4440     2.0580     1.0250 H     1 <1>   0.0800 
 40 H       -7.6680     0.5490     1.8260 H     1 <1>   0.0800 
 41 H       -6.5520     0.5630    -0.9770 H     1 <1>   0.0800 
 42 H       -8.2450     0.8410    -0.7290 H     1 <1>   0.0800 
 43 H      -10.2260    -2.9650    -0.9840 H     1 <1>   0.0800 
 44 H       -9.9010    -3.2090     1.3910 H     1 <1>   0.0800 
 45 H       -8.2830    -3.7800     1.1640 H     1 <1>   0.0800 
 46 H       -7.4150    -3.9750    -1.4170 H     1 <1>   0.0800 
 47 H       -8.2250    -2.9000    -2.5220 H     1 <1>   0.0800 
 48 H       -8.8970    -4.4630    -2.1930 H     1 <1>   0.0800 
 49 H       -9.9910    -5.4700     1.6400 H     1 <1>   0.4500 
 50 H       -7.8510    -6.0550     0.7190 H     1 <1>   0.0800 
 51 H       -8.5840    -6.0150    -0.8680 H     1 <1>   0.0800 
 52 H      -10.9390    -5.1230    -1.1070 H     1 <1>   0.0800 
 53 H      -11.7920    -4.5820     0.3200 H     1 <1>   0.0800 
 54 H       -9.3910    -7.8000     1.4340 H     1 <1>   0.0800 
 55 H       -8.5950    -8.2940    -0.0250 H     1 <1>   0.0800 
 56 H      -12.5620    -6.8090    -0.4430 H     1 <1>   0.0800 
 57 H      -11.9230    -6.8580     1.1680 H     1 <1>   0.0800 
 58 H      -11.0530    -8.7730    -0.0640 H     1 <1>   0.0800 
 59 H      -10.5350    -7.7540    -1.3750 H     1 <1>   0.0800 
@<TRIPOS>BOND
  1   1   2  1   
  2   2   3  ar  
  3   2   4  ar  
  4   3   5  1   
  5   3   6  ar  
  6   4   7  ar  
  7   4  29  1   
  8   5   8  2   
  9   5   9  am  
 10   6  10  ar  
 11   6  30  1   
 12   7  10  ar  
 13   7  31  1   
 14   9  11  1   
 15   9  12  1   
 16  10  13  1   
 17  11  14  1   
 18  11  32  1   
 19  11  33  1   
 20  12  15  1   
 21  12  34  1   
 22  12  35  1   
 23  13  36  1   
 24  14  16  1   
 25  14  37  1   
 26  14  38  1   
 27  15  17  1   
 28  15  39  1   
 29  15  40  1   
 30  16  17  1   
 31  16  18  am  
 32  17  41  1   
 33  17  42  1   
 34  18  19  2   
 35  18  20  1   
 36  20  21  1   
 37  20  22  1   
 38  20  43  1   
 39  21  23  1   
 40  21  44  1   
 41  21  45  1   
 42  22  46  1   
 43  22  47  1   
 44  22  48  1   
 45  23  24  1   
 46  23  25  1   
 47  23  49  1   
 48  24  26  1   
 49  24  50  1   
 50  24  51  1   
 51  25  27  1   
 52  25  52  1   
 53  25  53  1   
 54  26  28  1   
 55  26  54  1   
 56  26  55  1   
 57  27  28  1   
 58  27  56  1   
 59  27  57  1   
 60  28  58  1   
 61  28  59  1   
@<TRIPOS>SUBSTRUCTURE
  1 ****  14 GROUP 4 **** **** 0

# MOE 2024.06 (io_trps.svl 2023.06)
