@<TRIPOS>MOLECULE
NONAME
45 46 1 0 0 
SMALL
USER_CHARGES


@<TRIPOS>ATOM
  1 S       -1.0710     0.9920     0.8750 S.o2  1 <1>   1.4470 
  2 O       -1.0530     0.0420     1.9660 O.2   1 <1>  -0.6500 
  3 O       -1.8410     2.2120     1.0040 O.2   1 <1>  -0.6500 
  4 N       -1.5900     0.1980    -0.5310 N.am  1 <1>  -0.8490 
  5 C        0.6370     1.4390     0.4510 C.ar  1 <1>  -0.0090 
  6 C       -0.9900    -1.1490    -0.7360 C.3   1 <1>   0.1960 
  7 C       -3.0430     0.2140    -0.7340 C.3   1 <1>   0.1960 
  8 C        0.9290     2.0950    -0.7390 C.ar  1 <1>  -0.1500 
  9 C        1.6950     1.1410     1.3020 C.ar  1 <1>  -0.1500 
 10 C       -1.9690    -2.3430    -0.6520 C.3   1 <1>   0.2000 
 11 C       -3.7770    -0.7530     0.2100 C.3   1 <1>  -0.1600 
 12 C        2.2280     2.4360    -1.0720 C.ar  1 <1>  -0.1500 
 13 C        2.9970     1.4800     0.9750 C.ar  1 <1>  -0.1500 
 14 O       -2.5780    -2.5310    -1.8850 O.3   1 <1>  -0.6800 
 15 C       -3.0560    -2.1120     0.4030 C.3   1 <1>  -0.1860 
 16 C        3.2720     2.1280    -0.2170 C.ar  1 <1>  -0.1430 
 17 C       -4.0090    -3.2910     0.4450 C.2   1 <1>   0.9060 
 18 C        4.7010     2.5040    -0.5780 C.3   1 <1>  -0.0160 
 19 O       -4.1680    -3.8970     1.5060 O.co2 1 <1>  -0.9000 
 20 O       -4.5770    -3.6260    -0.6050 O.co2 1 <1>  -0.9000 
 21 C        5.0390     3.9030    -0.0520 C.3   1 <1>  -0.1600 
 22 C        6.4760     4.3070    -0.4030 C.3   1 <1>  -0.1600 
 23 C        6.8000     5.7050     0.1280 C.3   1 <1>  -0.2400 
 24 H       -0.5130    -1.1730    -1.7000 H     1 <1>   0.0800 
 25 H       -0.2190    -1.3100    -0.0030 H     1 <1>   0.0800 
 26 H       -3.4300     1.2110    -0.6110 H     1 <1>   0.0800 
 27 H       -3.2450    -0.0780    -1.7510 H     1 <1>   0.0800 
 28 H        0.1240     2.3380    -1.4120 H     1 <1>   0.1500 
 29 H        1.4970     0.6370     2.2330 H     1 <1>   0.1500 
 30 H       -1.4310    -3.2490    -0.4310 H     1 <1>   0.0800 
 31 H       -3.9160    -0.2880     1.1700 H     1 <1>   0.0800 
 32 H       -4.7580    -0.9260    -0.1990 H     1 <1>   0.0800 
 33 H        2.4230     2.9450    -2.0010 H     1 <1>   0.1500 
 34 H        3.7960     1.2380     1.6550 H     1 <1>   0.1500 
 35 H       -3.4300    -3.0300    -1.6910 H     1 <1>   0.4000 
 36 H       -2.5650    -2.0850     1.3580 H     1 <1>   0.0800 
 37 H        5.3800     1.7830    -0.1570 H     1 <1>   0.0800 
 38 H        4.8200     2.4790    -1.6470 H     1 <1>   0.0800 
 39 H        4.3510     4.6140    -0.4760 H     1 <1>   0.0800 
 40 H        4.9120     3.9170     1.0170 H     1 <1>   0.0800 
 41 H        7.1670     3.5990     0.0230 H     1 <1>   0.0800 
 42 H        6.6050     4.2970    -1.4730 H     1 <1>   0.0800 
 43 H        6.7000     5.7340     1.1990 H     1 <1>   0.0800 
 44 H        6.1350     6.4340    -0.3010 H     1 <1>   0.0800 
 45 H        7.8100     5.9720    -0.1280 H     1 <1>   0.0800 
@<TRIPOS>BOND
  1   1   2  2   
  2   1   3  2   
  3   1   4  am  
  4   1   5  1   
  5   4   6  1   
  6   4   7  1   
  7   5   8  ar  
  8   5   9  ar  
  9   6  10  1   
 10   6  24  1   
 11   6  25  1   
 12   7  11  1   
 13   7  26  1   
 14   7  27  1   
 15   8  12  ar  
 16   8  28  1   
 17   9  13  ar  
 18   9  29  1   
 19  10  14  1   
 20  10  15  1   
 21  10  30  1   
 22  11  15  1   
 23  11  31  1   
 24  11  32  1   
 25  12  16  ar  
 26  12  33  1   
 27  13  16  ar  
 28  13  34  1   
 29  14  35  1   
 30  15  17  1   
 31  15  36  1   
 32  16  18  1   
 33  17  19  ar  
 34  17  20  ar  
 35  18  21  1   
 36  18  37  1   
 37  18  38  1   
 38  21  22  1   
 39  21  39  1   
 40  21  40  1   
 41  22  23  1   
 42  22  41  1   
 43  22  42  1   
 44  23  43  1   
 45  23  44  1   
 46  23  45  1   
@<TRIPOS>SUBSTRUCTURE
  1 ****   5 GROUP 4 **** **** 0

# MOE 2024.06 (io_trps.svl 2023.06)
