@<TRIPOS>MOLECULE
NONAME
55 57 1 0 0 
SMALL
USER_CHARGES


@<TRIPOS>ATOM
  1 O       -0.1410     0.9100    -0.8000 O.2   1 <1>  -0.5700 
  2 C       -0.0160     2.0590    -0.4610 C.2   1 <1>   0.5690 
  3 N       -1.0750     2.7580     0.0010 N.am  1 <1>  -0.7300 
  4 C        1.3430     2.7540    -0.5880 C.3   1 <1>   0.1810 
  5 C       -1.0010     4.1740     0.4370 C.3   1 <1>   0.3640 
  6 O        1.4300     3.9410     0.1700 O.3   1 <1>  -0.5600 
  7 C       -2.1840     4.9310    -0.1600 C.ar  1 <1>  -0.1440 
  8 C        0.3390     4.8350     0.0120 C.3   1 <1>   0.2610 
  9 C       -2.8780     5.8510     0.6160 C.ar  1 <1>   0.1600 
 10 C       -2.5870     4.7360    -1.4690 C.ar  1 <1>  -0.1500 
 11 C        0.5950     6.1490     0.7740 C.2   1 <1>   0.5690 
 12 N       -3.9120     6.5650     0.2010 N.ar  1 <1>  -0.6200 
 13 C       -3.6630     5.4730    -1.9150 C.ar  1 <1>  -0.1500 
 14 O       -0.0190     6.3380     1.8010 O.2   1 <1>  -0.5700 
 15 N        1.4730     7.0950     0.2940 N.am  1 <1>  -0.6600 
 16 C       -4.2810     6.3600    -1.0520 C.ar  1 <1>   0.1600 
 17 C        2.4070     6.8790    -0.8510 C.3   1 <1>   0.2840 
 18 C        1.6110     8.4140     0.9780 C.3   1 <1>   0.1400 
 19 C        3.8550     6.8910    -0.3830 C.ar  1 <1>  -0.1430 
 20 C        0.6950     9.4380     0.3040 C.3   1 <1>  -0.1600 
 21 C        4.7500     7.8220    -0.8890 C.ar  1 <1>  -0.1500 
 22 C        4.2960     5.9700     0.5540 C.ar  1 <1>  -0.1500 
 23 C        0.8000    10.8080     0.9850 C.3   1 <1>  -0.1600 
 24 C        6.0670     7.8280    -0.4650 C.ar  1 <1>  -0.1500 
 25 C        5.6140     5.9770     0.9770 C.ar  1 <1>  -0.1500 
 26 C       -0.1210    11.8290     0.3110 C.3   1 <1>  -0.2400 
 27 C        6.5070     6.9050     0.4690 C.ar  1 <1>  -0.1430 
 28 C        7.9510     6.9130     0.9360 C.3   1 <1>  -0.0970 
 29 H       -1.9730     2.2820     0.1000 H     1 <1>   0.3700 
 30 H        1.5280     2.9930    -1.6190 H     1 <1>   0.0800 
 31 H        2.1150     2.0890    -0.2440 H     1 <1>   0.0800 
 32 H       -1.0750     4.1850     1.5120 H     1 <1>   0.0800 
 33 H        0.2680     5.0730    -1.0330 H     1 <1>   0.0800 
 34 H       -2.5660     6.0160     1.6350 H     1 <1>   0.1500 
 35 H       -2.0930     4.0370    -2.1230 H     1 <1>   0.1500 
 36 H       -4.0240     5.3630    -2.9210 H     1 <1>   0.1500 
 37 H       -5.1220     6.9300    -1.4090 H     1 <1>   0.1500 
 38 H        2.2210     5.9400    -1.3360 H     1 <1>   0.0800 
 39 H        2.2500     7.6560    -1.5780 H     1 <1>   0.0800 
 40 H        1.3430     8.3190     2.0170 H     1 <1>   0.0800 
 41 H        2.6330     8.7490     0.9400 H     1 <1>   0.0800 
 42 H        0.9640     9.5360    -0.7330 H     1 <1>   0.0800 
 43 H       -0.3220     9.0890     0.3650 H     1 <1>   0.0800 
 44 H        4.4290     8.5480    -1.6150 H     1 <1>   0.1500 
 45 H        3.6120     5.2450     0.9610 H     1 <1>   0.1500 
 46 H        0.5260    10.7160     2.0230 H     1 <1>   0.0800 
 47 H        1.8160    11.1610     0.9380 H     1 <1>   0.0800 
 48 H        6.7500     8.5570    -0.8650 H     1 <1>   0.1500 
 49 H        5.9380     5.2570     1.7070 H     1 <1>   0.1500 
 50 H       -1.1450    11.5020     0.3660 H     1 <1>   0.0800 
 51 H        0.1480    11.9550    -0.7230 H     1 <1>   0.0800 
 52 H       -0.0400    12.7810     0.8050 H     1 <1>   0.0800 
 53 H        8.5960     7.2800     0.1590 H     1 <1>   0.0800 
 54 H        8.2670     5.9190     1.1970 H     1 <1>   0.0800 
 55 H        8.0490     7.5470     1.7990 H     1 <1>   0.0800 
@<TRIPOS>BOND
  1   1   2  2   
  2   2   3  am  
  3   2   4  1   
  4   3   5  1   
  5   3  29  1   
  6   4   6  1   
  7   4  30  1   
  8   4  31  1   
  9   5   7  1   
 10   5   8  1   
 11   5  32  1   
 12   6   8  1   
 13   7   9  ar  
 14   7  10  ar  
 15   8  11  1   
 16   8  33  1   
 17   9  12  ar  
 18   9  34  1   
 19  10  13  ar  
 20  10  35  1   
 21  11  14  2   
 22  11  15  am  
 23  12  16  ar  
 24  13  16  ar  
 25  13  36  1   
 26  15  17  1   
 27  15  18  1   
 28  16  37  1   
 29  17  19  1   
 30  17  38  1   
 31  17  39  1   
 32  18  20  1   
 33  18  40  1   
 34  18  41  1   
 35  19  21  ar  
 36  19  22  ar  
 37  20  23  1   
 38  20  42  1   
 39  20  43  1   
 40  21  24  ar  
 41  21  44  1   
 42  22  25  ar  
 43  22  45  1   
 44  23  26  1   
 45  23  46  1   
 46  23  47  1   
 47  24  27  ar  
 48  24  48  1   
 49  25  27  ar  
 50  25  49  1   
 51  26  50  1   
 52  26  51  1   
 53  26  52  1   
 54  27  28  1   
 55  28  53  1   
 56  28  54  1   
 57  28  55  1   
@<TRIPOS>SUBSTRUCTURE
  1 ****  11 GROUP 4 **** **** 0

# MOE 2024.06 (io_trps.svl 2023.06)
