@<TRIPOS>MOLECULE
NONAME
21 22 1 0 0 
SMALL
USER_CHARGES


@<TRIPOS>ATOM
  1 CL      -0.7950    -0.4050     1.0460 Cl    1 <1>  -0.1770 
  2 C       -0.4280    -2.0420     0.5900 C.ar  1 <1>   0.7970 
  3 N        0.8470    -2.3750     0.6860 N.ar  1 <1>  -0.6200 
  4 N       -1.4590    -2.7600     0.2070 N.ar  1 <1>  -0.6200 
  5 C        1.0940    -3.6150     0.3230 C.ar  1 <1>   0.1600 
  6 C       -1.1830    -4.0020    -0.1370 C.ar  1 <1>   0.4100 
  7 C        0.1240    -4.4810    -0.1200 C.ar  1 <1>  -0.1790 
  8 N       -2.3040    -4.7080    -0.4680 N.pl3 1 <1>  -0.6690 
  9 C        0.5360    -5.7880    -0.5220 C.2   1 <1>   0.9790 
 10 C       -2.4560    -6.1670    -0.5550 C.3   1 <1>   0.0690 
 11 O        0.4250    -6.1680    -1.6990 O.co2 1 <1>  -0.9000 
 12 O        1.1040    -6.5260     0.2990 O.co2 1 <1>  -0.9000 
 13 C       -3.6560    -6.7850     0.0870 C.3   1 <1>  -0.2000 
 14 C       -2.3050    -6.9560     0.7050 C.3   1 <1>  -0.2000 
 15 H        2.1130    -3.9670     0.3740 H     1 <1>   0.1500 
 16 H       -3.1720    -4.1770    -0.4380 H     1 <1>   0.4000 
 17 H       -2.0640    -6.5840    -1.4710 H     1 <1>   0.1000 
 18 H       -4.1070    -7.6410    -0.3800 H     1 <1>   0.1000 
 19 H       -4.3690    -6.1510     0.5820 H     1 <1>   0.1000 
 20 H       -2.0360    -6.4160     1.5950 H     1 <1>   0.1000 
 21 H       -1.7850    -7.8950     0.6230 H     1 <1>   0.1000 
@<TRIPOS>BOND
  1   1   2  1   
  2   2   3  ar  
  3   2   4  ar  
  4   3   5  ar  
  5   4   6  ar  
  6   5   7  ar  
  7   5  15  1   
  8   6   7  ar  
  9   6   8  1   
 10   7   9  1   
 11   8  10  1   
 12   8  16  1   
 13   9  11  ar  
 14   9  12  ar  
 15  10  13  1   
 16  10  14  1   
 17  10  17  1   
 18  13  14  1   
 19  13  18  1   
 20  13  19  1   
 21  14  20  1   
 22  14  21  1   
@<TRIPOS>SUBSTRUCTURE
  1 ****   6 GROUP 4 **** **** 0

# MOE 2024.06 (io_trps.svl 2023.06)
