@<TRIPOS>MOLECULE
NONAME
39 41 1 0 0 
SMALL
USER_CHARGES


@<TRIPOS>ATOM
  1 CL      -1.0640    -0.4430    -1.4100 Cl    1 <1>  -0.1770 
  2 C       -2.0440     0.5060    -0.3190 C.ar  1 <1>   0.1770 
  3 C       -2.9310    -0.1330     0.5230 C.ar  1 <1>  -0.1440 
  4 C       -1.9350     1.8900    -0.3160 C.ar  1 <1>   0.1600 
  5 C       -3.6740     0.7010     1.3340 C.ar  1 <1>   0.1770 
  6 C       -3.0730    -1.6400     0.5660 C.3   1 <1>   0.4860 
  7 N       -2.6520     2.6870     0.4670 N.ar  1 <1>  -0.6200 
  8 CL      -4.8470     0.0090     2.4280 Cl    1 <1>  -0.1770 
  9 C       -3.5060     2.0770     1.2790 C.ar  1 <1>   0.1600 
 10 N       -3.7660    -2.1290    -0.6620 N.4   1 <1>  -0.9590 
 11 C       -5.1530    -1.5790    -0.8300 C.3   1 <1>   0.3430 
 12 C       -3.9280    -3.6090    -0.6240 C.3   1 <1>   0.3430 
 13 C       -6.1240    -2.6610    -0.3340 C.3   1 <1>   0.2000 
 14 C       -5.2660    -3.8590     0.0750 C.3   1 <1>  -0.0800 
 15 O       -6.8610    -2.2190     0.7530 O.3   1 <1>  -0.6800 
 16 C       -5.9150    -5.2080    -0.2920 C.3   1 <1>  -0.0170 
 17 C       -5.0700    -6.3970     0.1470 C.ar  1 <1>   0.1670 
 18 N       -3.8690    -6.5020    -0.4040 N.ar  1 <1>  -0.6200 
 19 C       -5.5720    -7.3070     1.0770 C.ar  1 <1>   0.1600 
 20 C       -3.2200    -7.5770     0.0210 C.ar  1 <1>   0.1600 
 21 N       -4.9170    -8.3680     1.5120 N.ar  1 <1>  -0.6200 
 22 C       -3.7270    -8.4790     0.9490 C.ar  1 <1>   0.1600 
 23 H       -1.2300     2.3560    -0.9850 H     1 <1>   0.1500 
 24 H       -3.6250    -1.9340     1.4430 H     1 <1>   0.0800 
 25 H       -2.0920    -2.0830     0.6280 H     1 <1>   0.0800 
 26 H       -4.1010     2.6990     1.9280 H     1 <1>   0.1500 
 27 H       -3.1800    -1.8670    -1.4700 H     1 <1>   0.4500 
 28 H       -5.2940    -0.6590    -0.2890 H     1 <1>   0.0800 
 29 H       -5.3420    -1.4010    -1.8760 H     1 <1>   0.0800 
 30 H       -3.9780    -3.9970    -1.6290 H     1 <1>   0.0800 
 31 H       -3.1150    -4.0980    -0.1090 H     1 <1>   0.0800 
 32 H       -6.8190    -2.9080    -1.1200 H     1 <1>   0.0800 
 33 H       -5.0880    -3.8430     1.1370 H     1 <1>   0.0800 
 34 H       -6.3250    -2.0580     1.5560 H     1 <1>   0.4000 
 35 H       -6.0620    -5.2730    -1.3570 H     1 <1>   0.0800 
 36 H       -6.8860    -5.2670     0.1700 H     1 <1>   0.0800 
 37 H       -6.5580    -7.1550     1.4810 H     1 <1>   0.1500 
 38 H       -2.2390    -7.7580    -0.3830 H     1 <1>   0.1500 
 39 H       -3.1250    -9.3230     1.2350 H     1 <1>   0.1500 
@<TRIPOS>BOND
  1   1   2  1   
  2   2   3  ar  
  3   2   4  ar  
  4   3   5  ar  
  5   3   6  1   
  6   4   7  ar  
  7   4  23  1   
  8   5   8  1   
  9   5   9  ar  
 10   6  10  1   
 11   6  24  1   
 12   6  25  1   
 13   7   9  ar  
 14   9  26  1   
 15  10  11  1   
 16  10  12  1   
 17  10  27  1   
 18  11  13  1   
 19  11  28  1   
 20  11  29  1   
 21  12  14  1   
 22  12  30  1   
 23  12  31  1   
 24  13  14  1   
 25  13  15  1   
 26  13  32  1   
 27  14  16  1   
 28  14  33  1   
 29  15  34  1   
 30  16  17  1   
 31  16  35  1   
 32  16  36  1   
 33  17  18  ar  
 34  17  19  ar  
 35  18  20  ar  
 36  19  21  ar  
 37  19  37  1   
 38  20  22  ar  
 39  20  38  1   
 40  21  22  ar  
 41  22  39  1   
@<TRIPOS>SUBSTRUCTURE
  1 ****  10 GROUP 4 **** **** 0

# MOE 2024.06 (io_trps.svl 2023.06)
