@<TRIPOS>MOLECULE
NONAME
50 51 1 0 0 
SMALL
USER_CHARGES


@<TRIPOS>ATOM
  1 O        2.2780    -0.4010     2.3260 O.2   1 <1>  -0.5700 
  2 C        1.8140    -0.8870     1.3220 C.2   1 <1>   0.5690 
  3 N        1.6580    -0.2130     0.1480 N.am  1 <1>  -0.5470 
  4 C        1.3770    -2.3530     1.3330 C.3   1 <1>   0.1710 
  5 C        1.9290     1.1280    -0.1710 C.ar  1 <1>   0.1170 
  6 N        0.2800    -2.6550     0.3680 N.3   1 <1>  -0.8100 
  7 C        3.2320     1.6470    -0.1850 C.ar  1 <1>  -0.1430 
  8 C        0.8550     1.9590    -0.5070 C.ar  1 <1>  -0.1430 
  9 C        0.1190    -4.0840     0.1250 C.3   1 <1>   0.1100 
 10 C       -1.0250    -2.1990     0.8420 C.3   1 <1>   0.1100 
 11 C        3.4230     2.9830    -0.5090 C.ar  1 <1>  -0.1500 
 12 C        4.4690     0.7940     0.1340 C.3   1 <1>   0.0630 
 13 C        1.0760     3.2860    -0.8330 C.ar  1 <1>  -0.1500 
 14 C       -0.5780     1.4410    -0.5110 C.3   1 <1>  -0.0970 
 15 C       -1.2680    -4.2110    -0.5010 C.3   1 <1>  -0.0800 
 16 C       -2.0370    -2.9950     0.0280 C.3   1 <1>  -0.1600 
 17 C        2.3570     3.8000    -0.8320 C.ar  1 <1>  -0.1500 
 18 C        5.1650     1.2930     1.4050 C.3   1 <1>  -0.2400 
 19 C        5.4490     0.7700    -1.0450 C.3   1 <1>  -0.2400 
 20 C       -1.9270    -5.5560    -0.1740 C.3   1 <1>   0.1200 
 21 O       -3.1930    -5.5850    -0.7500 O.3   1 <1>  -0.5600 
 22 C       -3.8890    -6.7690    -0.5310 C.3   1 <1>   0.0400 
 23 H        1.0990    -0.7430    -0.5270 H     1 <1>   0.3700 
 24 H        1.0810    -2.6220     2.3310 H     1 <1>   0.0800 
 25 H        2.2410    -2.9380     1.0760 H     1 <1>   0.0800 
 26 H        0.1550    -4.6180     1.0600 H     1 <1>   0.0800 
 27 H        0.8870    -4.4530    -0.5330 H     1 <1>   0.0800 
 28 H       -1.1450    -1.1390     0.7020 H     1 <1>   0.0800 
 29 H       -1.1440    -2.4350     1.8870 H     1 <1>   0.0800 
 30 H        4.4110     3.4040    -0.5140 H     1 <1>   0.1500 
 31 H        4.1820    -0.2250     0.3100 H     1 <1>   0.0800 
 32 H        0.2540     3.9310    -1.0870 H     1 <1>   0.1500 
 33 H       -0.6620     0.5780    -1.1460 H     1 <1>   0.0800 
 34 H       -1.2610     2.1890    -0.8690 H     1 <1>   0.0800 
 35 H       -0.8640     1.1730     0.4910 H     1 <1>   0.0800 
 36 H       -1.1600    -4.1290    -1.5690 H     1 <1>   0.0800 
 37 H       -2.3960    -2.4030    -0.7960 H     1 <1>   0.0800 
 38 H       -2.8770    -3.2720     0.6400 H     1 <1>   0.0800 
 39 H        2.5250     4.8320    -1.0810 H     1 <1>   0.1500 
 40 H        5.5440     2.2900     1.2730 H     1 <1>   0.0800 
 41 H        5.9800     0.6430     1.6640 H     1 <1>   0.0800 
 42 H        4.4620     1.2990     2.2200 H     1 <1>   0.0800 
 43 H        5.8610     1.7450    -1.2290 H     1 <1>   0.0800 
 44 H        4.9400     0.4390    -1.9330 H     1 <1>   0.0800 
 45 H        6.2570     0.0900    -0.8410 H     1 <1>   0.0800 
 46 H       -2.0320    -5.6770     0.8910 H     1 <1>   0.0800 
 47 H       -1.3460    -6.3670    -0.5800 H     1 <1>   0.0800 
 48 H       -4.8470    -6.6870    -1.0130 H     1 <1>   0.0800 
 49 H       -4.0260    -6.9110     0.5270 H     1 <1>   0.0800 
 50 H       -3.3390    -7.5900    -0.9580 H     1 <1>   0.0800 
@<TRIPOS>BOND
  1   1   2  2   
  2   2   3  am  
  3   2   4  1   
  4   3   5  1   
  5   3  23  1   
  6   4   6  1   
  7   4  24  1   
  8   4  25  1   
  9   5   7  ar  
 10   5   8  ar  
 11   6   9  1   
 12   6  10  1   
 13   7  11  ar  
 14   7  12  1   
 15   8  13  ar  
 16   8  14  1   
 17   9  15  1   
 18   9  26  1   
 19   9  27  1   
 20  10  16  1   
 21  10  28  1   
 22  10  29  1   
 23  11  17  ar  
 24  11  30  1   
 25  12  18  1   
 26  12  19  1   
 27  12  31  1   
 28  13  17  ar  
 29  13  32  1   
 30  14  33  1   
 31  14  34  1   
 32  14  35  1   
 33  15  16  1   
 34  15  20  1   
 35  15  36  1   
 36  16  37  1   
 37  16  38  1   
 38  17  39  1   
 39  18  40  1   
 40  18  41  1   
 41  18  42  1   
 42  19  43  1   
 43  19  44  1   
 44  19  45  1   
 45  20  21  1   
 46  20  46  1   
 47  20  47  1   
 48  21  22  1   
 49  22  48  1   
 50  22  49  1   
 51  22  50  1   
@<TRIPOS>SUBSTRUCTURE
  1 ****   3 GROUP 4 **** **** 0

# MOE 2024.06 (io_trps.svl 2023.06)
