@<TRIPOS>MOLECULE
NONAME
57 59 1 0 0 
SMALL
USER_CHARGES


@<TRIPOS>ATOM
  1 O        0.3530    -0.8760    -1.0580 O.3   1 <1>  -0.6800 
  2 C        0.5520    -1.1980     0.2770 C.3   1 <1>   0.1200 
  3 C        2.0650    -1.3620     0.6090 C.3   1 <1>   0.0000 
  4 C        2.8410    -2.2520    -0.4070 C.3   1 <1>   0.4230 
  5 C        2.7260     0.0420     0.6620 C.3   1 <1>  -0.1600 
  6 C        2.1860    -2.0070     2.0180 C.3   1 <1>  -0.1600 
  7 N        2.2870    -3.6740    -0.5120 N.4   1 <1>  -0.9590 
  8 C        3.0990    -1.5290    -1.7720 C.3   1 <1>   0.3430 
  9 C        2.8820     0.7070    -0.7120 C.3   1 <1>   0.3430 
 10 C        2.3940    -3.5360     1.9870 C.3   1 <1>  -0.1600 
 11 C        1.7300    -4.2030     0.7810 C.3   1 <1>   0.3430 
 12 C        1.2650    -3.8760    -1.5950 C.3   1 <1>   0.2630 
 13 N        3.6970    -0.1530    -1.6350 N.4   1 <1>  -0.9590 
 14 C        5.1640    -0.1720    -1.2850 C.3   1 <1>   0.5240 
 15 C        5.7330     1.2330    -1.1610 C.2   1 <1>   0.0460 
 16 N        5.5620     1.9360    -0.0250 N.2   1 <1>  -0.5650 
 17 C        6.4420     1.9470    -2.0650 C.2   1 <1>  -0.3020 
 18 C        6.1650     3.0570    -0.2530 C.2   1 <1>   0.0060 
 19 N        6.7240     3.1260    -1.4800 N.pl3 1 <1>   0.0330 
 20 C        6.2500     4.1940     0.7500 C.3   1 <1>   0.0200 
 21 C        5.3300     5.3550     0.3500 C.3   1 <1>  -0.1600 
 22 C        5.3920     6.4990     1.3700 C.3   1 <1>  -0.1600 
 23 C        4.4710     7.6510     0.9610 C.3   1 <1>  -0.2400 
 24 H       -0.5790    -0.5870    -1.2020 H     1 <1>   0.4000 
 25 H        0.1200    -0.4130     0.8770 H     1 <1>   0.0800 
 26 H        0.0040    -2.1020     0.4770 H     1 <1>   0.0800 
 27 H        3.8190    -2.3580     0.0290 H     1 <1>   0.0800 
 28 H        3.6990    -0.0070     1.1190 H     1 <1>   0.0800 
 29 H        2.1380     0.6960     1.2830 H     1 <1>   0.0800 
 30 H        3.0130    -1.5870     2.5670 H     1 <1>   0.0800 
 31 H        1.3050    -1.7810     2.5990 H     1 <1>   0.0800 
 32 H        3.0840    -4.2910    -0.7320 H     1 <1>   0.4500 
 33 H        2.1600    -1.4370    -2.2910 H     1 <1>   0.0800 
 34 H        3.7490    -2.1390    -2.3750 H     1 <1>   0.0800 
 35 H        3.3370     1.6780    -0.5970 H     1 <1>   0.0800 
 36 H        1.9050     0.8660    -1.1390 H     1 <1>   0.0800 
 37 H        1.9920    -3.9630     2.8910 H     1 <1>   0.0800 
 38 H        3.4460    -3.7670     1.9790 H     1 <1>   0.0800 
 39 H        0.6700    -4.0110     0.8280 H     1 <1>   0.0800 
 40 H        1.8710    -5.2720     0.8330 H     1 <1>   0.0800 
 41 H        0.3990    -3.2590    -1.4200 H     1 <1>   0.0800 
 42 H        0.9460    -4.9070    -1.6190 H     1 <1>   0.0800 
 43 H        1.6740    -3.6300    -2.5610 H     1 <1>   0.0800 
 44 H        3.6560     0.3260    -2.5470 H     1 <1>   0.4500 
 45 H        5.3210    -0.6770    -0.3480 H     1 <1>   0.0800 
 46 H        5.7140    -0.6950    -2.0490 H     1 <1>   0.0800 
 47 H        6.7660     1.7020    -3.0620 H     1 <1>   0.1500 
 48 H        7.2520     3.9150    -1.8680 H     1 <1>   0.2700 
 49 H        5.9590     3.8250     1.7190 H     1 <1>   0.0800 
 50 H        7.2680     4.5340     0.8210 H     1 <1>   0.0800 
 51 H        5.6180     5.7260    -0.6190 H     1 <1>   0.0800 
 52 H        4.3190     4.9910     0.2810 H     1 <1>   0.0800 
 53 H        5.0940     6.1370     2.3400 H     1 <1>   0.0800 
 54 H        6.4020     6.8650     1.4470 H     1 <1>   0.0800 
 55 H        3.4500     7.3150     0.9010 H     1 <1>   0.0800 
 56 H        4.7620     8.0470     0.0030 H     1 <1>   0.0800 
 57 H        4.5270     8.4420     1.6880 H     1 <1>   0.0800 
@<TRIPOS>BOND
  1   1   2  1   
  2   1  24  1   
  3   2   3  1   
  4   2  25  1   
  5   2  26  1   
  6   3   4  1   
  7   3   5  1   
  8   3   6  1   
  9   4   7  1   
 10   4   8  1   
 11   4  27  1   
 12   5   9  1   
 13   5  28  1   
 14   5  29  1   
 15   6  10  1   
 16   6  30  1   
 17   6  31  1   
 18   7  11  1   
 19   7  12  1   
 20   7  32  1   
 21   8  13  1   
 22   8  33  1   
 23   8  34  1   
 24   9  13  1   
 25   9  35  1   
 26   9  36  1   
 27  10  11  1   
 28  10  37  1   
 29  10  38  1   
 30  11  39  1   
 31  11  40  1   
 32  12  41  1   
 33  12  42  1   
 34  12  43  1   
 35  13  14  1   
 36  13  44  1   
 37  14  15  1   
 38  14  45  1   
 39  14  46  1   
 40  15  16  1   
 41  15  17  2   
 42  16  18  2   
 43  17  19  1   
 44  17  47  1   
 45  18  19  1   
 46  18  20  1   
 47  19  48  1   
 48  20  21  1   
 49  20  49  1   
 50  20  50  1   
 51  21  22  1   
 52  21  51  1   
 53  21  52  1   
 54  22  23  1   
 55  22  53  1   
 56  22  54  1   
 57  23  55  1   
 58  23  56  1   
 59  23  57  1   
@<TRIPOS>SUBSTRUCTURE
  1 ****   9 GROUP 4 **** **** 0

# MOE 2024.06 (io_trps.svl 2023.06)
