@<TRIPOS>MOLECULE
NONAME
49 51 1 0 0 
SMALL
USER_CHARGES


@<TRIPOS>ATOM
  1 O       -1.8580     0.7390    -2.1360 O.2   1 <1>  -0.5700 
  2 C       -1.8550     0.9860    -0.9560 C.2   1 <1>   0.5690 
  3 N       -2.0910     0.0340    -0.0240 N.am  1 <1>  -0.7300 
  4 C       -1.5720     2.3980    -0.4960 C.3   1 <1>  -0.0990 
  5 C       -2.3560    -1.3910    -0.3190 C.3   1 <1>   0.2200 
  6 C       -0.0640     2.6600    -0.4220 C.3   1 <1>  -0.0170 
  7 C       -3.8220    -1.6900    -0.0550 C.3   1 <1>  -0.0800 
  8 C       -1.6710    -2.2620     0.7270 C.3   1 <1>   0.1200 
  9 C        0.2050     4.0530     0.1230 C.ar  1 <1>  -0.1440 
 10 C       -3.8360    -1.9700     1.4540 C.3   1 <1>   0.1200 
 11 C       -4.3080    -2.8980    -0.8790 C.3   1 <1>  -0.0170 
 12 O       -2.5210    -2.2650     1.8330 O.3   1 <1>  -0.5600 
 13 C        0.2180     5.1450    -0.7300 C.ar  1 <1>  -0.1500 
 14 C        0.4350     4.2460     1.4760 C.ar  1 <1>  -0.1500 
 15 C       -5.7820    -3.1840    -0.6340 C.ar  1 <1>  -0.1440 
 16 C        0.4580     6.4220    -0.2460 C.ar  1 <1>   0.0820 
 17 C        0.6760     5.5180     1.9690 C.ar  1 <1>  -0.1500 
 18 C       -6.7730    -2.3870    -1.1720 C.ar  1 <1>  -0.1500 
 19 C       -6.2070    -4.2500     0.1330 C.ar  1 <1>  -0.1500 
 20 O        0.4520     7.4310    -1.1540 O.3   1 <1>  -0.3620 
 21 C        0.6870     6.6050     1.1140 C.ar  1 <1>  -0.1500 
 22 C       -8.1020    -2.6830    -0.9190 C.ar  1 <1>   0.1600 
 23 C       -7.5630    -4.4580     0.3250 C.ar  1 <1>   0.1600 
 24 C        0.6980     8.7640    -0.7690 C.3   1 <1>   0.0400 
 25 N       -8.5210    -3.6990    -0.1820 N.ar  1 <1>  -0.6200 
 26 H       -2.0950     0.2630     0.9730 H     1 <1>   0.3700 
 27 H       -2.0210     3.0840    -1.1910 H     1 <1>   0.0800 
 28 H       -2.0190     2.5610     0.4670 H     1 <1>   0.0800 
 29 H       -2.0440    -1.6320    -1.3220 H     1 <1>   0.0800 
 30 H        0.3660     2.5640    -1.4040 H     1 <1>   0.0800 
 31 H        0.4030     1.9260     0.2110 H     1 <1>   0.0800 
 32 H       -4.4390    -0.8420    -0.2940 H     1 <1>   0.0800 
 33 H       -0.7040    -1.8870     1.0120 H     1 <1>   0.0800 
 34 H       -1.5800    -3.2760     0.3800 H     1 <1>   0.0800 
 35 H       -4.4680    -2.7980     1.7230 H     1 <1>   0.0800 
 36 H       -4.1430    -1.0960     2.0010 H     1 <1>   0.0800 
 37 H       -3.7270    -3.7720    -0.6400 H     1 <1>   0.0800 
 38 H       -4.1680    -2.6930    -1.9270 H     1 <1>   0.0800 
 39 H        0.0410     5.0180    -1.7820 H     1 <1>   0.1500 
 40 H        0.4290     3.4100     2.1530 H     1 <1>   0.1500 
 41 H        0.8540     5.6590     3.0210 H     1 <1>   0.1500 
 42 H       -6.5240    -1.5400    -1.7850 H     1 <1>   0.1500 
 43 H       -5.4990    -4.9210     0.5850 H     1 <1>   0.1500 
 44 H        0.8760     7.5790     1.5220 H     1 <1>   0.1500 
 45 H       -8.8610    -2.0510    -1.3470 H     1 <1>   0.1500 
 46 H       -7.8750    -5.2940     0.9270 H     1 <1>   0.1500 
 47 H        0.6490     9.3800    -1.6480 H     1 <1>   0.0800 
 48 H        1.6800     8.8260    -0.3340 H     1 <1>   0.0800 
 49 H       -0.0560     9.0690    -0.0650 H     1 <1>   0.0800 
@<TRIPOS>BOND
  1   1   2  2   
  2   2   3  am  
  3   2   4  1   
  4   3   5  1   
  5   3  26  1   
  6   4   6  1   
  7   4  27  1   
  8   4  28  1   
  9   5   7  1   
 10   5   8  1   
 11   5  29  1   
 12   6   9  1   
 13   6  30  1   
 14   6  31  1   
 15   7  10  1   
 16   7  11  1   
 17   7  32  1   
 18   8  12  1   
 19   8  33  1   
 20   8  34  1   
 21   9  13  ar  
 22   9  14  ar  
 23  10  12  1   
 24  10  35  1   
 25  10  36  1   
 26  11  15  1   
 27  11  37  1   
 28  11  38  1   
 29  13  16  ar  
 30  13  39  1   
 31  14  17  ar  
 32  14  40  1   
 33  15  18  ar  
 34  15  19  ar  
 35  16  20  1   
 36  16  21  ar  
 37  17  21  ar  
 38  17  41  1   
 39  18  22  ar  
 40  18  42  1   
 41  19  23  ar  
 42  19  43  1   
 43  20  24  1   
 44  21  44  1   
 45  22  25  ar  
 46  22  45  1   
 47  23  25  ar  
 48  23  46  1   
 49  24  47  1   
 50  24  48  1   
 51  24  49  1   
@<TRIPOS>SUBSTRUCTURE
  1 ****   3 GROUP 4 **** **** 0

# MOE 2024.06 (io_trps.svl 2023.06)
