@<TRIPOS>MOLECULE
NONAME
53 55 1 0 0 
SMALL
USER_CHARGES


@<TRIPOS>ATOM
  1 O        0.5950     1.5080     1.4960 O.2   1 <1>  -0.5700 
  2 C        0.5390     2.4300     0.7050 C.2   1 <1>   0.5440 
  3 N       -0.6770     3.0120     0.4690 N.am  1 <1>  -0.7300 
  4 C        1.7350     2.9070     0.0470 C.ar  1 <1>   0.0860 
  5 C       -1.9550     2.5800     1.0670 C.3   1 <1>   0.1400 
  6 C        2.9950     2.6210     0.5720 C.ar  1 <1>   0.1600 
  7 C        1.7100     3.6610    -1.1250 C.ar  1 <1>  -0.1500 
  8 C       -3.0590     2.7510     0.0300 C.3   1 <1>  -0.2400 
  9 N        4.1560     3.0140     0.0770 N.ar  1 <1>  -0.6200 
 10 C        2.9080     4.0750    -1.6540 C.ar  1 <1>  -0.1500 
 11 C        4.1090     3.7460    -1.0300 C.ar  1 <1>   0.4100 
 12 N        5.3040     4.1920    -1.5510 N.pl3 1 <1>  -0.8380 
 13 C        5.5350     5.6570    -1.6950 C.3   1 <1>   0.2090 
 14 C        6.5410     3.3720    -1.4140 C.3   1 <1>   0.2090 
 15 C        6.3690     6.1860    -0.5210 C.3   1 <1>   0.1000 
 16 C        7.3990     3.8930    -0.2540 C.3   1 <1>  -0.1600 
 17 C        6.6210     7.6720    -0.7070 C.2   1 <1>   0.2980 
 18 C        7.6850     5.3980    -0.3740 C.3   1 <1>  -0.1600 
 19 O        7.3360     8.0730    -1.7300 O.3   1 <1>  -0.0190 
 20 N        6.1830     8.5970     0.0490 N.2   1 <1>  -0.5650 
 21 N        7.3570     9.3650    -1.6120 N.2   1 <1>  -0.4100 
 22 C        6.6870     9.6560    -0.5680 C.2   1 <1>   0.3350 
 23 C        6.4550    11.0640    -0.0500 C.3   1 <1>   0.0210 
 24 C        7.6440    11.6070     0.7670 C.3   1 <1>  -0.0800 
 25 C        7.8920    10.7830     2.0390 C.3   1 <1>  -0.2400 
 26 C        7.4070    13.0750     1.1450 C.3   1 <1>  -0.2400 
 27 H       -0.7230     3.8690    -0.0800 H     1 <1>   0.3700 
 28 H       -2.1630     3.1780     1.9380 H     1 <1>   0.0800 
 29 H       -1.8900     1.5470     1.3690 H     1 <1>   0.0800 
 30 H        3.0350     2.0250     1.4690 H     1 <1>   0.1500 
 31 H        0.7830     3.9050    -1.6100 H     1 <1>   0.1500 
 32 H       -3.1530     3.7830    -0.2560 H     1 <1>   0.0800 
 33 H       -3.9960     2.4270     0.4470 H     1 <1>   0.0800 
 34 H       -2.8490     2.1510    -0.8370 H     1 <1>   0.0800 
 35 H        2.9400     4.6500    -2.5600 H     1 <1>   0.1500 
 36 H        4.5960     6.1810    -1.7220 H     1 <1>   0.0800 
 37 H        6.0480     5.8390    -2.6230 H     1 <1>   0.0800 
 38 H        7.0970     3.4240    -2.3340 H     1 <1>   0.0800 
 39 H        6.2810     2.3400    -1.2430 H     1 <1>   0.0800 
 40 H        5.7890     6.0600     0.3760 H     1 <1>   0.0800 
 41 H        8.3250     3.3470    -0.2270 H     1 <1>   0.0800 
 42 H        6.8780     3.6950     0.6680 H     1 <1>   0.0800 
 43 H        8.2130     5.7390     0.4990 H     1 <1>   0.0800 
 44 H        8.3100     5.5720    -1.2330 H     1 <1>   0.0800 
 45 H        5.5620    11.0730     0.5480 H     1 <1>   0.0800 
 46 H        6.2880    11.7020    -0.8980 H     1 <1>   0.0800 
 47 H        8.5280    11.5560     0.1520 H     1 <1>   0.0800 
 48 H        7.0170    10.7770     2.6650 H     1 <1>   0.0800 
 49 H        8.7130    11.1950     2.5990 H     1 <1>   0.0800 
 50 H        8.1390     9.7660     1.7890 H     1 <1>   0.0800 
 51 H        6.5330    13.1720     1.7650 H     1 <1>   0.0800 
 52 H        7.2710    13.6740     0.2610 H     1 <1>   0.0800 
 53 H        8.2530    13.4630     1.6850 H     1 <1>   0.0800 
@<TRIPOS>BOND
  1   1   2  2   
  2   2   3  am  
  3   2   4  1   
  4   3   5  1   
  5   3  27  1   
  6   4   6  ar  
  7   4   7  ar  
  8   5   8  1   
  9   5  28  1   
 10   5  29  1   
 11   6   9  ar  
 12   6  30  1   
 13   7  10  ar  
 14   7  31  1   
 15   8  32  1   
 16   8  33  1   
 17   8  34  1   
 18   9  11  ar  
 19  10  11  ar  
 20  10  35  1   
 21  11  12  1   
 22  12  13  1   
 23  12  14  1   
 24  13  15  1   
 25  13  36  1   
 26  13  37  1   
 27  14  16  1   
 28  14  38  1   
 29  14  39  1   
 30  15  17  1   
 31  15  18  1   
 32  15  40  1   
 33  16  18  1   
 34  16  41  1   
 35  16  42  1   
 36  17  19  1   
 37  17  20  2   
 38  18  43  1   
 39  18  44  1   
 40  19  21  1   
 41  20  22  1   
 42  21  22  2   
 43  22  23  1   
 44  23  24  1   
 45  23  45  1   
 46  23  46  1   
 47  24  25  1   
 48  24  26  1   
 49  24  47  1   
 50  25  48  1   
 51  25  49  1   
 52  25  50  1   
 53  26  51  1   
 54  26  52  1   
 55  26  53  1   
@<TRIPOS>SUBSTRUCTURE
  1 ****  13 GROUP 4 **** **** 0

# MOE 2024.06 (io_trps.svl 2023.06)
