@<TRIPOS>MOLECULE
NONAME
46 49 1 0 0 
SMALL
USER_CHARGES


@<TRIPOS>ATOM
  1 F        0.6240     0.6190     0.4390 F     1 <1>  -0.1900 
  2 C        1.6600    -0.1620     0.2620 C.ar  1 <1>   0.1900 
  3 C        2.9390     0.3940     0.3450 C.ar  1 <1>   0.1000 
  4 C        1.4370    -1.4940    -0.0010 C.ar  1 <1>  -0.1500 
  5 N        3.1560     1.7460     0.6090 N.pl3 1 <1>  -0.6000 
  6 C        4.0420    -0.4510     0.1540 C.ar  1 <1>   0.0860 
  7 C        2.5330    -2.3260    -0.1910 C.ar  1 <1>  -0.1500 
  8 C        4.4120     2.3250     0.7040 C.2   1 <1>   0.1140 
  9 C        5.3600     0.1210     0.2450 C.2   1 <1>   0.4690 
 10 C        3.8100    -1.8080    -0.1140 C.ar  1 <1>  -0.1500 
 11 C        4.5070     3.7530     0.9820 C.2   1 <1>   0.6160 
 12 C        5.4860     1.4980     0.5460 C.2   1 <1>  -0.1360 
 13 O        6.3660    -0.5490     0.0520 O.2   1 <1>  -0.5700 
 14 O        3.7970     4.2210     1.8530 O.2   1 <1>  -0.5700 
 15 N        5.3360     4.6190     0.2840 N.am  1 <1>  -0.6600 
 16 C        5.6610     5.9650     0.8740 C.3   1 <1>   0.1400 
 17 C        5.8450     4.2950    -1.0870 C.3   1 <1>   0.1400 
 18 C        7.1710     6.2460     1.1000 C.3   1 <1>   0.4230 
 19 C        7.3180     4.6740    -1.3480 C.3   1 <1>  -0.0800 
 20 N        7.8780     6.8120    -0.1070 N.4   1 <1>  -0.9590 
 21 C        7.9620     5.0410     1.6710 C.3   1 <1>   0.1200 
 22 C        8.3640     3.9580    -0.4660 C.3   1 <1>   0.1200 
 23 C        7.4880     6.1930    -1.4070 C.3   1 <1>   0.3430 
 24 C        7.7340     8.3000    -0.1780 C.3   1 <1>   0.2630 
 25 O        7.9760     3.8900     0.8700 O.3   1 <1>  -0.5600 
 26 H        0.4340    -1.8790    -0.0560 H     1 <1>   0.1500 
 27 H        2.3390     2.3320     0.8430 H     1 <1>   0.4000 
 28 H        2.3810    -3.3730    -0.3980 H     1 <1>   0.1500 
 29 H        4.6600    -2.4550    -0.2610 H     1 <1>   0.1500 
 30 H        6.4880     1.8640     0.6480 H     1 <1>   0.1500 
 31 H        5.2250     6.7350     0.2640 H     1 <1>   0.0800 
 32 H        5.1970     6.0480     1.8410 H     1 <1>   0.0800 
 33 H        5.7290     3.2460    -1.2890 H     1 <1>   0.0800 
 34 H        5.2190     4.8070    -1.7990 H     1 <1>   0.0800 
 35 H        7.2130     7.0030     1.8640 H     1 <1>   0.0800 
 36 H        7.5130     4.3420    -2.3520 H     1 <1>   0.0800 
 37 H        8.8740     6.5960     0.0340 H     1 <1>   0.4500 
 38 H        7.5150     4.7490     2.6070 H     1 <1>   0.0800 
 39 H        8.9810     5.3190     1.8710 H     1 <1>   0.0800 
 40 H        9.3360     4.4160    -0.5280 H     1 <1>   0.0800 
 41 H        8.4610     2.9370    -0.7990 H     1 <1>   0.0800 
 42 H        6.5630     6.6270    -1.7530 H     1 <1>   0.0800 
 43 H        8.2440     6.4260    -2.1400 H     1 <1>   0.0800 
 44 H        6.7000     8.5720    -0.3200 H     1 <1>   0.0800 
 45 H        8.3090     8.6950    -1.0000 H     1 <1>   0.0800 
 46 H        8.0870     8.7560     0.7340 H     1 <1>   0.0800 
@<TRIPOS>BOND
  1   1   2  1   
  2   2   3  ar  
  3   2   4  ar  
  4   3   5  1   
  5   3   6  ar  
  6   4   7  ar  
  7   4  26  1   
  8   5   8  1   
  9   5  27  1   
 10   6   9  1   
 11   6  10  ar  
 12   7  10  ar  
 13   7  28  1   
 14   8  11  1   
 15   8  12  2   
 16   9  12  1   
 17   9  13  2   
 18  10  29  1   
 19  11  14  2   
 20  11  15  am  
 21  12  30  1   
 22  15  16  1   
 23  15  17  1   
 24  16  18  1   
 25  16  31  1   
 26  16  32  1   
 27  17  19  1   
 28  17  33  1   
 29  17  34  1   
 30  18  20  1   
 31  18  21  1   
 32  18  35  1   
 33  19  22  1   
 34  19  23  1   
 35  19  36  1   
 36  20  23  1   
 37  20  24  1   
 38  20  37  1   
 39  21  25  1   
 40  21  38  1   
 41  21  39  1   
 42  22  25  1   
 43  22  40  1   
 44  22  41  1   
 45  23  42  1   
 46  23  43  1   
 47  24  44  1   
 48  24  45  1   
 49  24  46  1   
@<TRIPOS>SUBSTRUCTURE
  1 ****   8 GROUP 4 **** **** 0

# MOE 2024.06 (io_trps.svl 2023.06)
