@<TRIPOS>MOLECULE
NONAME
50 52 1 0 0 
SMALL
USER_CHARGES


@<TRIPOS>ATOM
  1 O        0.5160     0.5390    -0.2650 O.co2 1 <1>  -0.9000 
  2 C       -0.5470     1.1510    -0.1310 C.2   1 <1>   0.9060 
  3 O       -1.5750     0.6330     0.3110 O.co2 1 <1>  -0.9000 
  4 C       -0.5800     2.6150    -0.5040 C.3   1 <1>  -0.2660 
  5 C        0.0100     3.4930     0.6150 C.3   1 <1>  -0.1600 
  6 C        0.1580     4.9720     0.2170 C.3   1 <1>  -0.0800 
  7 C        0.9350     5.7200     1.3090 C.3   1 <1>   0.2090 
  8 C       -1.2070     5.6480    -0.0190 C.3   1 <1>  -0.1600 
  9 N        1.1220     7.1530     0.8970 N.pl3 1 <1>  -0.8380 
 10 C       -1.0510     7.1600    -0.2580 C.3   1 <1>  -0.1600 
 11 C        2.3100     7.6720     0.5110 C.ar  1 <1>   0.4610 
 12 C       -0.2110     7.8330     0.8330 C.3   1 <1>   0.2090 
 13 N        2.4360     8.9910     0.3610 N.ar  1 <1>  -0.1790 
 14 C        3.4710     6.9010     0.2410 C.ar  1 <1>  -0.1500 
 15 C        3.5920     9.6580    -0.0060 C.ar  1 <1>   0.3610 
 16 C        4.6530     7.4700    -0.1240 C.ar  1 <1>  -0.1440 
 17 C        4.7450     8.8900    -0.2520 C.ar  1 <1>   0.0000 
 18 C        3.6130    11.0610    -0.1230 C.ar  1 <1>  -0.1440 
 19 C        5.8670     6.5910    -0.4050 C.3   1 <1>  -0.0970 
 20 C        5.9150     9.5700    -0.6120 C.ar  1 <1>  -0.1500 
 21 C        4.7900    11.6960    -0.4800 C.ar  1 <1>  -0.1440 
 22 C        2.3280    11.8550     0.1500 C.3   1 <1>  -0.0970 
 23 C        5.9330    10.9360    -0.7210 C.ar  1 <1>  -0.1500 
 24 C        4.9180    13.2090    -0.6280 C.3   1 <1>  -0.0970 
 25 H       -1.6010     2.8770    -0.6990 H     1 <1>   0.0800 
 26 H       -0.0140     2.7280    -1.4080 H     1 <1>   0.0800 
 27 H        0.9800     3.0920     0.8590 H     1 <1>   0.0800 
 28 H       -0.6080     3.3960     1.4920 H     1 <1>   0.0800 
 29 H        0.7350     5.0150    -0.6900 H     1 <1>   0.0800 
 30 H        1.8700     5.2300     1.5030 H     1 <1>   0.0800 
 31 H        0.3740     5.6860     2.2280 H     1 <1>   0.0800 
 32 H       -1.8370     5.4860     0.8390 H     1 <1>   0.0800 
 33 H       -1.6950     5.2040    -0.8700 H     1 <1>   0.0800 
 34 H       -2.0260     7.6140    -0.2910 H     1 <1>   0.0800 
 35 H       -0.5830     7.3220    -1.2130 H     1 <1>   0.0800 
 36 H       -0.1200     8.8800     0.6100 H     1 <1>   0.0800 
 37 H       -0.7090     7.7360     1.7840 H     1 <1>   0.0800 
 38 H        1.6250     9.5530     0.5740 H     1 <1>   0.4570 
 39 H        3.4010     5.8330     0.3120 H     1 <1>   0.1500 
 40 H        5.6310     5.5490    -0.2790 H     1 <1>   0.0800 
 41 H        6.6680     6.8360     0.2690 H     1 <1>   0.0800 
 42 H        6.2040     6.7350    -1.4170 H     1 <1>   0.0800 
 43 H        6.8200     9.0230    -0.8070 H     1 <1>   0.1500 
 44 H        2.0200    11.7280     1.1730 H     1 <1>   0.0800 
 45 H        1.5390    11.5300    -0.5060 H     1 <1>   0.0800 
 46 H        2.4500    12.9100    -0.0120 H     1 <1>   0.0800 
 47 H        6.8520    11.4270    -0.9990 H     1 <1>   0.1500 
 48 H        4.2660    13.5640    -1.4060 H     1 <1>   0.0800 
 49 H        5.9230    13.4940    -0.8850 H     1 <1>   0.0800 
 50 H        4.6660    13.6980     0.2960 H     1 <1>   0.0800 
@<TRIPOS>BOND
  1   1   2  ar  
  2   2   3  ar  
  3   2   4  1   
  4   4   5  1   
  5   4  25  1   
  6   4  26  1   
  7   5   6  1   
  8   5  27  1   
  9   5  28  1   
 10   6   7  1   
 11   6   8  1   
 12   6  29  1   
 13   7   9  1   
 14   7  30  1   
 15   7  31  1   
 16   8  10  1   
 17   8  32  1   
 18   8  33  1   
 19   9  11  1   
 20   9  12  1   
 21  10  12  1   
 22  10  34  1   
 23  10  35  1   
 24  11  13  ar  
 25  11  14  ar  
 26  12  36  1   
 27  12  37  1   
 28  13  15  ar  
 29  13  38  1   
 30  14  16  ar  
 31  14  39  1   
 32  15  17  ar  
 33  15  18  ar  
 34  16  17  ar  
 35  16  19  1   
 36  17  20  ar  
 37  18  21  ar  
 38  18  22  1   
 39  19  40  1   
 40  19  41  1   
 41  19  42  1   
 42  20  23  ar  
 43  20  43  1   
 44  21  23  ar  
 45  21  24  1   
 46  22  44  1   
 47  22  45  1   
 48  22  46  1   
 49  23  47  1   
 50  24  48  1   
 51  24  49  1   
 52  24  50  1   
@<TRIPOS>SUBSTRUCTURE
  1 ****  11 GROUP 4 **** **** 0

# MOE 2024.06 (io_trps.svl 2023.06)
