@<TRIPOS>MOLECULE
NONAME
33 35 1 0 0 
SMALL
USER_CHARGES


@<TRIPOS>ATOM
  1 S        0.1590    -0.6450     0.1320 S.3   1 <1>  -0.4600 
  2 C       -1.2690     0.4780    -0.0040 C.3   1 <1>   0.2510 
  3 C       -0.7320    -2.2280     0.1830 C.3   1 <1>   0.2510 
  4 C       -2.4490    -0.4650     0.0250 C.2   1 <1>   0.1080 
  5 C       -2.1840    -1.8150     0.1210 C.2   1 <1>  -0.1810 
  6 N       -3.7140    -0.1970    -0.0240 N.2   1 <1>  -0.7070 
  7 C       -3.3940    -2.4230     0.1230 C.2   1 <1>  -0.0880 
  8 N       -4.3140    -1.4120     0.0300 N.pl3 1 <1>   0.3140 
  9 N       -3.6250    -3.8180     0.2290 N.am  1 <1>  -0.4940 
 10 C       -5.7800    -1.4890     0.0810 C.3   1 <1>   0.0160 
 11 C       -4.5700    -4.6230    -0.3690 C.2   1 <1>   0.5440 
 12 O       -5.4540    -4.1350    -1.0420 O.2   1 <1>  -0.5700 
 13 C       -4.5200    -6.0570    -0.1860 C.ar  1 <1>   0.0860 
 14 C       -3.3150    -6.7530    -0.1950 C.ar  1 <1>   0.1600 
 15 C       -5.6690    -6.8110    -0.0010 C.ar  1 <1>  -0.1500 
 16 N       -3.1710    -8.0550    -0.0120 N.ar  1 <1>  -0.6200 
 17 C       -5.5430    -8.1720     0.1800 C.ar  1 <1>  -0.1500 
 18 C       -4.2860    -8.7740     0.1750 C.ar  1 <1>   0.1670 
 19 C       -4.1660   -10.3150     0.3880 C.3   1 <1>   1.1630 
 20 F       -3.4270   -10.6310     1.4470 F     1 <1>  -0.3400 
 21 F       -5.3410   -10.9100     0.5810 F     1 <1>  -0.3400 
 22 F       -3.6160   -10.9380    -0.6510 F     1 <1>  -0.3400 
 23 H       -1.2010     1.0090    -0.9350 H     1 <1>   0.0800 
 24 H       -1.2630     1.1450     0.8390 H     1 <1>   0.0800 
 25 H       -0.4820    -2.7210     1.1050 H     1 <1>   0.0800 
 26 H       -0.4340    -2.8060    -0.6730 H     1 <1>   0.0800 
 27 H       -2.9470    -4.3050     0.8140 H     1 <1>   0.3700 
 28 H       -6.1690    -0.5610     0.4570 H     1 <1>   0.0800 
 29 H       -6.0750    -2.2920     0.7280 H     1 <1>   0.0800 
 30 H       -6.1540    -1.6600    -0.9100 H     1 <1>   0.0800 
 31 H       -2.4100    -6.1980    -0.3700 H     1 <1>   0.1500 
 32 H       -6.6360    -6.3340    -0.0040 H     1 <1>   0.1500 
 33 H       -6.4360    -8.7570     0.3240 H     1 <1>   0.1500 
@<TRIPOS>BOND
  1   1   2  1   
  2   1   3  1   
  3   2   4  1   
  4   2  23  1   
  5   2  24  1   
  6   3   5  1   
  7   3  25  1   
  8   3  26  1   
  9   4   5  1   
 10   4   6  2   
 11   5   7  2   
 12   6   8  1   
 13   7   8  1   
 14   7   9  1   
 15   8  10  1   
 16   9  11  am  
 17   9  27  1   
 18  10  28  1   
 19  10  29  1   
 20  10  30  1   
 21  11  12  2   
 22  11  13  1   
 23  13  14  ar  
 24  13  15  ar  
 25  14  16  ar  
 26  14  31  1   
 27  15  17  ar  
 28  15  32  1   
 29  16  18  ar  
 30  17  18  ar  
 31  17  33  1   
 32  18  19  1   
 33  19  20  1   
 34  19  21  1   
 35  19  22  1   
@<TRIPOS>SUBSTRUCTURE
  1 ****  11 GROUP 4 **** **** 0

# MOE 2024.06 (io_trps.svl 2023.06)
