@<TRIPOS>MOLECULE
NONAME
55 57 1 0 0 
SMALL
USER_CHARGES


@<TRIPOS>ATOM
  1 O       -0.8250    -0.2410    -0.7320 O.2   1 <1>  -0.5700 
  2 C       -1.8650    -0.4000    -0.1460 C.2   1 <1>   0.5690 
  3 N       -2.4250     0.6220     0.5360 N.am  1 <1>  -0.7300 
  4 C       -2.5550    -1.7660    -0.1640 C.3   1 <1>   0.2010 
  5 C       -3.7240     0.4980     1.2380 C.3   1 <1>   0.1400 
  6 N       -4.0200    -1.8060     0.2370 N.am  1 <1>  -0.6600 
  7 C       -4.6960    -0.4710     0.5120 C.3   1 <1>   0.3000 
  8 C       -4.6530    -3.0220     0.1490 C.2   1 <1>   0.7800 
  9 C       -5.9940    -0.5490     1.3480 C.3   1 <1>   0.1400 
 10 C       -5.1680     0.1140    -0.8300 C.3   1 <1>  -0.1600 
 11 O       -5.8540    -3.1790     0.1890 O.2   1 <1>  -0.5700 
 12 O       -3.8780    -4.0920    -0.0080 O.3   1 <1>  -0.4300 
 13 N       -7.1180    -0.4290     0.3920 N.am  1 <1>  -0.6600 
 14 C       -6.6180    -0.3280    -0.9880 C.3   1 <1>   0.1400 
 15 C       -4.4470    -5.3780    -0.1110 C.3   1 <1>   0.2630 
 16 C       -8.3950    -0.7760     0.7220 C.2   1 <1>   0.7800 
 17 C       -3.3260    -6.3920    -0.2710 C.ar  1 <1>  -0.1440 
 18 O       -8.7270    -0.9570     1.8780 O.2   1 <1>  -0.5700 
 19 O       -9.2650    -0.8910    -0.2840 O.3   1 <1>  -0.4300 
 20 C       -3.0920    -7.3440     0.7090 C.ar  1 <1>  -0.1500 
 21 C       -2.5280    -6.3730    -1.4050 C.ar  1 <1>  -0.1500 
 22 C      -10.6190    -1.2760    -0.1980 C.3   1 <1>   0.2800 
 23 C       -2.0730    -8.2690     0.5560 C.ar  1 <1>  -0.1500 
 24 C       -1.5090    -7.2970    -1.5590 C.ar  1 <1>  -0.1500 
 25 C      -11.1260    -1.2690    -1.6410 C.3   1 <1>  -0.2400 
 26 C      -11.4130    -0.2530     0.6220 C.3   1 <1>  -0.2400 
 27 C      -10.7290    -2.6970     0.3690 C.3   1 <1>  -0.2400 
 28 C       -1.2810    -8.2460    -0.5780 C.ar  1 <1>  -0.1500 
 29 H       -1.9160     1.5080     0.5720 H     1 <1>   0.3700 
 30 H       -2.0000    -2.4120     0.4920 H     1 <1>   0.0800 
 31 H       -2.4600    -2.1620    -1.1600 H     1 <1>   0.0800 
 32 H       -4.1760     1.4720     1.3110 H     1 <1>   0.0800 
 33 H       -3.5470     0.1410     2.2380 H     1 <1>   0.0800 
 34 H       -6.0640     0.2780     2.0320 H     1 <1>   0.0800 
 35 H       -6.0620    -1.4600     1.9160 H     1 <1>   0.0800 
 36 H       -4.5630    -0.1990    -1.6620 H     1 <1>   0.0800 
 37 H       -5.1580     1.1880    -0.7920 H     1 <1>   0.0800 
 38 H       -6.6740    -1.2990    -1.4530 H     1 <1>   0.0800 
 39 H       -7.1970     0.3800    -1.5560 H     1 <1>   0.0800 
 40 H       -5.0990    -5.3960    -0.9680 H     1 <1>   0.0800 
 41 H       -5.0210    -5.5690     0.7800 H     1 <1>   0.0800 
 42 H       -3.6990    -7.3700     1.5970 H     1 <1>   0.1500 
 43 H       -2.6980    -5.6360    -2.1700 H     1 <1>   0.1500 
 44 H       -1.8960    -9.0060     1.3200 H     1 <1>   0.1500 
 45 H       -0.8930    -7.2760    -2.4410 H     1 <1>   0.1500 
 46 H      -11.0310    -0.2860    -2.0640 H     1 <1>   0.0800 
 47 H      -12.1620    -1.5550    -1.6750 H     1 <1>   0.0800 
 48 H      -10.5620    -1.9640    -2.2370 H     1 <1>   0.0800 
 49 H      -11.2510     0.7380     0.2390 H     1 <1>   0.0800 
 50 H      -11.1290    -0.2830     1.6570 H     1 <1>   0.0800 
 51 H      -12.4630    -0.4740     0.5660 H     1 <1>   0.0800 
 52 H      -10.0980    -3.3690    -0.1840 H     1 <1>   0.0800 
 53 H      -11.7440    -3.0430     0.2980 H     1 <1>   0.0800 
 54 H      -10.4490    -2.7230     1.4050 H     1 <1>   0.0800 
 55 H       -0.4890    -8.9650    -0.6970 H     1 <1>   0.1500 
@<TRIPOS>BOND
  1   1   2  2   
  2   2   3  am  
  3   2   4  1   
  4   3   5  1   
  5   3  29  1   
  6   4   6  1   
  7   4  30  1   
  8   4  31  1   
  9   5   7  1   
 10   5  32  1   
 11   5  33  1   
 12   6   7  1   
 13   6   8  am  
 14   7   9  1   
 15   7  10  1   
 16   8  11  2   
 17   8  12  1   
 18   9  13  1   
 19   9  34  1   
 20   9  35  1   
 21  10  14  1   
 22  10  36  1   
 23  10  37  1   
 24  12  15  1   
 25  13  14  1   
 26  13  16  am  
 27  14  38  1   
 28  14  39  1   
 29  15  17  1   
 30  15  40  1   
 31  15  41  1   
 32  16  18  2   
 33  16  19  1   
 34  17  20  ar  
 35  17  21  ar  
 36  19  22  1   
 37  20  23  ar  
 38  20  42  1   
 39  21  24  ar  
 40  21  43  1   
 41  22  25  1   
 42  22  26  1   
 43  22  27  1   
 44  23  28  ar  
 45  23  44  1   
 46  24  28  ar  
 47  24  45  1   
 48  25  46  1   
 49  25  47  1   
 50  25  48  1   
 51  26  49  1   
 52  26  50  1   
 53  26  51  1   
 54  27  52  1   
 55  27  53  1   
 56  27  54  1   
 57  28  55  1   
@<TRIPOS>SUBSTRUCTURE
  1 ****   8 GROUP 4 **** **** 0

# MOE 2024.06 (io_trps.svl 2023.06)
