@<TRIPOS>MOLECULE
NONAME
52 55 1 0 0 
SMALL
USER_CHARGES


@<TRIPOS>ATOM
  1 O        0.2950    -0.2650     2.0960 O.2   1 <1>  -0.5700 
  2 C        1.0500     0.2460     1.2880 C.2   1 <1>   0.5440 
  3 N        0.5850     1.3010     0.5340 N.am  1 <1>  -0.6600 
  4 C        2.4090    -0.2110     1.1570 C.ar  1 <1>   0.0860 
  5 C       -0.8230     1.7480     0.5690 C.3   1 <1>   0.1400 
  6 C        1.3540     2.0240    -0.5020 C.3   1 <1>   0.1400 
  7 C        2.7430    -1.4040     0.4830 C.ar  1 <1>   0.4100 
  8 C        3.4380     0.5400     1.7060 C.ar  1 <1>  -0.1500 
  9 C       -0.8880     2.9130    -0.4140 C.3   1 <1>  -0.1600 
 10 C        0.2900     2.6930    -1.3620 C.3   1 <1>  -0.1600 
 11 N        3.9980    -1.8360     0.3430 N.ar  1 <1>  -0.6200 
 12 N        1.7920    -2.2240    -0.0970 N.pl3 1 <1>  -0.8380 
 13 C        4.7280     0.0860     1.5610 C.ar  1 <1>  -0.1500 
 14 C        4.9480    -1.0950     0.8770 C.ar  1 <1>   0.1600 
 15 C        1.9240    -3.7060     0.0050 C.3   1 <1>   0.3530 
 16 C        0.7960    -1.7190    -1.0810 C.3   1 <1>   0.1290 
 17 C        0.5870    -4.3790     0.3410 C.ar  1 <1>  -0.1430 
 18 C        0.1930    -5.6070    -0.2570 C.ar  1 <1>   0.0000 
 19 C       -0.2320    -3.7770     1.2630 C.ar  1 <1>  -0.1500 
 20 C       -1.0760    -6.1700     0.0640 C.ar  1 <1>   0.3100 
 21 C        1.0110    -6.3290    -1.1560 C.ar  1 <1>  -0.1500 
 22 C       -1.4660    -4.3260     1.5930 C.ar  1 <1>  -0.1500 
 23 N       -1.4920    -7.3480    -0.4930 N.ar  1 <1>  -0.6200 
 24 C       -1.9010    -5.4830     1.0040 C.ar  1 <1>   0.0830 
 25 C        0.5560    -7.4970    -1.6810 C.ar  1 <1>  -0.1500 
 26 C       -0.7070    -7.9640    -1.3170 C.ar  1 <1>   0.1600 
 27 O       -3.1360    -5.8960     1.4000 O.3   1 <1>  -0.3630 
 28 C       -4.0660    -6.4230     0.4780 C.3   1 <1>   0.0400 
 29 H       -1.1020     2.0470     1.5650 H     1 <1>   0.0800 
 30 H       -1.4550     0.9380     0.2470 H     1 <1>   0.0800 
 31 H        1.9700     1.3550    -1.0790 H     1 <1>   0.0800 
 32 H        1.9700     2.7670    -0.0250 H     1 <1>   0.0800 
 33 H        3.2210     1.4510     2.2360 H     1 <1>   0.1500 
 34 H       -0.7540     3.8320     0.1290 H     1 <1>   0.0800 
 35 H       -1.8310     2.9460    -0.9300 H     1 <1>   0.0800 
 36 H        0.0030     2.0200    -2.1510 H     1 <1>   0.0800 
 37 H        0.6440     3.6110    -1.7960 H     1 <1>   0.0800 
 38 H        5.5560     0.6350     1.9720 H     1 <1>   0.1500 
 39 H        5.9610    -1.4460     0.7650 H     1 <1>   0.1500 
 40 H        2.6340    -3.9580     0.7740 H     1 <1>   0.0800 
 41 H        2.3190    -4.0460    -0.9310 H     1 <1>   0.0800 
 42 H        1.0910    -0.7530    -1.4480 H     1 <1>   0.0800 
 43 H       -0.1690    -1.6360    -0.6100 H     1 <1>   0.0800 
 44 H        0.7220    -2.3950    -1.9150 H     1 <1>   0.0800 
 45 H        0.0610    -2.8590     1.7470 H     1 <1>   0.1500 
 46 H        1.9880    -5.9820    -1.4300 H     1 <1>   0.1500 
 47 H       -2.0830    -3.8250     2.3170 H     1 <1>   0.1500 
 48 H        1.1470    -8.0750    -2.3680 H     1 <1>   0.1500 
 49 H       -1.0470    -8.8920    -1.7450 H     1 <1>   0.1500 
 50 H       -5.0540    -6.2590     0.8670 H     1 <1>   0.0800 
 51 H       -3.8880    -7.4780     0.3710 H     1 <1>   0.0800 
 52 H       -3.9510    -5.9210    -0.4660 H     1 <1>   0.0800 
@<TRIPOS>BOND
  1   1   2  2   
  2   2   3  am  
  3   2   4  1   
  4   3   5  1   
  5   3   6  1   
  6   4   7  ar  
  7   4   8  ar  
  8   5   9  1   
  9   5  29  1   
 10   5  30  1   
 11   6  10  1   
 12   6  31  1   
 13   6  32  1   
 14   7  11  ar  
 15   7  12  1   
 16   8  13  ar  
 17   8  33  1   
 18   9  10  1   
 19   9  34  1   
 20   9  35  1   
 21  10  36  1   
 22  10  37  1   
 23  11  14  ar  
 24  12  15  1   
 25  12  16  1   
 26  13  14  ar  
 27  13  38  1   
 28  14  39  1   
 29  15  17  1   
 30  15  40  1   
 31  15  41  1   
 32  16  42  1   
 33  16  43  1   
 34  16  44  1   
 35  17  18  ar  
 36  17  19  ar  
 37  18  20  ar  
 38  18  21  ar  
 39  19  22  ar  
 40  19  45  1   
 41  20  23  ar  
 42  20  24  ar  
 43  21  25  ar  
 44  21  46  1   
 45  22  24  ar  
 46  22  47  1   
 47  23  26  ar  
 48  24  27  1   
 49  25  26  ar  
 50  25  48  1   
 51  26  49  1   
 52  27  28  1   
 53  28  50  1   
 54  28  51  1   
 55  28  52  1   
@<TRIPOS>SUBSTRUCTURE
  1 ****  12 GROUP 4 **** **** 0

# MOE 2024.06 (io_trps.svl 2023.06)
