@<TRIPOS>MOLECULE
NONAME
50 52 1 0 0 
SMALL
USER_CHARGES


@<TRIPOS>ATOM
  1 O        0.1840     0.0540    -0.4610 O.3   1 <1>  -0.5600 
  2 C        1.3530    -0.5930    -0.8800 C.3   1 <1>   0.3440 
  3 C        0.1350     1.4370    -0.7010 C.3   1 <1>   0.2000 
  4 C        1.2600    -2.0770    -0.5540 C.ar  1 <1>  -0.1440 
  5 C        2.5730     0.0140    -0.1520 C.3   1 <1>   0.3430 
  6 C       -1.2700     1.9790    -0.3150 C.3   1 <1>   0.0000 
  7 C        1.2860     2.1240     0.0700 C.3   1 <1>   0.3430 
  8 C        1.8270    -3.0080    -1.4140 C.ar  1 <1>  -0.1500 
  9 C        0.6330    -2.5210     0.6040 C.ar  1 <1>  -0.1500 
 10 N        2.6340     1.5210    -0.2430 N.4   1 <1>  -0.9590 
 11 C       -1.3640     3.4900    -0.5980 C.3   1 <1>  -0.2400 
 12 C       -1.5940     1.7410     1.1730 C.3   1 <1>  -0.2400 
 13 C       -2.3460     1.2760    -1.1630 C.3   1 <1>  -0.2400 
 14 C        1.7770    -4.3580    -1.1160 C.ar  1 <1>  -0.1500 
 15 C        0.5840    -3.8710     0.9010 C.ar  1 <1>  -0.1500 
 16 C        3.7040     2.0810     0.6280 C.3   1 <1>   0.4860 
 17 C        1.1580    -4.7910     0.0420 C.ar  1 <1>  -0.1500 
 18 C        3.7750     3.5800     0.4040 C.ar  1 <1>  -0.1440 
 19 C        3.2740     4.4760     1.3310 C.ar  1 <1>  -0.1500 
 20 C        4.3350     4.1260    -0.7360 C.ar  1 <1>  -0.1500 
 21 C        3.3380     5.8350     1.0710 C.ar  1 <1>   0.1600 
 22 C        4.3480     5.5010    -0.8990 C.ar  1 <1>   0.1600 
 23 N        3.8530     6.3600    -0.0260 N.ar  1 <1>  -0.6200 
 24 H        1.4420    -0.4650    -1.9450 H     1 <1>   0.0800 
 25 H        0.2730     1.5920    -1.7570 H     1 <1>   0.0800 
 26 H        3.4710    -0.4210    -0.5580 H     1 <1>   0.0800 
 27 H        2.5080    -0.2840     0.8820 H     1 <1>   0.0800 
 28 H        1.0850     2.0320     1.1240 H     1 <1>   0.0800 
 29 H        1.2920     3.1740    -0.1720 H     1 <1>   0.0800 
 30 H        2.3090    -2.6990    -2.3250 H     1 <1>   0.1500 
 31 H        0.1710    -1.8220     1.2800 H     1 <1>   0.1500 
 32 H        2.8630     1.7870    -1.2080 H     1 <1>   0.4500 
 33 H       -2.3640     3.8420    -0.4080 H     1 <1>   0.0800 
 34 H       -1.1340     3.7010    -1.6280 H     1 <1>   0.0800 
 35 H       -0.7000     4.0580     0.0280 H     1 <1>   0.0800 
 36 H       -2.5930     2.0760     1.3940 H     1 <1>   0.0800 
 37 H       -0.9210     2.2720     1.8190 H     1 <1>   0.0800 
 38 H       -1.5420     0.6920     1.4080 H     1 <1>   0.0800 
 39 H       -3.3250     1.6590    -0.9330 H     1 <1>   0.0800 
 40 H       -2.3530     0.2170    -0.9690 H     1 <1>   0.0800 
 41 H       -2.1650     1.4240    -2.2130 H     1 <1>   0.0800 
 42 H        2.2160    -5.0770    -1.7870 H     1 <1>   0.1500 
 43 H        0.0940    -4.2090     1.7990 H     1 <1>   0.1500 
 44 H        3.4880     1.8750     1.6640 H     1 <1>   0.0800 
 45 H        4.6560     1.6380     0.3830 H     1 <1>   0.0800 
 46 H        1.1180    -5.8420     0.2730 H     1 <1>   0.1500 
 47 H        2.8360     4.1460     2.2570 H     1 <1>   0.1500 
 48 H        4.7690     3.5110    -1.5040 H     1 <1>   0.1500 
 49 H        2.9460     6.5260     1.7990 H     1 <1>   0.1500 
 50 H        4.7870     5.9190    -1.7910 H     1 <1>   0.1500 
@<TRIPOS>BOND
  1   1   2  1   
  2   1   3  1   
  3   2   4  1   
  4   2   5  1   
  5   2  24  1   
  6   3   6  1   
  7   3   7  1   
  8   3  25  1   
  9   4   8  ar  
 10   4   9  ar  
 11   5  10  1   
 12   5  26  1   
 13   5  27  1   
 14   6  11  1   
 15   6  12  1   
 16   6  13  1   
 17   7  10  1   
 18   7  28  1   
 19   7  29  1   
 20   8  14  ar  
 21   8  30  1   
 22   9  15  ar  
 23   9  31  1   
 24  10  16  1   
 25  10  32  1   
 26  11  33  1   
 27  11  34  1   
 28  11  35  1   
 29  12  36  1   
 30  12  37  1   
 31  12  38  1   
 32  13  39  1   
 33  13  40  1   
 34  13  41  1   
 35  14  17  ar  
 36  14  42  1   
 37  15  17  ar  
 38  15  43  1   
 39  16  18  1   
 40  16  44  1   
 41  16  45  1   
 42  17  46  1   
 43  18  19  ar  
 44  18  20  ar  
 45  19  21  ar  
 46  19  47  1   
 47  20  22  ar  
 48  20  48  1   
 49  21  23  ar  
 50  21  49  1   
 51  22  23  ar  
 52  22  50  1   
@<TRIPOS>SUBSTRUCTURE
  1 ****   7 GROUP 4 **** **** 0

# MOE 2024.06 (io_trps.svl 2023.06)
