@<TRIPOS>MOLECULE
NONAME
51 54 1 0 0 
SMALL
USER_CHARGES


@<TRIPOS>ATOM
  1 O        0.3120    -0.5260    -1.2520 O.2   1 <1>  -0.5700 
  2 C        1.3070    -0.8100    -0.6120 C.2   1 <1>   0.7030 
  3 N        2.2390     0.1730    -0.3440 N.am  1 <1>  -0.6600 
  4 C        1.4540    -2.1690    -0.1350 C.2   1 <1>   0.2770 
  5 C        3.1290     0.1310     0.8610 C.3   1 <1>   0.1400 
  6 C        2.1200     1.4950    -1.0330 C.3   1 <1>   0.1400 
  7 N        0.6360    -2.7740     0.8230 N.pl3 1 <1>  -0.6290 
  8 C        2.3590    -3.1130    -0.5140 C.2   1 <1>   0.1820 
  9 C        4.6000    -0.1350     0.5000 C.3   1 <1>   0.1100 
 10 C        3.4190     2.3080    -1.0750 C.3   1 <1>  -0.1600 
 11 C        1.0800    -4.0300     0.9880 C.cat 1 <1>   0.9620 
 12 C       -0.4830    -2.3510     1.4830 C.2   1 <1>   0.2290 
 13 N        2.1230    -4.2460     0.2000 N.pl3 1 <1>  -0.7000 
 14 C        3.4600    -3.0530    -1.5560 C.3   1 <1>  -0.0720 
 15 N        5.2730     1.0260    -0.1030 N.3   1 <1>  -0.8100 
 16 C        4.6750     1.4860    -1.3670 C.3   1 <1>   0.1100 
 17 N        0.5410    -4.9240     1.8160 N.2   1 <1>  -0.6120 
 18 C       -1.0710    -3.2360     2.3270 C.2   1 <1>  -0.1360 
 19 C        6.7430     0.8140    -0.2130 C.3   1 <1>   0.2900 
 20 C       -0.5110    -4.5190     2.4620 C.2   1 <1>   0.3760 
 21 C        7.5630     2.1010    -0.1380 C.2   1 <1>   0.2980 
 22 O        7.5580     2.9220    -1.1590 O.3   1 <1>  -0.0190 
 23 N        8.2980     2.4550     0.8420 N.2   1 <1>  -0.5650 
 24 N        8.3470     3.8850    -0.7950 N.2   1 <1>  -0.4100 
 25 C        8.7680     3.6020     0.3720 C.2   1 <1>   0.3350 
 26 C        9.7160     4.4620     1.1880 C.3   1 <1>   0.0210 
 27 C       11.1140     3.8380     1.2920 C.3   1 <1>  -0.2400 
 28 H        2.7960    -0.6430     1.5290 H     1 <1>   0.0800 
 29 H        3.0610     1.0600     1.4000 H     1 <1>   0.0800 
 30 H        1.3530     2.0770    -0.5490 H     1 <1>   0.0800 
 31 H        1.7990     1.3240    -2.0470 H     1 <1>   0.0800 
 32 H        4.6770    -0.9850    -0.1520 H     1 <1>   0.0800 
 33 H        5.1100    -0.3760     1.4180 H     1 <1>   0.0800 
 34 H        3.5480     2.8580    -0.1600 H     1 <1>   0.0800 
 35 H        3.3080     3.0400    -1.8550 H     1 <1>   0.0800 
 36 H       -0.8540    -1.3500     1.3090 H     1 <1>   0.1500 
 37 H        2.5820    -5.1580     0.1670 H     1 <1>   0.4500 
 38 H        3.4940    -2.0840    -2.0210 H     1 <1>   0.0800 
 39 H        3.2800    -3.7880    -2.3210 H     1 <1>   0.0800 
 40 H        4.4140    -3.2540    -1.1020 H     1 <1>   0.0800 
 41 H        5.3660     2.1310    -1.8810 H     1 <1>   0.0800 
 42 H        4.4580     0.6560    -2.0180 H     1 <1>   0.0800 
 43 H       -1.9520    -2.9860     2.8900 H     1 <1>   0.1500 
 44 H        6.9740     0.2980    -1.1280 H     1 <1>   0.0800 
 45 H        7.0750     0.1960     0.6020 H     1 <1>   0.0800 
 46 H       -0.9880    -5.2040     3.1420 H     1 <1>   0.0600 
 47 H        9.3010     4.5910     2.1710 H     1 <1>   0.0800 
 48 H        9.7910     5.4310     0.7270 H     1 <1>   0.0800 
 49 H       11.0540     2.8760     1.7710 H     1 <1>   0.0800 
 50 H       11.7630     4.4730     1.8690 H     1 <1>   0.0800 
 51 H       11.5350     3.7090     0.3110 H     1 <1>   0.0800 
@<TRIPOS>BOND
  1   1   2  2   
  2   2   3  am  
  3   2   4  1   
  4   3   5  1   
  5   3   6  1   
  6   4   7  1   
  7   4   8  2   
  8   5   9  1   
  9   5  28  1   
 10   5  29  1   
 11   6  10  1   
 12   6  30  1   
 13   6  31  1   
 14   7  11  ar  
 15   7  12  1   
 16   8  13  1   
 17   8  14  1   
 18   9  15  1   
 19   9  32  1   
 20   9  33  1   
 21  10  16  1   
 22  10  34  1   
 23  10  35  1   
 24  11  13  ar  
 25  11  17  1   
 26  12  18  2   
 27  12  36  1   
 28  13  37  1   
 29  14  38  1   
 30  14  39  1   
 31  14  40  1   
 32  15  16  1   
 33  15  19  1   
 34  16  41  1   
 35  16  42  1   
 36  17  20  2   
 37  18  20  1   
 38  18  43  1   
 39  19  21  1   
 40  19  44  1   
 41  19  45  1   
 42  20  46  1   
 43  21  22  1   
 44  21  23  2   
 45  22  24  1   
 46  23  25  1   
 47  24  25  2   
 48  25  26  1   
 49  26  27  1   
 50  26  47  1   
 51  26  48  1   
 52  27  49  1   
 53  27  50  1   
 54  27  51  1   
@<TRIPOS>SUBSTRUCTURE
  1 ****   9 GROUP 4 **** **** 0

# MOE 2024.06 (io_trps.svl 2023.06)
