@<TRIPOS>MOLECULE
NONAME
59 61 1 0 0 
SMALL
USER_CHARGES


@<TRIPOS>ATOM
  1 O        0.9650     0.3660    -2.2680 O.2   1 <1>  -0.5700 
  2 C        1.9710     0.1130    -1.6390 C.2   1 <1>   0.7150 
  3 N        2.6210     1.1530    -1.0730 N.am  1 <1>  -0.8000 
  4 C        2.4460    -1.2430    -1.4980 C.2   1 <1>   0.0550 
  5 O        3.5050    -1.5390    -0.7550 O.3   1 <1>  -0.2800 
  6 C        1.9690    -2.3990    -2.0270 C.2   1 <1>  -0.1500 
  7 C        3.7300    -2.8370    -0.7840 C.2   1 <1>  -0.0400 
  8 C        2.7840    -3.4330    -1.5570 C.2   1 <1>  -0.1810 
  9 C        4.9400    -3.3390     0.0240 C.3   1 <1>   0.1800 
 10 C        2.5440    -4.8850    -1.9010 C.3   1 <1>   0.5240 
 11 C        4.6890    -3.0730     1.5140 C.3   1 <1>  -0.2400 
 12 C        5.2130    -4.8380    -0.1650 C.3   1 <1>  -0.2400 
 13 C        6.1950    -2.5720    -0.4190 C.3   1 <1>  -0.2400 
 14 N        1.7720    -5.4850    -0.7810 N.4   1 <1>  -0.9590 
 15 C        1.8980    -6.9850    -0.7840 C.3   1 <1>   0.3430 
 16 C        0.3600    -4.9970    -0.7720 C.3   1 <1>   0.3430 
 17 C        1.1380    -7.7120     0.3490 C.3   1 <1>   0.2090 
 18 C       -0.2170    -5.1070     0.6360 C.3   1 <1>  -0.1600 
 19 N       -0.3530    -7.5960     0.2040 N.pl3 1 <1>  -0.8380 
 20 C       -0.9740    -6.4130     0.8810 C.3   1 <1>   0.2090 
 21 C       -1.1140    -8.6490    -0.2290 C.ar  1 <1>   0.1000 
 22 C       -2.3790    -8.9310     0.3150 C.ar  1 <1>  -0.1500 
 23 C       -0.6720    -9.5230    -1.2350 C.ar  1 <1>  -0.1500 
 24 C       -3.1350    -9.9910    -0.1190 C.ar  1 <1>   0.2170 
 25 C       -1.4440   -10.5770    -1.6510 C.ar  1 <1>   0.2110 
 26 N       -2.6600   -10.8000    -1.0960 N.ar  1 <1>  -0.1790 
 27 C       -4.5030   -10.2990     0.4680 C.3   1 <1>  -0.0960 
 28 H        2.2700     2.1000    -1.2060 H     1 <1>   0.3700 
 29 H        3.4890     1.0310    -0.5530 H     1 <1>   0.3700 
 30 H        1.1220    -2.4820    -2.6880 H     1 <1>   0.1500 
 31 H        3.4900    -5.3860    -2.0150 H     1 <1>   0.0800 
 32 H        2.0000    -4.9670    -2.8280 H     1 <1>   0.0800 
 33 H        3.8080    -3.5890     1.8490 H     1 <1>   0.0800 
 34 H        4.5480    -2.0210     1.6870 H     1 <1>   0.0800 
 35 H        5.5260    -3.4000     2.1060 H     1 <1>   0.0800 
 36 H        4.3970    -5.4290     0.1980 H     1 <1>   0.0800 
 37 H        6.0910    -5.1220     0.3890 H     1 <1>   0.0800 
 38 H        5.3980    -5.0580    -1.2010 H     1 <1>   0.0800 
 39 H        6.0760    -1.5170    -0.2440 H     1 <1>   0.0800 
 40 H        6.3720    -2.7190    -1.4700 H     1 <1>   0.0800 
 41 H        7.0610    -2.9050     0.1250 H     1 <1>   0.0800 
 42 H        2.2110    -5.1060     0.0680 H     1 <1>   0.4500 
 43 H        2.9400    -7.2450    -0.7040 H     1 <1>   0.0800 
 44 H        1.5380    -7.3700    -1.7230 H     1 <1>   0.0800 
 45 H       -0.2440    -5.5540    -1.4710 H     1 <1>   0.0800 
 46 H        0.3370    -3.9580    -1.0580 H     1 <1>   0.0800 
 47 H        1.4480    -7.3300     1.3060 H     1 <1>   0.0800 
 48 H        1.4110    -8.7530     0.3300 H     1 <1>   0.0800 
 49 H       -0.9220    -4.3050     0.7720 H     1 <1>   0.0800 
 50 H        0.5460    -4.9690     1.3810 H     1 <1>   0.0800 
 51 H       -1.9770    -6.2880     0.5060 H     1 <1>   0.0800 
 52 H       -1.0420    -6.5990     1.9410 H     1 <1>   0.0800 
 53 H       -2.7600    -8.3070     1.1020 H     1 <1>   0.1500 
 54 H        0.2840    -9.3590    -1.6920 H     1 <1>   0.1500 
 55 H       -1.1010   -11.2460    -2.4260 H     1 <1>   0.1500 
 56 H       -3.2300   -11.5920    -1.4130 H     1 <1>   0.4570 
 57 H       -4.7580    -9.5860     1.2320 H     1 <1>   0.0800 
 58 H       -4.5100   -11.2790     0.9120 H     1 <1>   0.0800 
 59 H       -5.2590   -10.2530    -0.2960 H     1 <1>   0.0800 
@<TRIPOS>BOND
  1   1   2  2   
  2   2   3  am  
  3   2   4  1   
  4   3  28  1   
  5   3  29  1   
  6   4   5  1   
  7   4   6  2   
  8   5   7  1   
  9   6   8  1   
 10   6  30  1   
 11   7   8  2   
 12   7   9  1   
 13   8  10  1   
 14   9  11  1   
 15   9  12  1   
 16   9  13  1   
 17  10  14  1   
 18  10  31  1   
 19  10  32  1   
 20  11  33  1   
 21  11  34  1   
 22  11  35  1   
 23  12  36  1   
 24  12  37  1   
 25  12  38  1   
 26  13  39  1   
 27  13  40  1   
 28  13  41  1   
 29  14  15  1   
 30  14  16  1   
 31  14  42  1   
 32  15  17  1   
 33  15  43  1   
 34  15  44  1   
 35  16  18  1   
 36  16  45  1   
 37  16  46  1   
 38  17  19  1   
 39  17  47  1   
 40  17  48  1   
 41  18  20  1   
 42  18  49  1   
 43  18  50  1   
 44  19  20  1   
 45  19  21  1   
 46  20  51  1   
 47  20  52  1   
 48  21  22  ar  
 49  21  23  ar  
 50  22  24  ar  
 51  22  53  1   
 52  23  25  ar  
 53  23  54  1   
 54  24  26  ar  
 55  24  27  1   
 56  25  26  ar  
 57  25  55  1   
 58  26  56  1   
 59  27  57  1   
 60  27  58  1   
 61  27  59  1   
@<TRIPOS>SUBSTRUCTURE
  1 ****  14 GROUP 4 **** **** 0

# MOE 2024.06 (io_trps.svl 2023.06)
