@<TRIPOS>MOLECULE
NONAME
46 48 1 0 0 
SMALL
USER_CHARGES


@<TRIPOS>ATOM
  1 O        2.2180    -0.7770    -2.9860 O.2   1 <1>  -0.5700 
  2 C        2.5600    -1.2880    -1.9460 C.2   1 <1>   0.5690 
  3 N        3.2480    -0.5590    -1.0000 N.am  1 <1>  -0.6600 
  4 C        2.1190    -2.7380    -1.6870 C.3   1 <1>   0.1710 
  5 C        3.4580    -1.0180     0.4040 C.3   1 <1>   0.1400 
  6 C        3.3880     0.9180    -1.1500 C.3   1 <1>   0.1400 
  7 N        1.1840    -2.8780    -0.5320 N.3   1 <1>  -0.8100 
  8 C        2.4010    -0.3560     1.3100 C.3   1 <1>   0.3430 
  9 C        2.3350     1.6120    -0.2640 C.3   1 <1>   0.3430 
 10 C       -0.0640    -2.1350    -0.7430 C.3   1 <1>   0.1100 
 11 C        0.7470    -4.2690    -0.3250 C.3   1 <1>   0.1100 
 12 N        2.4000     1.1470     1.1700 N.4   1 <1>  -0.9060 
 13 C       -0.9880    -2.6960     0.3270 C.3   1 <1>   0.2000 
 14 C       -0.6650    -4.1930     0.2960 C.3   1 <1>  -0.0800 
 15 O       -0.5520    -2.2030     1.5470 O.3   1 <1>  -0.6800 
 16 C       -1.7080    -4.9740    -0.5280 C.3   1 <1>  -0.0170 
 17 C       -1.4280    -6.4690    -0.5260 C.ar  1 <1>   0.1670 
 18 N       -0.6760    -6.9350    -1.5100 N.ar  1 <1>  -0.6200 
 19 C       -1.9560    -7.2710     0.4850 C.ar  1 <1>   0.1600 
 20 C       -0.4920    -8.2420    -1.4190 C.ar  1 <1>   0.1600 
 21 N       -1.7680    -8.5760     0.5800 N.ar  1 <1>  -0.6200 
 22 C       -1.0200    -9.0360    -0.4080 C.ar  1 <1>   0.1600 
 23 H        2.9960    -3.3340    -1.5110 H     1 <1>   0.0800 
 24 H        1.6470    -3.1110    -2.5810 H     1 <1>   0.0800 
 25 H        3.3860    -2.0880     0.4790 H     1 <1>   0.0800 
 26 H        4.4470    -0.7430     0.7270 H     1 <1>   0.0800 
 27 H        4.3800     1.2190    -0.8620 H     1 <1>   0.0800 
 28 H        3.2470     1.2130    -2.1760 H     1 <1>   0.0800 
 29 H        2.5840    -0.6320     2.3350 H     1 <1>   0.0800 
 30 H        1.4340    -0.7450     1.0340 H     1 <1>   0.0800 
 31 H        1.3620     1.3870    -0.6720 H     1 <1>   0.0800 
 32 H        2.4730     2.6800    -0.3150 H     1 <1>   0.0800 
 33 H        0.0680    -1.0720    -0.6400 H     1 <1>   0.0800 
 34 H       -0.4660    -2.3500    -1.7200 H     1 <1>   0.0800 
 35 H        0.7150    -4.7850    -1.2710 H     1 <1>   0.0800 
 36 H        1.4330    -4.7860     0.3250 H     1 <1>   0.0800 
 37 H        3.2510     1.5230     1.6050 H     1 <1>   0.4500 
 38 H        1.6000     1.5310     1.6910 H     1 <1>   0.4500 
 39 H       -2.0260    -2.4440     0.1910 H     1 <1>   0.0800 
 40 H       -0.6560    -4.6000     1.2930 H     1 <1>   0.0800 
 41 H        0.3300    -2.5980     1.6920 H     1 <1>   0.4000 
 42 H       -1.7230    -4.6190    -1.5450 H     1 <1>   0.0800 
 43 H       -2.6870    -4.8040    -0.1150 H     1 <1>   0.0800 
 44 H       -2.5580    -6.8130     1.2490 H     1 <1>   0.1500 
 45 H        0.1060    -8.7090    -2.1820 H     1 <1>   0.1500 
 46 H       -0.8140   -10.0910    -0.4180 H     1 <1>   0.1500 
@<TRIPOS>BOND
  1   1   2  2   
  2   2   3  am  
  3   2   4  1   
  4   3   5  1   
  5   3   6  1   
  6   4   7  1   
  7   4  23  1   
  8   4  24  1   
  9   5   8  1   
 10   5  25  1   
 11   5  26  1   
 12   6   9  1   
 13   6  27  1   
 14   6  28  1   
 15   7  10  1   
 16   7  11  1   
 17   8  12  1   
 18   8  29  1   
 19   8  30  1   
 20   9  12  1   
 21   9  31  1   
 22   9  32  1   
 23  10  13  1   
 24  10  33  1   
 25  10  34  1   
 26  11  14  1   
 27  11  35  1   
 28  11  36  1   
 29  12  37  1   
 30  12  38  1   
 31  13  14  1   
 32  13  15  1   
 33  13  39  1   
 34  14  16  1   
 35  14  40  1   
 36  15  41  1   
 37  16  17  1   
 38  16  42  1   
 39  16  43  1   
 40  17  18  ar  
 41  17  19  ar  
 42  18  20  ar  
 43  19  21  ar  
 44  19  44  1   
 45  20  22  ar  
 46  20  45  1   
 47  21  22  ar  
 48  22  46  1   
@<TRIPOS>SUBSTRUCTURE
  1 ****   7 GROUP 4 **** **** 0

# MOE 2024.06 (io_trps.svl 2023.06)
