@<TRIPOS>MOLECULE
NONAME
49 52 1 0 0 
SMALL
USER_CHARGES


@<TRIPOS>ATOM
  1 O        1.0310     0.0570    -0.3530 O.3   1 <1>  -0.3630 
  2 C        0.8070    -1.2350    -0.0950 C.ar  1 <1>   0.0830 
  3 C        0.4130     0.7990     0.6980 C.3   1 <1>   0.4000 
  4 C        0.0750    -1.3650     1.0460 C.ar  1 <1>   0.0830 
  5 C        1.2170    -2.3330    -0.8200 C.ar  1 <1>  -0.1500 
  6 O       -0.1970    -0.1610     1.5620 O.3   1 <1>  -0.3630 
  7 C       -0.2940    -2.6010     1.5320 C.ar  1 <1>  -0.1500 
  8 C        0.8570    -3.5990    -0.3520 C.ar  1 <1>   0.0830 
  9 C        0.0970    -3.7310     0.8190 C.ar  1 <1>  -0.1440 
 10 O        1.2170    -4.7410    -1.0030 O.3   1 <1>  -0.3630 
 11 C       -0.3070    -5.0980     1.3430 C.3   1 <1>   0.4870 
 12 C        2.1670    -4.7060    -2.0520 C.3   1 <1>   0.0400 
 13 N       -0.9850    -5.8900     0.2770 N.4   1 <1>  -0.9590 
 14 C       -2.4430    -5.6080     0.1240 C.3   1 <1>   0.4230 
 15 C       -0.6860    -7.3420     0.4680 C.3   1 <1>   0.2630 
 16 C       -3.0690    -6.4550    -0.9840 C.3   1 <1>  -0.1600 
 17 C       -2.7390    -4.1750    -0.3170 C.3   1 <1>  -0.1600 
 18 C       -4.3240    -5.6930    -1.4200 C.3   1 <1>  -0.0800 
 19 C       -4.1110    -4.2320    -0.9980 C.3   1 <1>  -0.0800 
 20 C       -5.6090    -6.1620    -0.7210 C.3   1 <1>  -0.1600 
 21 C       -5.2800    -3.8720    -0.0690 C.3   1 <1>  -0.1600 
 22 C       -6.3650    -4.8790    -0.4170 C.3   1 <1>   0.2000 
 23 O       -7.2110    -5.0630     0.6530 O.3   1 <1>  -0.6800 
 24 H        1.1610     1.3500     1.2400 H     1 <1>   0.0800 
 25 H       -0.3410     1.4480     0.2880 H     1 <1>   0.0800 
 26 H        1.7920    -2.1710    -1.7110 H     1 <1>   0.1500 
 27 H       -0.8680    -2.6540     2.4400 H     1 <1>   0.1500 
 28 H       -0.9530    -4.9960     2.1990 H     1 <1>   0.0800 
 29 H        0.5900    -5.6070     1.6570 H     1 <1>   0.0800 
 30 H        2.3750    -5.7160    -2.3570 H     1 <1>   0.0800 
 31 H        3.0700    -4.2420    -1.6940 H     1 <1>   0.0800 
 32 H        1.7590    -4.1540    -2.8810 H     1 <1>   0.0800 
 33 H       -0.5090    -5.5740    -0.5870 H     1 <1>   0.4500 
 34 H       -2.9640    -5.8040     1.0470 H     1 <1>   0.0800 
 35 H       -1.1560    -7.7080     1.3660 H     1 <1>   0.0800 
 36 H        0.3790    -7.4960     0.5450 H     1 <1>   0.0800 
 37 H       -1.0480    -7.9140    -0.3710 H     1 <1>   0.0800 
 38 H       -2.3990    -6.5070    -1.8250 H     1 <1>   0.0800 
 39 H       -3.3070    -7.4510    -0.6530 H     1 <1>   0.0800 
 40 H       -2.7390    -3.4840     0.5060 H     1 <1>   0.0800 
 41 H       -2.0160    -3.8600    -1.0500 H     1 <1>   0.0800 
 42 H       -4.4560    -5.7530    -2.4890 H     1 <1>   0.0800 
 43 H       -4.1320    -3.5890    -1.8640 H     1 <1>   0.0800 
 44 H       -5.3780    -6.6740     0.1960 H     1 <1>   0.0800 
 45 H       -6.1890    -6.8090    -1.3570 H     1 <1>   0.0800 
 46 H       -5.6200    -2.8650    -0.2390 H     1 <1>   0.0800 
 47 H       -4.9950    -3.9860     0.9620 H     1 <1>   0.0800 
 48 H       -6.9410    -4.5540    -1.2690 H     1 <1>   0.0800 
 49 H       -6.7140    -5.3250     1.4480 H     1 <1>   0.4000 
@<TRIPOS>BOND
  1   1   2  1   
  2   1   3  1   
  3   2   4  ar  
  4   2   5  ar  
  5   3   6  1   
  6   3  24  1   
  7   3  25  1   
  8   4   6  1   
  9   4   7  ar  
 10   5   8  ar  
 11   5  26  1   
 12   7   9  ar  
 13   7  27  1   
 14   8   9  ar  
 15   8  10  1   
 16   9  11  1   
 17  10  12  1   
 18  11  13  1   
 19  11  28  1   
 20  11  29  1   
 21  12  30  1   
 22  12  31  1   
 23  12  32  1   
 24  13  14  1   
 25  13  15  1   
 26  13  33  1   
 27  14  16  1   
 28  14  17  1   
 29  14  34  1   
 30  15  35  1   
 31  15  36  1   
 32  15  37  1   
 33  16  18  1   
 34  16  38  1   
 35  16  39  1   
 36  17  19  1   
 37  17  40  1   
 38  17  41  1   
 39  18  19  1   
 40  18  20  1   
 41  18  42  1   
 42  19  21  1   
 43  19  43  1   
 44  20  22  1   
 45  20  44  1   
 46  20  45  1   
 47  21  22  1   
 48  21  46  1   
 49  21  47  1   
 50  22  23  1   
 51  22  48  1   
 52  23  49  1   
@<TRIPOS>SUBSTRUCTURE
  1 ****  17 GROUP 4 **** **** 0

# MOE 2024.06 (io_trps.svl 2023.06)
