@<TRIPOS>MOLECULE
NONAME
58 61 1 0 0 
SMALL
USER_CHARGES


@<TRIPOS>ATOM
  1 O       -0.5920     1.1540     1.5090 O.2   1 <1>  -0.5700 
  2 C       -0.7490     1.6090     0.4030 C.2   1 <1>   0.5690 
  3 N       -2.0070     1.6530    -0.1550 N.am  1 <1>  -0.6600 
  4 C        0.4680     2.1480    -0.3450 C.3   1 <1>  -0.0990 
  5 C       -3.1280     0.9020     0.5040 C.3   1 <1>   0.1400 
  6 C       -2.3670     2.4440    -1.3600 C.3   1 <1>   0.1400 
  7 C        1.8160     1.8340     0.3370 C.3   1 <1>  -0.1600 
  8 C       -4.1390     1.8070     1.2500 C.3   1 <1>   0.4230 
  9 C       -3.4830     3.4670    -1.0810 C.3   1 <1>  -0.0800 
 10 C        3.0040     2.3400    -0.4960 C.3   1 <1>   0.0960 
 11 N       -5.2460     2.3470     0.3800 N.4   1 <1>  -0.9590 
 12 C       -3.4760     3.0270     1.9400 C.3   1 <1>   0.1200 
 13 C       -3.1300     4.4650     0.0570 C.3   1 <1>   0.1200 
 14 C       -4.8600     2.7790    -0.9970 C.3   1 <1>   0.3430 
 15 N        4.2810     2.1370     0.2150 N.pl3 1 <1>   0.3140 
 16 C       -6.5470     1.6110     0.4620 C.3   1 <1>   0.3430 
 17 O       -3.8050     4.2190     1.2610 O.3   1 <1>  -0.5600 
 18 N        4.9770     3.1390     0.7320 N.2   1 <1>  -0.7070 
 19 C        4.9420     0.9980     0.4410 C.2   1 <1>   0.0360 
 20 C       -6.4900     0.2000    -0.1300 C.3   1 <1>  -0.0170 
 21 C        6.0030     2.5340     1.2350 C.2   1 <1>   0.3660 
 22 N        6.0360     1.2040     1.0820 N.2   1 <1>  -0.5650 
 23 C       -7.8750    -0.4110    -0.0500 C.ar  1 <1>  -0.1440 
 24 C       -8.2580    -1.1310     1.0720 C.ar  1 <1>  -0.1500 
 25 C       -8.7740    -0.2460    -1.0930 C.ar  1 <1>  -0.1500 
 26 C       -9.5280    -1.6750     1.1510 C.ar  1 <1>  -0.1500 
 27 C      -10.0440    -0.7900    -1.0130 C.ar  1 <1>  -0.1500 
 28 C      -10.4220    -1.5040     0.1100 C.ar  1 <1>  -0.1500 
 29 H        0.4710     1.7220    -1.3310 H     1 <1>   0.0800 
 30 H        0.3670     3.2140    -0.4310 H     1 <1>   0.0800 
 31 H       -3.6330     0.2990    -0.2280 H     1 <1>   0.0800 
 32 H       -2.7170     0.2150     1.2240 H     1 <1>   0.0800 
 33 H       -1.5070     2.9780    -1.7250 H     1 <1>   0.0800 
 34 H       -2.6710     1.7680    -2.1430 H     1 <1>   0.0800 
 35 H        1.9030     0.7700     0.4790 H     1 <1>   0.0800 
 36 H        1.8380     2.3070     1.3060 H     1 <1>   0.0800 
 37 H       -4.5790     1.2020     2.0260 H     1 <1>   0.0800 
 38 H       -3.5180     4.0560    -1.9800 H     1 <1>   0.0800 
 39 H        2.8980     3.3930    -0.6880 H     1 <1>   0.0800 
 40 H        3.0530     1.8240    -1.4370 H     1 <1>   0.0800 
 41 H       -5.3870     3.2650     0.8470 H     1 <1>   0.4500 
 42 H       -2.4070     2.9400     2.0310 H     1 <1>   0.0800 
 43 H       -3.8700     3.1160     2.9370 H     1 <1>   0.0800 
 44 H       -3.4130     5.4590    -0.2450 H     1 <1>   0.0800 
 45 H       -2.0710     4.4770     0.2570 H     1 <1>   0.0800 
 46 H       -4.8640     1.9290    -1.6590 H     1 <1>   0.0800 
 47 H       -5.6060     3.4710    -1.3550 H     1 <1>   0.0800 
 48 H       -6.8560     1.5390     1.4920 H     1 <1>   0.0800 
 49 H       -7.3070     2.1700    -0.0600 H     1 <1>   0.0800 
 50 H        4.5850     0.0370     0.1180 H     1 <1>   0.1500 
 51 H       -6.1780     0.2290    -1.1580 H     1 <1>   0.0800 
 52 H       -5.8060    -0.4160     0.4250 H     1 <1>   0.0800 
 53 H        6.7990     3.0480     1.7500 H     1 <1>   0.1500 
 54 H       -7.5790    -1.2810     1.8930 H     1 <1>   0.1500 
 55 H       -8.5010     0.3010    -1.9790 H     1 <1>   0.1500 
 56 H       -9.8240    -2.2340     2.0230 H     1 <1>   0.1500 
 57 H      -10.7400    -0.6620    -1.8240 H     1 <1>   0.1500 
 58 H      -11.4100    -1.9280     0.1720 H     1 <1>   0.1500 
@<TRIPOS>BOND
  1   1   2  2   
  2   2   3  am  
  3   2   4  1   
  4   3   5  1   
  5   3   6  1   
  6   4   7  1   
  7   4  29  1   
  8   4  30  1   
  9   5   8  1   
 10   5  31  1   
 11   5  32  1   
 12   6   9  1   
 13   6  33  1   
 14   6  34  1   
 15   7  10  1   
 16   7  35  1   
 17   7  36  1   
 18   8  11  1   
 19   8  12  1   
 20   8  37  1   
 21   9  13  1   
 22   9  14  1   
 23   9  38  1   
 24  10  15  1   
 25  10  39  1   
 26  10  40  1   
 27  11  14  1   
 28  11  16  1   
 29  11  41  1   
 30  12  17  1   
 31  12  42  1   
 32  12  43  1   
 33  13  17  1   
 34  13  44  1   
 35  13  45  1   
 36  14  46  1   
 37  14  47  1   
 38  15  18  1   
 39  15  19  1   
 40  16  20  1   
 41  16  48  1   
 42  16  49  1   
 43  18  21  2   
 44  19  22  2   
 45  19  50  1   
 46  20  23  1   
 47  20  51  1   
 48  20  52  1   
 49  21  22  1   
 50  21  53  1   
 51  23  24  ar  
 52  23  25  ar  
 53  24  26  ar  
 54  24  54  1   
 55  25  27  ar  
 56  25  55  1   
 57  26  28  ar  
 58  26  56  1   
 59  27  28  ar  
 60  27  57  1   
 61  28  58  1   
@<TRIPOS>SUBSTRUCTURE
  1 ****   3 GROUP 4 **** **** 0

# MOE 2024.06 (io_trps.svl 2023.06)
