@<TRIPOS>MOLECULE
NONAME
48 51 1 0 0 
SMALL
USER_CHARGES


@<TRIPOS>ATOM
  1 F       -2.5130    -0.6250    -1.7570 F     1 <1>  -0.1900 
  2 C       -2.4280    -1.0650    -0.5260 C.ar  1 <1>   0.1900 
  3 C       -2.6050    -2.4200    -0.2690 C.ar  1 <1>   0.0830 
  4 C       -2.1610    -0.1500     0.4710 C.ar  1 <1>  -0.1500 
  5 O       -2.8750    -3.2750    -1.2820 O.3   1 <1>  -0.3630 
  6 C       -2.5260    -2.8800     1.0500 C.ar  1 <1>   0.0860 
  7 C       -2.0660    -0.6040     1.7770 C.ar  1 <1>  -0.1500 
  8 C       -1.7850    -4.0060    -1.7990 C.3   1 <1>   0.0400 
  9 C       -2.7190    -4.2730     1.3830 C.2   1 <1>   0.5440 
 10 C       -2.2450    -1.9490     2.0530 C.ar  1 <1>  -0.1500 
 11 O       -1.7550    -4.9330     1.7190 O.2   1 <1>  -0.5700 
 12 N       -3.9570    -4.8780     1.3320 N.am  1 <1>  -0.6600 
 13 C       -4.1340    -6.3520     1.5240 C.3   1 <1>   0.1400 
 14 C       -5.1960    -4.2300     0.8010 C.3   1 <1>   0.1400 
 15 C       -4.7020    -7.0000     0.2470 C.3   1 <1>   0.3430 
 16 C       -5.7060    -4.9770    -0.4470 C.3   1 <1>   0.2950 
 17 O       -5.8740    -6.3380    -0.1540 O.3   1 <1>  -0.5600 
 18 C       -5.0030    -8.4780     0.4810 C.ar  1 <1>  -0.1440 
 19 C       -7.0440    -4.3880    -0.9290 C.3   1 <1>  -0.1950 
 20 C       -6.2450    -8.9040     0.9310 C.ar  1 <1>  -0.1500 
 21 C       -4.0110    -9.4220     0.2530 C.ar  1 <1>  -0.1500 
 22 C       -8.3580    -4.7780    -0.3240 C.3   1 <1>  -0.2000 
 23 C       -8.0270    -5.1800    -1.7350 C.3   1 <1>  -0.2000 
 24 C       -6.4920   -10.2490     1.1500 C.ar  1 <1>  -0.1500 
 25 C       -4.2550   -10.7670     0.4710 C.ar  1 <1>  -0.1500 
 26 C       -5.4960   -11.1810     0.9200 C.ar  1 <1>  -0.1500 
 27 H       -2.0280     0.8900     0.2310 H     1 <1>   0.1500 
 28 H       -1.8510     0.0890     2.5730 H     1 <1>   0.1500 
 29 H       -2.1440    -4.6260    -2.6000 H     1 <1>   0.0800 
 30 H       -1.3640    -4.6170    -1.0200 H     1 <1>   0.0800 
 31 H       -1.0490    -3.3150    -2.1720 H     1 <1>   0.0800 
 32 H       -2.1650    -2.2990     3.0690 H     1 <1>   0.1500 
 33 H       -3.1990    -6.8240     1.7700 H     1 <1>   0.0800 
 34 H       -4.8120    -6.5270     2.3400 H     1 <1>   0.0800 
 35 H       -5.9590    -4.2560     1.5590 H     1 <1>   0.0800 
 36 H       -5.0210    -3.2000     0.5520 H     1 <1>   0.0800 
 37 H       -3.9840    -6.9090    -0.5500 H     1 <1>   0.0800 
 38 H       -4.9850    -4.8920    -1.2420 H     1 <1>   0.0800 
 39 H       -6.9320    -3.3550    -1.2110 H     1 <1>   0.1000 
 40 H       -7.0280    -8.1870     1.1100 H     1 <1>   0.1500 
 41 H       -3.0390    -9.1140    -0.0940 H     1 <1>   0.1500 
 42 H       -8.3840    -5.5490     0.4270 H     1 <1>   0.1000 
 43 H       -9.1050    -4.0200    -0.1640 H     1 <1>   0.1000 
 44 H       -8.5420    -4.6960    -2.5470 H     1 <1>   0.1000 
 45 H       -7.8260    -6.2190    -1.9350 H     1 <1>   0.1000 
 46 H       -7.4590   -10.5670     1.4960 H     1 <1>   0.1500 
 47 H       -3.4800   -11.4910     0.2910 H     1 <1>   0.1500 
 48 H       -5.6880   -12.2260     1.0890 H     1 <1>   0.1500 
@<TRIPOS>BOND
  1   1   2  1   
  2   2   3  ar  
  3   2   4  ar  
  4   3   5  1   
  5   3   6  ar  
  6   4   7  ar  
  7   4  27  1   
  8   5   8  1   
  9   6   9  1   
 10   6  10  ar  
 11   7  10  ar  
 12   7  28  1   
 13   8  29  1   
 14   8  30  1   
 15   8  31  1   
 16   9  11  2   
 17   9  12  am  
 18  10  32  1   
 19  12  13  1   
 20  12  14  1   
 21  13  15  1   
 22  13  33  1   
 23  13  34  1   
 24  14  16  1   
 25  14  35  1   
 26  14  36  1   
 27  15  17  1   
 28  15  18  1   
 29  15  37  1   
 30  16  17  1   
 31  16  19  1   
 32  16  38  1   
 33  18  20  ar  
 34  18  21  ar  
 35  19  22  1   
 36  19  23  1   
 37  19  39  1   
 38  20  24  ar  
 39  20  40  1   
 40  21  25  ar  
 41  21  41  1   
 42  22  23  1   
 43  22  42  1   
 44  22  43  1   
 45  23  44  1   
 46  23  45  1   
 47  24  26  ar  
 48  24  46  1   
 49  25  26  ar  
 50  25  47  1   
 51  26  48  1   
@<TRIPOS>SUBSTRUCTURE
  1 ****  12 GROUP 4 **** **** 0

# MOE 2024.06 (io_trps.svl 2023.06)
