@<TRIPOS>MOLECULE
NONAME
49 51 1 0 0 
SMALL
USER_CHARGES


@<TRIPOS>ATOM
  1 O       -1.2400     0.0640     1.7470 O.2   1 <1>  -0.5700 
  2 C       -1.6080     0.8160     0.8640 C.2   1 <1>   0.5440 
  3 N       -2.3200     0.2680    -0.1830 N.am  1 <1>  -0.6600 
  4 C       -1.3680     2.2320     0.9760 C.ar  1 <1>   0.0860 
  5 C       -2.3680    -1.2090    -0.3490 C.3   1 <1>   0.1400 
  6 C       -3.4910     0.9720    -0.7740 C.3   1 <1>   0.1400 
  7 C       -0.8250     3.0320    -0.0250 C.ar  1 <1>   0.1660 
  8 C       -1.7080     2.8950     2.1420 C.ar  1 <1>   0.1600 
  9 C       -3.6190    -1.7480     0.3810 C.3   1 <1>   0.4230 
 10 C       -4.7540     0.4640    -0.0660 C.3   1 <1>  -0.1600 
 11 N       -0.7070     4.3300     0.1050 N.ar  1 <1>  -0.6200 
 12 C       -0.3230     2.4640    -1.3420 C.3   1 <1>  -0.0960 
 13 N       -1.5940     4.1900     2.3000 N.ar  1 <1>  -0.6200 
 14 N       -3.6820    -3.2670     0.4630 N.4   1 <1>  -0.9590 
 15 C       -4.9300    -1.0830    -0.1400 C.3   1 <1>   0.0000 
 16 C       -1.1100     4.8390     1.2570 C.ar  1 <1>   0.7200 
 17 C       -5.0440    -3.8060     0.7820 C.3   1 <1>   0.3430 
 18 C       -3.1010    -4.0050    -0.7060 C.3   1 <1>   0.2630 
 19 C       -6.1150    -1.4940     0.7840 C.3   1 <1>  -0.1600 
 20 C       -5.2080    -1.5230    -1.6060 C.3   1 <1>   0.1200 
 21 N       -0.9990     6.1570     1.3870 N.pl3 1 <1>  -0.9000 
 22 C       -5.8650    -2.7920     1.5770 C.3   1 <1>  -0.1600 
 23 O       -6.2320    -0.7870    -2.1770 O.3   1 <1>  -0.6800 
 24 H       -2.3890    -1.4380    -1.3990 H     1 <1>   0.0800 
 25 H       -1.4800    -1.6480     0.0740 H     1 <1>   0.0800 
 26 H       -3.4070     2.0380    -0.6410 H     1 <1>   0.0800 
 27 H       -3.5410     0.7770    -1.8320 H     1 <1>   0.0800 
 28 H       -2.0960     2.3230     2.9690 H     1 <1>   0.1500 
 29 H       -3.5110    -1.4000     1.3960 H     1 <1>   0.0800 
 30 H       -4.6910     0.7760     0.9630 H     1 <1>   0.0800 
 31 H       -5.6100     0.9670    -0.4830 H     1 <1>   0.0800 
 32 H        0.0000     1.4450    -1.2340 H     1 <1>   0.0800 
 33 H        0.5150     3.0410    -1.6920 H     1 <1>   0.0800 
 34 H       -1.1010     2.5140    -2.0810 H     1 <1>   0.0800 
 35 H       -3.0920    -3.4970     1.2780 H     1 <1>   0.4500 
 36 H       -5.5710    -4.0300    -0.1310 H     1 <1>   0.0800 
 37 H       -4.9530    -4.7230     1.3440 H     1 <1>   0.0800 
 38 H       -3.6430    -3.7730    -1.6080 H     1 <1>   0.0800 
 39 H       -3.1530    -5.0690    -0.5390 H     1 <1>   0.0800 
 40 H       -2.0660    -3.7380    -0.8460 H     1 <1>   0.0800 
 41 H       -6.3250    -0.7170     1.5000 H     1 <1>   0.0800 
 42 H       -7.0130    -1.6090     0.2020 H     1 <1>   0.0800 
 43 H       -5.4890    -2.5600    -1.6620 H     1 <1>   0.0800 
 44 H       -4.3480    -1.3720    -2.2320 H     1 <1>   0.0800 
 45 H       -0.4430     6.6610     0.7020 H     1 <1>   0.4000 
 46 H       -1.0950     6.5570     2.3160 H     1 <1>   0.4000 
 47 H       -6.8120    -3.2310     1.8410 H     1 <1>   0.0800 
 48 H       -5.3540    -2.5710     2.4990 H     1 <1>   0.0800 
 49 H       -7.0880    -0.9250    -1.7250 H     1 <1>   0.4000 
@<TRIPOS>BOND
  1   1   2  2   
  2   2   3  am  
  3   2   4  1   
  4   3   5  1   
  5   3   6  1   
  6   4   7  ar  
  7   4   8  ar  
  8   5   9  1   
  9   5  24  1   
 10   5  25  1   
 11   6  10  1   
 12   6  26  1   
 13   6  27  1   
 14   7  11  ar  
 15   7  12  1   
 16   8  13  ar  
 17   8  28  1   
 18   9  14  1   
 19   9  15  1   
 20   9  29  1   
 21  10  15  1   
 22  10  30  1   
 23  10  31  1   
 24  11  16  ar  
 25  12  32  1   
 26  12  33  1   
 27  12  34  1   
 28  13  16  ar  
 29  14  17  1   
 30  14  18  1   
 31  14  35  1   
 32  15  19  1   
 33  15  20  1   
 34  16  21  1   
 35  17  22  1   
 36  17  36  1   
 37  17  37  1   
 38  18  38  1   
 39  18  39  1   
 40  18  40  1   
 41  19  22  1   
 42  19  41  1   
 43  19  42  1   
 44  20  23  1   
 45  20  43  1   
 46  20  44  1   
 47  21  45  1   
 48  21  46  1   
 49  22  47  1   
 50  22  48  1   
 51  23  49  1   
@<TRIPOS>SUBSTRUCTURE
  1 ****   3 GROUP 4 **** **** 0

# MOE 2024.06 (io_trps.svl 2023.06)
