@<TRIPOS>MOLECULE
NONAME
53 56 1 0 0 
SMALL
USER_CHARGES


@<TRIPOS>ATOM
  1 O       -0.8680     0.7300     1.7000 O.2   1 <1>  -0.5700 
  2 C       -1.8720     1.0840     1.1270 C.2   1 <1>   0.5690 
  3 N       -3.0550     0.4010     1.2580 N.am  1 <1>  -0.6600 
  4 C       -1.7970     2.3190     0.2390 C.3   1 <1>  -0.0990 
  5 C       -4.3300     0.7270     0.5590 C.3   1 <1>   0.1400 
  6 C       -3.1680    -0.7880     2.1510 C.3   1 <1>   0.1400 
  7 C       -0.4210     3.0040     0.2360 C.3   1 <1>  -0.0160 
  8 C       -4.7490    -0.4710    -0.2970 C.3   1 <1>  -0.1600 
  9 C       -3.5850    -2.0060     1.3230 C.3   1 <1>  -0.1600 
 10 C       -0.4410     4.2290    -0.6630 C.ar  1 <1>  -0.1440 
 11 C       -4.8830    -1.7540     0.5420 C.3   1 <1>   0.4240 
 12 C       -0.8020     5.4740    -0.1900 C.ar  1 <1>  -0.1500 
 13 C       -0.1010     4.1590    -1.9990 C.ar  1 <1>  -0.1500 
 14 O       -5.8680    -1.5290     1.5240 O.3   1 <1>  -0.5600 
 15 C       -5.2240    -2.9710    -0.3460 C.ar  1 <1>  -0.1430 
 16 C       -0.8090     6.5580    -1.0520 C.ar  1 <1>   0.1600 
 17 C       -0.1400     5.3060    -2.7760 C.ar  1 <1>   0.1600 
 18 C       -7.2000    -1.7240     1.1600 C.3   1 <1>   0.1200 
 19 C       -6.4240    -3.6590    -0.1960 C.ar  1 <1>  -0.1430 
 20 C       -4.3330    -3.4010    -1.3240 C.ar  1 <1>  -0.1500 
 21 N       -0.4880     6.5040    -2.3350 N.ar  1 <1>  -0.6200 
 22 C       -7.4160    -3.2030     0.8550 C.3   1 <1>  -0.0170 
 23 C       -6.7190    -4.7520    -0.9960 C.ar  1 <1>  -0.1500 
 24 C       -4.6270    -4.4890    -2.1250 C.ar  1 <1>  -0.1500 
 25 C       -5.8190    -5.1740    -1.9680 C.ar  1 <1>   0.0830 
 26 O       -6.0300    -6.2310    -2.7900 O.3   1 <1>  -0.3630 
 27 C       -7.2030    -7.0090    -2.6980 C.3   1 <1>   0.0400 
 28 H       -2.5300     3.0260     0.5790 H     1 <1>   0.0800 
 29 H       -2.0400     2.0300    -0.7660 H     1 <1>   0.0800 
 30 H       -4.2290     1.5950    -0.0650 H     1 <1>   0.0800 
 31 H       -5.0890     0.9340     1.2950 H     1 <1>   0.0800 
 32 H       -3.9040    -0.5900     2.9110 H     1 <1>   0.0800 
 33 H       -2.2310    -0.9910     2.6420 H     1 <1>   0.0800 
 34 H        0.3280     2.3120    -0.1080 H     1 <1>   0.0800 
 35 H       -0.1590     3.2940     1.2390 H     1 <1>   0.0800 
 36 H       -4.0060    -0.6150    -1.0590 H     1 <1>   0.0800 
 37 H       -5.6750    -0.2610    -0.7980 H     1 <1>   0.0800 
 38 H       -3.7210    -2.8550     1.9660 H     1 <1>   0.0800 
 39 H       -2.7820    -2.2390     0.6490 H     1 <1>   0.0800 
 40 H       -1.0780     5.6100     0.8390 H     1 <1>   0.1500 
 41 H        0.1940     3.2260    -2.4410 H     1 <1>   0.1500 
 42 H       -1.0930     7.5220    -0.6650 H     1 <1>   0.1500 
 43 H        0.1300     5.2320    -3.8150 H     1 <1>   0.1500 
 44 H       -7.4280    -1.1150     0.3040 H     1 <1>   0.0800 
 45 H       -7.8150    -1.4170     1.9870 H     1 <1>   0.0800 
 46 H       -3.3970    -2.8920    -1.4740 H     1 <1>   0.1500 
 47 H       -8.4220    -3.3490     0.5070 H     1 <1>   0.0800 
 48 H       -7.2810    -3.7770     1.7540 H     1 <1>   0.0800 
 49 H       -7.6510    -5.2640    -0.8520 H     1 <1>   0.1500 
 50 H       -3.9330    -4.8160    -2.8770 H     1 <1>   0.1500 
 51 H       -7.1450    -7.7880    -3.4370 H     1 <1>   0.0800 
 52 H       -8.0540    -6.3820    -2.8940 H     1 <1>   0.0800 
 53 H       -7.2580    -7.4410    -1.7150 H     1 <1>   0.0800 
@<TRIPOS>BOND
  1   1   2  2   
  2   2   3  am  
  3   2   4  1   
  4   3   5  1   
  5   3   6  1   
  6   4   7  1   
  7   4  28  1   
  8   4  29  1   
  9   5   8  1   
 10   5  30  1   
 11   5  31  1   
 12   6   9  1   
 13   6  32  1   
 14   6  33  1   
 15   7  10  1   
 16   7  34  1   
 17   7  35  1   
 18   8  11  1   
 19   8  36  1   
 20   8  37  1   
 21   9  11  1   
 22   9  38  1   
 23   9  39  1   
 24  10  12  ar  
 25  10  13  ar  
 26  11  14  1   
 27  11  15  1   
 28  12  16  ar  
 29  12  40  1   
 30  13  17  ar  
 31  13  41  1   
 32  14  18  1   
 33  15  19  ar  
 34  15  20  ar  
 35  16  21  ar  
 36  16  42  1   
 37  17  21  ar  
 38  17  43  1   
 39  18  22  1   
 40  18  44  1   
 41  18  45  1   
 42  19  22  1   
 43  19  23  ar  
 44  20  24  ar  
 45  20  46  1   
 46  22  47  1   
 47  22  48  1   
 48  23  25  ar  
 49  23  49  1   
 50  24  25  ar  
 51  24  50  1   
 52  25  26  1   
 53  26  27  1   
 54  27  51  1   
 55  27  52  1   
 56  27  53  1   
@<TRIPOS>SUBSTRUCTURE
  1 ****   8 GROUP 4 **** **** 0

# MOE 2024.06 (io_trps.svl 2023.06)
