@<TRIPOS>MOLECULE
NONAME
49 52 1 0 0 
SMALL
USER_CHARGES


@<TRIPOS>ATOM
  1 CL       0.5360     0.8720     0.1800 Cl    1 <1>  -0.1770 
  2 C        2.1850     1.3490     0.4820 C.ar  1 <1>   0.1770 
  3 C        3.1120     1.2740    -0.5260 C.ar  1 <1>  -0.1500 
  4 C        2.5280     1.8000     1.7510 C.ar  1 <1>  -0.1500 
  5 C        4.4460     1.6560    -0.2990 C.ar  1 <1>   0.0000 
  6 C        3.8270     2.1790     1.9990 C.ar  1 <1>  -0.1500 
  7 C        4.7950     2.1150     0.9870 C.ar  1 <1>   0.3610 
  8 C        5.4730     1.6110    -1.2910 C.ar  1 <1>  -0.1440 
  9 N        6.1050     2.4930     1.2300 N.ar  1 <1>  -0.1790 
 10 C        6.7370     2.0040    -0.9720 C.ar  1 <1>  -0.1500 
 11 C        5.1490     1.1290    -2.7010 C.3   1 <1>  -0.0970 
 12 C        7.0910     2.4590     0.3260 C.ar  1 <1>   0.4610 
 13 N        8.3480     2.8360     0.6700 N.pl3 1 <1>  -0.8380 
 14 C        8.6960     3.7510     1.8470 C.3   1 <1>   0.2090 
 15 C        9.5760     2.2030     0.0290 C.3   1 <1>   0.2090 
 16 C        9.5250     5.0010     1.4310 C.3   1 <1>   0.4230 
 17 C       10.7090     3.1430    -0.4690 C.3   1 <1>  -0.0800 
 18 N        9.3160     5.2190    -0.0560 N.4   1 <1>  -0.9590 
 19 C       10.9950     4.8710     1.9120 C.3   1 <1>   0.1200 
 20 C       11.8920     3.2040     0.5110 C.3   1 <1>   0.1200 
 21 C       10.3350     4.5640    -0.9200 C.3   1 <1>   0.3430 
 22 C        9.2740     6.7130    -0.3700 C.3   1 <1>   0.2370 
 23 O       11.4620     3.5570     1.7800 O.3   1 <1>  -0.5600 
 24 C       10.4660     7.4890     0.1860 C.2   1 <1>   0.9060 
 25 O       10.3800     7.8810     1.3520 O.co2 1 <1>  -0.9000 
 26 O       11.5120     7.4760    -0.4650 O.co2 1 <1>  -0.9000 
 27 H        2.7940     0.9170    -1.4890 H     1 <1>   0.1500 
 28 H        1.7670     1.8420     2.5130 H     1 <1>   0.1500 
 29 H        4.0880     2.5260     2.9840 H     1 <1>   0.1500 
 30 H        6.3530     2.7320     2.1840 H     1 <1>   0.4570 
 31 H        7.4980     1.9890    -1.7290 H     1 <1>   0.1500 
 32 H        6.0190     1.1530    -3.3340 H     1 <1>   0.0800 
 33 H        4.3960     1.7540    -3.1480 H     1 <1>   0.0800 
 34 H        4.7880     0.1160    -2.6750 H     1 <1>   0.0800 
 35 H        7.8000     4.1240     2.3070 H     1 <1>   0.0800 
 36 H        9.2180     3.1900     2.6050 H     1 <1>   0.0800 
 37 H       10.0050     1.5240     0.7490 H     1 <1>   0.0800 
 38 H        9.2840     1.5810    -0.7970 H     1 <1>   0.0800 
 39 H        9.1230     5.8560     1.9510 H     1 <1>   0.0800 
 40 H       11.1260     2.6730    -1.3420 H     1 <1>   0.0800 
 41 H        8.4230     4.7700    -0.2760 H     1 <1>   0.4500 
 42 H       11.0320     5.1030     2.9620 H     1 <1>   0.0800 
 43 H       11.6620     5.5520     1.4130 H     1 <1>   0.0800 
 44 H       12.6460     3.9060     0.1910 H     1 <1>   0.0800 
 45 H       12.3530     2.2350     0.5960 H     1 <1>   0.0800 
 46 H        9.9590     4.5260    -1.9280 H     1 <1>   0.0800 
 47 H       11.2300     5.1690    -0.9370 H     1 <1>   0.0800 
 48 H        9.2520     6.8710    -1.4330 H     1 <1>   0.0800 
 49 H        8.3930     7.1540     0.0580 H     1 <1>   0.0800 
@<TRIPOS>BOND
  1   1   2  1   
  2   2   3  ar  
  3   2   4  ar  
  4   3   5  ar  
  5   3  27  1   
  6   4   6  ar  
  7   4  28  1   
  8   5   7  ar  
  9   5   8  ar  
 10   6   7  ar  
 11   6  29  1   
 12   7   9  ar  
 13   8  10  ar  
 14   8  11  1   
 15   9  12  ar  
 16   9  30  1   
 17  10  12  ar  
 18  10  31  1   
 19  11  32  1   
 20  11  33  1   
 21  11  34  1   
 22  12  13  1   
 23  13  14  1   
 24  13  15  1   
 25  14  16  1   
 26  14  35  1   
 27  14  36  1   
 28  15  17  1   
 29  15  37  1   
 30  15  38  1   
 31  16  18  1   
 32  16  19  1   
 33  16  39  1   
 34  17  20  1   
 35  17  21  1   
 36  17  40  1   
 37  18  21  1   
 38  18  22  1   
 39  18  41  1   
 40  19  23  1   
 41  19  42  1   
 42  19  43  1   
 43  20  23  1   
 44  20  44  1   
 45  20  45  1   
 46  21  46  1   
 47  21  47  1   
 48  22  24  1   
 49  22  48  1   
 50  22  49  1   
 51  24  25  ar  
 52  24  26  ar  
@<TRIPOS>SUBSTRUCTURE
  1 ****  12 GROUP 4 **** **** 0

# MOE 2024.06 (io_trps.svl 2023.06)
