@<TRIPOS>MOLECULE
NONAME
48 50 1 0 0 
SMALL
USER_CHARGES


@<TRIPOS>ATOM
  1 O       -2.2690     0.7020    -2.0700 O.2   1 <1>  -0.5700 
  2 C       -2.0790     0.9970    -0.9070 C.2   1 <1>   0.5440 
  3 N       -2.1260     0.0000     0.0250 N.am  1 <1>  -0.7300 
  4 C       -1.8250     2.3590    -0.5120 C.ar  1 <1>   0.0860 
  5 C       -2.3700    -1.4310    -0.2740 C.3   1 <1>   0.2200 
  6 C       -0.9230     3.2080    -1.1410 C.ar  1 <1>   0.1660 
  7 C       -2.4960     2.9130     0.5620 C.ar  1 <1>   0.1600 
  8 C       -3.8010    -1.7810     0.0950 C.3   1 <1>  -0.0800 
  9 C       -1.5790    -2.2990     0.6980 C.3   1 <1>   0.1200 
 10 N       -0.7200     4.4380    -0.7390 N.ar  1 <1>  -0.6200 
 11 C       -0.1030     2.7630    -2.3410 C.3   1 <1>  -0.0960 
 12 N       -2.3080     4.1360     0.9870 N.ar  1 <1>  -0.6200 
 13 C       -3.6890    -2.0690     1.5970 C.3   1 <1>   0.1200 
 14 C       -4.3060    -3.0010    -0.6990 C.3   1 <1>  -0.0170 
 15 O       -2.3480    -2.3700     1.8610 O.3   1 <1>  -0.5600 
 16 C       -1.4190     4.8650     0.3130 C.ar  1 <1>   0.7200 
 17 C       -5.7520    -3.3260    -0.3570 C.ar  1 <1>  -0.1440 
 18 N       -1.2040     6.1560     0.7370 N.pl3 1 <1>  -0.8380 
 19 C       -6.0950    -4.3920     0.4500 C.ar  1 <1>  -0.1500 
 20 C       -6.7990    -2.5680    -0.8420 C.ar  1 <1>  -0.1500 
 21 C       -2.0940     6.8350     1.7200 C.3   1 <1>   0.1290 
 22 C       -0.0820     6.9860     0.2180 C.3   1 <1>   0.1290 
 23 C       -7.4290    -4.6370     0.7310 C.ar  1 <1>   0.1600 
 24 C       -8.1000    -2.8990    -0.5010 C.ar  1 <1>   0.1600 
 25 N       -8.4400    -3.9140     0.2770 N.ar  1 <1>  -0.6200 
 26 H       -1.9270     0.1890     1.0120 H     1 <1>   0.3700 
 27 H       -2.1280    -1.6490    -1.3010 H     1 <1>   0.0800 
 28 H       -3.2200     2.3150     1.0870 H     1 <1>   0.1500 
 29 H       -4.4620    -0.9530    -0.0910 H     1 <1>   0.0800 
 30 H       -0.6100    -1.8930     0.9270 H     1 <1>   0.0800 
 31 H       -1.4730    -3.2990     0.3160 H     1 <1>   0.0800 
 32 H        0.2800     1.7700    -2.1930 H     1 <1>   0.0800 
 33 H        0.7280     3.4280    -2.4960 H     1 <1>   0.0800 
 34 H       -0.7200     2.7730    -3.2210 H     1 <1>   0.0800 
 35 H       -4.3010    -2.8940     1.9170 H     1 <1>   0.0800 
 36 H       -3.9430    -1.1950     2.1710 H     1 <1>   0.0800 
 37 H       -3.6870    -3.8590    -0.5020 H     1 <1>   0.0800 
 38 H       -4.2430    -2.7910    -1.7530 H     1 <1>   0.0800 
 39 H       -5.3400    -5.0360     0.8650 H     1 <1>   0.1500 
 40 H       -6.6160    -1.7250    -1.4820 H     1 <1>   0.1500 
 41 H       -2.1780     7.8810     1.4820 H     1 <1>   0.0800 
 42 H       -1.6860     6.7260     2.7100 H     1 <1>   0.0800 
 43 H       -3.0820     6.4070     1.7010 H     1 <1>   0.0800 
 44 H        0.2560     7.6700     0.9770 H     1 <1>   0.0800 
 45 H       -0.4140     7.5430    -0.6410 H     1 <1>   0.0800 
 46 H        0.7490     6.3650    -0.0690 H     1 <1>   0.0800 
 47 H       -7.6780    -5.4720     1.3640 H     1 <1>   0.1500 
 48 H       -8.9030    -2.2970    -0.8890 H     1 <1>   0.1500 
@<TRIPOS>BOND
  1   1   2  2   
  2   2   3  am  
  3   2   4  1   
  4   3   5  1   
  5   3  26  1   
  6   4   6  ar  
  7   4   7  ar  
  8   5   8  1   
  9   5   9  1   
 10   5  27  1   
 11   6  10  ar  
 12   6  11  1   
 13   7  12  ar  
 14   7  28  1   
 15   8  13  1   
 16   8  14  1   
 17   8  29  1   
 18   9  15  1   
 19   9  30  1   
 20   9  31  1   
 21  10  16  ar  
 22  11  32  1   
 23  11  33  1   
 24  11  34  1   
 25  12  16  ar  
 26  13  15  1   
 27  13  35  1   
 28  13  36  1   
 29  14  17  1   
 30  14  37  1   
 31  14  38  1   
 32  16  18  1   
 33  17  19  ar  
 34  17  20  ar  
 35  18  21  1   
 36  18  22  1   
 37  19  23  ar  
 38  19  39  1   
 39  20  24  ar  
 40  20  40  1   
 41  21  41  1   
 42  21  42  1   
 43  21  43  1   
 44  22  44  1   
 45  22  45  1   
 46  22  46  1   
 47  23  25  ar  
 48  23  47  1   
 49  24  25  ar  
 50  24  48  1   
@<TRIPOS>SUBSTRUCTURE
  1 ****   3 GROUP 4 **** **** 0

# MOE 2024.06 (io_trps.svl 2023.06)
