@<TRIPOS>MOLECULE
NONAME
50 52 1 0 0 
SMALL
USER_CHARGES


@<TRIPOS>ATOM
  1 O       -0.5610     1.4010    -2.0640 O.2   1 <1>  -0.5700 
  2 C       -0.4010     2.3930    -1.3980 C.2   1 <1>   0.5690 
  3 N       -1.3350     2.7830    -0.5040 N.am  1 <1>  -0.7300 
  4 C        0.8560     3.2460    -1.5860 C.3   1 <1>   0.1810 
  5 C       -1.1930     3.9790     0.3630 C.3   1 <1>   0.3640 
  6 O        1.1030     4.1160    -0.5030 O.3   1 <1>  -0.5600 
  7 C       -2.5080     4.7550     0.3380 C.ar  1 <1>  -0.1440 
  8 C       -0.0170     4.8860    -0.0890 C.3   1 <1>   0.2610 
  9 C       -3.1650     5.0220    -0.8550 C.ar  1 <1>  -0.1500 
 10 C       -3.0620     5.2200     1.5190 C.ar  1 <1>  -0.1500 
 11 C        0.3900     5.8910     1.0060 C.2   1 <1>   0.5690 
 12 C       -4.3500     5.7380    -0.8860 C.ar  1 <1>   0.0830 
 13 C       -4.2410     5.9440     1.5090 C.ar  1 <1>  -0.1500 
 14 O        0.0280     5.6840     2.1450 O.2   1 <1>  -0.5700 
 15 N        1.1490     7.0030     0.7030 N.am  1 <1>  -0.6600 
 16 O       -4.8770     5.9120    -2.1310 O.3   1 <1>  -0.3620 
 17 C       -4.8980     6.2230     0.3130 C.ar  1 <1>   0.0830 
 18 C        1.5410     7.9820     1.7580 C.3   1 <1>   0.1400 
 19 C        1.7900     7.2610    -0.6180 C.3   1 <1>   0.1400 
 20 C       -6.2720     5.9750    -2.3300 C.3   1 <1>   0.0400 
 21 O       -6.0420     6.9690     0.2900 O.3   1 <1>  -0.3630 
 22 C        3.0580     7.9330     1.9530 C.3   1 <1>  -0.1600 
 23 C        3.3100     7.1940    -0.4580 C.3   1 <1>  -0.1600 
 24 C       -6.5010     7.6700     1.4250 C.3   1 <1>   0.0400 
 25 C        3.7770     8.1680     0.6250 C.3   1 <1>   0.2000 
 26 O        5.1270     7.9840     0.8200 O.3   1 <1>  -0.6800 
 27 H       -2.1830     2.2250    -0.3960 H     1 <1>   0.3700 
 28 H        0.7560     3.8350    -2.4790 H     1 <1>   0.0800 
 29 H        1.7090     2.6010    -1.6890 H     1 <1>   0.0800 
 30 H       -1.0050     3.6300     1.3640 H     1 <1>   0.0800 
 31 H       -0.3490     5.4520    -0.9390 H     1 <1>   0.0800 
 32 H       -2.7650     4.6700    -1.7900 H     1 <1>   0.1500 
 33 H       -2.5700     5.0300     2.4600 H     1 <1>   0.1500 
 34 H       -4.6260     6.2830     2.4510 H     1 <1>   0.1500 
 35 H        1.2390     8.9690     1.4510 H     1 <1>   0.0800 
 36 H        1.0490     7.7620     2.6900 H     1 <1>   0.0800 
 37 H        1.4820     6.5450    -1.3570 H     1 <1>   0.0800 
 38 H        1.5000     8.2390    -0.9630 H     1 <1>   0.0800 
 39 H       -6.4740     5.7450    -3.3600 H     1 <1>   0.0800 
 40 H       -6.6090     6.9710    -2.1070 H     1 <1>   0.0800 
 41 H       -6.7520     5.2570    -1.6890 H     1 <1>   0.0800 
 42 H        3.3160     6.9700     2.3560 H     1 <1>   0.0800 
 43 H        3.3470     8.6910     2.6590 H     1 <1>   0.0800 
 44 H        3.7760     7.4470    -1.3940 H     1 <1>   0.0800 
 45 H        3.5810     6.1860    -0.1990 H     1 <1>   0.0800 
 46 H       -7.3530     8.2560     1.1330 H     1 <1>   0.0800 
 47 H       -5.7160     8.3160     1.7780 H     1 <1>   0.0800 
 48 H       -6.7890     6.9610     2.1810 H     1 <1>   0.0800 
 49 H        3.6300     9.1840     0.2980 H     1 <1>   0.0800 
 50 H        5.2930     7.0770     1.1410 H     1 <1>   0.4000 
@<TRIPOS>BOND
  1   1   2  2   
  2   2   3  am  
  3   2   4  1   
  4   3   5  1   
  5   3  27  1   
  6   4   6  1   
  7   4  28  1   
  8   4  29  1   
  9   5   7  1   
 10   5   8  1   
 11   5  30  1   
 12   6   8  1   
 13   7   9  ar  
 14   7  10  ar  
 15   8  11  1   
 16   8  31  1   
 17   9  12  ar  
 18   9  32  1   
 19  10  13  ar  
 20  10  33  1   
 21  11  14  2   
 22  11  15  am  
 23  12  16  1   
 24  12  17  ar  
 25  13  17  ar  
 26  13  34  1   
 27  15  18  1   
 28  15  19  1   
 29  16  20  1   
 30  17  21  1   
 31  18  22  1   
 32  18  35  1   
 33  18  36  1   
 34  19  23  1   
 35  19  37  1   
 36  19  38  1   
 37  20  39  1   
 38  20  40  1   
 39  20  41  1   
 40  21  24  1   
 41  22  25  1   
 42  22  42  1   
 43  22  43  1   
 44  23  25  1   
 45  23  44  1   
 46  23  45  1   
 47  24  46  1   
 48  24  47  1   
 49  24  48  1   
 50  25  26  1   
 51  25  49  1   
 52  26  50  1   
@<TRIPOS>SUBSTRUCTURE
  1 ****   8 GROUP 4 **** **** 0

# MOE 2024.06 (io_trps.svl 2023.06)
