@<TRIPOS>MOLECULE
NONAME
52 54 1 0 0 
SMALL
USER_CHARGES


@<TRIPOS>ATOM
  1 O       -1.8390     0.3700     2.3700 O.2   1 <1>  -0.5700 
  2 C       -1.9630     0.8420     1.2650 C.2   1 <1>   0.5690 
  3 N       -2.2410     0.0600     0.1720 N.am  1 <1>  -0.6600 
  4 C       -1.8130     2.3500     1.1530 C.3   1 <1>   0.1570 
  5 C       -2.3040    -1.4370     0.3170 C.3   1 <1>   0.3640 
  6 C       -2.4730     0.5960    -1.2110 C.3   1 <1>   0.1400 
  7 N       -0.6810     2.7160     0.2760 N.pl3 1 <1>   0.0480 
  8 C       -0.9550    -2.1010    -0.0080 C.ar  1 <1>  -0.1440 
  9 C       -3.4560    -2.0660    -0.5320 C.3   1 <1>   0.2000 
 10 C       -2.8810    -0.4980    -2.2080 C.3   1 <1>   0.1200 
 11 C       -0.6570     3.5990    -0.7550 C.2   1 <1>   0.0060 
 12 C        0.5540     2.1800     0.2930 C.2   1 <1>  -0.3020 
 13 C       -0.7900    -3.4340     0.3510 C.ar  1 <1>  -0.1500 
 14 C        0.1090    -1.4500    -0.6270 C.ar  1 <1>  -0.1500 
 15 O       -3.8720    -1.2890    -1.6330 O.3   1 <1>  -0.5600 
 16 C       -4.7060    -2.3180     0.3190 C.3   1 <1>   0.1200 
 17 N        0.4750     3.6390    -1.3760 N.2   1 <1>  -0.5650 
 18 C       -1.8330     4.4660    -1.1580 C.3   1 <1>  -0.0600 
 19 C        1.2410     2.7520    -0.7170 C.2   1 <1>   0.0770 
 20 C        0.3850    -4.1140     0.0830 C.ar  1 <1>   0.0830 
 21 C        1.2970    -2.1140    -0.8830 C.ar  1 <1>  -0.1500 
 22 O       -4.4710    -3.3440     1.2310 O.3   1 <1>  -0.6800 
 23 O        0.4360    -5.4260     0.4250 O.3   1 <1>  -0.3630 
 24 C        1.4510    -3.4390    -0.5200 C.ar  1 <1>   0.0830 
 25 C        0.6070    -6.3490    -0.6280 C.3   1 <1>   0.0400 
 26 O        2.6520    -4.0190    -0.7600 O.3   1 <1>  -0.3630 
 27 C        3.4130    -4.3580     0.3780 C.3   1 <1>   0.0400 
 28 H       -1.6300     2.7590     2.1290 H     1 <1>   0.0800 
 29 H       -2.7230     2.7670     0.7720 H     1 <1>   0.0800 
 30 H       -2.5020    -1.6750     1.3490 H     1 <1>   0.0800 
 31 H       -3.2560     1.3320    -1.1780 H     1 <1>   0.0800 
 32 H       -1.5800     1.0710    -1.5770 H     1 <1>   0.0800 
 33 H       -3.1310    -3.0080    -0.9340 H     1 <1>   0.0800 
 34 H       -2.0450    -1.1210    -2.4760 H     1 <1>   0.0800 
 35 H       -3.2830    -0.0580    -3.1030 H     1 <1>   0.0800 
 36 H        0.8700     1.4360     1.0040 H     1 <1>   0.1500 
 37 H       -1.5820    -3.9670     0.8470 H     1 <1>   0.1500 
 38 H        0.0410    -0.4170    -0.9120 H     1 <1>   0.1500 
 39 H       -5.5370    -2.6060    -0.3010 H     1 <1>   0.0800 
 40 H       -4.9600    -1.4320     0.8750 H     1 <1>   0.0800 
 41 H       -1.5410     5.1190    -1.9620 H     1 <1>   0.0800 
 42 H       -2.1490     5.0710    -0.3280 H     1 <1>   0.0800 
 43 H       -2.6510     3.8580    -1.4930 H     1 <1>   0.0800 
 44 H        2.2630     2.5710    -1.0090 H     1 <1>   0.1500 
 45 H        2.1140    -1.6010    -1.3570 H     1 <1>   0.1500 
 46 H       -4.5480    -4.2180     0.8000 H     1 <1>   0.4000 
 47 H        0.4690    -7.3390    -0.2320 H     1 <1>   0.0800 
 48 H        1.5980    -6.2530    -1.0320 H     1 <1>   0.0800 
 49 H       -0.1270    -6.1500    -1.3890 H     1 <1>   0.0800 
 50 H        4.3650    -4.7320     0.0480 H     1 <1>   0.0800 
 51 H        2.8970    -5.1160     0.9400 H     1 <1>   0.0800 
 52 H        3.5490    -3.4770     0.9790 H     1 <1>   0.0800 
@<TRIPOS>BOND
  1   1   2  2   
  2   2   3  am  
  3   2   4  1   
  4   3   5  1   
  5   3   6  1   
  6   4   7  1   
  7   4  28  1   
  8   4  29  1   
  9   5   8  1   
 10   5   9  1   
 11   5  30  1   
 12   6  10  1   
 13   6  31  1   
 14   6  32  1   
 15   7  11  1   
 16   7  12  1   
 17   8  13  ar  
 18   8  14  ar  
 19   9  15  1   
 20   9  16  1   
 21   9  33  1   
 22  10  15  1   
 23  10  34  1   
 24  10  35  1   
 25  11  17  2   
 26  11  18  1   
 27  12  19  2   
 28  12  36  1   
 29  13  20  ar  
 30  13  37  1   
 31  14  21  ar  
 32  14  38  1   
 33  16  22  1   
 34  16  39  1   
 35  16  40  1   
 36  17  19  1   
 37  18  41  1   
 38  18  42  1   
 39  18  43  1   
 40  19  44  1   
 41  20  23  1   
 42  20  24  ar  
 43  21  24  ar  
 44  21  45  1   
 45  22  46  1   
 46  23  25  1   
 47  24  26  1   
 48  25  47  1   
 49  25  48  1   
 50  25  49  1   
 51  26  27  1   
 52  27  50  1   
 53  27  51  1   
 54  27  52  1   
@<TRIPOS>SUBSTRUCTURE
  1 ****   8 GROUP 4 **** **** 0

# MOE 2024.06 (io_trps.svl 2023.06)
