@<TRIPOS>MOLECULE
NONAME
50 53 1 0 0 
SMALL
USER_CHARGES


@<TRIPOS>ATOM
  1 S        1.1640     0.0260     2.8410 S.3   1 <1>  -0.0800 
  2 C        0.9470    -0.5480     1.1940 C.2   1 <1>   0.3250 
  3 C        0.2070    -1.2870     3.4300 C.2   1 <1>  -0.1100 
  4 N        0.2260    -1.6120     1.1440 N.2   1 <1>  -0.5650 
  5 C        1.5450     0.1820     0.0950 C.ar  1 <1>   0.0530 
  6 C       -0.2160    -2.0500     2.4000 C.2   1 <1>   0.1410 
  7 C        1.1570    -0.0960    -1.2180 C.ar  1 <1>  -0.1500 
  8 C        2.5150     1.1730     0.2720 C.ar  1 <1>  -0.1500 
  9 C       -1.0310    -3.2540     2.5560 C.2   1 <1>   0.7160 
 10 C        1.6990     0.5780    -2.2960 C.ar  1 <1>  -0.1500 
 11 C        3.0620     1.8520    -0.8030 C.ar  1 <1>  -0.1500 
 12 O       -0.8090    -3.9860     3.5060 O.2   1 <1>  -0.5700 
 13 N       -2.0340    -3.6280     1.6790 N.am  1 <1>  -0.6600 
 14 C        2.6540     1.5560    -2.0910 C.ar  1 <1>  -0.1500 
 15 C       -2.5630    -5.0240     1.6340 C.3   1 <1>   0.1400 
 16 C       -2.5730    -2.7740     0.5810 C.3   1 <1>   0.1400 
 17 C       -2.1250    -5.6760     0.3000 C.3   1 <1>   0.4230 
 18 C       -2.1680    -3.3960    -0.7630 C.3   1 <1>  -0.1600 
 19 N       -2.5020    -7.1250     0.1620 N.4   1 <1>  -0.9590 
 20 C       -2.6700    -4.8630    -0.8960 C.3   1 <1>  -0.1060 
 21 C       -1.9410    -7.7320    -1.0710 C.3   1 <1>   0.3430 
 22 C       -2.2750    -7.9670     1.3680 C.3   1 <1>   0.2630 
 23 C       -4.2110    -4.9150    -0.8710 C.2   1 <1>   0.9060 
 24 C       -2.1250    -5.4600    -2.2150 C.3   1 <1>  -0.1600 
 25 C       -2.4140    -6.9670    -2.3100 C.3   1 <1>  -0.1600 
 26 O       -4.7710    -5.9180    -0.4000 O.co2 1 <1>  -0.9000 
 27 O       -4.8560    -3.9650    -1.3090 O.co2 1 <1>  -0.9000 
 28 H        0.0500    -1.3760     4.4890 H     1 <1>   0.1500 
 29 H        0.4140    -0.8540    -1.3930 H     1 <1>   0.1500 
 30 H        2.8590     1.4250     1.2580 H     1 <1>   0.1500 
 31 H        1.3780     0.3430    -3.2960 H     1 <1>   0.1500 
 32 H        3.8070     2.6110    -0.6390 H     1 <1>   0.1500 
 33 H        3.0790     2.0840    -2.9280 H     1 <1>   0.1500 
 34 H       -2.1780    -5.5860     2.4640 H     1 <1>   0.0800 
 35 H       -3.6370    -4.9980     1.7140 H     1 <1>   0.0800 
 36 H       -3.6480    -2.7320     0.6580 H     1 <1>   0.0800 
 37 H       -2.2120    -1.7640     0.6530 H     1 <1>   0.0800 
 38 H       -1.0510    -5.6150     0.2730 H     1 <1>   0.0800 
 39 H       -2.5860    -2.7980    -1.5550 H     1 <1>   0.0800 
 40 H       -1.0980    -3.3480    -0.8540 H     1 <1>   0.0800 
 41 H       -3.5420    -7.0370    -0.0020 H     1 <1>   0.4500 
 42 H       -0.8650    -7.7110    -1.0250 H     1 <1>   0.0800 
 43 H       -2.2610    -8.7580    -1.1500 H     1 <1>   0.0800 
 44 H       -1.2280    -7.9790     1.6240 H     1 <1>   0.0800 
 45 H       -2.6030    -8.9750     1.1800 H     1 <1>   0.0800 
 46 H       -2.8360    -7.5790     2.2020 H     1 <1>   0.0800 
 47 H       -2.5830    -4.9550    -3.0500 H     1 <1>   0.0800 
 48 H       -1.0620    -5.3010    -2.2760 H     1 <1>   0.0800 
 49 H       -1.9280    -7.3690    -3.1810 H     1 <1>   0.0800 
 50 H       -3.4720    -7.1270    -2.4360 H     1 <1>   0.0800 
@<TRIPOS>BOND
  1   1   2  1   
  2   1   3  1   
  3   2   4  2   
  4   2   5  1   
  5   3   6  2   
  6   3  28  1   
  7   4   6  1   
  8   5   7  ar  
  9   5   8  ar  
 10   6   9  1   
 11   7  10  ar  
 12   7  29  1   
 13   8  11  ar  
 14   8  30  1   
 15   9  12  2   
 16   9  13  am  
 17  10  14  ar  
 18  10  31  1   
 19  11  14  ar  
 20  11  32  1   
 21  13  15  1   
 22  13  16  1   
 23  14  33  1   
 24  15  17  1   
 25  15  34  1   
 26  15  35  1   
 27  16  18  1   
 28  16  36  1   
 29  16  37  1   
 30  17  19  1   
 31  17  20  1   
 32  17  38  1   
 33  18  20  1   
 34  18  39  1   
 35  18  40  1   
 36  19  21  1   
 37  19  22  1   
 38  19  41  1   
 39  20  23  1   
 40  20  24  1   
 41  21  25  1   
 42  21  42  1   
 43  21  43  1   
 44  22  44  1   
 45  22  45  1   
 46  22  46  1   
 47  23  26  ar  
 48  23  27  ar  
 49  24  25  1   
 50  24  47  1   
 51  24  48  1   
 52  25  49  1   
 53  25  50  1   
@<TRIPOS>SUBSTRUCTURE
  1 ****  18 GROUP 4 **** **** 0

# MOE 2024.06 (io_trps.svl 2023.06)
