@<TRIPOS>MOLECULE
NONAME
41 41 1 0 0 
SMALL
USER_CHARGES


@<TRIPOS>ATOM
  1 S       -0.1020     0.4010     1.1550 S.o2  1 <1>   1.4240 
  2 O       -1.2840     0.7000     1.9390 O.2   1 <1>  -0.6500 
  3 O        1.1450     1.0160     1.5520 O.2   1 <1>  -0.6500 
  4 N        0.0880    -1.3660     1.0270 N.pl3 1 <1>   0.3170 
  5 N       -0.4570     0.9310    -0.4260 N.am  1 <1>  -0.8490 
  6 C        1.0350    -2.1420     0.3960 C.2   1 <1>  -0.0880 
  7 C       -0.8290    -2.2480     1.4970 C.2   1 <1>  -0.3020 
  8 C       -1.7720     0.4860    -0.9020 C.3   1 <1>   0.1160 
  9 C       -0.3550     2.3890    -0.5400 C.3   1 <1>   0.1160 
 10 SI       2.5870    -1.5980    -0.4130 Si    1 <1>   0.5160 
 11 N        0.7240    -3.4070     0.4730 N.2   1 <1>  -0.5650 
 12 C       -0.4250    -3.4770     1.1510 C.2   1 <1>   0.0770 
 13 C        3.9870    -1.6460     0.7860 C.3   1 <1>  -0.0810 
 14 C        2.9200    -2.7820    -1.7410 C.3   1 <1>  -0.3200 
 15 C        2.5100     0.0070    -1.2400 C.3   1 <1>  -0.3210 
 16 C        5.3350    -1.2770     0.1350 C.3   1 <1>  -0.2400 
 17 C        4.1680    -3.0440     1.4090 C.3   1 <1>  -0.2400 
 18 C        3.7930    -0.6720     1.9620 C.3   1 <1>  -0.2400 
 19 H       -1.7030    -1.9400     2.0430 H     1 <1>   0.1500 
 20 H       -1.8360    -0.5890    -0.8690 H     1 <1>   0.0800 
 21 H       -1.9200     0.7990    -1.9210 H     1 <1>   0.0800 
 22 H       -2.5580     0.9010    -0.2920 H     1 <1>   0.0800 
 23 H        0.6400     2.7110    -0.2780 H     1 <1>   0.0800 
 24 H       -1.0580     2.8680     0.1200 H     1 <1>   0.0800 
 25 H       -0.5510     2.6980    -1.5530 H     1 <1>   0.0800 
 26 H       -0.9010    -4.4230     1.3540 H     1 <1>   0.1500 
 27 H        3.0050    -3.7860    -1.3700 H     1 <1>   0.0800 
 28 H        3.8260    -2.5660    -2.2730 H     1 <1>   0.0800 
 29 H        2.1280    -2.7960    -2.4670 H     1 <1>   0.0800 
 30 H        2.4650     0.8350    -0.5610 H     1 <1>   0.0800 
 31 H        1.6640     0.0860    -1.8960 H     1 <1>   0.0800 
 32 H        3.3770     0.1760    -1.8500 H     1 <1>   0.0800 
 33 H        5.5730    -1.9600    -0.6610 H     1 <1>   0.0800 
 34 H        6.1330    -1.3160     0.8550 H     1 <1>   0.0800 
 35 H        5.3010    -0.2820    -0.2700 H     1 <1>   0.0800 
 36 H        4.3820    -3.7750     0.6500 H     1 <1>   0.0800 
 37 H        3.2710    -3.3490     1.9200 H     1 <1>   0.0800 
 38 H        4.9770    -3.0530     2.1180 H     1 <1>   0.0800 
 39 H        3.7200     0.3420     1.6100 H     1 <1>   0.0800 
 40 H        4.6180    -0.7240     2.6510 H     1 <1>   0.0800 
 41 H        2.8940    -0.9060     2.5050 H     1 <1>   0.0800 
@<TRIPOS>BOND
  1   1   2  2   
  2   1   3  2   
  3   1   4  1   
  4   1   5  am  
  5   4   6  1   
  6   4   7  1   
  7   5   8  1   
  8   5   9  1   
  9   6  10  1   
 10   6  11  2   
 11   7  12  2   
 12   7  19  1   
 13   8  20  1   
 14   8  21  1   
 15   8  22  1   
 16   9  23  1   
 17   9  24  1   
 18   9  25  1   
 19  10  13  1   
 20  10  14  1   
 21  10  15  1   
 22  11  12  1   
 23  12  26  1   
 24  13  16  1   
 25  13  17  1   
 26  13  18  1   
 27  14  27  1   
 28  14  28  1   
 29  14  29  1   
 30  15  30  1   
 31  15  31  1   
 32  15  32  1   
 33  16  33  1   
 34  16  34  1   
 35  16  35  1   
 36  17  36  1   
 37  17  37  1   
 38  17  38  1   
 39  18  39  1   
 40  18  40  1   
 41  18  41  1   
@<TRIPOS>SUBSTRUCTURE
  1 ****   6 GROUP 4 **** **** 0

# MOE 2024.06 (io_trps.svl 2023.06)
