@<TRIPOS>MOLECULE
NONAME
31 32 1 0 0 
SMALL
USER_CHARGES


@<TRIPOS>ATOM
  1 F        0.2920     0.4020    -0.2030 F     1 <1>  -0.1900 
  2 C        1.4680     0.9940    -0.1410 C.ar  1 <1>   0.1900 
  3 C        2.6580     0.2710    -0.1540 C.ar  1 <1>   0.4100 
  4 C        1.5170     2.3570    -0.0740 C.ar  1 <1>   0.1600 
  5 N        3.8080     0.9170    -0.1090 N.ar  1 <1>  -0.6200 
  6 N        2.7240    -1.1210    -0.2130 N.pl3 1 <1>  -0.8380 
  7 N        2.6640     3.0040    -0.0220 N.ar  1 <1>  -0.6200 
  8 C        3.7600     2.2450    -0.0390 C.ar  1 <1>   0.7200 
  9 C        1.8600    -1.9670     0.6540 C.3   1 <1>   0.1290 
 10 C        3.9190    -1.8040    -0.7800 C.3   1 <1>   0.1290 
 11 N        4.9680     2.9120     0.0200 N.pl3 1 <1>  -0.8380 
 12 C        5.0200     4.4090    -0.2180 C.3   1 <1>   0.2700 
 13 C        6.2800     2.1940    -0.0880 C.3   1 <1>   0.2090 
 14 C        6.3890     5.0770    -0.0040 C.2   1 <1>   0.5690 
 15 C        7.3880     2.8950     0.7190 C.3   1 <1>   0.1400 
 16 O        6.5180     6.2600    -0.2060 O.2   1 <1>  -0.5700 
 17 N        7.4550     4.3470     0.4120 N.am  1 <1>  -0.7300 
 18 H        0.6060     2.9270    -0.0660 H     1 <1>   0.1500 
 19 H        1.3270    -1.3600     1.3650 H     1 <1>   0.0800 
 20 H        2.4630    -2.6740     1.1980 H     1 <1>   0.0800 
 21 H        1.1510    -2.5010     0.0460 H     1 <1>   0.0800 
 22 H        4.3640    -1.1950    -1.5480 H     1 <1>   0.0800 
 23 H        3.6340    -2.7470    -1.2120 H     1 <1>   0.0800 
 24 H        4.6440    -1.9700    -0.0020 H     1 <1>   0.0800 
 25 H        4.3240     4.8940     0.4420 H     1 <1>   0.0800 
 26 H        4.7070     4.6100    -1.2270 H     1 <1>   0.0800 
 27 H        6.5670     2.1470    -1.1240 H     1 <1>   0.0800 
 28 H        6.1930     1.1840     0.2740 H     1 <1>   0.0800 
 29 H        8.3340     2.4380     0.4910 H     1 <1>   0.0800 
 30 H        7.1930     2.7650     1.7700 H     1 <1>   0.0800 
 31 H        8.3240     4.8500     0.6000 H     1 <1>   0.3700 
@<TRIPOS>BOND
  1   1   2  1   
  2   2   3  ar  
  3   2   4  ar  
  4   3   5  ar  
  5   3   6  1   
  6   4   7  ar  
  7   4  18  1   
  8   5   8  ar  
  9   6   9  1   
 10   6  10  1   
 11   7   8  ar  
 12   8  11  1   
 13   9  19  1   
 14   9  20  1   
 15   9  21  1   
 16  10  22  1   
 17  10  23  1   
 18  10  24  1   
 19  11  12  1   
 20  11  13  1   
 21  12  14  1   
 22  12  25  1   
 23  12  26  1   
 24  13  15  1   
 25  13  27  1   
 26  13  28  1   
 27  14  16  2   
 28  14  17  am  
 29  15  17  1   
 30  15  29  1   
 31  15  30  1   
 32  17  31  1   
@<TRIPOS>SUBSTRUCTURE
  1 ****   8 GROUP 4 **** **** 0

# MOE 2024.06 (io_trps.svl 2023.06)
