@<TRIPOS>MOLECULE
NONAME
40 42 1 0 0 
SMALL
USER_CHARGES


@<TRIPOS>ATOM
  1 O       -0.8500    -0.8570     1.4010 O.2   1 <1>  -0.5700 
  2 C       -0.7320    -1.7650     0.5960 C.2   1 <1>   0.7060 
  3 O        0.3800    -2.5120     0.7360 O.3   1 <1>  -0.2270 
  4 C       -1.6870    -2.0540    -0.4420 C.2   1 <1>   0.0290 
  5 C        0.6640    -3.5500    -0.0580 C.2   1 <1>  -0.0610 
  6 C       -1.3760    -3.1670    -1.2830 C.2   1 <1>   0.5410 
  7 C       -2.8410    -1.3260    -0.6450 C.2   1 <1>  -0.0500 
  8 C       -0.1730    -3.8930    -1.0500 C.2   1 <1>  -0.1360 
  9 C        1.9670    -4.2460     0.2830 C.3   1 <1>  -0.1020 
 10 O       -2.1040    -3.5190    -2.1940 O.2   1 <1>  -0.5700 
 11 N       -3.2530    -0.2530     0.0750 N.pl3 1 <1>  -0.8690 
 12 C       -4.4810     0.5230    -0.1410 C.3   1 <1>   0.2890 
 13 C       -4.1020     1.9730    -0.4450 C.3   1 <1>  -0.1600 
 14 C       -5.3690     0.4130     1.1110 C.3   1 <1>  -0.1600 
 15 C       -5.3400     2.8660    -0.6880 C.3   1 <1>  -0.1600 
 16 C       -6.2640     1.6510     1.3540 C.3   1 <1>  -0.1600 
 17 C       -6.6130     2.4070     0.0600 C.3   1 <1>   0.3610 
 18 N       -7.4120     1.5180    -0.8150 N.am  1 <1>  -0.7300 
 19 C       -7.6290     3.5480     0.2730 C.2   1 <1>   0.5690 
 20 C       -8.6480     2.0260    -0.9850 C.2   1 <1>   0.6900 
 21 O       -7.4650     4.5490     0.9240 O.2   1 <1>  -0.5700 
 22 N       -8.7630     3.2300    -0.3890 N.am  1 <1>  -0.4900 
 23 O       -9.5520     1.4590    -1.5490 O.2   1 <1>  -0.5700 
 24 H       -3.4920    -1.6270    -1.4540 H     1 <1>   0.1500 
 25 H        0.0120    -4.7180    -1.7120 H     1 <1>   0.1500 
 26 H        2.7850    -3.5520     0.2020 H     1 <1>   0.0800 
 27 H        2.1460    -5.0700    -0.3840 H     1 <1>   0.0800 
 28 H        1.9310    -4.6190     1.2910 H     1 <1>   0.0800 
 29 H       -2.6670     0.0830     0.8610 H     1 <1>   0.4000 
 30 H       -5.0060     0.1200    -0.9910 H     1 <1>   0.0800 
 31 H       -3.5500     2.3620     0.3920 H     1 <1>   0.0800 
 32 H       -3.4620     2.0050    -1.3100 H     1 <1>   0.0800 
 33 H       -5.9880    -0.4600     1.0010 H     1 <1>   0.0800 
 34 H       -4.7570     0.2660     1.9840 H     1 <1>   0.0800 
 35 H       -5.5510     2.9230    -1.7420 H     1 <1>   0.0800 
 36 H       -5.0880     3.8620    -0.3650 H     1 <1>   0.0800 
 37 H       -5.7370     2.3350     1.9970 H     1 <1>   0.0800 
 38 H       -7.1620     1.3630     1.8720 H     1 <1>   0.0800 
 39 H       -7.2320     0.5200    -0.9080 H     1 <1>   0.3700 
 40 H       -9.6180     3.7740    -0.3900 H     1 <1>   0.3700 
@<TRIPOS>BOND
  1   1   2  2   
  2   2   3  1   
  3   2   4  1   
  4   3   5  1   
  5   4   6  1   
  6   4   7  2   
  7   5   8  2   
  8   5   9  1   
  9   6   8  1   
 10   6  10  2   
 11   7  11  1   
 12   7  24  1   
 13   8  25  1   
 14   9  26  1   
 15   9  27  1   
 16   9  28  1   
 17  11  12  1   
 18  11  29  1   
 19  12  13  1   
 20  12  14  1   
 21  12  30  1   
 22  13  15  1   
 23  13  31  1   
 24  13  32  1   
 25  14  16  1   
 26  14  33  1   
 27  14  34  1   
 28  15  17  1   
 29  15  35  1   
 30  15  36  1   
 31  16  17  1   
 32  16  37  1   
 33  16  38  1   
 34  17  18  1   
 35  17  19  1   
 36  18  20  am  
 37  18  39  1   
 38  19  21  2   
 39  19  22  am  
 40  20  22  am  
 41  20  23  2   
 42  22  40  1   
@<TRIPOS>SUBSTRUCTURE
  1 ****  12 GROUP 4 **** **** 0

# MOE 2024.06 (io_trps.svl 2023.06)
