@<TRIPOS>MOLECULE
NONAME
49 50 1 0 0 
SMALL
USER_CHARGES


@<TRIPOS>ATOM
  1 F       -1.3930    -1.1740     0.2460 F     1 <1>  -0.1900 
  2 C       -2.0640    -0.0540     0.1610 C.ar  1 <1>   0.1900 
  3 C       -3.1310     0.0400    -0.7220 C.ar  1 <1>  -0.1440 
  4 C       -1.6650     0.9960     0.9670 C.ar  1 <1>  -0.1500 
  5 C       -3.7880     1.2610    -0.7970 C.ar  1 <1>  -0.1500 
  6 C       -3.5600    -1.1350    -1.6000 C.3   1 <1>   0.2540 
  7 C       -2.3490     2.1970     0.8920 C.ar  1 <1>  -0.1500 
  8 C       -3.4160     2.3300     0.0050 C.ar  1 <1>   0.0830 
  9 N       -4.6100    -1.9800    -0.9790 N.3   1 <1>  -0.8100 
 10 O       -4.1410     3.4670    -0.1360 O.3   1 <1>  -0.3630 
 11 C       -4.0770    -2.6780     0.2100 C.3   1 <1>   0.2900 
 12 C       -5.8580    -1.2310    -0.6960 C.3   1 <1>   0.1100 
 13 C       -3.7750     4.6560     0.5310 C.3   1 <1>   0.0400 
 14 C       -5.0960    -3.6790     0.6990 C.2   1 <1>  -0.3320 
 15 C       -7.1030    -2.0810    -1.0150 C.3   1 <1>   0.3430 
 16 N       -5.4080    -4.8110     0.0410 N.pl3 1 <1>   0.0330 
 17 C       -5.8730    -3.6510     1.8010 C.2   1 <1>   0.0770 
 18 N       -8.3580    -1.5290    -0.4060 N.4   1 <1>  -0.9590 
 19 C       -6.3980    -5.3760     0.7660 C.2   1 <1>   0.0060 
 20 N       -6.7200    -4.6960     1.8180 N.2   1 <1>  -0.5650 
 21 C       -8.4180    -1.8620     1.0540 C.3   1 <1>   0.2630 
 22 C       -9.5540    -2.0970    -1.0950 C.3   1 <1>   0.2630 
 23 C       -7.0520    -6.6850     0.3780 C.3   1 <1>  -0.0600 
 24 H       -0.8340     0.8720     1.6380 H     1 <1>   0.1500 
 25 H       -4.5990     1.4100    -1.4850 H     1 <1>   0.1500 
 26 H       -2.7040    -1.7460    -1.8320 H     1 <1>   0.0800 
 27 H       -3.9280    -0.7550    -2.5380 H     1 <1>   0.0800 
 28 H       -2.0400     3.0090     1.5230 H     1 <1>   0.1500 
 29 H       -3.8640    -1.9700     0.9940 H     1 <1>   0.0800 
 30 H       -3.1620    -3.1900    -0.0390 H     1 <1>   0.0800 
 31 H       -5.9080    -0.3590    -1.3210 H     1 <1>   0.0800 
 32 H       -5.8590    -0.9120     0.3320 H     1 <1>   0.0800 
 33 H       -4.4570     5.4310     0.2310 H     1 <1>   0.0800 
 34 H       -2.7720     4.9220     0.2460 H     1 <1>   0.0800 
 35 H       -3.8460     4.4990     1.5920 H     1 <1>   0.0800 
 36 H       -6.9580    -3.0830    -0.6550 H     1 <1>   0.0800 
 37 H       -7.2070    -2.1260    -2.0860 H     1 <1>   0.0800 
 38 H       -4.9820    -5.1640    -0.8220 H     1 <1>   0.2700 
 39 H       -5.8780    -2.9150     2.5890 H     1 <1>   0.1500 
 40 H       -8.3610    -0.5050    -0.5220 H     1 <1>   0.4500 
 41 H       -8.4030    -2.9320     1.1940 H     1 <1>   0.0800 
 42 H       -9.3190    -1.4690     1.4940 H     1 <1>   0.0800 
 43 H       -7.5710    -1.4410     1.5710 H     1 <1>   0.0800 
 44 H       -9.5740    -3.1690    -0.9850 H     1 <1>   0.0800 
 45 H       -9.5310    -1.8570    -2.1460 H     1 <1>   0.0800 
 46 H      -10.4580    -1.6910    -0.6700 H     1 <1>   0.0800 
 47 H       -7.4980    -6.6080    -0.5960 H     1 <1>   0.0800 
 48 H       -7.8170    -6.9360     1.0910 H     1 <1>   0.0800 
 49 H       -6.3200    -7.4730     0.3730 H     1 <1>   0.0800 
@<TRIPOS>BOND
  1   1   2  1   
  2   2   3  ar  
  3   2   4  ar  
  4   3   5  ar  
  5   3   6  1   
  6   4   7  ar  
  7   4  24  1   
  8   5   8  ar  
  9   5  25  1   
 10   6   9  1   
 11   6  26  1   
 12   6  27  1   
 13   7   8  ar  
 14   7  28  1   
 15   8  10  1   
 16   9  11  1   
 17   9  12  1   
 18  10  13  1   
 19  11  14  1   
 20  11  29  1   
 21  11  30  1   
 22  12  15  1   
 23  12  31  1   
 24  12  32  1   
 25  13  33  1   
 26  13  34  1   
 27  13  35  1   
 28  14  16  1   
 29  14  17  2   
 30  15  18  1   
 31  15  36  1   
 32  15  37  1   
 33  16  19  1   
 34  16  38  1   
 35  17  20  1   
 36  17  39  1   
 37  18  21  1   
 38  18  22  1   
 39  18  40  1   
 40  19  20  2   
 41  19  23  1   
 42  21  41  1   
 43  21  42  1   
 44  21  43  1   
 45  22  44  1   
 46  22  45  1   
 47  22  46  1   
 48  23  47  1   
 49  23  48  1   
 50  23  49  1   
@<TRIPOS>SUBSTRUCTURE
  1 ****  12 GROUP 4 **** **** 0

# MOE 2024.06 (io_trps.svl 2023.06)
