@<TRIPOS>MOLECULE
NONAME
56 59 1 0 0 
SMALL
USER_CHARGES


@<TRIPOS>ATOM
  1 O       -2.7200    -0.9950     2.1250 O.2   1 <1>  -0.5700 
  2 C       -1.8660    -1.6940     1.6160 C.2   1 <1>   0.5440 
  3 N       -1.8690    -3.0250     1.9080 N.am  1 <1>  -0.7300 
  4 C       -0.8850    -1.1270     0.7060 C.ar  1 <1>   0.0860 
  5 C       -2.9160    -3.7370     2.7060 C.3   1 <1>   0.2010 
  6 C       -0.5550     0.2280     0.7670 C.ar  1 <1>  -0.1500 
  7 C       -0.2420    -1.8970    -0.2670 C.ar  1 <1>  -0.1500 
  8 C       -3.6980    -4.7520     1.8670 C.2   1 <1>   0.5690 
  9 C        0.3760     0.7870    -0.0890 C.ar  1 <1>  -0.1500 
 10 C        0.6910    -1.3440    -1.1260 C.ar  1 <1>  -0.1500 
 11 O       -3.2290    -5.8660     1.8010 O.2   1 <1>  -0.5700 
 12 N       -4.8650    -4.4230     1.2120 N.am  1 <1>  -0.6600 
 13 C        1.0030     0.0000    -1.0380 C.ar  1 <1>  -0.1500 
 14 C       -5.4820    -3.0520     1.1720 C.3   1 <1>   0.1400 
 15 C       -5.6580    -5.4630     0.4950 C.3   1 <1>   0.1400 
 16 C       -5.7610    -2.5900    -0.2730 C.3   1 <1>   0.1440 
 17 C       -5.8880    -5.0410    -0.9590 C.3   1 <1>  -0.1600 
 18 C       -6.5100    -1.2710    -0.2260 C.ar  1 <1>   0.1670 
 19 C       -6.5650    -3.6640    -1.0370 C.3   1 <1>  -0.1600 
 20 C       -4.4490    -2.2120    -1.0150 C.3   1 <1>  -0.1600 
 21 N       -7.7540    -1.1210     0.1590 N.ar  1 <1>  -0.6200 
 22 C       -5.7300    -0.2310    -0.6280 C.ar  1 <1>  -0.1430 
 23 C       -4.3390    -0.6750    -1.0020 C.3   1 <1>  -0.0170 
 24 C       -8.2160     0.1320     0.1240 C.ar  1 <1>   0.7200 
 25 C       -6.2870     1.0220    -0.6280 C.ar  1 <1>   0.1600 
 26 N       -7.5310     1.2150    -0.2570 N.ar  1 <1>  -0.6200 
 27 N       -9.5260     0.3250     0.5170 N.pl3 1 <1>  -0.8380 
 28 C      -10.0660     1.6780     0.8260 C.3   1 <1>   0.1290 
 29 C      -10.4850    -0.8050     0.6590 C.3   1 <1>   0.1290 
 30 H       -1.1550    -3.6380     1.5110 H     1 <1>   0.3700 
 31 H       -3.5900    -3.0360     3.1620 H     1 <1>   0.0800 
 32 H       -2.4310    -4.2700     3.5040 H     1 <1>   0.0800 
 33 H       -1.0390     0.8490     1.5020 H     1 <1>   0.1500 
 34 H       -0.4750    -2.9420    -0.3640 H     1 <1>   0.1500 
 35 H        0.6140     1.8350    -0.0170 H     1 <1>   0.1500 
 36 H        1.1760    -1.9580    -1.8660 H     1 <1>   0.1500 
 37 H        1.7310     0.4320    -1.7040 H     1 <1>   0.1500 
 38 H       -4.8560    -2.3230     1.6510 H     1 <1>   0.0800 
 39 H       -6.4140    -3.0820     1.7110 H     1 <1>   0.0800 
 40 H       -6.6050    -5.5820     0.9940 H     1 <1>   0.0800 
 41 H       -5.1540    -6.4140     0.5150 H     1 <1>   0.0800 
 42 H       -6.5090    -5.7740    -1.4430 H     1 <1>   0.0800 
 43 H       -4.9430    -5.0250    -1.4720 H     1 <1>   0.0800 
 44 H       -6.6950    -3.3690    -2.0630 H     1 <1>   0.0800 
 45 H       -7.5460    -3.7390    -0.6000 H     1 <1>   0.0800 
 46 H       -4.5060    -2.5330    -2.0400 H     1 <1>   0.0800 
 47 H       -3.5850    -2.6720    -0.5700 H     1 <1>   0.0800 
 48 H       -4.0470    -0.2920    -1.9630 H     1 <1>   0.0800 
 49 H       -3.6440    -0.3420    -0.2520 H     1 <1>   0.0800 
 50 H       -5.7070     1.8750    -0.9340 H     1 <1>   0.1500 
 51 H       -9.2820     2.3240     1.1830 H     1 <1>   0.0800 
 52 H      -10.8200     1.6100     1.5900 H     1 <1>   0.0800 
 53 H      -10.4930     2.1050    -0.0630 H     1 <1>   0.0800 
 54 H      -10.2240    -1.6070    -0.0090 H     1 <1>   0.0800 
 55 H      -11.4810    -0.4770     0.4210 H     1 <1>   0.0800 
 56 H      -10.4610    -1.1700     1.6710 H     1 <1>   0.0800 
@<TRIPOS>BOND
  1   1   2  2   
  2   2   3  am  
  3   2   4  1   
  4   3   5  1   
  5   3  30  1   
  6   4   6  ar  
  7   4   7  ar  
  8   5   8  1   
  9   5  31  1   
 10   5  32  1   
 11   6   9  ar  
 12   6  33  1   
 13   7  10  ar  
 14   7  34  1   
 15   8  11  2   
 16   8  12  am  
 17   9  13  ar  
 18   9  35  1   
 19  10  13  ar  
 20  10  36  1   
 21  12  14  1   
 22  12  15  1   
 23  13  37  1   
 24  14  16  1   
 25  14  38  1   
 26  14  39  1   
 27  15  17  1   
 28  15  40  1   
 29  15  41  1   
 30  16  18  1   
 31  16  19  1   
 32  16  20  1   
 33  17  19  1   
 34  17  42  1   
 35  17  43  1   
 36  18  21  ar  
 37  18  22  ar  
 38  19  44  1   
 39  19  45  1   
 40  20  23  1   
 41  20  46  1   
 42  20  47  1   
 43  21  24  ar  
 44  22  23  1   
 45  22  25  ar  
 46  23  48  1   
 47  23  49  1   
 48  24  26  ar  
 49  24  27  1   
 50  25  26  ar  
 51  25  50  1   
 52  27  28  1   
 53  27  29  1   
 54  28  51  1   
 55  28  52  1   
 56  28  53  1   
 57  29  54  1   
 58  29  55  1   
 59  29  56  1   
@<TRIPOS>SUBSTRUCTURE
  1 ****  20 GROUP 4 **** **** 0

# MOE 2024.06 (io_trps.svl 2023.06)
