@<TRIPOS>MOLECULE
NONAME
44 46 1 0 0 
SMALL
USER_CHARGES


@<TRIPOS>ATOM
  1 F       -0.5990     3.1950     1.6490 F     1 <1>  -0.1900 
  2 C       -0.1110     3.3260     0.4400 C.ar  1 <1>   0.1900 
  3 C       -0.8180     2.8980    -0.6900 C.ar  1 <1>   0.0830 
  4 C        1.1420     3.9020     0.3450 C.ar  1 <1>  -0.1500 
  5 O       -2.0550     2.3210    -0.7210 O.3   1 <1>  -0.3630 
  6 C       -0.2130     3.0710    -1.9250 C.ar  1 <1>  -0.1500 
  7 C        1.7320     4.0630    -0.9000 C.ar  1 <1>  -0.1430 
  8 C       -2.8570     2.1700     0.4280 C.3   1 <1>   0.0400 
  9 C        1.0440     3.6460    -2.0320 C.ar  1 <1>  -0.1500 
 10 C        3.1130     4.6880    -1.0180 C.3   1 <1>   0.3530 
 11 N        3.0240     6.0930    -0.5870 N.pl3 1 <1>  -0.8690 
 12 C        4.1030     6.7910    -0.1020 C.ar  1 <1>   0.4100 
 13 N        5.2980     6.3460    -0.4880 N.ar  1 <1>  -0.6200 
 14 C        3.9150     7.9040     0.7370 C.ar  1 <1>   0.0860 
 15 C        6.3460     7.0020    -0.0300 C.ar  1 <1>   0.1600 
 16 C        2.5880     8.3400     1.1000 C.2   1 <1>   0.5440 
 17 C        5.0440     8.5630     1.2040 C.ar  1 <1>  -0.1500 
 18 C        6.2780     8.1000     0.8080 C.ar  1 <1>  -0.1500 
 19 O        1.7940     7.5510     1.5850 O.2   1 <1>  -0.5700 
 20 N        2.1840     9.6430     0.9110 N.am  1 <1>  -0.6600 
 21 C        0.8250    10.1050     1.2710 C.3   1 <1>   0.1400 
 22 C        2.8340    10.5940    -0.0190 C.3   1 <1>   0.1400 
 23 C        0.7240    11.5150     0.7010 C.3   1 <1>  -0.1600 
 24 C        1.7170    11.5340    -0.4570 C.3   1 <1>  -0.1600 
 25 H        1.6480     4.2240     1.2390 H     1 <1>   0.1500 
 26 H       -0.7360     2.7530    -2.8090 H     1 <1>   0.1500 
 27 H       -3.7990     1.7500     0.1250 H     1 <1>   0.0800 
 28 H       -3.0150     3.1350     0.8750 H     1 <1>   0.0800 
 29 H       -2.3650     1.5020     1.1130 H     1 <1>   0.0800 
 30 H        1.4840     3.7710    -3.0060 H     1 <1>   0.1500 
 31 H        3.4680     4.6520    -2.0330 H     1 <1>   0.0800 
 32 H        3.8090     4.1560    -0.3920 H     1 <1>   0.0800 
 33 H        2.1350     6.2900    -0.1040 H     1 <1>   0.4000 
 34 H        7.3150     6.6460    -0.3380 H     1 <1>   0.1500 
 35 H        4.9470     9.4090     1.8610 H     1 <1>   0.1500 
 36 H        7.1800     8.5790     1.1440 H     1 <1>   0.1500 
 37 H        0.6900    10.0920     2.3400 H     1 <1>   0.0800 
 38 H        0.0990     9.4560     0.8100 H     1 <1>   0.0800 
 39 H        3.2710    10.0840    -0.8620 H     1 <1>   0.0800 
 40 H        3.5940    11.1420     0.5120 H     1 <1>   0.0800 
 41 H        1.0270    12.2190     1.4570 H     1 <1>   0.0800 
 42 H       -0.2790    11.7470     0.3880 H     1 <1>   0.0800 
 43 H        1.2530    11.1340    -1.3420 H     1 <1>   0.0800 
 44 H        2.0840    12.5220    -0.6690 H     1 <1>   0.0800 
@<TRIPOS>BOND
  1   1   2  1   
  2   2   3  ar  
  3   2   4  ar  
  4   3   5  1   
  5   3   6  ar  
  6   4   7  ar  
  7   4  25  1   
  8   5   8  1   
  9   6   9  ar  
 10   6  26  1   
 11   7   9  ar  
 12   7  10  1   
 13   8  27  1   
 14   8  28  1   
 15   8  29  1   
 16   9  30  1   
 17  10  11  1   
 18  10  31  1   
 19  10  32  1   
 20  11  12  1   
 21  11  33  1   
 22  12  13  ar  
 23  12  14  ar  
 24  13  15  ar  
 25  14  16  1   
 26  14  17  ar  
 27  15  18  ar  
 28  15  34  1   
 29  16  19  2   
 30  16  20  am  
 31  17  18  ar  
 32  17  35  1   
 33  18  36  1   
 34  20  21  1   
 35  20  22  1   
 36  21  23  1   
 37  21  37  1   
 38  21  38  1   
 39  22  24  1   
 40  22  39  1   
 41  22  40  1   
 42  23  24  1   
 43  23  41  1   
 44  23  42  1   
 45  24  43  1   
 46  24  44  1   
@<TRIPOS>SUBSTRUCTURE
  1 ****  11 GROUP 4 **** **** 0

# MOE 2024.06 (io_trps.svl 2023.06)
