@<TRIPOS>MOLECULE
NONAME
51 54 1 0 0 
SMALL
USER_CHARGES


@<TRIPOS>ATOM
  1 O       -0.3660    -0.3720    -0.6350 O.2   1 <1>  -0.5700 
  2 C       -1.3840     0.2660    -0.4450 C.2   1 <1>   0.7160 
  3 N       -2.5700    -0.3990    -0.3890 N.am  1 <1>  -0.6550 
  4 C       -1.3600     1.6900    -0.2750 C.2   1 <1>  -0.0860 
  5 C       -2.8180    -1.8530    -0.3690 C.3   1 <1>   0.2250 
  6 C       -2.4740     2.5110    -0.0440 C.2   1 <1>   0.3720 
  7 C       -0.3280     2.5810    -0.3080 C.2   1 <1>   0.0870 
  8 C       -2.2100    -2.5700     0.8720 C.3   1 <1>   0.0000 
  9 C       -4.2170    -2.1720     0.2320 C.3   1 <1>   0.0000 
 10 C       -2.5460    -2.4970    -1.7280 C.3   1 <1>  -0.2400 
 11 N       -2.1380     3.7490     0.0370 N.2   1 <1>  -0.4100 
 12 N       -3.8020     2.0740     0.0930 N.pl3 1 <1>  -0.8210 
 13 O       -0.8440     3.7710    -0.1290 O.3   1 <1>  -0.0190 
 14 C        1.0970     2.4640    -0.4880 C.ar  1 <1>   0.0530 
 15 C       -3.5300    -2.2480     1.6220 C.3   1 <1>   0.0000 
 16 C       -4.7160     2.5760    -0.9710 C.3   1 <1>   0.2090 
 17 C       -4.4050     2.3910     1.4200 C.3   1 <1>   0.2090 
 18 C        1.7810     3.3610    -1.3100 C.ar  1 <1>  -0.1500 
 19 C        1.8520     1.4830     0.1550 C.ar  1 <1>  -0.1500 
 20 C       -6.0350     2.8760    -0.2760 C.3   1 <1>  -0.1600 
 21 C       -5.6240     3.2590     1.1360 C.3   1 <1>  -0.1600 
 22 C        3.1490     3.2760    -1.4870 C.ar  1 <1>  -0.1500 
 23 C        3.2200     1.3890    -0.0190 C.ar  1 <1>  -0.1500 
 24 C        3.8820     2.2900    -0.8470 C.ar  1 <1>   0.0830 
 25 O        5.2170     2.2690    -1.0740 O.3   1 <1>  -0.3630 
 26 C        6.0440     1.2770    -0.5090 C.3   1 <1>   0.0400 
 27 H       -3.3850     0.2010    -0.1990 H     1 <1>   0.3700 
 28 H       -1.3420    -2.0940     1.2920 H     1 <1>   0.0000 
 29 H       -2.0800    -3.6280     0.7240 H     1 <1>   0.0000 
 30 H       -4.6020    -3.1290    -0.0770 H     1 <1>   0.0000 
 31 H       -4.9350    -1.3760     0.1400 H     1 <1>   0.0000 
 32 H       -1.5070    -2.3880    -1.9860 H     1 <1>   0.0800 
 33 H       -3.1510    -2.0330    -2.4860 H     1 <1>   0.0800 
 34 H       -2.7760    -3.5460    -1.6990 H     1 <1>   0.0800 
 35 H       -3.5030    -1.2980     2.1280 H     1 <1>   0.0000 
 36 H       -3.8860    -3.0530     2.2400 H     1 <1>   0.0000 
 37 H       -4.8410     1.8350    -1.7430 H     1 <1>   0.0800 
 38 H       -4.3200     3.4780    -1.4090 H     1 <1>   0.0800 
 39 H       -3.7100     2.9020     2.0660 H     1 <1>   0.0800 
 40 H       -4.7090     1.4710     1.8900 H     1 <1>   0.0800 
 41 H        1.2300     4.1330    -1.8160 H     1 <1>   0.1500 
 42 H        1.3570     0.7810     0.8030 H     1 <1>   0.1500 
 43 H       -6.6350     1.9820    -0.2580 H     1 <1>   0.0800 
 44 H       -6.5800     3.6590    -0.7730 H     1 <1>   0.0800 
 45 H       -5.3250     4.2930     1.1630 H     1 <1>   0.0800 
 46 H       -6.4070     3.0990     1.8540 H     1 <1>   0.0800 
 47 H        3.6610     3.9730    -2.1250 H     1 <1>   0.1500 
 48 H        3.7510     0.6110     0.4950 H     1 <1>   0.1500 
 49 H        7.0510     1.4510    -0.8430 H     1 <1>   0.0800 
 50 H        5.7090     0.3110    -0.8440 H     1 <1>   0.0800 
 51 H        5.9950     1.3520     0.5630 H     1 <1>   0.0800 
@<TRIPOS>BOND
  1   1   2  2   
  2   2   3  am  
  3   2   4  1   
  4   3   5  1   
  5   3  27  1   
  6   4   6  1   
  7   4   7  2   
  8   5   8  1   
  9   5   9  1   
 10   5  10  1   
 11   6  11  2   
 12   6  12  1   
 13   7  13  1   
 14   7  14  1   
 15   8  15  1   
 16   8  28  1   
 17   8  29  1   
 18   9  15  1   
 19   9  30  1   
 20   9  31  1   
 21  10  32  1   
 22  10  33  1   
 23  10  34  1   
 24  11  13  1   
 25  12  16  1   
 26  12  17  1   
 27  14  18  ar  
 28  14  19  ar  
 29  15  35  1   
 30  15  36  1   
 31  16  20  1   
 32  16  37  1   
 33  16  38  1   
 34  17  21  1   
 35  17  39  1   
 36  17  40  1   
 37  18  22  ar  
 38  18  41  1   
 39  19  23  ar  
 40  19  42  1   
 41  20  21  1   
 42  20  43  1   
 43  20  44  1   
 44  21  45  1   
 45  21  46  1   
 46  22  24  ar  
 47  22  47  1   
 48  23  24  ar  
 49  23  48  1   
 50  24  25  1   
 51  25  26  1   
 52  26  49  1   
 53  26  50  1   
 54  26  51  1   
@<TRIPOS>SUBSTRUCTURE
  1 ****   4 GROUP 4 **** **** 0

# MOE 2024.06 (io_trps.svl 2023.06)
