@<TRIPOS>MOLECULE
NONAME
49 52 1 0 0 
SMALL
USER_CHARGES


@<TRIPOS>ATOM
  1 O        3.6030    -2.3160    -2.1090 O.2   1 <1>  -0.5700 
  2 C        2.6570    -2.0470    -1.3900 C.2   1 <1>   0.7160 
  3 N        2.6150    -0.7740    -0.8830 N.am  1 <1>  -0.6600 
  4 C        1.6940    -3.0500    -1.0200 C.2   1 <1>  -0.0860 
  5 C        2.9250    -0.6230     0.5830 C.3   1 <1>   0.2200 
  6 C        2.8780     0.3840    -1.7960 C.3   1 <1>   0.1400 
  7 C        0.5090    -2.9750    -0.3290 C.2   1 <1>  -0.2050 
  8 C        1.8200    -4.4060    -1.3210 C.2   1 <1>   0.1390 
  9 C        2.3360     0.6640     1.1820 C.3   1 <1>   0.1200 
 10 C        4.4500    -0.7300     0.8450 C.3   1 <1>   0.3430 
 11 C        3.8900     1.4220    -1.2700 C.3   1 <1>  -0.0800 
 12 N        0.0310    -4.2350    -0.2670 N.pl3 1 <1>   0.3000 
 13 C       -0.1730    -1.8460     0.2390 C.ar  1 <1>   0.0530 
 14 N        0.8400    -5.1210    -0.8700 N.2   1 <1>  -0.7070 
 15 O        3.2190     1.7340     1.0410 O.3   1 <1>  -0.5600 
 16 N        5.2640    -0.5530    -0.4090 N.4   1 <1>  -0.9590 
 17 C        3.2710     2.3420    -0.2050 C.3   1 <1>   0.1200 
 18 C        5.2720     0.8750    -0.8490 C.3   1 <1>   0.3430 
 19 C       -0.6420    -0.8140    -0.5690 C.ar  1 <1>  -0.1500 
 20 C       -0.3760    -1.7480     1.6130 C.ar  1 <1>  -0.1500 
 21 C        6.6920    -0.9940    -0.1300 C.3   1 <1>   0.2370 
 22 C       -1.2860     0.2820    -0.0260 C.ar  1 <1>  -0.1500 
 23 C       -1.0170    -0.6530     2.1620 C.ar  1 <1>  -0.1500 
 24 C        7.3830    -0.2230     0.9990 C.2   1 <1>   0.9060 
 25 C       -1.4720     0.3650     1.3430 C.ar  1 <1>  -0.1500 
 26 O        7.2240    -0.6270     2.1540 O.co2 1 <1>  -0.9000 
 27 O        7.9540     0.8320     0.7100 O.co2 1 <1>  -0.9000 
 28 H        2.4570    -1.4360     1.1080 H     1 <1>   0.0800 
 29 H        3.2320     0.0160    -2.7450 H     1 <1>   0.0800 
 30 H        1.9400     0.8760    -1.9870 H     1 <1>   0.0800 
 31 H        2.6490    -4.8220    -1.8710 H     1 <1>   0.1500 
 32 H        2.1960     0.5250     2.2390 H     1 <1>   0.0800 
 33 H        1.3830     0.9100     0.7460 H     1 <1>   0.0800 
 34 H        4.6570    -1.7010     1.2620 H     1 <1>   0.0800 
 35 H        4.7500    -0.0040     1.5850 H     1 <1>   0.0800 
 36 H        4.0840     2.0770    -2.1000 H     1 <1>   0.0800 
 37 H       -0.8560    -4.5150     0.1710 H     1 <1>   0.2700 
 38 H        4.8380    -1.1410    -1.1500 H     1 <1>   0.4500 
 39 H        2.2780     2.6580    -0.4780 H     1 <1>   0.0800 
 40 H        3.8820     3.2210    -0.0900 H     1 <1>   0.0800 
 41 H        5.6730     1.4920    -0.0590 H     1 <1>   0.0800 
 42 H        5.9430     0.9640    -1.6880 H     1 <1>   0.0800 
 43 H       -0.5000    -0.8780    -1.6330 H     1 <1>   0.1500 
 44 H       -0.0260    -2.5360     2.2570 H     1 <1>   0.1500 
 45 H        6.7040    -2.0320     0.1440 H     1 <1>   0.0800 
 46 H        7.2910    -0.8690    -1.0130 H     1 <1>   0.0800 
 47 H       -1.6480     1.0690    -0.6650 H     1 <1>   0.1500 
 48 H       -1.1680    -0.5910     3.2270 H     1 <1>   0.1500 
 49 H       -1.9760     1.2170     1.7690 H     1 <1>   0.1500 
@<TRIPOS>BOND
  1   1   2  2   
  2   2   3  am  
  3   2   4  1   
  4   3   5  1   
  5   3   6  1   
  6   4   7  2   
  7   4   8  1   
  8   5   9  1   
  9   5  10  1   
 10   5  28  1   
 11   6  11  1   
 12   6  29  1   
 13   6  30  1   
 14   7  12  1   
 15   7  13  1   
 16   8  14  2   
 17   8  31  1   
 18   9  15  1   
 19   9  32  1   
 20   9  33  1   
 21  10  16  1   
 22  10  34  1   
 23  10  35  1   
 24  11  17  1   
 25  11  18  1   
 26  11  36  1   
 27  12  14  1   
 28  12  37  1   
 29  13  19  ar  
 30  13  20  ar  
 31  15  17  1   
 32  16  18  1   
 33  16  21  1   
 34  16  38  1   
 35  17  39  1   
 36  17  40  1   
 37  18  41  1   
 38  18  42  1   
 39  19  22  ar  
 40  19  43  1   
 41  20  23  ar  
 42  20  44  1   
 43  21  24  1   
 44  21  45  1   
 45  21  46  1   
 46  22  25  ar  
 47  22  47  1   
 48  23  25  ar  
 49  23  48  1   
 50  24  26  ar  
 51  24  27  ar  
 52  25  49  1   
@<TRIPOS>SUBSTRUCTURE
  1 ****   5 GROUP 4 **** **** 0

# MOE 2024.06 (io_trps.svl 2023.06)
