@<TRIPOS>MOLECULE
NONAME
41 43 1 0 0 
SMALL
USER_CHARGES


@<TRIPOS>ATOM
  1 O        0.6260    -0.3980    -1.6950 O.2   1 <1>  -0.5700 
  2 C        1.4730    -0.8010    -0.9170 C.2   1 <1>   0.7160 
  3 N        2.4040     0.0560    -0.4090 N.am  1 <1>  -0.4930 
  4 C        1.5050    -2.1790    -0.4950 C.2   1 <1>  -0.0860 
  5 C        2.5910     1.4460    -0.6360 C.2   1 <1>   0.0630 
  6 C        2.6220    -3.0240    -0.5090 C.2   1 <1>   0.1080 
  7 C        0.5180    -2.9730     0.0120 C.2   1 <1>  -0.3320 
  8 C        3.6170     2.1830    -0.1460 C.2   1 <1>  -0.0680 
  9 C        1.8020     2.3530    -1.3480 C.2   1 <1>   0.1390 
 10 N        2.3660    -4.2000    -0.0420 N.2   1 <1>  -0.7070 
 11 C        4.0030    -2.6690    -1.0180 C.3   1 <1>  -0.0590 
 12 N        1.0610    -4.1780     0.2740 N.pl3 1 <1>   0.3140 
 13 C       -0.9400    -2.6110     0.2550 C.3   1 <1>  -0.0600 
 14 N        3.3860     3.4590    -0.5510 N.pl3 1 <1>   0.3140 
 15 N        4.7370     1.7970     0.6330 N.pl3 1 <1>  -0.8530 
 16 N        2.2700     3.5670    -1.3080 N.2   1 <1>  -0.7070 
 17 C        0.3980    -5.3750     0.8320 C.3   1 <1>   0.0960 
 18 C        4.2770     4.5850    -0.2310 C.3   1 <1>   0.0960 
 19 C        5.8010     2.8240     0.8110 C.3   1 <1>   0.2090 
 20 C       -0.2070    -6.2420    -0.2800 C.3   1 <1>  -0.2400 
 21 C        5.1810     4.2220     0.9620 C.3   1 <1>  -0.1600 
 22 H        2.9800    -0.3180     0.3420 H     1 <1>   0.3700 
 23 H        0.9000     2.0830    -1.8720 H     1 <1>   0.1500 
 24 H        3.9360    -2.0010    -1.8560 H     1 <1>   0.0800 
 25 H        4.5090    -3.5640    -1.3330 H     1 <1>   0.0800 
 26 H        4.5740    -2.2100    -0.2330 H     1 <1>   0.0800 
 27 H       -1.1320    -1.5940    -0.0400 H     1 <1>   0.0800 
 28 H       -1.1830    -2.7120     1.2970 H     1 <1>   0.0800 
 29 H       -1.5830    -3.2520    -0.3210 H     1 <1>   0.0800 
 30 H        5.1360     0.8980     0.3400 H     1 <1>   0.4000 
 31 H       -0.3650    -5.0610     1.5200 H     1 <1>   0.0800 
 32 H        1.1340    -5.9400     1.3750 H     1 <1>   0.0800 
 33 H        3.6760     5.4470    -0.0060 H     1 <1>   0.0800 
 34 H        4.8700     4.7910    -1.1030 H     1 <1>   0.0800 
 35 H        6.4580     2.8040    -0.0430 H     1 <1>   0.0800 
 36 H        6.3760     2.5860     1.6900 H     1 <1>   0.0800 
 37 H       -0.9480    -5.6890    -0.8280 H     1 <1>   0.0800 
 38 H       -0.6720    -7.1120     0.1470 H     1 <1>   0.0800 
 39 H        0.5670    -6.5630    -0.9550 H     1 <1>   0.0800 
 40 H        4.6000     4.2460     1.8670 H     1 <1>   0.0800 
 41 H        5.9610     4.9560     1.0570 H     1 <1>   0.0800 
@<TRIPOS>BOND
  1   1   2  2   
  2   2   3  am  
  3   2   4  1   
  4   3   5  1   
  5   3  22  1   
  6   4   6  1   
  7   4   7  2   
  8   5   8  2   
  9   5   9  1   
 10   6  10  2   
 11   6  11  1   
 12   7  12  1   
 13   7  13  1   
 14   8  14  1   
 15   8  15  1   
 16   9  16  2   
 17   9  23  1   
 18  10  12  1   
 19  11  24  1   
 20  11  25  1   
 21  11  26  1   
 22  12  17  1   
 23  13  27  1   
 24  13  28  1   
 25  13  29  1   
 26  14  16  1   
 27  14  18  1   
 28  15  19  1   
 29  15  30  1   
 30  17  20  1   
 31  17  31  1   
 32  17  32  1   
 33  18  21  1   
 34  18  33  1   
 35  18  34  1   
 36  19  21  1   
 37  19  35  1   
 38  19  36  1   
 39  20  37  1   
 40  20  38  1   
 41  20  39  1   
 42  21  40  1   
 43  21  41  1   
@<TRIPOS>SUBSTRUCTURE
  1 ****   3 GROUP 4 **** **** 0

# MOE 2024.06 (io_trps.svl 2023.06)
