@<TRIPOS>MOLECULE
NONAME
49 52 1 0 0 
SMALL
USER_CHARGES


@<TRIPOS>ATOM
  1 O       -2.1560     0.3260     2.3710 O.2   1 <1>  -0.5700 
  2 C       -2.1390     0.8860     1.2920 C.2   1 <1>   0.5440 
  3 N       -2.4100     0.1670     0.1490 N.am  1 <1>  -0.6600 
  4 C       -1.8510     2.3040     1.2290 C.ar  1 <1>   0.0860 
  5 C       -2.4120    -1.3380     0.1910 C.3   1 <1>   0.3640 
  6 C       -2.9330     0.8490    -1.0760 C.3   1 <1>   0.1400 
  7 C       -0.7670     2.7870     0.4940 C.ar  1 <1>  -0.1500 
  8 C       -2.6470     3.2310     1.8990 C.ar  1 <1>  -0.1500 
  9 C       -0.9940    -1.8620    -0.0560 C.ar  1 <1>  -0.1430 
 10 C       -3.4090    -2.0290    -0.7910 C.3   1 <1>   0.2000 
 11 C       -3.4480    -0.1220    -2.1460 C.3   1 <1>   0.1200 
 12 C       -0.4930     4.1410     0.4090 C.ar  1 <1>  -0.1440 
 13 C       -2.3860     4.5860     1.8230 C.ar  1 <1>  -0.1500 
 14 C       -0.5020    -2.8770     0.7540 C.ar  1 <1>  -0.1500 
 15 C       -0.1830    -1.3660    -1.0690 C.ar  1 <1>  -0.1500 
 16 O       -4.1860    -1.1330    -1.5440 O.3   1 <1>  -0.5600 
 17 C       -4.3850    -2.9610    -0.0610 C.3   1 <1>   0.1200 
 18 C       -1.3110     5.0460     1.0800 C.ar  1 <1>   0.0830 
 19 C        0.6940     4.6330    -0.4040 C.3   1 <1>  -0.0170 
 20 C        0.7670    -3.3900     0.5530 C.ar  1 <1>  -0.1500 
 21 C        1.0870    -1.8770    -1.2730 C.ar  1 <1>  -0.1500 
 22 O       -3.7020    -4.0080     0.5540 O.3   1 <1>  -0.6800 
 23 O       -1.0990     6.3800     1.0280 O.3   1 <1>  -0.3630 
 24 C        0.5350     6.1200    -0.7310 C.3   1 <1>  -0.1600 
 25 C        1.5630    -2.8910    -0.4620 C.ar  1 <1>  -0.1500 
 26 C        0.1220     6.8870     0.5280 C.3   1 <1>   0.1200 
 27 H       -2.6910    -1.6410     1.1850 H     1 <1>   0.0800 
 28 H       -3.7450     1.4950    -0.7880 H     1 <1>   0.0800 
 29 H       -2.1620     1.4640    -1.5040 H     1 <1>   0.0800 
 30 H       -0.1350     2.0770    -0.0080 H     1 <1>   0.1500 
 31 H       -3.4770     2.8740     2.4850 H     1 <1>   0.1500 
 32 H       -2.8540    -2.6190    -1.4990 H     1 <1>   0.0800 
 33 H       -2.6380    -0.5610    -2.7010 H     1 <1>   0.0800 
 34 H       -4.0940     0.3960    -2.8330 H     1 <1>   0.0800 
 35 H       -3.0070     5.2960     2.3390 H     1 <1>   0.1500 
 36 H       -1.1100    -3.2730     1.5510 H     1 <1>   0.1500 
 37 H       -0.5320    -0.5740    -1.7050 H     1 <1>   0.1500 
 38 H       -5.0900    -3.3850    -0.7540 H     1 <1>   0.0800 
 39 H       -4.9150    -2.4180     0.7030 H     1 <1>   0.0800 
 40 H        1.5890     4.4850     0.1750 H     1 <1>   0.0800 
 41 H        0.7840     4.0680    -1.3150 H     1 <1>   0.0800 
 42 H        1.1350    -4.1750     1.1900 H     1 <1>   0.1500 
 43 H        1.7060    -1.4860    -2.0600 H     1 <1>   0.1500 
 44 H       -3.3020    -4.6030    -0.1100 H     1 <1>   0.4000 
 45 H       -0.2220     6.2530    -1.4840 H     1 <1>   0.0800 
 46 H        1.4610     6.5120    -1.1120 H     1 <1>   0.0800 
 47 H        2.5500    -3.2900    -0.6170 H     1 <1>   0.1500 
 48 H       -0.0210     7.9310     0.3140 H     1 <1>   0.0800 
 49 H        0.8630     6.7810     1.3020 H     1 <1>   0.0800 
@<TRIPOS>BOND
  1   1   2  2   
  2   2   3  am  
  3   2   4  1   
  4   3   5  1   
  5   3   6  1   
  6   4   7  ar  
  7   4   8  ar  
  8   5   9  1   
  9   5  10  1   
 10   5  27  1   
 11   6  11  1   
 12   6  28  1   
 13   6  29  1   
 14   7  12  ar  
 15   7  30  1   
 16   8  13  ar  
 17   8  31  1   
 18   9  14  ar  
 19   9  15  ar  
 20  10  16  1   
 21  10  17  1   
 22  10  32  1   
 23  11  16  1   
 24  11  33  1   
 25  11  34  1   
 26  12  18  ar  
 27  12  19  1   
 28  13  18  ar  
 29  13  35  1   
 30  14  20  ar  
 31  14  36  1   
 32  15  21  ar  
 33  15  37  1   
 34  17  22  1   
 35  17  38  1   
 36  17  39  1   
 37  18  23  1   
 38  19  24  1   
 39  19  40  1   
 40  19  41  1   
 41  20  25  ar  
 42  20  42  1   
 43  21  25  ar  
 44  21  43  1   
 45  22  44  1   
 46  23  26  1   
 47  24  26  1   
 48  24  45  1   
 49  24  46  1   
 50  25  47  1   
 51  26  48  1   
 52  26  49  1   
@<TRIPOS>SUBSTRUCTURE
  1 ****   3 GROUP 4 **** **** 0

# MOE 2024.06 (io_trps.svl 2023.06)
