@<TRIPOS>MOLECULE
NONAME
53 55 1 0 0 
SMALL
USER_CHARGES


@<TRIPOS>ATOM
  1 O       -1.9770     0.0980     2.3960 O.2   1 <1>  -0.5700 
  2 C       -2.0260     0.7540     1.3730 C.2   1 <1>   0.5440 
  3 N       -2.4920     0.1610     0.2200 N.am  1 <1>  -0.6600 
  4 C       -1.6130     2.1330     1.3980 C.ar  1 <1>   0.0860 
  5 C       -2.5350    -1.3370     0.1130 C.3   1 <1>   0.3640 
  6 C       -3.0430     0.9840    -0.9020 C.3   1 <1>   0.1400 
  7 C       -0.5280     2.5820     0.6210 C.ar  1 <1>   0.4100 
  8 C       -2.2740     3.0570     2.1940 C.ar  1 <1>  -0.1500 
  9 C       -1.1290    -1.8450    -0.2220 C.ar  1 <1>  -0.1440 
 10 C       -3.5670    -1.9000    -0.9100 C.3   1 <1>   0.2000 
 11 C       -3.6610     0.1500    -2.0320 C.3   1 <1>   0.1200 
 12 N       -0.1320     3.8530     0.5760 N.ar  1 <1>  -0.6200 
 13 N        0.1990     1.7010    -0.1540 N.pl3 1 <1>  -0.8690 
 14 C       -1.8500     4.3660     2.1580 C.ar  1 <1>  -0.1500 
 15 C       -0.5780    -2.8660     0.5400 C.ar  1 <1>  -0.1500 
 16 C       -0.3860    -1.3180    -1.2730 C.ar  1 <1>  -0.1500 
 17 O       -4.3770    -0.9150    -1.4980 O.3   1 <1>  -0.5600 
 18 C       -4.5090    -2.9290    -0.2700 C.3   1 <1>   0.1200 
 19 C       -0.7890     4.7050     1.3370 C.ar  1 <1>   0.1600 
 20 C        1.5440     2.0080    -0.7020 C.3   1 <1>   0.1290 
 21 C        0.6860    -3.3600     0.2630 C.ar  1 <1>   0.0830 
 22 C        0.8840    -1.7930    -1.5470 C.ar  1 <1>  -0.1500 
 23 O       -3.7950    -4.0320     0.1920 O.3   1 <1>  -0.6800 
 24 O        1.1370    -4.3860     1.0250 O.3   1 <1>  -0.3630 
 25 C        1.4360    -2.8000    -0.7750 C.ar  1 <1>   0.0830 
 26 C        1.2900    -5.6270     0.3730 C.3   1 <1>   0.0400 
 27 O        2.7010    -3.1890    -1.0710 O.3   1 <1>  -0.3630 
 28 C        3.6750    -2.9690    -0.0740 C.3   1 <1>   0.0400 
 29 H       -2.7990    -1.7280     1.0810 H     1 <1>   0.0800 
 30 H       -3.8050     1.6330    -0.5060 H     1 <1>   0.0800 
 31 H       -2.2680     1.6060    -1.3140 H     1 <1>   0.0800 
 32 H       -3.0920     2.7450     2.8210 H     1 <1>   0.1500 
 33 H       -3.0430    -2.3850    -1.7140 H     1 <1>   0.0800 
 34 H       -2.9050    -0.2310    -2.6950 H     1 <1>   0.0800 
 35 H       -4.3420     0.7550    -2.6040 H     1 <1>   0.0800 
 36 H        0.0320     0.6990     0.0230 H     1 <1>   0.4000 
 37 H       -2.3320     5.1170     2.7570 H     1 <1>   0.1500 
 38 H       -1.1310    -3.2930     1.3590 H     1 <1>   0.1500 
 39 H       -0.7860    -0.5270    -1.8810 H     1 <1>   0.1500 
 40 H       -5.2320    -3.2760    -0.9880 H     1 <1>   0.0800 
 41 H       -5.0200    -2.4920     0.5700 H     1 <1>   0.0800 
 42 H       -0.4660     5.7320     1.3090 H     1 <1>   0.1500 
 43 H        1.5010     2.9070    -1.2930 H     1 <1>   0.0800 
 44 H        1.8820     1.1960    -1.3210 H     1 <1>   0.0800 
 45 H        2.2390     2.1550     0.1060 H     1 <1>   0.0800 
 46 H        1.4580    -1.3800    -2.3570 H     1 <1>   0.1500 
 47 H       -3.4220    -4.5460    -0.5520 H     1 <1>   0.4000 
 48 H        1.5800    -6.3580     1.1060 H     1 <1>   0.0800 
 49 H        2.0510    -5.5420    -0.3820 H     1 <1>   0.0800 
 50 H        0.3510    -5.9030    -0.0720 H     1 <1>   0.0800 
 51 H        4.6410    -3.1830    -0.4940 H     1 <1>   0.0800 
 52 H        3.4870    -3.6200     0.7600 H     1 <1>   0.0800 
 53 H        3.6270    -1.9400     0.2380 H     1 <1>   0.0800 
@<TRIPOS>BOND
  1   1   2  2   
  2   2   3  am  
  3   2   4  1   
  4   3   5  1   
  5   3   6  1   
  6   4   7  ar  
  7   4   8  ar  
  8   5   9  1   
  9   5  10  1   
 10   5  29  1   
 11   6  11  1   
 12   6  30  1   
 13   6  31  1   
 14   7  12  ar  
 15   7  13  1   
 16   8  14  ar  
 17   8  32  1   
 18   9  15  ar  
 19   9  16  ar  
 20  10  17  1   
 21  10  18  1   
 22  10  33  1   
 23  11  17  1   
 24  11  34  1   
 25  11  35  1   
 26  12  19  ar  
 27  13  20  1   
 28  13  36  1   
 29  14  19  ar  
 30  14  37  1   
 31  15  21  ar  
 32  15  38  1   
 33  16  22  ar  
 34  16  39  1   
 35  18  23  1   
 36  18  40  1   
 37  18  41  1   
 38  19  42  1   
 39  20  43  1   
 40  20  44  1   
 41  20  45  1   
 42  21  24  1   
 43  21  25  ar  
 44  22  25  ar  
 45  22  46  1   
 46  23  47  1   
 47  24  26  1   
 48  25  27  1   
 49  26  48  1   
 50  26  49  1   
 51  26  50  1   
 52  27  28  1   
 53  28  51  1   
 54  28  52  1   
 55  28  53  1   
@<TRIPOS>SUBSTRUCTURE
  1 ****   9 GROUP 4 **** **** 0

# MOE 2024.06 (io_trps.svl 2023.06)
