@<TRIPOS>MOLECULE
NONAME
43 46 1 0 0 
SMALL
USER_CHARGES


@<TRIPOS>ATOM
  1 S       -0.1520    -0.5300     0.2930 S.3   1 <1>  -0.0800 
  2 C       -1.2930    -1.2210    -0.8120 C.2   1 <1>   0.4420 
  3 C       -0.3960     0.9880    -0.5060 C.2   1 <1>   0.1980 
  4 N       -1.7380    -0.3570    -1.6500 N.2   1 <1>  -0.3380 
  5 N       -1.5530    -2.5660    -0.6570 N.am  1 <1>  -0.4940 
  6 N       -1.2240     0.8970    -1.4700 N.2   1 <1>  -0.3380 
  7 C        0.3930     2.1990    -0.0050 C.3   1 <1>   0.3800 
  8 C       -2.4280    -3.3810    -1.3320 C.2   1 <1>   0.5440 
  9 O        0.3560     2.2270     1.3960 O.3   1 <1>  -0.5600 
 10 C       -0.1780     3.5240    -0.5250 C.3   1 <1>  -0.2400 
 11 O       -3.2160    -2.9110    -2.1240 O.2   1 <1>  -0.5700 
 12 C       -2.4220    -4.8040    -1.0610 C.ar  1 <1>   0.0860 
 13 C        1.4400     2.8420     2.0220 C.3   1 <1>   0.0400 
 14 C       -1.2530    -5.4970    -0.7410 C.ar  1 <1>  -0.1500 
 15 C       -3.6000    -5.5480    -1.1090 C.ar  1 <1>  -0.1500 
 16 C       -1.2700    -6.8510    -0.4630 C.ar  1 <1>  -0.1500 
 17 C       -3.6160    -6.9020    -0.8330 C.ar  1 <1>  -0.1500 
 18 C       -2.4510    -7.5930    -0.4960 C.ar  1 <1>   0.0540 
 19 C       -2.4600    -9.0140    -0.1960 C.2   1 <1>   0.4620 
 20 N       -1.4310    -9.7180     0.1210 N.2   1 <1>  -0.4100 
 21 N       -3.5750    -9.7490    -0.2200 N.2   1 <1>  -0.5650 
 22 O       -1.8290   -10.9360     0.3160 O.3   1 <1>  -0.0190 
 23 C       -3.1180   -10.8890     0.0980 C.2   1 <1>   0.3930 
 24 C       -3.9210   -12.1730     0.2410 C.3   1 <1>  -0.0150 
 25 C       -5.3690   -12.1570     0.6270 C.3   1 <1>  -0.2000 
 26 C       -4.3390   -12.6590     1.5950 C.3   1 <1>  -0.2000 
 27 H       -1.0470    -3.0070     0.1040 H     1 <1>   0.3700 
 28 H        1.4150     2.0850    -0.3210 H     1 <1>   0.0800 
 29 H       -1.1880     3.6460    -0.1780 H     1 <1>   0.0800 
 30 H       -0.1890     3.5160    -1.6000 H     1 <1>   0.0800 
 31 H        0.4180     4.3560    -0.2020 H     1 <1>   0.0800 
 32 H        1.2910     2.7750     3.0850 H     1 <1>   0.0800 
 33 H        1.4880     3.8770     1.7330 H     1 <1>   0.0800 
 34 H        2.3460     2.3280     1.7530 H     1 <1>   0.0800 
 35 H       -0.3120    -4.9770    -0.7180 H     1 <1>   0.1500 
 36 H       -4.5190    -5.0480    -1.3700 H     1 <1>   0.1500 
 37 H       -0.3460    -7.3490    -0.2190 H     1 <1>   0.1500 
 38 H       -4.5500    -7.4340    -0.8800 H     1 <1>   0.1500 
 39 H       -3.6140   -12.9120    -0.4780 H     1 <1>   0.1000 
 40 H       -6.0340   -12.8610     0.1590 H     1 <1>   0.1000 
 41 H       -5.8410   -11.2080     0.8180 H     1 <1>   0.1000 
 42 H       -4.1080   -12.0570     2.4570 H     1 <1>   0.1000 
 43 H       -4.2900   -13.7140     1.8020 H     1 <1>   0.1000 
@<TRIPOS>BOND
  1   1   2  1   
  2   1   3  1   
  3   2   4  2   
  4   2   5  1   
  5   3   6  2   
  6   3   7  1   
  7   4   6  1   
  8   5   8  am  
  9   5  27  1   
 10   7   9  1   
 11   7  10  1   
 12   7  28  1   
 13   8  11  2   
 14   8  12  1   
 15   9  13  1   
 16  10  29  1   
 17  10  30  1   
 18  10  31  1   
 19  12  14  ar  
 20  12  15  ar  
 21  13  32  1   
 22  13  33  1   
 23  13  34  1   
 24  14  16  ar  
 25  14  35  1   
 26  15  17  ar  
 27  15  36  1   
 28  16  18  ar  
 29  16  37  1   
 30  17  18  ar  
 31  17  38  1   
 32  18  19  1   
 33  19  20  2   
 34  19  21  1   
 35  20  22  1   
 36  21  23  2   
 37  22  23  1   
 38  23  24  1   
 39  24  25  1   
 40  24  26  1   
 41  24  39  1   
 42  25  26  1   
 43  25  40  1   
 44  25  41  1   
 45  26  42  1   
 46  26  43  1   
@<TRIPOS>SUBSTRUCTURE
  1 ****  12 GROUP 4 **** **** 0

# MOE 2024.06 (io_trps.svl 2023.06)
