@<TRIPOS>MOLECULE
NONAME
55 58 1 0 0 
SMALL
USER_CHARGES


@<TRIPOS>ATOM
  1 O       -1.8440     1.4250    -1.1140 O.2   1 <1>  -0.5700 
  2 C       -1.3210     2.2990    -0.4270 C.2   1 <1>   0.6160 
  3 N       -0.0440     2.0790     0.0920 N.am  1 <1>  -0.4690 
  4 C       -2.0050     3.5190    -0.1240 C.2   1 <1>   0.0290 
  5 C        0.5420     3.0250     0.9140 C.2   1 <1>  -0.0290 
  6 C        0.6630     0.8180    -0.2950 C.3   1 <1>   0.1400 
  7 C       -1.4030     4.4440     0.6970 C.2   1 <1>  -0.1380 
  8 C       -3.3020     3.7060    -0.7160 C.2   1 <1>   0.6160 
  9 C       -0.1190     4.1780     1.2100 C.2   1 <1>  -0.1500 
 10 C        1.9310     2.7860     1.4920 C.3   1 <1>  -0.1020 
 11 C        1.4070     1.0240    -1.6150 C.3   1 <1>  -0.2400 
 12 C       -2.0420     5.7710     1.0930 C.3   1 <1>  -0.1020 
 13 O       -3.4480     4.5750    -1.5590 O.2   1 <1>  -0.5700 
 14 N       -4.4120     2.9940    -0.3050 N.am  1 <1>  -0.6600 
 15 C       -5.7310     3.1010    -1.0060 C.3   1 <1>   0.1400 
 16 C       -4.4250     2.0620     0.8540 C.3   1 <1>   0.1400 
 17 C       -6.8210     3.5930    -0.0360 C.3   1 <1>   0.1430 
 18 C       -5.4890     2.5160     1.8620 C.3   1 <1>  -0.1600 
 19 C       -8.1460     3.6440    -0.7760 C.ar  1 <1>   0.1670 
 20 C       -6.8720     2.6700     1.2030 C.3   1 <1>  -0.1600 
 21 C       -6.6010     5.0810     0.3490 C.3   1 <1>  -0.1600 
 22 N       -8.8830     2.6080    -1.1020 N.ar  1 <1>  -0.6200 
 23 C       -8.4940     4.9270    -1.0870 C.ar  1 <1>  -0.1440 
 24 C       -7.4640     5.9190    -0.6090 C.3   1 <1>  -0.0170 
 25 C       -9.9910     2.9190    -1.7570 C.ar  1 <1>   0.7200 
 26 C       -9.6740     5.1260    -1.7620 C.ar  1 <1>   0.1600 
 27 N      -10.4440     4.1170    -2.1010 N.ar  1 <1>  -0.6200 
 28 N      -10.7700     1.8900    -2.0930 N.pl3 1 <1>  -0.9000 
 29 H       -0.0480     0.0170    -0.4030 H     1 <1>   0.0800 
 30 H        1.3510     0.5190     0.4730 H     1 <1>   0.0800 
 31 H        0.3320     4.9190     1.8470 H     1 <1>   0.1500 
 32 H        2.6430     2.6280     0.7030 H     1 <1>   0.0800 
 33 H        1.9200     1.9300     2.1410 H     1 <1>   0.0800 
 34 H        2.2570     3.6340     2.0660 H     1 <1>   0.0800 
 35 H        0.7070     1.2560    -2.3980 H     1 <1>   0.0800 
 36 H        1.9270     0.1220    -1.8820 H     1 <1>   0.0800 
 37 H        2.1210     1.8220    -1.5290 H     1 <1>   0.0800 
 38 H       -1.9950     5.8990     2.1590 H     1 <1>   0.0800 
 39 H       -3.0730     5.8280     0.7960 H     1 <1>   0.0800 
 40 H       -1.5120     6.5810     0.6240 H     1 <1>   0.0800 
 41 H       -6.0020     2.1290    -1.3830 H     1 <1>   0.0800 
 42 H       -5.6670     3.7670    -1.8490 H     1 <1>   0.0800 
 43 H       -3.4650     2.0290     1.3380 H     1 <1>   0.0800 
 44 H       -4.6520     1.0700     0.4990 H     1 <1>   0.0800 
 45 H       -5.1810     3.4520     2.2940 H     1 <1>   0.0800 
 46 H       -5.5500     1.7960     2.6580 H     1 <1>   0.0800 
 47 H       -7.2120     1.6960     0.8920 H     1 <1>   0.0800 
 48 H       -7.5850     3.0450     1.9160 H     1 <1>   0.0800 
 49 H       -5.5670     5.3720     0.3020 H     1 <1>   0.0800 
 50 H       -6.9550     5.2480     1.3510 H     1 <1>   0.0800 
 51 H       -6.8750     6.2610    -1.4440 H     1 <1>   0.0800 
 52 H       -7.9140     6.7580    -0.1080 H     1 <1>   0.0800 
 53 H       -9.9880     6.1210    -2.0260 H     1 <1>   0.1500 
 54 H      -11.7360     2.1300    -2.2930 H     1 <1>   0.4000 
 55 H      -10.6020     1.0350    -1.5710 H     1 <1>   0.4000 
@<TRIPOS>BOND
  1   1   2  2   
  2   2   3  am  
  3   2   4  1   
  4   3   5  1   
  5   3   6  1   
  6   4   7  2   
  7   4   8  1   
  8   5   9  2   
  9   5  10  1   
 10   6  11  1   
 11   6  29  1   
 12   6  30  1   
 13   7   9  1   
 14   7  12  1   
 15   8  13  2   
 16   8  14  am  
 17   9  31  1   
 18  10  32  1   
 19  10  33  1   
 20  10  34  1   
 21  11  35  1   
 22  11  36  1   
 23  11  37  1   
 24  12  38  1   
 25  12  39  1   
 26  12  40  1   
 27  14  15  1   
 28  14  16  1   
 29  15  17  1   
 30  15  41  1   
 31  15  42  1   
 32  16  18  1   
 33  16  43  1   
 34  16  44  1   
 35  17  19  1   
 36  17  20  1   
 37  17  21  1   
 38  18  20  1   
 39  18  45  1   
 40  18  46  1   
 41  19  22  ar  
 42  19  23  ar  
 43  20  47  1   
 44  20  48  1   
 45  21  24  1   
 46  21  49  1   
 47  21  50  1   
 48  22  25  ar  
 49  23  24  1   
 50  23  26  ar  
 51  24  51  1   
 52  24  52  1   
 53  25  27  ar  
 54  25  28  1   
 55  26  27  ar  
 56  26  53  1   
 57  28  54  1   
 58  28  55  1   
@<TRIPOS>SUBSTRUCTURE
  1 ****  14 GROUP 4 **** **** 0

# MOE 2024.06 (io_trps.svl 2023.06)
