@<TRIPOS>MOLECULE
NONAME
51 53 1 0 0 
SMALL
USER_CHARGES


@<TRIPOS>ATOM
  1 O       -0.2360     0.2080     0.0310 O.2   1 <1>  -0.5700 
  2 C       -1.2810     0.8320     0.0780 C.2   1 <1>   0.7150 
  3 N       -2.4200     0.1550     0.4670 N.am  1 <1>  -0.6600 
  4 C       -1.2900     2.2350    -0.2840 C.2   1 <1>   0.0550 
  5 C       -2.5460    -1.3290     0.3380 C.3   1 <1>   0.1400 
  6 C       -3.7190     0.7950     0.8190 C.3   1 <1>   0.1400 
  7 O       -2.3070     2.7640    -0.9550 O.3   1 <1>  -0.2800 
  8 C       -0.3700     3.2000    -0.0720 C.2   1 <1>   0.0460 
  9 C       -3.7070    -1.6920    -0.6090 C.3   1 <1>   0.3440 
 10 C       -4.7960     0.3790    -0.2080 C.3   1 <1>   0.2000 
 11 C       -1.9250     4.0160    -1.0910 C.2   1 <1>   0.2980 
 12 N       -0.7940     4.3460    -0.5910 N.2   1 <1>  -0.5650 
 13 C        0.9740     3.1420     0.6270 C.3   1 <1>  -0.0590 
 14 O       -4.8840    -1.0250    -0.2260 O.3   1 <1>  -0.5600 
 15 C       -3.9530    -3.1980    -0.6060 C.ar  1 <1>  -0.1440 
 16 C       -6.2090     0.9860     0.0450 C.3   1 <1>   0.0000 
 17 C       -2.8490     4.9600    -1.8220 C.3   1 <1>  -0.0600 
 18 C       -3.3180    -4.0010    -1.5430 C.ar  1 <1>  -0.1500 
 19 C       -4.7920    -3.7910     0.3280 C.ar  1 <1>  -0.1500 
 20 C       -6.1570     2.5240     0.0030 C.3   1 <1>  -0.2400 
 21 C       -6.7920     0.5520     1.4030 C.3   1 <1>  -0.2400 
 22 C       -7.1720     0.5230    -1.0640 C.3   1 <1>  -0.2400 
 23 C       -3.5160    -5.3710    -1.5470 C.ar  1 <1>  -0.1500 
 24 C       -4.9920    -5.1600     0.3270 C.ar  1 <1>  -0.1500 
 25 C       -4.3530    -5.9520    -0.6110 C.ar  1 <1>  -0.1500 
 26 H       -1.6360    -1.7600    -0.0430 H     1 <1>   0.0800 
 27 H       -2.7310    -1.7580     1.3060 H     1 <1>   0.0800 
 28 H       -4.0140     0.4640     1.7990 H     1 <1>   0.0800 
 29 H       -3.6200     1.8630     0.8580 H     1 <1>   0.0800 
 30 H       -3.4660    -1.3770    -1.6090 H     1 <1>   0.0800 
 31 H       -4.4710     0.6970    -1.1840 H     1 <1>   0.0800 
 32 H        1.1580     2.1630     1.0290 H     1 <1>   0.0800 
 33 H        0.9940     3.8570     1.4290 H     1 <1>   0.0800 
 34 H        1.7530     3.3820    -0.0730 H     1 <1>   0.0800 
 35 H       -2.4110     5.9400    -1.8630 H     1 <1>   0.0800 
 36 H       -3.7900     5.0160    -1.3070 H     1 <1>   0.0800 
 37 H       -3.0100     4.6050    -2.8220 H     1 <1>   0.0800 
 38 H       -2.6630    -3.5640    -2.2780 H     1 <1>   0.1500 
 39 H       -5.2960    -3.1820     1.0590 H     1 <1>   0.1500 
 40 H       -7.1490     2.9350     0.0730 H     1 <1>   0.0800 
 41 H       -5.7170     2.8620    -0.9190 H     1 <1>   0.0800 
 42 H       -5.5840     2.9200     0.8220 H     1 <1>   0.0800 
 43 H       -7.7910     0.9310     1.5220 H     1 <1>   0.0800 
 44 H       -6.1980     0.9190     2.2200 H     1 <1>   0.0800 
 45 H       -6.8320    -0.5210     1.4670 H     1 <1>   0.0800 
 46 H       -8.1470     0.9570    -0.9310 H     1 <1>   0.0800 
 47 H       -7.2790    -0.5480    -1.0490 H     1 <1>   0.0800 
 48 H       -6.8010     0.8100    -2.0320 H     1 <1>   0.0800 
 49 H       -3.0200    -5.9850    -2.2770 H     1 <1>   0.1500 
 50 H       -5.6460    -5.6080     1.0550 H     1 <1>   0.1500 
 51 H       -4.5090    -7.0160    -0.6130 H     1 <1>   0.1500 
@<TRIPOS>BOND
  1   1   2  2   
  2   2   3  am  
  3   2   4  1   
  4   3   5  1   
  5   3   6  1   
  6   4   7  1   
  7   4   8  2   
  8   5   9  1   
  9   5  26  1   
 10   5  27  1   
 11   6  10  1   
 12   6  28  1   
 13   6  29  1   
 14   7  11  1   
 15   8  12  1   
 16   8  13  1   
 17   9  14  1   
 18   9  15  1   
 19   9  30  1   
 20  10  14  1   
 21  10  16  1   
 22  10  31  1   
 23  11  12  2   
 24  11  17  1   
 25  13  32  1   
 26  13  33  1   
 27  13  34  1   
 28  15  18  ar  
 29  15  19  ar  
 30  16  20  1   
 31  16  21  1   
 32  16  22  1   
 33  17  35  1   
 34  17  36  1   
 35  17  37  1   
 36  18  23  ar  
 37  18  38  1   
 38  19  24  ar  
 39  19  39  1   
 40  20  40  1   
 41  20  41  1   
 42  20  42  1   
 43  21  43  1   
 44  21  44  1   
 45  21  45  1   
 46  22  46  1   
 47  22  47  1   
 48  22  48  1   
 49  23  25  ar  
 50  23  49  1   
 51  24  25  ar  
 52  24  50  1   
 53  25  51  1   
@<TRIPOS>SUBSTRUCTURE
  1 ****   3 GROUP 4 **** **** 0

# MOE 2024.06 (io_trps.svl 2023.06)
