@<TRIPOS>MOLECULE
NONAME
56 59 1 0 0 
SMALL
USER_CHARGES


@<TRIPOS>ATOM
  1 O        1.5110     0.5400     1.4530 O.3   1 <1>  -0.6800 
  2 C        1.5210     0.1390     0.1180 C.3   1 <1>   0.2000 
  3 C        2.0750    -1.2800     0.0020 C.3   1 <1>  -0.0800 
  4 C        2.5890     0.9490    -0.6190 C.3   1 <1>   0.3430 
  5 C        3.5970    -1.1070     0.0980 C.3   1 <1>   0.3430 
  6 C        1.5160    -2.3230     0.9940 C.3   1 <1>  -0.0170 
  7 N        3.9020     0.3220    -0.2380 N.4   1 <1>  -0.9590 
  8 C        2.2960    -3.6300     0.8850 C.ar  1 <1>  -0.1440 
  9 C        4.5170     1.0070     0.9420 C.3   1 <1>   0.4860 
 10 C        2.1660    -4.5040    -0.2220 C.ar  1 <1>   0.0000 
 11 C        3.1750    -3.9830     1.8680 C.ar  1 <1>  -0.1500 
 12 C        4.7540     2.4660     0.6300 C.ar  1 <1>  -0.1440 
 13 C        3.0140    -5.6370    -0.2660 C.ar  1 <1>   0.3100 
 14 C        1.2450    -4.3270    -1.2810 C.ar  1 <1>  -0.1500 
 15 C        3.9440    -5.1460     1.7410 C.ar  1 <1>   0.1600 
 16 C        3.9340     3.4430     1.1480 C.ar  1 <1>   0.1600 
 17 C        5.7820     2.8830    -0.1850 C.ar  1 <1>   0.1600 
 18 N        3.8970    -5.9370     0.7190 N.ar  1 <1>  -0.6200 
 19 C        2.9440    -6.4980    -1.3720 C.ar  1 <1>  -0.1500 
 20 C        1.1980    -5.1890    -2.3430 C.ar  1 <1>  -0.1500 
 21 N        4.0930     4.7080     0.8610 N.ar  1 <1>  -0.6200 
 22 N        5.9620     4.1420    -0.4860 N.ar  1 <1>  -0.6200 
 23 C        2.0620    -6.2850    -2.3950 C.ar  1 <1>  -0.1500 
 24 C        5.1000     4.9990     0.0510 C.ar  1 <1>   0.7200 
 25 N        5.2230     6.3120    -0.2320 N.pl3 1 <1>  -0.8690 
 26 C        6.3980     6.9700    -0.8040 C.3   1 <1>   0.2890 
 27 C        7.1980     7.5870     0.3370 C.3   1 <1>  -0.2400 
 28 C        5.9080     8.0350    -1.7760 C.3   1 <1>  -0.2400 
 29 H        0.6660     0.2920     1.8890 H     1 <1>   0.4000 
 30 H        0.5370     0.2680    -0.3020 H     1 <1>   0.0800 
 31 H        1.8710    -1.6240    -0.9960 H     1 <1>   0.0800 
 32 H        2.5310     1.9950    -0.3680 H     1 <1>   0.0800 
 33 H        2.4370     0.8400    -1.6800 H     1 <1>   0.0800 
 34 H        4.0920    -1.7850    -0.5800 H     1 <1>   0.0800 
 35 H        3.9190    -1.3290     1.1020 H     1 <1>   0.0800 
 36 H        0.4710    -2.5020     0.8080 H     1 <1>   0.0800 
 37 H        1.5970    -1.9580     2.0030 H     1 <1>   0.0800 
 38 H        4.5510     0.3810    -1.0330 H     1 <1>   0.4500 
 39 H        3.8610     0.9260     1.7940 H     1 <1>   0.0800 
 40 H        5.4540     0.5380     1.1950 H     1 <1>   0.0800 
 41 H        3.3090    -3.3920     2.7560 H     1 <1>   0.1500 
 42 H        0.5530    -3.5080    -1.2570 H     1 <1>   0.1500 
 43 H        4.6240    -5.3950     2.5400 H     1 <1>   0.1500 
 44 H        3.1210     3.1860     1.8090 H     1 <1>   0.1500 
 45 H        6.4760     2.1760    -0.6070 H     1 <1>   0.1500 
 46 H        3.6110    -7.3410    -1.3860 H     1 <1>   0.1500 
 47 H        0.4950    -5.0440    -3.1470 H     1 <1>   0.1500 
 48 H        2.0190    -6.9540    -3.2370 H     1 <1>   0.1500 
 49 H        4.6030     6.9050     0.3140 H     1 <1>   0.4000 
 50 H        7.0090     6.2570    -1.3340 H     1 <1>   0.0800 
 51 H        6.6050     8.3040     0.8740 H     1 <1>   0.0800 
 52 H        8.0690     8.0810    -0.0530 H     1 <1>   0.0800 
 53 H        7.5220     6.8150     1.0120 H     1 <1>   0.0800 
 54 H        5.2990     8.7620    -1.2700 H     1 <1>   0.0800 
 55 H        5.3350     7.5740    -2.5600 H     1 <1>   0.0800 
 56 H        6.7470     8.5380    -2.2210 H     1 <1>   0.0800 
@<TRIPOS>BOND
  1   1   2  1   
  2   1  29  1   
  3   2   3  1   
  4   2   4  1   
  5   2  30  1   
  6   3   5  1   
  7   3   6  1   
  8   3  31  1   
  9   4   7  1   
 10   4  32  1   
 11   4  33  1   
 12   5   7  1   
 13   5  34  1   
 14   5  35  1   
 15   6   8  1   
 16   6  36  1   
 17   6  37  1   
 18   7   9  1   
 19   7  38  1   
 20   8  10  ar  
 21   8  11  ar  
 22   9  12  1   
 23   9  39  1   
 24   9  40  1   
 25  10  13  ar  
 26  10  14  ar  
 27  11  15  ar  
 28  11  41  1   
 29  12  16  ar  
 30  12  17  ar  
 31  13  18  ar  
 32  13  19  ar  
 33  14  20  ar  
 34  14  42  1   
 35  15  18  ar  
 36  15  43  1   
 37  16  21  ar  
 38  16  44  1   
 39  17  22  ar  
 40  17  45  1   
 41  19  23  ar  
 42  19  46  1   
 43  20  23  ar  
 44  20  47  1   
 45  21  24  ar  
 46  22  24  ar  
 47  23  48  1   
 48  24  25  1   
 49  25  26  1   
 50  25  49  1   
 51  26  27  1   
 52  26  28  1   
 53  26  50  1   
 54  27  51  1   
 55  27  52  1   
 56  27  53  1   
 57  28  54  1   
 58  28  55  1   
 59  28  56  1   
@<TRIPOS>SUBSTRUCTURE
  1 ****   7 GROUP 4 **** **** 0

# MOE 2024.06 (io_trps.svl 2023.06)
