@<TRIPOS>MOLECULE
NONAME
55 58 1 0 0 
SMALL
USER_CHARGES


@<TRIPOS>ATOM
  1 O       -0.5050     1.1680    -2.3620 O.co2 1 <1>  -0.9000 
  2 C       -0.3810     2.2830    -1.8230 C.2   1 <1>   0.9060 
  3 O        0.4090     3.1330    -2.2480 O.co2 1 <1>  -0.9000 
  4 C       -1.1930     2.5100    -0.5180 C.3   1 <1>   0.4600 
  5 N       -2.1120     1.3380    -0.2010 N.4   1 <1>  -0.9590 
  6 C       -1.9340     3.8480    -0.3750 C.ar  1 <1>  -0.1430 
  7 C       -3.2960     1.3220    -1.0980 C.3   1 <1>   0.3430 
  8 C       -2.4240     1.2530     1.2420 C.3   1 <1>   0.3430 
  9 C       -2.6770     4.4170    -1.4070 C.ar  1 <1>   0.0830 
 10 C       -1.8380     4.5300     0.8340 C.ar  1 <1>   0.0830 
 11 C       -4.1140     0.0610    -0.8420 C.3   1 <1>  -0.1600 
 12 C       -3.2750     0.0170     1.5260 C.3   1 <1>  -0.1600 
 13 O       -2.8150     3.7740    -2.5840 O.3   1 <1>  -0.3630 
 14 C       -3.3120     5.6370    -1.2360 C.ar  1 <1>  -0.1500 
 15 O       -1.1130     3.9620     1.8330 O.3   1 <1>  -0.3630 
 16 C       -2.4780     5.7560     1.0020 C.ar  1 <1>  -0.1500 
 17 C       -4.5260    -0.0420     0.6350 C.3   1 <1>   0.1430 
 18 C       -2.1640     4.3500    -3.6980 C.3   1 <1>   0.0400 
 19 C       -3.2120     6.3080    -0.0320 C.ar  1 <1>  -0.1500 
 20 C       -0.4610     4.7760     2.7860 C.3   1 <1>   0.0400 
 21 C       -5.2800    -1.3230     0.9290 C.ar  1 <1>  -0.1440 
 22 C       -5.5580     1.0480     1.0230 C.3   1 <1>  -0.1600 
 23 C       -6.4040    -1.0780     1.6820 C.ar  1 <1>  -0.1430 
 24 C       -4.9640    -2.6180     0.5510 C.ar  1 <1>  -0.1500 
 25 C       -6.5570     0.3890     1.9870 C.3   1 <1>  -0.0170 
 26 C       -7.2390    -2.1080     2.0730 C.ar  1 <1>  -0.1500 
 27 C       -5.7950    -3.6580     0.9370 C.ar  1 <1>  -0.1500 
 28 C       -6.9280    -3.4040     1.6950 C.ar  1 <1>  -0.1500 
 29 H       -0.4250     2.5170     0.2330 H     1 <1>   0.0800 
 30 H       -1.5360     0.5420    -0.5300 H     1 <1>   0.4500 
 31 H       -2.9700     1.3440    -2.1270 H     1 <1>   0.0800 
 32 H       -3.9030     2.1940    -0.9180 H     1 <1>   0.0800 
 33 H       -2.9600     2.1390     1.5410 H     1 <1>   0.0800 
 34 H       -1.5110     1.2090     1.8120 H     1 <1>   0.0800 
 35 H       -3.5230    -0.7910    -1.1280 H     1 <1>   0.0800 
 36 H       -4.9870     0.0680    -1.4690 H     1 <1>   0.0800 
 37 H       -3.5660     0.0160     2.5610 H     1 <1>   0.0800 
 38 H       -2.6750    -0.8610     1.3630 H     1 <1>   0.0800 
 39 H       -3.8860     6.0570    -2.0420 H     1 <1>   0.1500 
 40 H       -2.4200     6.2900     1.9320 H     1 <1>   0.1500 
 41 H       -2.0830     3.6000    -4.4650 H     1 <1>   0.0800 
 42 H       -1.1780     4.6710    -3.4080 H     1 <1>   0.0800 
 43 H       -2.7400     5.1850    -4.0510 H     1 <1>   0.0800 
 44 H       -3.7050     7.2560     0.0990 H     1 <1>   0.1500 
 45 H        0.2320     4.1630     3.3330 H     1 <1>   0.0800 
 46 H       -1.1930     5.1870     3.4590 H     1 <1>   0.0800 
 47 H        0.0710     5.5580     2.2720 H     1 <1>   0.0800 
 48 H       -6.1080     1.3490     0.1480 H     1 <1>   0.0800 
 49 H       -5.1160     1.9260     1.4580 H     1 <1>   0.0800 
 50 H       -4.0860    -2.8240    -0.0330 H     1 <1>   0.1500 
 51 H       -7.5630     0.7270     1.8110 H     1 <1>   0.0800 
 52 H       -6.2830     0.5720     3.0110 H     1 <1>   0.0800 
 53 H       -8.1170    -1.9080     2.6620 H     1 <1>   0.1500 
 54 H       -5.5600    -4.6680     0.6480 H     1 <1>   0.1500 
 55 H       -7.5690    -4.2170     1.9910 H     1 <1>   0.1500 
@<TRIPOS>BOND
  1   1   2  ar  
  2   2   3  ar  
  3   2   4  1   
  4   4   5  1   
  5   4   6  1   
  6   4  29  1   
  7   5   7  1   
  8   5   8  1   
  9   5  30  1   
 10   6   9  ar  
 11   6  10  ar  
 12   7  11  1   
 13   7  31  1   
 14   7  32  1   
 15   8  12  1   
 16   8  33  1   
 17   8  34  1   
 18   9  13  1   
 19   9  14  ar  
 20  10  15  1   
 21  10  16  ar  
 22  11  17  1   
 23  11  35  1   
 24  11  36  1   
 25  12  17  1   
 26  12  37  1   
 27  12  38  1   
 28  13  18  1   
 29  14  19  ar  
 30  14  39  1   
 31  15  20  1   
 32  16  19  ar  
 33  16  40  1   
 34  17  21  1   
 35  17  22  1   
 36  18  41  1   
 37  18  42  1   
 38  18  43  1   
 39  19  44  1   
 40  20  45  1   
 41  20  46  1   
 42  20  47  1   
 43  21  23  ar  
 44  21  24  ar  
 45  22  25  1   
 46  22  48  1   
 47  22  49  1   
 48  23  25  1   
 49  23  26  ar  
 50  24  27  ar  
 51  24  50  1   
 52  25  51  1   
 53  25  52  1   
 54  26  28  ar  
 55  26  53  1   
 56  27  28  ar  
 57  27  54  1   
 58  28  55  1   
@<TRIPOS>SUBSTRUCTURE
  1 ****   7 GROUP 4 **** **** 0

# MOE 2024.06 (io_trps.svl 2023.06)
