@<TRIPOS>MOLECULE
NONAME
47 49 1 0 0 
SMALL
USER_CHARGES


@<TRIPOS>ATOM
  1 O        0.4910     1.1420     0.1080 O.2   1 <1>  -0.5700 
  2 C        0.2900     2.3290     0.1390 C.2   1 <1>   0.5690 
  3 N       -0.8840     2.8180     0.5940 N.am  1 <1>  -0.7300 
  4 C        1.3530     3.3030    -0.3740 C.3   1 <1>   0.1810 
  5 C       -1.2220     4.2620     0.6260 C.3   1 <1>   0.3640 
  6 O        1.1590     4.6220     0.0900 O.3   1 <1>  -0.5600 
  7 C       -2.5950     4.4430    -0.0210 C.ar  1 <1>  -0.1440 
  8 C       -0.1540     5.1340    -0.0920 C.3   1 <1>   0.2610 
  9 C       -3.5460     5.2470     0.5910 C.ar  1 <1>  -0.1500 
 10 C       -2.9140     3.8210    -1.2220 C.ar  1 <1>  -0.1500 
 11 C       -0.1980     6.6000     0.3630 C.2   1 <1>   0.5690 
 12 C       -4.7920     5.4270     0.0170 C.ar  1 <1>  -0.1500 
 13 C       -4.1600     3.9990    -1.7980 C.ar  1 <1>  -0.1500 
 14 O       -0.9750     6.9660     1.2150 O.2   1 <1>  -0.5700 
 15 N        0.6740     7.4740    -0.2010 N.am  1 <1>  -0.7300 
 16 C       -5.1000     4.8030    -1.1790 C.ar  1 <1>  -0.1500 
 17 C        0.8760     8.8610     0.2420 C.3   1 <1>   0.3210 
 18 C        2.3560     9.1670     0.1460 C.2   1 <1>  -0.1810 
 19 C        3.3840     8.5590     0.8610 C.2   1 <1>   0.1080 
 20 C        2.9790    10.0720    -0.6390 C.2   1 <1>  -0.3020 
 21 N        4.5450     9.0390     0.5480 N.2   1 <1>  -0.7070 
 22 C        3.2210     7.4570     1.8870 C.3   1 <1>  -0.0590 
 23 N        4.2980     9.9810    -0.3780 N.pl3 1 <1>   0.3140 
 24 C        5.3800    10.7720    -0.9950 C.3   1 <1>   0.0960 
 25 C        5.4720    12.1700    -0.3690 C.3   1 <1>  -0.2400 
 26 H       -1.6040     2.1650     0.9060 H     1 <1>   0.3700 
 27 H        1.3390     3.3150    -1.4490 H     1 <1>   0.0800 
 28 H        2.3220     2.9780    -0.0430 H     1 <1>   0.0800 
 29 H       -1.2760     4.5590     1.6600 H     1 <1>   0.0800 
 30 H       -0.3550     5.1210    -1.1470 H     1 <1>   0.0800 
 31 H       -3.3220     5.7470     1.5190 H     1 <1>   0.1500 
 32 H       -2.1980     3.1890    -1.7180 H     1 <1>   0.1500 
 33 H       -5.5210     6.0540     0.5000 H     1 <1>   0.1500 
 34 H       -4.4000     3.5120    -2.7270 H     1 <1>   0.1500 
 35 H        1.4410     7.1170    -0.7760 H     1 <1>   0.3700 
 36 H       -6.0700     4.9420    -1.6250 H     1 <1>   0.1500 
 37 H        0.3180     9.5250    -0.3950 H     1 <1>   0.0800 
 38 H        0.5360     8.9870     1.2560 H     1 <1>   0.0800 
 39 H        2.5710    10.7630    -1.3520 H     1 <1>   0.1500 
 40 H        2.3100     7.5890     2.4390 H     1 <1>   0.0800 
 41 H        4.0490     7.4760     2.5720 H     1 <1>   0.0800 
 42 H        3.2000     6.5040     1.3920 H     1 <1>   0.0800 
 43 H        6.3050    10.2440    -0.8490 H     1 <1>   0.0800 
 44 H        5.1900    10.8460    -2.0500 H     1 <1>   0.0800 
 45 H        5.6620    12.0850     0.6870 H     1 <1>   0.0800 
 46 H        4.5560    12.7120    -0.5230 H     1 <1>   0.0800 
 47 H        6.2780    12.7200    -0.8190 H     1 <1>   0.0800 
@<TRIPOS>BOND
  1   1   2  2   
  2   2   3  am  
  3   2   4  1   
  4   3   5  1   
  5   3  26  1   
  6   4   6  1   
  7   4  27  1   
  8   4  28  1   
  9   5   7  1   
 10   5   8  1   
 11   5  29  1   
 12   6   8  1   
 13   7   9  ar  
 14   7  10  ar  
 15   8  11  1   
 16   8  30  1   
 17   9  12  ar  
 18   9  31  1   
 19  10  13  ar  
 20  10  32  1   
 21  11  14  2   
 22  11  15  am  
 23  12  16  ar  
 24  12  33  1   
 25  13  16  ar  
 26  13  34  1   
 27  15  17  1   
 28  15  35  1   
 29  16  36  1   
 30  17  18  1   
 31  17  37  1   
 32  17  38  1   
 33  18  19  1   
 34  18  20  2   
 35  19  21  2   
 36  19  22  1   
 37  20  23  1   
 38  20  39  1   
 39  21  23  1   
 40  22  40  1   
 41  22  41  1   
 42  22  42  1   
 43  23  24  1   
 44  24  25  1   
 45  24  43  1   
 46  24  44  1   
 47  25  45  1   
 48  25  46  1   
 49  25  47  1   
@<TRIPOS>SUBSTRUCTURE
  1 ****  11 GROUP 4 **** **** 0

# MOE 2024.06 (io_trps.svl 2023.06)
