@<TRIPOS>MOLECULE
NONAME
43 45 1 0 0 
SMALL
USER_CHARGES


@<TRIPOS>ATOM
  1 CL      -2.7770     0.6780    -2.2200 Cl    1 <1>  -0.1770 
  2 C       -3.0670    -0.4480    -0.9140 C.ar  1 <1>   0.1770 
  3 C       -3.3120     0.0210     0.3690 C.ar  1 <1>  -0.1440 
  4 C       -3.0480    -1.7960    -1.2110 C.ar  1 <1>  -0.1500 
  5 C       -3.5250    -0.9350     1.3540 C.ar  1 <1>   0.1770 
  6 C       -3.3330     1.5230     0.6460 C.3   1 <1>  -0.0960 
  7 C       -3.2870    -2.7500    -0.2240 C.ar  1 <1>   0.0860 
  8 CL      -3.8410    -0.4740     3.0100 Cl    1 <1>  -0.1770 
  9 C       -3.5020    -2.2870     1.0720 C.ar  1 <1>  -0.1500 
 10 C       -3.3020    -4.1650    -0.5390 C.2   1 <1>   0.5440 
 11 O       -2.3560    -4.6380    -1.1390 O.2   1 <1>  -0.5700 
 12 N       -4.3340    -5.0040    -0.1640 N.am  1 <1>  -0.6600 
 13 C       -5.7940    -4.7410    -0.3500 C.3   1 <1>   0.2200 
 14 C       -4.0280    -6.4410     0.0910 C.3   1 <1>   0.0600 
 15 C       -6.4590    -4.1860     0.9030 C.3   1 <1>  -0.1600 
 16 C       -6.1660    -3.7560    -1.4580 C.3   1 <1>  -0.1600 
 17 C       -7.7740    -3.5670     0.4110 C.3   1 <1>  -0.0800 
 18 C       -7.5860    -3.2960    -1.1040 C.3   1 <1>  -0.0800 
 19 C       -8.2100    -2.3520     1.2550 C.3   1 <1>   0.1400 
 20 C       -7.8710    -1.8410    -1.5320 C.3   1 <1>  -0.0990 
 21 N       -9.2020    -1.5590     0.5020 N.am  1 <1>  -0.7300 
 22 C       -9.0890    -1.2970    -0.8170 C.2   1 <1>   0.5690 
 23 O       -9.9140    -0.6480    -1.4050 O.2   1 <1>  -0.5700 
 24 H       -2.8470    -2.1180    -2.2180 H     1 <1>   0.1500 
 25 H       -4.0750     1.9980     0.0290 H     1 <1>   0.0800 
 26 H       -2.3730     1.9490     0.4150 H     1 <1>   0.0800 
 27 H       -3.5600     1.7490     1.6700 H     1 <1>   0.0800 
 28 H       -3.6510    -2.9960     1.8670 H     1 <1>   0.1500 
 29 H       -6.2810    -5.6720    -0.5910 H     1 <1>   0.0800 
 30 H       -4.6230    -6.8060     0.9100 H     1 <1>   0.0800 
 31 H       -2.9880    -6.5620     0.3430 H     1 <1>   0.0800 
 32 H       -4.2370    -7.0190    -0.7920 H     1 <1>   0.0800 
 33 H       -6.6340    -4.9600     1.6300 H     1 <1>   0.0800 
 34 H       -5.8440    -3.4240     1.3370 H     1 <1>   0.0800 
 35 H       -5.5180    -2.9060    -1.4570 H     1 <1>   0.0800 
 36 H       -6.1320    -4.2260    -2.4250 H     1 <1>   0.0800 
 37 H       -8.5450    -4.3140     0.5080 H     1 <1>   0.0800 
 38 H       -8.2850    -3.9290    -1.6260 H     1 <1>   0.0800 
 39 H       -7.3640    -1.7200     1.4680 H     1 <1>   0.0800 
 40 H       -8.6350    -2.6820     2.1870 H     1 <1>   0.0800 
 41 H       -8.0260    -1.7900    -2.5950 H     1 <1>   0.0800 
 42 H       -7.0440    -1.2030    -1.2820 H     1 <1>   0.0800 
 43 H      -10.0040    -1.1630     0.9970 H     1 <1>   0.3700 
@<TRIPOS>BOND
  1   1   2  1   
  2   2   3  ar  
  3   2   4  ar  
  4   3   5  ar  
  5   3   6  1   
  6   4   7  ar  
  7   4  24  1   
  8   5   8  1   
  9   5   9  ar  
 10   6  25  1   
 11   6  26  1   
 12   6  27  1   
 13   7   9  ar  
 14   7  10  1   
 15   9  28  1   
 16  10  11  2   
 17  10  12  am  
 18  12  13  1   
 19  12  14  1   
 20  13  15  1   
 21  13  16  1   
 22  13  29  1   
 23  14  30  1   
 24  14  31  1   
 25  14  32  1   
 26  15  17  1   
 27  15  33  1   
 28  15  34  1   
 29  16  18  1   
 30  16  35  1   
 31  16  36  1   
 32  17  18  1   
 33  17  19  1   
 34  17  37  1   
 35  18  20  1   
 36  18  38  1   
 37  19  21  1   
 38  19  39  1   
 39  19  40  1   
 40  20  22  1   
 41  20  41  1   
 42  20  42  1   
 43  21  22  am  
 44  21  43  1   
 45  22  23  2   
@<TRIPOS>SUBSTRUCTURE
  1 ****   7 GROUP 4 **** **** 0

# MOE 2024.06 (io_trps.svl 2023.06)
