@<TRIPOS>MOLECULE
NONAME
39 40 1 0 0 
SMALL
USER_CHARGES


@<TRIPOS>ATOM
  1 O       -2.3900     0.9820    -2.7170 O.2   1 <1>  -0.5700 
  2 C       -2.0050     1.0160    -1.5730 C.2   1 <1>   0.5690 
  3 N       -2.0040    -0.0870    -0.7840 N.am  1 <1>  -0.7300 
  4 C       -1.5060     2.3380    -0.9910 C.3   1 <1>   0.1810 
  5 C       -2.4630    -1.4380    -1.1700 C.3   1 <1>   0.2200 
  6 O       -1.2080     2.2240     0.3820 O.3   1 <1>  -0.5600 
  7 C       -3.7300    -1.7710    -0.4030 C.3   1 <1>  -0.0800 
  8 C       -1.4810    -2.4920    -0.6570 C.3   1 <1>   0.1200 
  9 C       -0.7520     3.4000     0.9590 C.3   1 <1>   0.1200 
 10 C       -3.1590    -2.2990     0.9130 C.3   1 <1>   0.1200 
 11 C       -4.5730    -2.8300    -1.1390 C.3   1 <1>  -0.0160 
 12 O       -1.9400    -2.9040     0.5990 O.3   1 <1>  -0.5600 
 13 C       -0.4760     3.1110     2.4290 C.3   1 <1>  -0.2400 
 14 C       -5.8450    -3.1590    -0.3730 C.ar  1 <1>  -0.1440 
 15 C       -5.9880    -4.3310     0.3430 C.ar  1 <1>  -0.1500 
 16 C       -6.9250    -2.3000    -0.3560 C.ar  1 <1>  -0.1500 
 17 C       -7.1680    -4.5770     1.0250 C.ar  1 <1>   0.1600 
 18 C       -8.0610    -2.6410     0.3590 C.ar  1 <1>   0.1600 
 19 N       -8.2080    -3.7590     1.0520 N.ar  1 <1>  -0.6200 
 20 H       -1.6720     0.0320     0.1790 H     1 <1>   0.3700 
 21 H       -2.2670     3.0860    -1.1180 H     1 <1>   0.0800 
 22 H       -0.6150     2.6360    -1.5140 H     1 <1>   0.0800 
 23 H       -2.5890    -1.4920    -2.2390 H     1 <1>   0.0800 
 24 H       -4.3330    -0.8950    -0.2410 H     1 <1>   0.0800 
 25 H       -0.4800    -2.1100    -0.5660 H     1 <1>   0.0800 
 26 H       -1.4840    -3.3540    -1.2990 H     1 <1>   0.0800 
 27 H        0.1510     3.7090     0.4570 H     1 <1>   0.0800 
 28 H       -1.5100     4.1580     0.8560 H     1 <1>   0.0800 
 29 H       -3.7950    -3.0150     1.4020 H     1 <1>   0.0800 
 30 H       -2.9530    -1.4860     1.5880 H     1 <1>   0.0800 
 31 H       -3.9980    -3.7280    -1.2850 H     1 <1>   0.0800 
 32 H       -4.8430    -2.4570    -2.1110 H     1 <1>   0.0800 
 33 H        0.2730     2.3450     2.5200 H     1 <1>   0.0800 
 34 H       -1.3790     2.7910     2.9180 H     1 <1>   0.0800 
 35 H       -0.1190     4.0000     2.9140 H     1 <1>   0.0800 
 36 H       -5.1930    -5.0530     0.3780 H     1 <1>   0.1500 
 37 H       -6.8930    -1.3680    -0.8910 H     1 <1>   0.1500 
 38 H       -7.2610    -5.4960     1.5780 H     1 <1>   0.1500 
 39 H       -8.8920    -1.9570     0.3620 H     1 <1>   0.1500 
@<TRIPOS>BOND
  1   1   2  2   
  2   2   3  am  
  3   2   4  1   
  4   3   5  1   
  5   3  20  1   
  6   4   6  1   
  7   4  21  1   
  8   4  22  1   
  9   5   7  1   
 10   5   8  1   
 11   5  23  1   
 12   6   9  1   
 13   7  10  1   
 14   7  11  1   
 15   7  24  1   
 16   8  12  1   
 17   8  25  1   
 18   8  26  1   
 19   9  13  1   
 20   9  27  1   
 21   9  28  1   
 22  10  12  1   
 23  10  29  1   
 24  10  30  1   
 25  11  14  1   
 26  11  31  1   
 27  11  32  1   
 28  13  33  1   
 29  13  34  1   
 30  13  35  1   
 31  14  15  ar  
 32  14  16  ar  
 33  15  17  ar  
 34  15  36  1   
 35  16  18  ar  
 36  16  37  1   
 37  17  19  ar  
 38  17  38  1   
 39  18  19  ar  
 40  18  39  1   
@<TRIPOS>SUBSTRUCTURE
  1 ****   7 GROUP 4 **** **** 0

# MOE 2024.06 (io_trps.svl 2023.06)
