@<TRIPOS>MOLECULE
NONAME
55 57 1 0 0 
SMALL
USER_CHARGES


@<TRIPOS>ATOM
  1 O        0.0490     0.0190    -0.0540 O.2   1 <1>  -0.5700 
  2 C        1.1740    -0.3710     0.1470 C.2   1 <1>   0.5690 
  3 N        2.2610     0.4590     0.1930 N.am  1 <1>  -0.4940 
  4 C        1.4240    -1.8600     0.3650 C.3   1 <1>  -0.0190 
  5 C        2.4110     1.8560     0.0380 C.2   1 <1>  -0.0880 
  6 C        0.3450    -2.7200    -0.3140 C.3   1 <1>   0.1100 
  7 C        1.5100    -2.1920     1.8660 C.3   1 <1>  -0.1600 
  8 N        1.5160     2.8510     0.2920 N.pl3 1 <1>   0.3140 
  9 C        3.5590     2.4620    -0.3780 C.2   1 <1>  -0.0540 
 10 N        0.6170    -4.1550    -0.1070 N.3   1 <1>  -0.8100 
 11 C        1.6750    -3.7050     2.0690 C.3   1 <1>  -0.1600 
 12 N        2.0510     4.0690     0.0520 N.2   1 <1>  -0.7070 
 13 C        0.1580     2.7630     0.8430 C.3   1 <1>   0.0160 
 14 C        4.7960     1.8350    -0.7800 C.ar  1 <1>   0.0540 
 15 C        3.2580     3.8270    -0.3420 C.2   1 <1>   0.1080 
 16 C        0.5890    -4.4890     1.3280 C.3   1 <1>   0.1100 
 17 C       -0.3780    -4.9810    -0.8570 C.3   1 <1>   0.1710 
 18 C        5.9910     1.9930    -0.0650 C.ar  1 <1>   0.0830 
 19 C        4.8070     1.0340    -1.9170 C.ar  1 <1>  -0.1500 
 20 C        4.2150     4.9360    -0.7180 C.3   1 <1>  -0.0590 
 21 C       -0.0170    -6.4670    -0.9840 C.2   1 <1>   0.5690 
 22 O        5.9590     2.7730     1.0490 O.3   1 <1>  -0.3630 
 23 C        7.1520     1.3570    -0.4970 C.ar  1 <1>  -0.1500 
 24 C        5.9610     0.4030    -2.3430 C.ar  1 <1>  -0.1500 
 25 O       -0.8850    -7.2940    -1.1060 O.2   1 <1>  -0.5700 
 26 N        1.2780    -6.8360    -0.9620 N.am  1 <1>  -0.8000 
 27 C        7.1100     3.0260     1.8230 C.3   1 <1>   0.0400 
 28 C        7.1350     0.5640    -1.6310 C.ar  1 <1>  -0.1500 
 29 H        3.1560    -0.0240     0.2850 H     1 <1>   0.3700 
 30 H        2.3620    -2.1070    -0.1000 H     1 <1>   0.0800 
 31 H        0.3390    -2.5010    -1.3690 H     1 <1>   0.0800 
 32 H       -0.6250    -2.4710     0.0860 H     1 <1>   0.0800 
 33 H        0.6060    -1.8660     2.3520 H     1 <1>   0.0800 
 34 H        2.3370    -1.6720     2.3170 H     1 <1>   0.0800 
 35 H        1.6260    -3.9350     3.1190 H     1 <1>   0.0800 
 36 H        2.6380    -4.0210     1.7080 H     1 <1>   0.0800 
 37 H        0.1310     2.0100     1.6060 H     1 <1>   0.0800 
 38 H       -0.5230     2.5110     0.0520 H     1 <1>   0.0800 
 39 H       -0.1140     3.7130     1.2630 H     1 <1>   0.0800 
 40 H        0.7630    -5.5430     1.4650 H     1 <1>   0.0800 
 41 H       -0.3790    -4.2520     1.7400 H     1 <1>   0.0800 
 42 H       -0.4690    -4.6000    -1.8580 H     1 <1>   0.0800 
 43 H       -1.3440    -4.9030    -0.3890 H     1 <1>   0.0800 
 44 H        3.8940     0.9130    -2.4750 H     1 <1>   0.1500 
 45 H        4.8860     4.6050    -1.4870 H     1 <1>   0.0800 
 46 H        4.7810     5.2240     0.1480 H     1 <1>   0.0800 
 47 H        3.6630     5.7850    -1.0750 H     1 <1>   0.0800 
 48 H        8.0780     1.4640     0.0330 H     1 <1>   0.1500 
 49 H        5.9460    -0.2110    -3.2270 H     1 <1>   0.1500 
 50 H        1.5490    -7.8150    -1.0300 H     1 <1>   0.3700 
 51 H        2.0040    -6.1370    -0.7890 H     1 <1>   0.3700 
 52 H        6.8310     3.6760     2.6320 H     1 <1>   0.0800 
 53 H        7.8470     3.5070     1.2050 H     1 <1>   0.0800 
 54 H        7.4800     2.0950     2.2140 H     1 <1>   0.0800 
 55 H        8.0360     0.0750    -1.9610 H     1 <1>   0.1500 
@<TRIPOS>BOND
  1   1   2  2   
  2   2   3  am  
  3   2   4  1   
  4   3   5  1   
  5   3  29  1   
  6   4   6  1   
  7   4   7  1   
  8   4  30  1   
  9   5   8  1   
 10   5   9  2   
 11   6  10  1   
 12   6  31  1   
 13   6  32  1   
 14   7  11  1   
 15   7  33  1   
 16   7  34  1   
 17   8  12  1   
 18   8  13  1   
 19   9  14  1   
 20   9  15  1   
 21  10  16  1   
 22  10  17  1   
 23  11  16  1   
 24  11  35  1   
 25  11  36  1   
 26  12  15  2   
 27  13  37  1   
 28  13  38  1   
 29  13  39  1   
 30  14  18  ar  
 31  14  19  ar  
 32  15  20  1   
 33  16  40  1   
 34  16  41  1   
 35  17  21  1   
 36  17  42  1   
 37  17  43  1   
 38  18  22  1   
 39  18  23  ar  
 40  19  24  ar  
 41  19  44  1   
 42  20  45  1   
 43  20  46  1   
 44  20  47  1   
 45  21  25  2   
 46  21  26  am  
 47  22  27  1   
 48  23  28  ar  
 49  23  48  1   
 50  24  28  ar  
 51  24  49  1   
 52  26  50  1   
 53  26  51  1   
 54  27  52  1   
 55  27  53  1   
 56  27  54  1   
 57  28  55  1   
@<TRIPOS>SUBSTRUCTURE
  1 ****   3 GROUP 4 **** **** 0

# MOE 2024.06 (io_trps.svl 2023.06)
