@<TRIPOS>MOLECULE
NONAME
43 45 1 0 0 
SMALL
USER_CHARGES


@<TRIPOS>ATOM
  1 S        2.0900     0.0440     0.1270 S.3   1 <1>  -0.0800 
  2 C        1.5700     1.7180    -0.0060 C.2   1 <1>  -0.1400 
  3 C        0.7890    -0.4930    -0.9210 C.2   1 <1>  -0.1100 
  4 C        0.4860     1.8080    -0.8020 C.2   1 <1>  -0.1500 
  5 C        2.3850     2.7560     0.7530 C.3   1 <1>   0.3800 
  6 C        0.0410     0.5510    -1.3210 C.2   1 <1>  -0.1500 
  7 O        1.6620     3.9570     0.8440 O.3   1 <1>  -0.5600 
  8 C        3.7180     3.0280     0.0320 C.3   1 <1>   0.2090 
  9 C        0.6640     3.9660     1.8180 C.3   1 <1>   0.0400 
 10 N        4.4170     4.2190     0.5940 N.pl3 1 <1>  -0.8690 
 11 C        5.3750     4.8500    -0.1500 C.ar  1 <1>   0.4100 
 12 N        5.1220     6.1230    -0.3600 N.ar  1 <1>  -0.6200 
 13 C        6.5170     4.2020    -0.6400 C.ar  1 <1>   0.1600 
 14 C        6.0530     6.7510    -1.1000 C.ar  1 <1>   0.3960 
 15 N        7.4490     4.7780    -1.3700 N.ar  1 <1>  -0.6200 
 16 C        5.9320     8.1740    -1.4410 C.2   1 <1>   0.5440 
 17 C        7.1740     6.0600    -1.5790 C.ar  1 <1>   0.1600 
 18 O        6.5500     8.5990    -2.4050 O.2   1 <1>  -0.5700 
 19 N        5.1760     9.0980    -0.7350 N.am  1 <1>  -0.6600 
 20 C        5.1760    10.5420    -1.0620 C.3   1 <1>   0.1400 
 21 C        4.3780     8.8400     0.4870 C.3   1 <1>   0.1400 
 22 C        4.6690    11.2250     0.2010 C.3   1 <1>  -0.1600 
 23 C        3.7670    10.1870     0.8600 C.3   1 <1>  -0.1600 
 24 H        0.7220    -1.5460    -1.1290 H     1 <1>   0.1500 
 25 H       -0.0250     2.7230    -1.0500 H     1 <1>   0.1500 
 26 H        2.5930     2.4060     1.7490 H     1 <1>   0.0800 
 27 H       -0.8170     0.4950    -1.9680 H     1 <1>   0.1500 
 28 H        3.5160     3.1920    -1.0130 H     1 <1>   0.0800 
 29 H        4.3500     2.1620     0.1200 H     1 <1>   0.0800 
 30 H        0.1640     4.9180     1.7750 H     1 <1>   0.0800 
 31 H        1.1120     3.8380     2.7880 H     1 <1>   0.0800 
 32 H       -0.0430     3.1790     1.6220 H     1 <1>   0.0800 
 33 H        3.7000     4.9010     0.8780 H     1 <1>   0.4000 
 34 H        6.6420     3.1630    -0.4000 H     1 <1>   0.1500 
 35 H        7.8880     6.6060    -2.1720 H     1 <1>   0.1500 
 36 H        4.5020    10.7130    -1.8840 H     1 <1>   0.0800 
 37 H        6.1630    10.8810    -1.3270 H     1 <1>   0.0800 
 38 H        5.0290     8.4870     1.2690 H     1 <1>   0.0800 
 39 H        3.6080     8.1120     0.2960 H     1 <1>   0.0800 
 40 H        4.1500    12.1410    -0.0200 H     1 <1>   0.0800 
 41 H        5.5070    11.4400     0.8410 H     1 <1>   0.0800 
 42 H        3.7030    10.3140     1.9260 H     1 <1>   0.0800 
 43 H        2.7770    10.2460     0.4410 H     1 <1>   0.0800 
@<TRIPOS>BOND
  1   1   2  1   
  2   1   3  1   
  3   2   4  2   
  4   2   5  1   
  5   3   6  2   
  6   3  24  1   
  7   4   6  1   
  8   4  25  1   
  9   5   7  1   
 10   5   8  1   
 11   5  26  1   
 12   6  27  1   
 13   7   9  1   
 14   8  10  1   
 15   8  28  1   
 16   8  29  1   
 17   9  30  1   
 18   9  31  1   
 19   9  32  1   
 20  10  11  1   
 21  10  33  1   
 22  11  12  ar  
 23  11  13  ar  
 24  12  14  ar  
 25  13  15  ar  
 26  13  34  1   
 27  14  16  1   
 28  14  17  ar  
 29  15  17  ar  
 30  16  18  2   
 31  16  19  am  
 32  17  35  1   
 33  19  20  1   
 34  19  21  1   
 35  20  22  1   
 36  20  36  1   
 37  20  37  1   
 38  21  23  1   
 39  21  38  1   
 40  21  39  1   
 41  22  23  1   
 42  22  40  1   
 43  22  41  1   
 44  23  42  1   
 45  23  43  1   
@<TRIPOS>SUBSTRUCTURE
  1 ****  12 GROUP 4 **** **** 0

# MOE 2024.06 (io_trps.svl 2023.06)
