@<TRIPOS>MOLECULE
NONAME
47 48 1 0 0 
SMALL
USER_CHARGES


@<TRIPOS>ATOM
  1 S        0.9810     0.4650    -1.9190 S.o2  1 <1>   1.3330 
  2 O        1.0630    -0.9780    -1.9620 O.2   1 <1>  -0.6500 
  3 O        0.5600     1.1920    -3.0950 O.2   1 <1>  -0.6500 
  4 N       -0.0830     0.8870    -0.6630 N.am  1 <1>  -0.8490 
  5 C        2.5690     1.0950    -1.3710 C.3   1 <1>  -0.0550 
  6 C       -0.5110     2.2900    -0.7120 C.3   1 <1>   0.1160 
  7 C       -1.2590     0.0120    -0.6220 C.3   1 <1>   0.1160 
  8 C        3.1680     0.3460    -0.1590 C.3   1 <1>  -0.0800 
  9 C        4.5750     0.7780     0.2260 C.3   1 <1>   0.2200 
 10 C        2.3950     0.5110     1.1540 C.3   1 <1>   0.1200 
 11 N        4.7010     2.2510     0.1710 N.am  1 <1>  -0.7300 
 12 C        4.6240     0.3260     1.6780 C.3   1 <1>   0.1200 
 13 O        3.3430     0.5570     2.1820 O.3   1 <1>  -0.5600 
 14 C        5.3060     2.9880    -0.8040 C.2   1 <1>   0.7160 
 15 O        5.8500     2.3970    -1.7220 O.2   1 <1>  -0.5700 
 16 C        5.2510     4.4390    -0.7350 C.2   1 <1>   0.2030 
 17 N        4.5800     5.1350     0.1680 N.2   1 <1>  -0.7070 
 18 C        5.8980     5.3030    -1.6250 C.2   1 <1>  -0.1500 
 19 N        4.7940     6.4250    -0.1350 N.pl3 1 <1>   0.3140 
 20 C        5.5880     6.5480    -1.2180 C.2   1 <1>  -0.3020 
 21 C        4.1890     7.5290     0.6620 C.3   1 <1>   0.1760 
 22 C        3.1880     8.3240    -0.1890 C.3   1 <1>  -0.2400 
 23 C        5.2740     8.4490     1.2390 C.3   1 <1>  -0.2400 
 24 H        3.2620     1.0110    -2.1860 H     1 <1>   0.0800 
 25 H        2.4720     2.1380    -1.1440 H     1 <1>   0.0800 
 26 H       -1.1140     2.5220     0.1500 H     1 <1>   0.0800 
 27 H       -1.0880     2.4780    -1.6040 H     1 <1>   0.0800 
 28 H        0.3450     2.9420    -0.7110 H     1 <1>   0.0800 
 29 H       -1.9060     0.2940     0.1910 H     1 <1>   0.0800 
 30 H       -0.9530    -1.0090    -0.4690 H     1 <1>   0.0800 
 31 H       -1.8040     0.0750    -1.5500 H     1 <1>   0.0800 
 32 H        3.1970    -0.7050    -0.3880 H     1 <1>   0.0800 
 33 H        5.3360     0.3080    -0.3740 H     1 <1>   0.0800 
 34 H        1.7220    -0.3110     1.3310 H     1 <1>   0.0800 
 35 H        1.8490     1.4380     1.1810 H     1 <1>   0.0800 
 36 H        4.2470     2.7750     0.9270 H     1 <1>   0.3700 
 37 H        5.3470     0.8690     2.2610 H     1 <1>   0.0800 
 38 H        4.8160    -0.7310     1.7430 H     1 <1>   0.0800 
 39 H        6.5080     4.9900    -2.4550 H     1 <1>   0.1500 
 40 H        5.8810     7.4970    -1.6280 H     1 <1>   0.1500 
 41 H        3.6580     7.0750     1.4800 H     1 <1>   0.0800 
 42 H        3.6840     8.8080    -1.0110 H     1 <1>   0.0800 
 43 H        2.7090     9.0750     0.4130 H     1 <1>   0.0800 
 44 H        2.4290     7.6640    -0.5730 H     1 <1>   0.0800 
 45 H        5.8160     8.9440     0.4520 H     1 <1>   0.0800 
 46 H        5.9620     7.8750     1.8350 H     1 <1>   0.0800 
 47 H        4.8260     9.1970     1.8670 H     1 <1>   0.0800 
@<TRIPOS>BOND
  1   1   2  2   
  2   1   3  2   
  3   1   4  am  
  4   1   5  1   
  5   4   6  1   
  6   4   7  1   
  7   5   8  1   
  8   5  24  1   
  9   5  25  1   
 10   6  26  1   
 11   6  27  1   
 12   6  28  1   
 13   7  29  1   
 14   7  30  1   
 15   7  31  1   
 16   8   9  1   
 17   8  10  1   
 18   8  32  1   
 19   9  11  1   
 20   9  12  1   
 21   9  33  1   
 22  10  13  1   
 23  10  34  1   
 24  10  35  1   
 25  11  14  am  
 26  11  36  1   
 27  12  13  1   
 28  12  37  1   
 29  12  38  1   
 30  14  15  2   
 31  14  16  1   
 32  16  17  2   
 33  16  18  1   
 34  17  19  1   
 35  18  20  2   
 36  18  39  1   
 37  19  20  1   
 38  19  21  1   
 39  20  40  1   
 40  21  22  1   
 41  21  23  1   
 42  21  41  1   
 43  22  42  1   
 44  22  43  1   
 45  22  44  1   
 46  23  45  1   
 47  23  46  1   
 48  23  47  1   
@<TRIPOS>SUBSTRUCTURE
  1 ****  11 GROUP 4 **** **** 0

# MOE 2024.06 (io_trps.svl 2023.06)
