@<TRIPOS>MOLECULE
NONAME
36 37 1 0 0 
SMALL
USER_CHARGES


@<TRIPOS>ATOM
  1 O       -2.6060    -1.0120    -2.2370 O.2   1 <1>  -0.5700 
  2 C       -2.5270    -1.2640    -1.0430 C.2   1 <1>   0.5410 
  3 C       -1.9680    -0.3840    -0.0420 C.2   1 <1>   0.0910 
  4 C       -3.0120    -2.5060    -0.5460 C.2   1 <1>  -0.1360 
  5 O       -1.4520     0.8540    -0.3290 O.3   1 <1>  -0.3570 
  6 C       -1.9540    -0.7760     1.2550 C.2   1 <1>  -0.0730 
  7 C       -2.9570    -2.8180     0.7730 C.2   1 <1>  -0.0610 
  8 C       -0.7490     1.0540    -1.5380 C.3   1 <1>   0.0400 
  9 O       -2.4320    -1.9620     1.6540 O.3   1 <1>  -0.1530 
 10 C       -3.4450    -4.1150     1.4080 C.3   1 <1>   0.2480 
 11 N       -4.3110    -4.8900     0.5010 N.3   1 <1>  -0.8100 
 12 C       -4.3720    -6.3060     0.9230 C.3   1 <1>   0.2900 
 13 C       -5.6580    -4.2970     0.4170 C.3   1 <1>   0.0300 
 14 C       -5.1960    -7.1650    -0.0250 C.2   1 <1>  -0.0400 
 15 O       -6.4810    -7.3490     0.2190 O.3   1 <1>  -0.2800 
 16 C       -4.8300    -7.8320    -1.1410 C.2   1 <1>  -0.1500 
 17 C       -6.9620    -8.1270    -0.7280 C.2   1 <1>  -0.0400 
 18 C       -5.9910    -8.4630    -1.6040 C.2   1 <1>  -0.1500 
 19 C       -8.4280    -8.4950    -0.6880 C.3   1 <1>  -0.0600 
 20 H       -3.4210    -3.1780    -1.2770 H     1 <1>   0.1500 
 21 H       -1.5610    -0.1680     2.0510 H     1 <1>   0.1500 
 22 H       -0.1660     1.9520    -1.4420 H     1 <1>   0.0800 
 23 H       -1.4560     1.1670    -2.3400 H     1 <1>   0.0800 
 24 H       -0.1030     0.2120    -1.7180 H     1 <1>   0.0800 
 25 H       -3.9810    -3.8950     2.3160 H     1 <1>   0.0800 
 26 H       -2.5770    -4.6960     1.6680 H     1 <1>   0.0800 
 27 H       -4.7830    -6.3830     1.9150 H     1 <1>   0.0800 
 28 H       -3.3730    -6.7030     0.9420 H     1 <1>   0.0800 
 29 H       -5.5960    -3.2500     0.1770 H     1 <1>   0.0800 
 30 H       -6.1820    -4.4100     1.3510 H     1 <1>   0.0800 
 31 H       -6.2260    -4.7790    -0.3600 H     1 <1>   0.0800 
 32 H       -3.8620    -7.8830    -1.6050 H     1 <1>   0.1500 
 33 H       -6.0570    -9.0800    -2.4820 H     1 <1>   0.1500 
 34 H       -8.6460    -9.0130     0.2280 H     1 <1>   0.0800 
 35 H       -8.6750    -9.1300    -1.5190 H     1 <1>   0.0800 
 36 H       -9.0260    -7.6030    -0.7360 H     1 <1>   0.0800 
@<TRIPOS>BOND
  1   1   2  2   
  2   2   3  1   
  3   2   4  1   
  4   3   5  1   
  5   3   6  2   
  6   4   7  2   
  7   4  20  1   
  8   5   8  1   
  9   6   9  1   
 10   6  21  1   
 11   7   9  1   
 12   7  10  1   
 13   8  22  1   
 14   8  23  1   
 15   8  24  1   
 16  10  11  1   
 17  10  25  1   
 18  10  26  1   
 19  11  12  1   
 20  11  13  1   
 21  12  14  1   
 22  12  27  1   
 23  12  28  1   
 24  13  29  1   
 25  13  30  1   
 26  13  31  1   
 27  14  15  1   
 28  14  16  2   
 29  15  17  1   
 30  16  18  1   
 31  16  32  1   
 32  17  18  2   
 33  17  19  1   
 34  18  33  1   
 35  19  34  1   
 36  19  35  1   
 37  19  36  1   
@<TRIPOS>SUBSTRUCTURE
  1 ****  11 GROUP 4 **** **** 0

# MOE 2024.06 (io_trps.svl 2023.06)
