@<TRIPOS>MOLECULE
NONAME
52 55 1 0 0 
SMALL
USER_CHARGES


@<TRIPOS>ATOM
  1 O       -1.4890     0.5710    -1.9180 O.2   1 <1>  -0.5700 
  2 C       -1.4690     0.6510    -0.7150 C.2   1 <1>   0.5690 
  3 N       -1.6060    -0.4370     0.0780 N.am  1 <1>  -0.7300 
  4 C       -1.2850     1.9990    -0.0660 C.3   1 <1>  -0.0990 
  5 C       -1.7520    -1.8290    -0.4060 C.3   1 <1>   0.2200 
  6 C        0.2010     2.3180     0.1040 C.3   1 <1>   0.0210 
  7 C       -3.1840    -2.3230    -0.2490 C.3   1 <1>  -0.0800 
  8 C       -1.0280    -2.7630     0.5540 C.3   1 <1>   0.1200 
  9 C        0.3690     3.6380     0.8240 C.2   1 <1>   0.1080 
 10 C       -3.2270    -2.8020     1.2060 C.3   1 <1>   0.1200 
 11 C       -4.2880    -1.3150    -0.6190 C.3   1 <1>  -0.0170 
 12 O       -1.9000    -2.9230     1.6320 O.3   1 <1>  -0.5600 
 13 N        0.2830     3.7400     2.1160 N.2   1 <1>  -0.7070 
 14 C        0.6170     4.8670     0.2190 C.2   1 <1>  -0.1810 
 15 C       -5.6640    -1.9540    -0.5100 C.ar  1 <1>  -0.1440 
 16 N        0.4840     5.0490     2.3700 N.pl3 1 <1>   0.3000 
 17 C        0.6890     5.7450     1.2340 C.2   1 <1>  -0.3320 
 18 C        0.7870     5.2450    -1.2400 C.3   1 <1>   0.0210 
 19 C       -6.1770    -2.7450    -1.5180 C.ar  1 <1>  -0.1500 
 20 C       -6.4690    -1.7810     0.5970 C.ar  1 <1>  -0.1500 
 21 C        0.9410     7.2340     1.0930 C.3   1 <1>   0.0200 
 22 C        0.6560     6.7710    -1.4080 C.3   1 <1>  -0.1600 
 23 C       -7.4320    -3.3130    -1.3720 C.ar  1 <1>   0.1600 
 24 C       -7.7100    -2.3940     0.6440 C.ar  1 <1>   0.1600 
 25 C        1.4460     7.5410    -0.3300 C.3   1 <1>  -0.1600 
 26 N       -8.2100    -3.1580    -0.3130 N.ar  1 <1>  -0.6200 
 27 H       -1.5910    -0.3480     1.0980 H     1 <1>   0.3700 
 28 H       -1.7470     2.7510    -0.6800 H     1 <1>   0.0800 
 29 H       -1.7690     2.0090     0.8930 H     1 <1>   0.0800 
 30 H       -1.3890    -1.9200    -1.4160 H     1 <1>   0.0800 
 31 H        0.6810     2.3610    -0.8570 H     1 <1>   0.0800 
 32 H        0.6780     1.5480     0.6830 H     1 <1>   0.0800 
 33 H       -3.3000    -3.1900    -0.8750 H     1 <1>   0.0800 
 34 H       -0.0900    -2.3640     0.8990 H     1 <1>   0.0800 
 35 H       -0.8760    -3.7290     0.1060 H     1 <1>   0.0800 
 36 H       -3.7140    -3.7580     1.2970 H     1 <1>   0.0800 
 37 H       -3.7090    -2.0850     1.8470 H     1 <1>   0.0800 
 38 H       -4.1330    -0.9700    -1.6270 H     1 <1>   0.0800 
 39 H       -4.2450    -0.4550     0.0250 H     1 <1>   0.0800 
 40 H        0.4740     5.4310     3.3230 H     1 <1>   0.2700 
 41 H        1.7600     4.9250    -1.5660 H     1 <1>   0.0800 
 42 H        0.0450     4.7460    -1.8390 H     1 <1>   0.0800 
 43 H       -5.6140    -2.9250    -2.4160 H     1 <1>   0.1500 
 44 H       -6.1450    -1.1750     1.4230 H     1 <1>   0.1500 
 45 H        0.0210     7.7610     1.2730 H     1 <1>   0.0800 
 46 H        1.6700     7.5610     1.8140 H     1 <1>   0.0800 
 47 H        1.0010     7.0520    -2.3880 H     1 <1>   0.0800 
 48 H       -0.3840     7.0390    -1.3340 H     1 <1>   0.0800 
 49 H       -7.8160    -3.9270    -2.1680 H     1 <1>   0.1500 
 50 H       -8.3240    -2.2470     1.5160 H     1 <1>   0.1500 
 51 H        1.3790     8.5990    -0.5110 H     1 <1>   0.0800 
 52 H        2.4830     7.2600    -0.3970 H     1 <1>   0.0800 
@<TRIPOS>BOND
  1   1   2  2   
  2   2   3  am  
  3   2   4  1   
  4   3   5  1   
  5   3  27  1   
  6   4   6  1   
  7   4  28  1   
  8   4  29  1   
  9   5   7  1   
 10   5   8  1   
 11   5  30  1   
 12   6   9  1   
 13   6  31  1   
 14   6  32  1   
 15   7  10  1   
 16   7  11  1   
 17   7  33  1   
 18   8  12  1   
 19   8  34  1   
 20   8  35  1   
 21   9  13  2   
 22   9  14  1   
 23  10  12  1   
 24  10  36  1   
 25  10  37  1   
 26  11  15  1   
 27  11  38  1   
 28  11  39  1   
 29  13  16  1   
 30  14  17  2   
 31  14  18  1   
 32  15  19  ar  
 33  15  20  ar  
 34  16  17  1   
 35  16  40  1   
 36  17  21  1   
 37  18  22  1   
 38  18  41  1   
 39  18  42  1   
 40  19  23  ar  
 41  19  43  1   
 42  20  24  ar  
 43  20  44  1   
 44  21  25  1   
 45  21  45  1   
 46  21  46  1   
 47  22  25  1   
 48  22  47  1   
 49  22  48  1   
 50  23  26  ar  
 51  23  49  1   
 52  24  26  ar  
 53  24  50  1   
 54  25  51  1   
 55  25  52  1   
@<TRIPOS>SUBSTRUCTURE
  1 ****   2 GROUP 4 **** **** 0

# MOE 2024.06 (io_trps.svl 2023.06)
