@<TRIPOS>MOLECULE
NONAME
46 48 1 0 0 
SMALL
USER_CHARGES


@<TRIPOS>ATOM
  1 F       -1.6730    -0.4810    -2.0500 F     1 <1>  -0.1900 
  2 C       -2.2400     0.3680    -1.2310 C.ar  1 <1>   0.1900 
  3 C       -2.8650    -0.0950    -0.0830 C.ar  1 <1>  -0.1440 
  4 C       -2.1800     1.7110    -1.5530 C.ar  1 <1>  -0.1500 
  5 C       -3.4380     0.8440     0.7630 C.ar  1 <1>  -0.1500 
  6 C       -2.9240    -1.5790     0.2500 C.3   1 <1>   0.2540 
  7 C       -2.7610     2.6340    -0.7010 C.ar  1 <1>  -0.1500 
  8 C       -3.3930     2.1990     0.4640 C.ar  1 <1>   0.0830 
  9 N       -3.9720    -2.2690    -0.5320 N.3   1 <1>  -0.8100 
 10 O       -3.9870     3.0330     1.3540 O.3   1 <1>  -0.3630 
 11 C       -3.9790    -3.7340    -0.2820 C.3   1 <1>   0.3330 
 12 C       -5.3150    -1.7050    -0.2790 C.3   1 <1>   0.1100 
 13 C       -3.9850     4.4310     1.1630 C.3   1 <1>   0.0400 
 14 C       -2.6250    -4.3550    -0.6310 C.ar  1 <1>  -0.1430 
 15 C       -5.1230    -4.4250    -1.0760 C.3   1 <1>   0.2000 
 16 C       -6.4030    -2.4680    -1.0520 C.3   1 <1>   0.1200 
 17 C       -1.9860    -5.1890     0.2760 C.ar  1 <1>  -0.1500 
 18 C       -2.0280    -4.1080    -1.8580 C.ar  1 <1>  -0.1500 
 19 O       -6.3530    -3.8310    -0.7460 O.3   1 <1>  -0.5600 
 20 C       -5.2540    -5.9310    -0.7900 C.3   1 <1>   0.1200 
 21 C       -0.7740    -5.7750    -0.0450 C.ar  1 <1>  -0.1500 
 22 C       -0.8160    -4.6920    -2.1810 C.ar  1 <1>  -0.1500 
 23 O       -4.2500    -6.6580    -1.4250 O.3   1 <1>  -0.6800 
 24 C       -0.1900    -5.5290    -1.2740 C.ar  1 <1>  -0.1500 
 25 H       -1.6850     2.0220    -2.4560 H     1 <1>   0.1500 
 26 H       -3.9310     0.5350     1.6680 H     1 <1>   0.1500 
 27 H       -3.1100    -1.7110     1.3020 H     1 <1>   0.0800 
 28 H       -1.9600    -2.0070     0.0320 H     1 <1>   0.0800 
 29 H       -2.7130     3.6750    -0.9560 H     1 <1>   0.1500 
 30 H       -4.1690    -3.8990     0.7640 H     1 <1>   0.0800 
 31 H       -5.5410    -1.7400     0.7730 H     1 <1>   0.0800 
 32 H       -5.3420    -0.6760    -0.5930 H     1 <1>   0.0800 
 33 H       -4.5010     4.8820     1.9920 H     1 <1>   0.0800 
 34 H       -4.4970     4.6600     0.2460 H     1 <1>   0.0800 
 35 H       -2.9670     4.7780     1.1350 H     1 <1>   0.0800 
 36 H       -4.9700    -4.2890    -2.1320 H     1 <1>   0.0800 
 37 H       -6.2700    -2.3440    -2.1130 H     1 <1>   0.0800 
 38 H       -7.3780    -2.1050    -0.7800 H     1 <1>   0.0800 
 39 H       -2.4270    -5.3920     1.2370 H     1 <1>   0.1500 
 40 H       -2.5080    -3.4500    -2.5640 H     1 <1>   0.1500 
 41 H       -6.1940    -6.2940    -1.1660 H     1 <1>   0.0800 
 42 H       -5.1930    -6.1240     0.2670 H     1 <1>   0.0800 
 43 H       -0.2850    -6.4240     0.6600 H     1 <1>   0.1500 
 44 H       -0.3620    -4.4930    -3.1360 H     1 <1>   0.1500 
 45 H       -3.3650    -6.2610    -1.2540 H     1 <1>   0.4000 
 46 H        0.7530    -5.9840    -1.5260 H     1 <1>   0.1500 
@<TRIPOS>BOND
  1   1   2  1   
  2   2   3  ar  
  3   2   4  ar  
  4   3   5  ar  
  5   3   6  1   
  6   4   7  ar  
  7   4  25  1   
  8   5   8  ar  
  9   5  26  1   
 10   6   9  1   
 11   6  27  1   
 12   6  28  1   
 13   7   8  ar  
 14   7  29  1   
 15   8  10  1   
 16   9  11  1   
 17   9  12  1   
 18  10  13  1   
 19  11  14  1   
 20  11  15  1   
 21  11  30  1   
 22  12  16  1   
 23  12  31  1   
 24  12  32  1   
 25  13  33  1   
 26  13  34  1   
 27  13  35  1   
 28  14  17  ar  
 29  14  18  ar  
 30  15  19  1   
 31  15  20  1   
 32  15  36  1   
 33  16  19  1   
 34  16  37  1   
 35  16  38  1   
 36  17  21  ar  
 37  17  39  1   
 38  18  22  ar  
 39  18  40  1   
 40  20  23  1   
 41  20  41  1   
 42  20  42  1   
 43  21  24  ar  
 44  21  43  1   
 45  22  24  ar  
 46  22  44  1   
 47  23  45  1   
 48  24  46  1   
@<TRIPOS>SUBSTRUCTURE
  1 ****   9 GROUP 4 **** **** 0

# MOE 2024.06 (io_trps.svl 2023.06)
