@<TRIPOS>MOLECULE
NONAME
47 49 1 0 0 
SMALL
USER_CHARGES


@<TRIPOS>ATOM
  1 O       -0.0880     1.3420     1.9800 O.2   1 <1>  -0.5700 
  2 C        0.1300     2.3240     1.2950 C.2   1 <1>   0.5440 
  3 N       -0.9180     3.1550     0.9490 N.am  1 <1>  -0.6600 
  4 C        1.4850     2.5990     0.8600 C.ar  1 <1>   0.0860 
  5 C       -2.3200     2.8880     1.3930 C.3   1 <1>   0.1400 
  6 C       -0.7780     4.3380     0.0570 C.3   1 <1>   0.1400 
  7 C        2.0490     1.9860    -0.2670 C.ar  1 <1>  -0.1440 
  8 C        2.2620     3.5140     1.5720 C.ar  1 <1>  -0.1500 
  9 C       -3.2700     2.6850     0.1870 C.3   1 <1>   0.0000 
 10 C       -1.6820     4.1700    -1.1670 C.3   1 <1>  -0.1600 
 11 C        3.3400     2.2960    -0.6610 C.ar  1 <1>  -0.1500 
 12 C        1.2430     0.9720    -1.0700 C.3   1 <1>  -0.0970 
 13 C        3.5500     3.8230     1.1790 C.ar  1 <1>  -0.1500 
 14 C       -4.7030     2.4720     0.7170 C.3   1 <1>   0.2000 
 15 C       -3.1420     3.8980    -0.7680 C.3   1 <1>  -0.1600 
 16 C       -2.9690     1.3510    -0.5180 C.3   1 <1>  -0.1600 
 17 C        4.0860     3.2140     0.0600 C.ar  1 <1>   0.0830 
 18 O       -5.6260     2.6930    -0.3120 O.3   1 <1>  -0.5600 
 19 C       -4.7650     0.9920     1.1160 C.3   1 <1>  -0.1600 
 20 C       -3.6870     0.2700     0.2950 C.3   1 <1>  -0.1600 
 21 O        5.3330     3.5190    -0.3160 O.3   1 <1>  -0.5330 
 22 C       -6.9110     3.0280     0.1060 C.3   1 <1>   0.0400 
 23 H       -2.3510     2.0260     2.0350 H     1 <1>   0.0800 
 24 H       -2.6540     3.7310     1.9720 H     1 <1>   0.0800 
 25 H       -1.0660     5.2200     0.6030 H     1 <1>   0.0800 
 26 H        0.2400     4.4650    -0.2670 H     1 <1>   0.0800 
 27 H        1.8420     3.9820     2.4440 H     1 <1>   0.1500 
 28 H       -1.6360     5.0620    -1.7650 H     1 <1>   0.0800 
 29 H       -1.3110     3.3580    -1.7670 H     1 <1>   0.0800 
 30 H        3.7690     1.8250    -1.5260 H     1 <1>   0.1500 
 31 H        1.8380     0.5290    -1.8470 H     1 <1>   0.0800 
 32 H        0.3930     1.4520    -1.5200 H     1 <1>   0.0800 
 33 H        0.8930     0.1860    -0.4230 H     1 <1>   0.0800 
 34 H        4.1420     4.5300     1.7320 H     1 <1>   0.1500 
 35 H       -4.9260     3.1340     1.5370 H     1 <1>   0.0800 
 36 H       -3.7260     3.7330    -1.6560 H     1 <1>   0.0800 
 37 H       -3.5400     4.7700    -0.2790 H     1 <1>   0.0800 
 38 H       -3.3930     1.3710    -1.5080 H     1 <1>   0.0800 
 39 H       -1.9160     1.1500    -0.5990 H     1 <1>   0.0800 
 40 H       -4.5260     0.8980     2.1610 H     1 <1>   0.0800 
 41 H       -5.7380     0.5670     0.9480 H     1 <1>   0.0800 
 42 H       -2.9890    -0.2170     0.9540 H     1 <1>   0.0800 
 43 H       -4.1230    -0.4660    -0.3580 H     1 <1>   0.0800 
 44 H        5.6360     3.0280    -1.1000 H     1 <1>   0.4500 
 45 H       -7.5270     3.1390    -0.7680 H     1 <1>   0.0800 
 46 H       -6.8760     3.9590     0.6450 H     1 <1>   0.0800 
 47 H       -7.3050     2.2440     0.7290 H     1 <1>   0.0800 
@<TRIPOS>BOND
  1   1   2  2   
  2   2   3  am  
  3   2   4  1   
  4   3   5  1   
  5   3   6  1   
  6   4   7  ar  
  7   4   8  ar  
  8   5   9  1   
  9   5  23  1   
 10   5  24  1   
 11   6  10  1   
 12   6  25  1   
 13   6  26  1   
 14   7  11  ar  
 15   7  12  1   
 16   8  13  ar  
 17   8  27  1   
 18   9  14  1   
 19   9  15  1   
 20   9  16  1   
 21  10  15  1   
 22  10  28  1   
 23  10  29  1   
 24  11  17  ar  
 25  11  30  1   
 26  12  31  1   
 27  12  32  1   
 28  12  33  1   
 29  13  17  ar  
 30  13  34  1   
 31  14  18  1   
 32  14  19  1   
 33  14  35  1   
 34  15  36  1   
 35  15  37  1   
 36  16  20  1   
 37  16  38  1   
 38  16  39  1   
 39  17  21  1   
 40  18  22  1   
 41  19  20  1   
 42  19  40  1   
 43  19  41  1   
 44  20  42  1   
 45  20  43  1   
 46  21  44  1   
 47  22  45  1   
 48  22  46  1   
 49  22  47  1   
@<TRIPOS>SUBSTRUCTURE
  1 ****   3 GROUP 4 **** **** 0

# MOE 2024.06 (io_trps.svl 2023.06)
