@<TRIPOS>MOLECULE
NONAME
51 53 1 0 0 
SMALL
USER_CHARGES


@<TRIPOS>ATOM
  1 O       -0.8010     0.3910    -0.3140 O.2   1 <1>  -0.5700 
  2 C       -1.3410     1.4650    -0.5260 C.2   1 <1>   0.7160 
  3 N       -2.7080     1.4490    -0.7620 N.am  1 <1>  -0.6600 
  4 C       -0.5370     2.6850    -0.5070 C.2   1 <1>   0.1410 
  5 C       -3.3850     0.1720    -1.1420 C.3   1 <1>   0.1400 
  6 C       -3.5580     2.6690    -0.6360 C.3   1 <1>   0.1400 
  7 N       -0.8170     3.8220    -1.2240 N.2   1 <1>  -0.5650 
  8 C        0.6150     2.9190     0.1700 C.2   1 <1>  -0.0400 
  9 C       -3.8780    -0.5880     0.0980 C.3   1 <1>   0.1400 
 10 C       -4.9300     2.4140     0.0060 C.3   1 <1>  -0.1600 
 11 C        0.1480     4.6130    -0.9380 C.2   1 <1>   0.3280 
 12 O        1.0270     4.1200    -0.1050 O.3   1 <1>  -0.2800 
 13 C        1.4360     2.0690     1.1270 C.3   1 <1>   0.0200 
 14 N       -5.0990     0.0430     0.6940 N.am  1 <1>  -0.6600 
 15 C       -4.9000     1.4370     1.1870 C.3   1 <1>   0.1400 
 16 C        2.7430     1.6190     0.4690 C.3   1 <1>  -0.2400 
 17 C       -6.3220    -0.5710     0.8310 C.2   1 <1>   0.5690 
 18 O       -7.2500    -0.0130     1.3690 O.2   1 <1>  -0.5700 
 19 C       -6.5410    -1.9830     0.3080 C.3   1 <1>  -0.0990 
 20 C       -8.0090    -2.4490     0.3340 C.3   1 <1>   0.1760 
 21 N       -8.0550    -3.9190     0.1030 N.pl3 1 <1>   0.3140 
 22 C       -8.8900    -1.7140    -0.6960 C.3   1 <1>  -0.2400 
 23 N       -8.2420    -4.7880     1.1150 N.2   1 <1>  -0.7070 
 24 C       -7.8890    -4.5740    -1.0680 C.2   1 <1>  -0.3020 
 25 C       -8.2010    -5.9630     0.5650 C.2   1 <1>   0.1390 
 26 C       -7.9810    -5.8940    -0.8040 C.2   1 <1>  -0.1500 
 27 H       -2.6810    -0.4510    -1.6680 H     1 <1>   0.0800 
 28 H       -4.2040     0.3660    -1.8120 H     1 <1>   0.0800 
 29 H       -3.6890     3.1100    -1.6100 H     1 <1>   0.0800 
 30 H       -3.0450     3.3880    -0.0210 H     1 <1>   0.0800 
 31 H       -3.0920    -0.6130     0.8340 H     1 <1>   0.0800 
 32 H       -4.0740    -1.6040    -0.1840 H     1 <1>   0.0800 
 33 H       -5.6320     2.0730    -0.7330 H     1 <1>   0.0800 
 34 H       -5.2950     3.3600     0.3620 H     1 <1>   0.0800 
 35 H        0.2930     5.6130    -1.3090 H     1 <1>   0.1500 
 36 H        0.8750     1.2030     1.4290 H     1 <1>   0.0800 
 37 H        1.6540     2.6440     2.0090 H     1 <1>   0.0800 
 38 H       -5.6870     1.6960     1.8760 H     1 <1>   0.0800 
 39 H       -3.9690     1.5110     1.7220 H     1 <1>   0.0800 
 40 H        2.5300     1.0340    -0.4080 H     1 <1>   0.0800 
 41 H        3.3150     1.0190     1.1540 H     1 <1>   0.0800 
 42 H        3.3290     2.4740     0.1820 H     1 <1>   0.0800 
 43 H       -5.9630    -2.6430     0.9280 H     1 <1>   0.0800 
 44 H       -6.1800    -2.0430    -0.7000 H     1 <1>   0.0800 
 45 H       -8.4120    -2.2770     1.3170 H     1 <1>   0.0800 
 46 H       -8.4940    -1.8150    -1.6900 H     1 <1>   0.0800 
 47 H       -8.9460    -0.6670    -0.4590 H     1 <1>   0.0800 
 48 H       -9.8900    -2.1110    -0.6690 H     1 <1>   0.0800 
 49 H       -7.7190    -4.0780    -2.0050 H     1 <1>   0.1500 
 50 H       -8.3240    -6.8790     1.1180 H     1 <1>   0.1500 
 51 H       -7.9070    -6.7300    -1.4770 H     1 <1>   0.1500 
@<TRIPOS>BOND
  1   1   2  2   
  2   2   3  am  
  3   2   4  1   
  4   3   5  1   
  5   3   6  1   
  6   4   7  1   
  7   4   8  2   
  8   5   9  1   
  9   5  27  1   
 10   5  28  1   
 11   6  10  1   
 12   6  29  1   
 13   6  30  1   
 14   7  11  2   
 15   8  12  1   
 16   8  13  1   
 17   9  14  1   
 18   9  31  1   
 19   9  32  1   
 20  10  15  1   
 21  10  33  1   
 22  10  34  1   
 23  11  12  1   
 24  11  35  1   
 25  13  16  1   
 26  13  36  1   
 27  13  37  1   
 28  14  15  1   
 29  14  17  am  
 30  15  38  1   
 31  15  39  1   
 32  16  40  1   
 33  16  41  1   
 34  16  42  1   
 35  17  18  2   
 36  17  19  1   
 37  19  20  1   
 38  19  43  1   
 39  19  44  1   
 40  20  21  1   
 41  20  22  1   
 42  20  45  1   
 43  21  23  1   
 44  21  24  1   
 45  22  46  1   
 46  22  47  1   
 47  22  48  1   
 48  23  25  2   
 49  24  26  2   
 50  24  49  1   
 51  25  26  1   
 52  25  50  1   
 53  26  51  1   
@<TRIPOS>SUBSTRUCTURE
  1 ****   9 GROUP 4 **** **** 0

# MOE 2024.06 (io_trps.svl 2023.06)
