@<TRIPOS>MOLECULE
NONAME
36 37 1 0 0 
SMALL
USER_CHARGES


@<TRIPOS>ATOM
  1 O        0.6690     0.4120     0.5220 O.co2 1 <1>  -0.9000 
  2 C        1.8330     0.5820     0.1560 C.2   1 <1>   0.9060 
  3 O        2.7170    -0.2720     0.2970 O.co2 1 <1>  -0.9000 
  4 C        2.2240     1.8980    -0.4820 C.3   1 <1>  -0.1860 
  5 C        3.6830     2.1850    -0.1890 C.3   1 <1>   0.2090 
  6 C        1.4920     3.1460     0.0180 C.3   1 <1>  -0.1600 
  7 N        3.8100     3.6700    -0.1740 N.pl3 1 <1>  -0.8380 
  8 C        2.4600     4.2880    -0.2620 C.3   1 <1>   0.2090 
  9 C        4.9410     4.3800     0.0160 C.ar  1 <1>   0.7710 
 10 N        4.9050     5.7020    -0.0070 N.ar  1 <1>  -0.6200 
 11 N        6.0750     3.7000     0.2280 N.ar  1 <1>  -0.1790 
 12 C        6.0350     6.3600     0.1680 C.ar  1 <1>   0.4100 
 13 C        7.2480     4.3330     0.4490 C.ar  1 <1>   0.2110 
 14 N        5.9600     7.7140     0.0890 N.pl3 1 <1>  -0.8380 
 15 C        7.2590     5.6890     0.4310 C.ar  1 <1>  -0.1440 
 16 C        6.7600     8.5080    -0.8840 C.3   1 <1>   0.1290 
 17 C        4.8030     8.4580     0.6660 C.3   1 <1>   0.1290 
 18 C        8.5500     6.4510     0.7270 C.3   1 <1>  -0.0970 
 19 H        2.0910     1.7980    -1.5420 H     1 <1>   0.0800 
 20 H        4.3040     1.7290    -0.9410 H     1 <1>   0.0800 
 21 H        3.9380     1.7980     0.7850 H     1 <1>   0.0800 
 22 H        1.3230     3.0690     1.0780 H     1 <1>   0.0800 
 23 H        0.5440     3.2800    -0.4730 H     1 <1>   0.0800 
 24 H        2.3400     5.0850     0.4540 H     1 <1>   0.0800 
 25 H        2.3080     4.6700    -1.2570 H     1 <1>   0.0800 
 26 H        5.9620     2.6920     0.2380 H     1 <1>   0.4570 
 27 H        8.1290     3.7410     0.6410 H     1 <1>   0.1500 
 28 H        7.3390     7.8580    -1.5160 H     1 <1>   0.0800 
 29 H        7.4200     9.1750    -0.3570 H     1 <1>   0.0800 
 30 H        6.1040     9.0880    -1.5110 H     1 <1>   0.0800 
 31 H        4.3060     7.8580     1.4090 H     1 <1>   0.0800 
 32 H        4.0990     8.6980    -0.1120 H     1 <1>   0.0800 
 33 H        5.1450     9.3660     1.1310 H     1 <1>   0.0800 
 34 H        8.3510     7.2610     1.4090 H     1 <1>   0.0800 
 35 H        8.9640     6.8570    -0.1780 H     1 <1>   0.0800 
 36 H        9.2870     5.8110     1.1790 H     1 <1>   0.0800 
@<TRIPOS>BOND
  1   1   2  ar  
  2   2   3  ar  
  3   2   4  1   
  4   4   5  1   
  5   4   6  1   
  6   4  19  1   
  7   5   7  1   
  8   5  20  1   
  9   5  21  1   
 10   6   8  1   
 11   6  22  1   
 12   6  23  1   
 13   7   8  1   
 14   7   9  1   
 15   8  24  1   
 16   8  25  1   
 17   9  10  ar  
 18   9  11  ar  
 19  10  12  ar  
 20  11  13  ar  
 21  11  26  1   
 22  12  14  1   
 23  12  15  ar  
 24  13  15  ar  
 25  13  27  1   
 26  14  16  1   
 27  14  17  1   
 28  15  18  1   
 29  16  28  1   
 30  16  29  1   
 31  16  30  1   
 32  17  31  1   
 33  17  32  1   
 34  17  33  1   
 35  18  34  1   
 36  18  35  1   
 37  18  36  1   
@<TRIPOS>SUBSTRUCTURE
  1 ****   9 GROUP 4 **** **** 0

# MOE 2024.06 (io_trps.svl 2023.06)
