@<TRIPOS>MOLECULE
NONAME
58 60 1 0 0 
SMALL
USER_CHARGES


@<TRIPOS>ATOM
  1 O       -0.5510     0.7960    -0.9470 O.co2 1 <1>  -0.9000 
  2 C       -0.2270     1.2370     0.1590 C.2   1 <1>   0.9060 
  3 O       -0.0150     0.5140     1.1350 O.co2 1 <1>  -0.9000 
  4 C       -0.1560     2.7340     0.3580 C.3   1 <1>  -0.1060 
  5 C       -1.2550     3.0360     1.4140 C.3   1 <1>   0.2000 
  6 C       -0.5590     3.3690    -0.9780 C.3   1 <1>   0.3430 
  7 C        1.2990     3.1290     0.7770 C.3   1 <1>  -0.0170 
  8 O       -0.6810     3.1590     2.6620 O.3   1 <1>  -0.6800 
  9 C       -2.0710     4.3040     1.1450 C.3   1 <1>  -0.1600 
 10 N       -0.8100     4.8590    -0.9110 N.4   1 <1>  -0.9590 
 11 C        2.3340     3.2460    -0.3460 C.ar  1 <1>  -0.1440 
 12 C       -1.2090     5.3430     0.4490 C.3   1 <1>   0.3430 
 13 C        0.4060     5.5910    -1.3830 C.3   1 <1>   0.3430 
 14 C        3.1440     4.3730    -0.4140 C.ar  1 <1>  -0.1500 
 15 C        2.5040     2.2490    -1.2980 C.ar  1 <1>  -0.1500 
 16 C        0.1250     7.0540    -1.7320 C.3   1 <1>   0.1200 
 17 C        4.0660     4.5250    -1.4340 C.ar  1 <1>  -0.1500 
 18 C        3.4270     2.3970    -2.3180 C.ar  1 <1>  -0.1500 
 19 O        1.3670     7.7060    -1.8660 O.3   1 <1>  -0.3620 
 20 C        4.2050     3.5380    -2.3920 C.ar  1 <1>  -0.1500 
 21 C        1.7110     8.6720    -0.9740 C.ar  1 <1>   0.0820 
 22 C        1.6480     8.5220     0.4200 C.ar  1 <1>   0.0820 
 23 C        2.1620     9.8620    -1.5190 C.ar  1 <1>  -0.1500 
 24 O        1.2480     7.3280     0.9570 O.3   1 <1>  -0.3620 
 25 C        2.0110     9.5990     1.2260 C.ar  1 <1>  -0.1500 
 26 C        2.5260    10.9170    -0.7050 C.ar  1 <1>  -0.1500 
 27 C        1.4930     7.0340     2.3210 C.3   1 <1>   0.0400 
 28 C        2.4460    10.7920     0.6710 C.ar  1 <1>  -0.1440 
 29 C        2.8420    11.9540     1.5650 C.3   1 <1>  -0.0970 
 30 H       -1.9500     2.2110     1.4800 H     1 <1>   0.0800 
 31 H       -1.4680     2.8830    -1.2970 H     1 <1>   0.0800 
 32 H        0.1850     3.1410    -1.7230 H     1 <1>   0.0800 
 33 H        1.2660     4.0720     1.2880 H     1 <1>   0.0800 
 34 H        1.6710     2.4150     1.4930 H     1 <1>   0.0800 
 35 H       -0.2930     2.2790     2.8860 H     1 <1>   0.4000 
 36 H       -2.9120     4.0680     0.5200 H     1 <1>   0.0800 
 37 H       -2.4550     4.6960     2.0700 H     1 <1>   0.0800 
 38 H       -1.5750     5.0420    -1.5690 H     1 <1>   0.4500 
 39 H       -0.3300     5.5070     1.0490 H     1 <1>   0.0800 
 40 H       -1.7420     6.2760     0.3710 H     1 <1>   0.0800 
 41 H        1.1400     5.5740    -0.5990 H     1 <1>   0.0800 
 42 H        0.8230     5.0970    -2.2450 H     1 <1>   0.0800 
 43 H        3.0650     5.1500     0.3280 H     1 <1>   0.1500 
 44 H        1.9280     1.3390    -1.2590 H     1 <1>   0.1500 
 45 H       -0.4490     7.5530    -0.9730 H     1 <1>   0.0800 
 46 H       -0.3810     7.1270    -2.6770 H     1 <1>   0.0800 
 47 H        4.6780     5.4090    -1.4800 H     1 <1>   0.1500 
 48 H        3.5390     1.6160    -3.0500 H     1 <1>   0.1500 
 49 H        4.9210     3.6520    -3.1860 H     1 <1>   0.1500 
 50 H        2.2250     9.9610    -2.5880 H     1 <1>   0.1500 
 51 H        1.9650     9.5350     2.2960 H     1 <1>   0.1500 
 52 H        2.8720    11.8350    -1.1480 H     1 <1>   0.1500 
 53 H        1.2230     6.0110     2.5080 H     1 <1>   0.0800 
 54 H        0.8900     7.6810     2.9340 H     1 <1>   0.0800 
 55 H        2.5390     7.1760     2.5280 H     1 <1>   0.0800 
 56 H        2.7000    12.8900     1.0540 H     1 <1>   0.0800 
 57 H        3.8770    11.8650     1.8420 H     1 <1>   0.0800 
 58 H        2.2420    11.9640     2.4580 H     1 <1>   0.0800 
@<TRIPOS>BOND
  1   1   2  ar  
  2   2   3  ar  
  3   2   4  1   
  4   4   5  1   
  5   4   6  1   
  6   4   7  1   
  7   5   8  1   
  8   5   9  1   
  9   5  30  1   
 10   6  10  1   
 11   6  31  1   
 12   6  32  1   
 13   7  11  1   
 14   7  33  1   
 15   7  34  1   
 16   8  35  1   
 17   9  12  1   
 18   9  36  1   
 19   9  37  1   
 20  10  12  1   
 21  10  13  1   
 22  10  38  1   
 23  11  14  ar  
 24  11  15  ar  
 25  12  39  1   
 26  12  40  1   
 27  13  16  1   
 28  13  41  1   
 29  13  42  1   
 30  14  17  ar  
 31  14  43  1   
 32  15  18  ar  
 33  15  44  1   
 34  16  19  1   
 35  16  45  1   
 36  16  46  1   
 37  17  20  ar  
 38  17  47  1   
 39  18  20  ar  
 40  18  48  1   
 41  19  21  1   
 42  20  49  1   
 43  21  22  ar  
 44  21  23  ar  
 45  22  24  1   
 46  22  25  ar  
 47  23  26  ar  
 48  23  50  1   
 49  24  27  1   
 50  25  28  ar  
 51  25  51  1   
 52  26  28  ar  
 53  26  52  1   
 54  27  53  1   
 55  27  54  1   
 56  27  55  1   
 57  28  29  1   
 58  29  56  1   
 59  29  57  1   
 60  29  58  1   
@<TRIPOS>SUBSTRUCTURE
  1 ****  13 GROUP 4 **** **** 0

# MOE 2024.06 (io_trps.svl 2023.06)
