@<TRIPOS>MOLECULE
NONAME
42 44 1 0 0 
SMALL
USER_CHARGES


@<TRIPOS>ATOM
  1 F        0.1040    -0.6190     1.0230 F     1 <1>  -0.1900 
  2 C       -0.5100    -1.7340     0.7180 C.ar  1 <1>   0.1900 
  3 C        0.1860    -2.8840     0.3310 C.ar  1 <1>   0.0820 
  4 C       -1.8890    -1.7160     0.7940 C.ar  1 <1>  -0.1500 
  5 O        1.5400    -3.0260     0.2190 O.3   1 <1>  -0.3630 
  6 C       -0.5570    -4.0120     0.0250 C.ar  1 <1>  -0.1500 
  7 C       -2.5990    -2.8590     0.4790 C.ar  1 <1>  -0.1500 
  8 C        2.4490    -2.0010     0.5530 C.3   1 <1>   0.0400 
  9 C       -1.9530    -4.0350     0.0900 C.ar  1 <1>   0.0530 
 10 C       -2.6880    -5.2350    -0.2390 C.2   1 <1>   0.0870 
 11 O       -2.1470    -6.1550    -1.0040 O.3   1 <1>  -0.0190 
 12 C       -3.9260    -5.6820     0.0870 C.2   1 <1>  -0.2330 
 13 N       -2.9400    -7.1740    -1.2120 N.2   1 <1>  -0.4100 
 14 C       -4.0210    -6.9100    -0.5660 C.2   1 <1>   0.3720 
 15 C       -4.9330    -5.0950     0.9040 C.2   1 <1>   1.0330 
 16 N       -5.1150    -7.7800    -0.5610 N.pl3 1 <1>  -0.8210 
 17 O       -5.7370    -4.2800     0.4190 O.co2 1 <1>  -0.9000 
 18 O       -5.0140    -5.3710     2.1130 O.co2 1 <1>  -0.9000 
 19 C       -6.3470    -7.1950    -1.1490 C.3   1 <1>   0.2090 
 20 C       -5.3820    -8.3830     0.7680 C.3   1 <1>   0.2090 
 21 C       -7.3740    -8.3100    -1.3650 C.3   1 <1>  -0.1600 
 22 C       -6.3840    -9.5300     0.6050 C.3   1 <1>  -0.1600 
 23 C       -7.6880    -9.0420    -0.0490 C.3   1 <1>  -0.0800 
 24 C       -8.6490   -10.2110    -0.2900 C.3   1 <1>  -0.2400 
 25 H       -2.4040    -0.8210     1.0940 H     1 <1>   0.1500 
 26 H       -0.0330    -4.9030    -0.2710 H     1 <1>   0.1500 
 27 H       -3.6750    -2.8340     0.5340 H     1 <1>   0.1500 
 28 H        3.4450    -2.3780     0.4080 H     1 <1>   0.0800 
 29 H        2.3080    -1.7300     1.5840 H     1 <1>   0.0800 
 30 H        2.2810    -1.1590    -0.0950 H     1 <1>   0.0800 
 31 H       -6.1070    -6.7220    -2.0860 H     1 <1>   0.0800 
 32 H       -6.7560    -6.4500    -0.4870 H     1 <1>   0.0800 
 33 H       -5.7860    -7.6410     1.4370 H     1 <1>   0.0800 
 34 H       -4.4610    -8.7500     1.1870 H     1 <1>   0.0800 
 35 H       -6.9780    -9.0000    -2.0890 H     1 <1>   0.0800 
 36 H       -8.2730    -7.8810    -1.7690 H     1 <1>   0.0800 
 37 H       -6.5940    -9.9490     1.5710 H     1 <1>   0.0800 
 38 H       -5.9280   -10.2930    -0.0010 H     1 <1>   0.0800 
 39 H       -8.1590    -8.3410     0.6220 H     1 <1>   0.0800 
 40 H       -8.2070   -10.9300    -0.9570 H     1 <1>   0.0800 
 41 H       -9.5660    -9.8550    -0.7240 H     1 <1>   0.0800 
 42 H       -8.8800   -10.6990     0.6400 H     1 <1>   0.0800 
@<TRIPOS>BOND
  1   1   2  1   
  2   2   3  ar  
  3   2   4  ar  
  4   3   5  1   
  5   3   6  ar  
  6   4   7  ar  
  7   4  25  1   
  8   5   8  1   
  9   6   9  ar  
 10   6  26  1   
 11   7   9  ar  
 12   7  27  1   
 13   8  28  1   
 14   8  29  1   
 15   8  30  1   
 16   9  10  1   
 17  10  11  1   
 18  10  12  2   
 19  11  13  1   
 20  12  14  1   
 21  12  15  1   
 22  13  14  2   
 23  14  16  1   
 24  15  17  ar  
 25  15  18  ar  
 26  16  19  1   
 27  16  20  1   
 28  19  21  1   
 29  19  31  1   
 30  19  32  1   
 31  20  22  1   
 32  20  33  1   
 33  20  34  1   
 34  21  23  1   
 35  21  35  1   
 36  21  36  1   
 37  22  23  1   
 38  22  37  1   
 39  22  38  1   
 40  23  24  1   
 41  23  39  1   
 42  24  40  1   
 43  24  41  1   
 44  24  42  1   
@<TRIPOS>SUBSTRUCTURE
  1 ****  12 GROUP 4 **** **** 0

# MOE 2024.06 (io_trps.svl 2023.06)
