@<TRIPOS>MOLECULE
NONAME
44 46 1 0 0 
SMALL
USER_CHARGES


@<TRIPOS>ATOM
  1 S       -2.3080    -0.9880    -0.1200 S.3   1 <1>  -0.0800 
  2 C       -2.7280    -2.4300    -1.0340 C.2   1 <1>  -0.1400 
  3 C       -3.8970    -0.2970    -0.3930 C.2   1 <1>  -0.1100 
  4 C       -3.9890    -2.3410    -1.4990 C.2   1 <1>  -0.1500 
  5 C       -1.6560    -3.4940    -1.1670 C.3   1 <1>   0.5230 
  6 C       -4.6550    -1.1290    -1.1300 C.2   1 <1>  -0.1500 
  7 N       -1.8720    -4.6000    -0.1940 N.4   1 <1>  -0.9590 
  8 C       -2.2110    -4.1790     1.2010 C.3   1 <1>   0.3430 
  9 C       -0.7790    -5.6030    -0.2010 C.3   1 <1>   0.3430 
 10 C       -3.3590    -5.0520     1.7470 C.3   1 <1>   0.1100 
 11 C       -1.3050    -7.0200     0.0640 C.3   1 <1>  -0.1600 
 12 N       -3.4390    -6.3640     1.0650 N.3   1 <1>  -0.8100 
 13 C       -2.2420    -7.1950     1.2660 C.3   1 <1>   0.1100 
 14 C       -4.7100    -7.0630     1.3280 C.3   1 <1>   0.2530 
 15 C       -4.9620    -8.1770     0.3090 C.ar  1 <1>  -0.1430 
 16 C       -4.8630    -7.9740    -1.0740 C.ar  1 <1>   0.0730 
 17 C       -5.3190    -9.4270     0.7950 C.ar  1 <1>  -0.1500 
 18 C       -4.4650    -6.7190    -1.6530 C.1   1 <1>   0.4840 
 19 C       -5.1370    -9.0400    -1.9260 C.ar  1 <1>  -0.1500 
 20 C       -5.5820   -10.4740    -0.0680 C.ar  1 <1>  -0.1500 
 21 N       -4.0550    -5.7350    -2.0670 N.1   1 <1>  -0.5570 
 22 C       -5.4930   -10.2800    -1.4320 C.ar  1 <1>  -0.1500 
 23 H       -4.0990     0.6720     0.0300 H     1 <1>   0.1500 
 24 H       -4.4990    -3.0790    -2.0970 H     1 <1>   0.1500 
 25 H       -0.6900    -3.0430    -1.0110 H     1 <1>   0.0800 
 26 H       -1.6860    -3.8940    -2.1680 H     1 <1>   0.0800 
 27 H       -5.6690    -0.9400    -1.4400 H     1 <1>   0.1500 
 28 H       -2.7250    -5.1100    -0.5070 H     1 <1>   0.4500 
 29 H       -2.5230    -3.1510     1.2380 H     1 <1>   0.0800 
 30 H       -1.3470    -4.2810     1.8360 H     1 <1>   0.0800 
 31 H       -0.0460    -5.3420     0.5450 H     1 <1>   0.0800 
 32 H       -0.2890    -5.6010    -1.1620 H     1 <1>   0.0800 
 33 H       -4.2780    -4.5150     1.5780 H     1 <1>   0.0800 
 34 H       -3.2510    -5.1830     2.8100 H     1 <1>   0.0800 
 35 H       -0.4550    -7.6630     0.2090 H     1 <1>   0.0800 
 36 H       -1.8030    -7.3780    -0.8190 H     1 <1>   0.0800 
 37 H       -1.7440    -6.9340     2.1850 H     1 <1>   0.0800 
 38 H       -2.5170    -8.2350     1.3310 H     1 <1>   0.0800 
 39 H       -5.5260    -6.3630     1.2590 H     1 <1>   0.0800 
 40 H       -4.7010    -7.4590     2.3290 H     1 <1>   0.0800 
 41 H       -5.4000    -9.5990     1.8550 H     1 <1>   0.1500 
 42 H       -5.0700    -8.9040    -2.9930 H     1 <1>   0.1500 
 43 H       -5.8590   -11.4400     0.3220 H     1 <1>   0.1500 
 44 H       -5.7020   -11.0950    -2.1060 H     1 <1>   0.1500 
@<TRIPOS>BOND
  1   1   2  1   
  2   1   3  1   
  3   2   4  2   
  4   2   5  1   
  5   3   6  2   
  6   3  23  1   
  7   4   6  1   
  8   4  24  1   
  9   5   7  1   
 10   5  25  1   
 11   5  26  1   
 12   6  27  1   
 13   7   8  1   
 14   7   9  1   
 15   7  28  1   
 16   8  10  1   
 17   8  29  1   
 18   8  30  1   
 19   9  11  1   
 20   9  31  1   
 21   9  32  1   
 22  10  12  1   
 23  10  33  1   
 24  10  34  1   
 25  11  13  1   
 26  11  35  1   
 27  11  36  1   
 28  12  13  1   
 29  12  14  1   
 30  13  37  1   
 31  13  38  1   
 32  14  15  1   
 33  14  39  1   
 34  14  40  1   
 35  15  16  ar  
 36  15  17  ar  
 37  16  18  1   
 38  16  19  ar  
 39  17  20  ar  
 40  17  41  1   
 41  18  21  3   
 42  19  22  ar  
 43  19  42  1   
 44  20  22  ar  
 45  20  43  1   
 46  22  44  1   
@<TRIPOS>SUBSTRUCTURE
  1 ****  12 GROUP 4 **** **** 0

# MOE 2024.06 (io_trps.svl 2023.06)
