@<TRIPOS>MOLECULE
NONAME
52 53 1 0 0 
SMALL
USER_CHARGES


@<TRIPOS>ATOM
  1 O       -1.4150     0.2050    -0.6490 O.2   1 <1>  -0.5700 
  2 C       -2.4150     0.7560    -0.2500 C.2   1 <1>   0.5690 
  3 N       -3.6380     0.1270    -0.3120 N.am  1 <1>  -0.6600 
  4 C       -2.2720     2.1780     0.3180 C.3   1 <1>  -0.0190 
  5 C       -3.7160    -1.2910    -0.7790 C.3   1 <1>   0.1400 
  6 C       -4.9530     0.7890    -0.0880 C.3   1 <1>   0.1400 
  7 C       -2.2350     3.2250    -0.8110 C.3   1 <1>  -0.1600 
  8 C       -1.0370     2.3380     1.2430 C.3   1 <1>  -0.1600 
  9 C       -3.2630    -2.2540     0.3220 C.3   1 <1>  -0.0160 
 10 C       -5.4430     0.5240     1.3380 C.3   1 <1>  -0.1600 
 11 C       -2.2780     4.6700    -0.2690 C.3   1 <1>   0.2000 
 12 C       -0.6020     3.8040     1.4520 C.3   1 <1>  -0.1600 
 13 C       -3.4500    -3.6920    -0.1350 C.ar  1 <1>  -0.1440 
 14 C       -6.7300     1.3000     1.6380 C.3   1 <1>  -0.2400 
 15 O       -1.4980     5.4840    -1.1100 O.3   1 <1>  -0.5600 
 16 C       -1.7470     4.7840     1.1840 C.3   1 <1>   0.2000 
 17 C       -4.5980    -4.3930     0.1970 C.ar  1 <1>  -0.1500 
 18 C       -2.4700    -4.3110    -0.8960 C.ar  1 <1>  -0.1500 
 19 C       -2.1050     5.8560    -2.3090 C.3   1 <1>   0.0400 
 20 O       -1.2750     6.0630     1.3960 O.3   1 <1>  -0.6800 
 21 C       -4.7650    -5.7010    -0.2280 C.ar  1 <1>  -0.1500 
 22 C       -2.6360    -5.6170    -1.3200 C.ar  1 <1>  -0.1500 
 23 C       -3.7840    -6.3130    -0.9870 C.ar  1 <1>  -0.1500 
 24 H       -3.1290     2.3820     0.9300 H     1 <1>   0.0800 
 25 H       -4.7220    -1.5330    -1.0730 H     1 <1>   0.0800 
 26 H       -3.0840    -1.4180    -1.6420 H     1 <1>   0.0800 
 27 H       -4.8690     1.8470    -0.2590 H     1 <1>   0.0800 
 28 H       -5.6730     0.4140    -0.7960 H     1 <1>   0.0800 
 29 H       -3.0670     3.0700    -1.4750 H     1 <1>   0.0800 
 30 H       -1.3270     3.0760    -1.3710 H     1 <1>   0.0800 
 31 H       -1.2650     1.8900     2.1950 H     1 <1>   0.0800 
 32 H       -0.1960     1.8030     0.8360 H     1 <1>   0.0800 
 33 H       -2.2260    -2.0830     0.5460 H     1 <1>   0.0800 
 34 H       -3.8320    -2.0830     1.2160 H     1 <1>   0.0800 
 35 H       -5.6340    -0.5270     1.4610 H     1 <1>   0.0800 
 36 H       -4.6830     0.8170     2.0420 H     1 <1>   0.0800 
 37 H       -3.2900     5.0380    -0.2750 H     1 <1>   0.0800 
 38 H        0.1990     4.0260     0.7680 H     1 <1>   0.0800 
 39 H       -0.2350     3.9330     2.4550 H     1 <1>   0.0800 
 40 H       -7.5120     1.0100     0.9580 H     1 <1>   0.0800 
 41 H       -6.5640     2.3590     1.5470 H     1 <1>   0.0800 
 42 H       -7.0580     1.0920     2.6420 H     1 <1>   0.0800 
 43 H       -2.5410     4.6060     1.8890 H     1 <1>   0.0800 
 44 H       -5.3670    -3.9270     0.7860 H     1 <1>   0.1500 
 45 H       -1.5730    -3.7750    -1.1600 H     1 <1>   0.1500 
 46 H       -1.4200     6.4890    -2.8460 H     1 <1>   0.0800 
 47 H       -3.0080     6.4010    -2.0970 H     1 <1>   0.0800 
 48 H       -2.3170     4.9790    -2.8940 H     1 <1>   0.0800 
 49 H       -0.9130     6.3600     0.5300 H     1 <1>   0.4000 
 50 H       -5.6580    -6.2410     0.0330 H     1 <1>   0.1500 
 51 H       -1.8710    -6.0910    -1.9100 H     1 <1>   0.1500 
 52 H       -3.9130    -7.3290    -1.3170 H     1 <1>   0.1500 
@<TRIPOS>BOND
  1   1   2  2   
  2   2   3  am  
  3   2   4  1   
  4   3   5  1   
  5   3   6  1   
  6   4   7  1   
  7   4   8  1   
  8   4  24  1   
  9   5   9  1   
 10   5  25  1   
 11   5  26  1   
 12   6  10  1   
 13   6  27  1   
 14   6  28  1   
 15   7  11  1   
 16   7  29  1   
 17   7  30  1   
 18   8  12  1   
 19   8  31  1   
 20   8  32  1   
 21   9  13  1   
 22   9  33  1   
 23   9  34  1   
 24  10  14  1   
 25  10  35  1   
 26  10  36  1   
 27  11  15  1   
 28  11  16  1   
 29  11  37  1   
 30  12  16  1   
 31  12  38  1   
 32  12  39  1   
 33  13  17  ar  
 34  13  18  ar  
 35  14  40  1   
 36  14  41  1   
 37  14  42  1   
 38  15  19  1   
 39  16  20  1   
 40  16  43  1   
 41  17  21  ar  
 42  17  44  1   
 43  18  22  ar  
 44  18  45  1   
 45  19  46  1   
 46  19  47  1   
 47  19  48  1   
 48  20  49  1   
 49  21  23  ar  
 50  21  50  1   
 51  22  23  ar  
 52  22  51  1   
 53  23  52  1   
@<TRIPOS>SUBSTRUCTURE
  1 ****   2 GROUP 4 **** **** 0

# MOE 2024.06 (io_trps.svl 2023.06)
