@<TRIPOS>MOLECULE
NONAME
36 39 1 0 0 
SMALL
USER_CHARGES


@<TRIPOS>ATOM
  1 CL       0.0400    -0.1200    -0.2170 Cl    1 <1>  -0.1770 
  2 C       -0.8700    -1.6070    -0.2680 C.ar  1 <1>   0.1770 
  3 C       -0.5680    -2.5570    -1.2230 C.ar  1 <1>  -0.1500 
  4 C       -1.8840    -1.8190     0.6450 C.ar  1 <1>  -0.1500 
  5 C       -1.2940    -3.7340    -1.2590 C.ar  1 <1>  -0.1500 
  6 C       -2.6030    -2.9990     0.5970 C.ar  1 <1>  -0.1500 
  7 C       -2.3300    -3.9880    -0.3540 C.ar  1 <1>   0.0530 
  8 C       -3.0780    -5.2240    -0.4200 C.2   1 <1>   0.0870 
  9 O       -3.0310    -5.9580    -1.5070 O.3   1 <1>  -0.0190 
 10 C       -3.9030    -5.8680     0.4460 C.2   1 <1>  -0.2330 
 11 N       -3.7590    -7.0390    -1.4260 N.2   1 <1>  -0.4100 
 12 C       -4.3000    -7.0100    -0.2550 C.2   1 <1>   0.3720 
 13 C       -4.2810    -5.4960     1.7710 C.2   1 <1>   1.0330 
 14 N       -5.1460    -8.0240     0.2200 N.pl3 1 <1>  -0.8210 
 15 O       -5.4420    -5.1230     2.0230 O.co2 1 <1>  -0.9000 
 16 O       -3.4280    -5.4190     2.6730 O.co2 1 <1>  -0.9000 
 17 C       -5.7020    -9.0070    -0.7210 C.3   1 <1>   0.2890 
 18 C       -6.4460    -7.6240     0.7510 C.3   1 <1>   0.2090 
 19 C       -6.9320    -8.1370    -1.3500 C.3   1 <1>  -0.1600 
 20 C       -6.3130   -10.1700     0.3750 C.3   1 <1>  -0.1600 
 21 C       -7.2750    -8.6860    -0.0960 C.3   1 <1>  -0.0800 
 22 C       -7.7400    -9.5640     0.9300 C.3   1 <1>  -0.1600 
 23 H        0.2260    -2.3760    -1.9250 H     1 <1>   0.1500 
 24 H       -2.1080    -1.0740     1.3870 H     1 <1>   0.1500 
 25 H       -1.0530    -4.4760    -2.0000 H     1 <1>   0.1500 
 26 H       -3.3900    -3.1520     1.3160 H     1 <1>   0.1500 
 27 H       -4.9600    -9.3630    -1.4170 H     1 <1>   0.0800 
 28 H       -6.4310    -7.7220     1.8240 H     1 <1>   0.0800 
 29 H       -6.6900    -6.5990     0.5170 H     1 <1>   0.0800 
 30 H       -6.6980    -7.0930    -1.4990 H     1 <1>   0.0800 
 31 H       -7.2540    -8.5870    -2.2820 H     1 <1>   0.0800 
 32 H       -6.4780   -11.1020    -0.1410 H     1 <1>   0.0800 
 33 H       -5.6120   -10.3510     1.1740 H     1 <1>   0.0800 
 34 H       -7.8750    -9.3770    -0.7410 H     1 <1>   0.0800 
 35 H       -7.6900    -9.2620     1.9630 H     1 <1>   0.0800 
 36 H       -8.5780   -10.2300     0.7600 H     1 <1>   0.0800 
@<TRIPOS>BOND
  1   1   2  1   
  2   2   3  ar  
  3   2   4  ar  
  4   3   5  ar  
  5   3  23  1   
  6   4   6  ar  
  7   4  24  1   
  8   5   7  ar  
  9   5  25  1   
 10   6   7  ar  
 11   6  26  1   
 12   7   8  1   
 13   8   9  1   
 14   8  10  2   
 15   9  11  1   
 16  10  12  1   
 17  10  13  1   
 18  11  12  2   
 19  12  14  1   
 20  13  15  ar  
 21  13  16  ar  
 22  14  17  1   
 23  14  18  1   
 24  17  19  1   
 25  17  20  1   
 26  17  27  1   
 27  18  21  1   
 28  18  28  1   
 29  18  29  1   
 30  19  21  1   
 31  19  30  1   
 32  19  31  1   
 33  20  22  1   
 34  20  32  1   
 35  20  33  1   
 36  21  22  1   
 37  21  34  1   
 38  22  35  1   
 39  22  36  1   
@<TRIPOS>SUBSTRUCTURE
  1 ****  10 GROUP 4 **** **** 0

# MOE 2024.06 (io_trps.svl 2023.06)
