@<TRIPOS>MOLECULE
NONAME
41 43 1 0 0 
SMALL
USER_CHARGES


@<TRIPOS>ATOM
  1 O        0.2400     1.1440    -0.1330 O.2   1 <1>  -0.5700 
  2 C        0.0700     2.3280    -0.2750 C.2   1 <1>   0.5690 
  3 N       -0.7320     3.0190     0.5620 N.am  1 <1>  -0.7300 
  4 C        0.7330     3.0690    -1.4340 C.3   1 <1>   0.1810 
  5 C       -1.0790     4.4520     0.3830 C.3   1 <1>   0.3640 
  6 O        0.8550     4.4500    -1.1780 O.3   1 <1>  -0.5600 
  7 C       -2.5990     4.5510     0.2540 C.ar  1 <1>  -0.1440 
  8 C       -0.3650     5.1080    -0.8360 C.3   1 <1>   0.2610 
  9 C       -3.3120     3.6900    -0.5720 C.ar  1 <1>  -0.1500 
 10 C       -3.2910     5.5180     0.9690 C.ar  1 <1>  -0.1500 
 11 C       -0.0940     6.5910    -0.5460 C.2   1 <1>   0.5690 
 12 C       -4.6880     3.7930    -0.6780 C.ar  1 <1>  -0.1500 
 13 C       -4.6670     5.6230     0.8640 C.ar  1 <1>  -0.1500 
 14 O       -0.9810     7.2980    -0.1310 O.2   1 <1>  -0.5700 
 15 N        1.1570     7.0850    -0.7470 N.am  1 <1>  -0.7300 
 16 C       -5.3670     4.7600     0.0410 C.ar  1 <1>  -0.1500 
 17 C        1.5770     8.4910    -0.5390 C.3   1 <1>   0.1400 
 18 C        2.1430     8.6670     0.8700 C.3   1 <1>   0.0210 
 19 C        2.6090    10.0950     1.0760 C.2   1 <1>  -0.1810 
 20 C        3.7970    10.6600     0.6200 C.2   1 <1>   0.1390 
 21 C        1.9820    11.0970     1.7270 C.2   1 <1>  -0.3020 
 22 N        3.9060    11.9100     0.9530 N.2   1 <1>  -0.7070 
 23 N        2.7800    12.1790     1.6400 N.pl3 1 <1>   0.3000 
 24 H       -1.2300     2.5100     1.2930 H     1 <1>   0.3700 
 25 H        0.1540     2.9350    -2.3300 H     1 <1>   0.0800 
 26 H        1.7200     2.6750    -1.5920 H     1 <1>   0.0800 
 27 H       -0.7720     4.9720     1.2740 H     1 <1>   0.0800 
 28 H       -1.0100     5.0550    -1.6940 H     1 <1>   0.0800 
 29 H       -2.8050     2.9280    -1.1390 H     1 <1>   0.1500 
 30 H       -2.7640     6.2060     1.6080 H     1 <1>   0.1500 
 31 H       -5.2310     3.1210    -1.3190 H     1 <1>   0.1500 
 32 H       -5.1910     6.3800     1.4210 H     1 <1>   0.1500 
 33 H        1.8710     6.4200    -1.0670 H     1 <1>   0.3700 
 34 H       -6.4370     4.8420    -0.0410 H     1 <1>   0.1500 
 35 H        2.3170     8.7560    -1.2730 H     1 <1>   0.0800 
 36 H        0.7280     9.1440    -0.6650 H     1 <1>   0.0800 
 37 H        1.3760     8.4390     1.5890 H     1 <1>   0.0800 
 38 H        2.9710     7.9980     1.0220 H     1 <1>   0.0800 
 39 H        4.5480    10.1350     0.0550 H     1 <1>   0.1500 
 40 H        1.0340    11.1020     2.2340 H     1 <1>   0.1500 
 41 H        2.5890    13.1080     2.0350 H     1 <1>   0.2700 
@<TRIPOS>BOND
  1   1   2  2   
  2   2   3  am  
  3   2   4  1   
  4   3   5  1   
  5   3  24  1   
  6   4   6  1   
  7   4  25  1   
  8   4  26  1   
  9   5   7  1   
 10   5   8  1   
 11   5  27  1   
 12   6   8  1   
 13   7   9  ar  
 14   7  10  ar  
 15   8  11  1   
 16   8  28  1   
 17   9  12  ar  
 18   9  29  1   
 19  10  13  ar  
 20  10  30  1   
 21  11  14  2   
 22  11  15  am  
 23  12  16  ar  
 24  12  31  1   
 25  13  16  ar  
 26  13  32  1   
 27  15  17  1   
 28  15  33  1   
 29  16  34  1   
 30  17  18  1   
 31  17  35  1   
 32  17  36  1   
 33  18  19  1   
 34  18  37  1   
 35  18  38  1   
 36  19  20  1   
 37  19  21  2   
 38  20  22  2   
 39  20  39  1   
 40  21  23  1   
 41  21  40  1   
 42  22  23  1   
 43  23  41  1   
@<TRIPOS>SUBSTRUCTURE
  1 ****  11 GROUP 4 **** **** 0

# MOE 2024.06 (io_trps.svl 2023.06)
