@<TRIPOS>MOLECULE
NONAME
37 37 1 0 0 
SMALL
USER_CHARGES


@<TRIPOS>ATOM
  1 O        4.0540    -1.1600    -0.5850 O.2   1 <1>  -0.5700 
  2 C        3.1600    -0.3660    -0.7340 C.2   1 <1>   0.5690 
  3 N        2.8470     0.0710    -1.9720 N.am  1 <1>  -0.8000 
  4 C        2.4110     0.1760     0.4940 C.3   1 <1>   0.2700 
  5 N        2.5820     1.6630     0.7120 N.pl3 1 <1>  -0.8380 
  6 C        3.7880     2.2880     0.6140 C.ar  1 <1>   0.4100 
  7 C        1.3060     2.4100     0.9280 C.3   1 <1>   0.1290 
  8 N        3.7940     3.5590     0.2610 N.ar  1 <1>  -0.6200 
  9 C        4.9900     1.5980     0.8680 C.ar  1 <1>  -0.1500 
 10 C        4.9610     4.1680     0.1060 C.ar  1 <1>   0.7710 
 11 C        6.1730     2.2340     0.7070 C.ar  1 <1>   0.2180 
 12 N        6.1240     3.5290     0.3200 N.ar  1 <1>  -0.1790 
 13 N        4.9910     5.4770    -0.2780 N.pl3 1 <1>  -0.8380 
 14 C        7.5250     1.5730     0.9420 C.3   1 <1>  -0.0170 
 15 C        3.7280     6.2820    -0.3790 C.3   1 <1>   0.1290 
 16 C        6.1920     6.2630    -0.7030 C.3   1 <1>   0.1290 
 17 C        8.3540     1.4860    -0.3460 C.3   1 <1>  -0.2400 
 18 H        3.3450    -0.2950    -2.7840 H     1 <1>   0.3700 
 19 H        2.1890     0.8330    -2.1410 H     1 <1>   0.3700 
 20 H        2.7510    -0.3500     1.3680 H     1 <1>   0.0800 
 21 H        1.3680    -0.0540     0.3660 H     1 <1>   0.0800 
 22 H        0.6930     1.8950     1.6480 H     1 <1>   0.0800 
 23 H        0.7680     2.4930    -0.0010 H     1 <1>   0.0800 
 24 H        1.5000     3.4000     1.3040 H     1 <1>   0.0800 
 25 H        4.9510     0.5740     1.1880 H     1 <1>   0.1500 
 26 H        6.9580     4.0830     0.1920 H     1 <1>   0.4570 
 27 H        7.3720     0.5750     1.3180 H     1 <1>   0.0800 
 28 H        8.0720     2.1170     1.6930 H     1 <1>   0.0800 
 29 H        2.9530     5.8820     0.2520 H     1 <1>   0.0800 
 30 H        3.3770     6.2830    -1.3970 H     1 <1>   0.0800 
 31 H        3.9080     7.2980    -0.0710 H     1 <1>   0.0800 
 32 H        7.0140     5.6270    -0.9760 H     1 <1>   0.0800 
 33 H        6.4980     6.9220     0.0930 H     1 <1>   0.0800 
 34 H        5.9460     6.8640    -1.5640 H     1 <1>   0.0800 
 35 H        7.8160     0.9370    -1.1010 H     1 <1>   0.0800 
 36 H        9.2760     0.9640    -0.1500 H     1 <1>   0.0800 
 37 H        8.5960     2.4600    -0.7300 H     1 <1>   0.0800 
@<TRIPOS>BOND
  1   1   2  2   
  2   2   3  am  
  3   2   4  1   
  4   3  18  1   
  5   3  19  1   
  6   4   5  1   
  7   4  20  1   
  8   4  21  1   
  9   5   6  1   
 10   5   7  1   
 11   6   8  ar  
 12   6   9  ar  
 13   7  22  1   
 14   7  23  1   
 15   7  24  1   
 16   8  10  ar  
 17   9  11  ar  
 18   9  25  1   
 19  10  12  ar  
 20  10  13  1   
 21  11  12  ar  
 22  11  14  1   
 23  12  26  1   
 24  13  15  1   
 25  13  16  1   
 26  14  17  1   
 27  14  27  1   
 28  14  28  1   
 29  15  29  1   
 30  15  30  1   
 31  15  31  1   
 32  16  32  1   
 33  16  33  1   
 34  16  34  1   
 35  17  35  1   
 36  17  36  1   
 37  17  37  1   
@<TRIPOS>SUBSTRUCTURE
  1 ****   6 GROUP 4 **** **** 0

# MOE 2024.06 (io_trps.svl 2023.06)
