@<TRIPOS>MOLECULE
NONAME
51 54 1 0 0 
SMALL
USER_CHARGES


@<TRIPOS>ATOM
  1 O        0.3510     0.1470    -1.7280 O.2   1 <1>  -0.5700 
  2 C        1.1940    -0.1900    -0.9180 C.2   1 <1>   0.5440 
  3 N        1.9710     0.7800    -0.3210 N.am  1 <1>  -0.6600 
  4 C        1.3570    -1.5950    -0.6160 C.ar  1 <1>   0.0860 
  5 C        2.7220     0.5670     0.9540 C.3   1 <1>   0.1400 
  6 C        2.2480     2.0540    -1.0250 C.3   1 <1>   0.1400 
  7 C        2.6060    -2.2010    -0.6950 C.ar  1 <1>   0.1600 
  8 C        0.2900    -2.3970    -0.2440 C.ar  1 <1>  -0.1500 
  9 C        4.2340     0.8520     0.8600 C.3   1 <1>   0.1100 
 10 C        3.3940     1.8410    -2.0190 C.3   1 <1>  -0.1600 
 11 N        2.8710    -3.4680    -0.4180 N.ar  1 <1>  -0.6200 
 12 C        0.5320    -3.7250     0.0440 C.ar  1 <1>  -0.1430 
 13 N        4.8330     0.5100    -0.4530 N.3   1 <1>  -0.8100 
 14 C        4.7800     1.6480    -1.3910 C.3   1 <1>   0.1100 
 15 C        1.8350    -4.2090    -0.0560 C.ar  1 <1>   0.1670 
 16 C       -0.6400    -4.6130     0.4450 C.3   1 <1>  -0.0170 
 17 C        6.2220     0.0080    -0.2850 C.3   1 <1>   0.2900 
 18 C        2.1640    -5.6600     0.2670 C.3   1 <1>  -0.0170 
 19 C       -0.1880    -5.9040     1.1380 C.3   1 <1>  -0.1600 
 20 C        7.1780     1.0060     0.3670 C.2   1 <1>   0.2980 
 21 C        0.9320    -6.5720     0.3350 C.3   1 <1>  -0.1600 
 22 O        7.7140     1.9600    -0.3280 O.3   1 <1>  -0.2800 
 23 N        7.5510     1.0340     1.5920 N.2   1 <1>  -0.3380 
 24 C        8.4430     2.5900     0.5320 C.2   1 <1>   0.2980 
 25 N        8.3780     2.0740     1.6990 N.2   1 <1>  -0.3380 
 26 C        9.2480     3.7940     0.1030 C.3   1 <1>  -0.0600 
 27 H        2.5900    -0.4420     1.2980 H     1 <1>   0.0800 
 28 H        2.3000     1.2040     1.7110 H     1 <1>   0.0800 
 29 H        2.4940     2.8260    -0.3170 H     1 <1>   0.0800 
 30 H        1.3650     2.3650    -1.5590 H     1 <1>   0.0800 
 31 H        3.4350    -1.5890    -1.0060 H     1 <1>   0.1500 
 32 H       -0.6990    -1.9770    -0.1910 H     1 <1>   0.1500 
 33 H        4.7080     0.2810     1.6410 H     1 <1>   0.0800 
 34 H        4.4160     1.8890     1.0890 H     1 <1>   0.0800 
 35 H        3.4430     2.7060    -2.6550 H     1 <1>   0.0800 
 36 H        3.1670     1.0020    -2.6520 H     1 <1>   0.0800 
 37 H        5.0840     2.5530    -0.8910 H     1 <1>   0.0800 
 38 H        5.4750     1.4750    -2.1950 H     1 <1>   0.0800 
 39 H       -1.1910    -4.8650    -0.4450 H     1 <1>   0.0800 
 40 H       -1.3000    -4.0730     1.1000 H     1 <1>   0.0800 
 41 H        6.6160    -0.2760    -1.2450 H     1 <1>   0.0800 
 42 H        6.1940    -0.8800     0.3210 H     1 <1>   0.0800 
 43 H        2.6720    -5.6760     1.2150 H     1 <1>   0.0800 
 44 H        2.8450    -6.0400    -0.4740 H     1 <1>   0.0800 
 45 H       -1.0240    -6.5740     1.2310 H     1 <1>   0.0800 
 46 H        0.1680    -5.6730     2.1270 H     1 <1>   0.0800 
 47 H        1.2030    -7.5090     0.7880 H     1 <1>   0.0800 
 48 H        0.5840    -6.7720    -0.6640 H     1 <1>   0.0800 
 49 H        9.9430     3.5100    -0.6650 H     1 <1>   0.0800 
 50 H        9.7920     4.1870     0.9420 H     1 <1>   0.0800 
 51 H        8.5900     4.5540    -0.2770 H     1 <1>   0.0800 
@<TRIPOS>BOND
  1   1   2  2   
  2   2   3  am  
  3   2   4  1   
  4   3   5  1   
  5   3   6  1   
  6   4   7  ar  
  7   4   8  ar  
  8   5   9  1   
  9   5  27  1   
 10   5  28  1   
 11   6  10  1   
 12   6  29  1   
 13   6  30  1   
 14   7  11  ar  
 15   7  31  1   
 16   8  12  ar  
 17   8  32  1   
 18   9  13  1   
 19   9  33  1   
 20   9  34  1   
 21  10  14  1   
 22  10  35  1   
 23  10  36  1   
 24  11  15  ar  
 25  12  15  ar  
 26  12  16  1   
 27  13  14  1   
 28  13  17  1   
 29  14  37  1   
 30  14  38  1   
 31  15  18  1   
 32  16  19  1   
 33  16  39  1   
 34  16  40  1   
 35  17  20  1   
 36  17  41  1   
 37  17  42  1   
 38  18  21  1   
 39  18  43  1   
 40  18  44  1   
 41  19  21  1   
 42  19  45  1   
 43  19  46  1   
 44  20  22  1   
 45  20  23  2   
 46  21  47  1   
 47  21  48  1   
 48  22  24  1   
 49  23  25  1   
 50  24  25  2   
 51  24  26  1   
 52  26  49  1   
 53  26  50  1   
 54  26  51  1   
@<TRIPOS>SUBSTRUCTURE
  1 ****   7 GROUP 4 **** **** 0

# MOE 2024.06 (io_trps.svl 2023.06)
