@<TRIPOS>MOLECULE
NONAME
62 65 1 0 0 
SMALL
USER_CHARGES


@<TRIPOS>ATOM
  1 O        1.5510     0.9320     1.7580 O.co2 1 <1>  -0.9000 
  2 C        1.6490     1.3230     0.5840 C.2   1 <1>   0.9060 
  3 O        1.1440     2.3790     0.2100 O.co2 1 <1>  -0.9000 
  4 C        2.4630     0.4620    -0.4010 C.3   1 <1>  -0.1060 
  5 C        3.7350    -0.0200     0.3300 C.3   1 <1>   0.4230 
  6 C        2.9260     1.2990    -1.6280 C.3   1 <1>  -0.1600 
  7 C        1.5970    -0.7410    -0.8790 C.3   1 <1>  -0.1600 
  8 N        3.3520    -0.9610     1.4370 N.4   1 <1>  -0.9590 
  9 C        4.5880     1.1890     0.7720 C.3   1 <1>   0.1400 
 10 C        3.8290     2.4820    -1.2390 C.3   1 <1>   0.1400 
 11 C        2.2090    -2.1010    -0.5030 C.3   1 <1>  -0.1600 
 12 C        2.6090    -2.1730     0.9780 C.3   1 <1>   0.3430 
 13 C        4.4180    -1.2790     2.4250 C.3   1 <1>   0.2630 
 14 N        4.9850     1.9920    -0.4280 N.am  1 <1>  -0.6600 
 15 C        6.3120     2.2230    -0.7010 C.2   1 <1>   0.5690 
 16 O        7.1620     1.5000    -0.2340 O.2   1 <1>  -0.5700 
 17 C        6.7510     3.3610    -1.6140 C.3   1 <1>   0.1570 
 18 N        7.8240     4.1870    -1.0120 N.pl3 1 <1>   0.0480 
 19 C        7.7370     5.3380    -0.2400 C.ar  1 <1>  -0.1520 
 20 C        9.1170     4.0290    -1.3750 C.2   1 <1>  -0.3020 
 21 C        6.6590     5.9650     0.4240 C.ar  1 <1>  -0.1430 
 22 C        9.0210     5.8940    -0.1820 C.ar  1 <1>   0.0000 
 23 C        9.9080     5.0260    -0.8830 C.2   1 <1>  -0.0860 
 24 C        6.8980     7.1670     1.0620 C.ar  1 <1>  -0.1500 
 25 C        5.2700     5.3220     0.4560 C.3   1 <1>  -0.0170 
 26 C        9.2190     7.1200     0.4620 C.ar  1 <1>  -0.1500 
 27 C       11.3310     5.1260    -1.0620 C.2   1 <1>   0.5950 
 28 C        8.1650     7.7460     1.0750 C.ar  1 <1>  -0.1500 
 29 C        4.2310     5.9740     1.3760 C.3   1 <1>  -0.2400 
 30 O       11.9190     4.5650    -1.9550 O.2   1 <1>  -0.5700 
 31 C       12.1850     5.9240    -0.1020 C.3   1 <1>  -0.1790 
 32 H        4.3360    -0.5710    -0.3720 H     1 <1>   0.0800 
 33 H        2.0610     1.6900    -2.1370 H     1 <1>   0.0800 
 34 H        3.4550     0.6740    -2.3260 H     1 <1>   0.0800 
 35 H        0.6200    -0.6710    -0.4280 H     1 <1>   0.0800 
 36 H        1.4420    -0.7050    -1.9440 H     1 <1>   0.0800 
 37 H        2.6190    -0.3740     1.9230 H     1 <1>   0.4500 
 38 H        5.4690     0.8480     1.2830 H     1 <1>   0.0800 
 39 H        4.0340     1.8190     1.4460 H     1 <1>   0.0800 
 40 H        3.2720     3.2040    -0.6630 H     1 <1>   0.0800 
 41 H        4.1590     2.9650    -2.1400 H     1 <1>   0.0800 
 42 H        3.0750    -2.2910    -1.1120 H     1 <1>   0.0800 
 43 H        1.4990    -2.8820    -0.7120 H     1 <1>   0.0800 
 44 H        3.2090    -3.0530     1.1330 H     1 <1>   0.0800 
 45 H        1.7150    -2.2700     1.5740 H     1 <1>   0.0800 
 46 H        5.2350    -1.7880     1.9410 H     1 <1>   0.0800 
 47 H        4.0230    -1.9100     3.2040 H     1 <1>   0.0800 
 48 H        4.7880    -0.3750     2.8780 H     1 <1>   0.0800 
 49 H        5.9370     4.0050    -1.8680 H     1 <1>   0.0800 
 50 H        7.1240     2.9310    -2.5230 H     1 <1>   0.0800 
 51 H        9.4480     3.2020    -1.9790 H     1 <1>   0.1500 
 52 H        6.1180     7.6980     1.5730 H     1 <1>   0.1500 
 53 H        4.8650     5.3140    -0.5380 H     1 <1>   0.0800 
 54 H        5.3880     4.3110     0.7930 H     1 <1>   0.0800 
 55 H       10.1860     7.5810     0.4750 H     1 <1>   0.1500 
 56 H        8.3060     8.6880     1.5750 H     1 <1>   0.1500 
 57 H        4.0010     6.9710     1.0430 H     1 <1>   0.0800 
 58 H        4.5930     6.0070     2.3880 H     1 <1>   0.0800 
 59 H        3.3220     5.3970     1.3610 H     1 <1>   0.0800 
 60 H       11.7710     5.8810     0.8880 H     1 <1>   0.0800 
 61 H       12.2460     6.9420    -0.4360 H     1 <1>   0.0800 
 62 H       13.1750     5.5090    -0.0750 H     1 <1>   0.0800 
@<TRIPOS>BOND
  1   1   2  ar  
  2   2   3  ar  
  3   2   4  1   
  4   4   5  1   
  5   4   6  1   
  6   4   7  1   
  7   5   8  1   
  8   5   9  1   
  9   5  32  1   
 10   6  10  1   
 11   6  33  1   
 12   6  34  1   
 13   7  11  1   
 14   7  35  1   
 15   7  36  1   
 16   8  12  1   
 17   8  13  1   
 18   8  37  1   
 19   9  14  1   
 20   9  38  1   
 21   9  39  1   
 22  10  14  1   
 23  10  40  1   
 24  10  41  1   
 25  11  12  1   
 26  11  42  1   
 27  11  43  1   
 28  12  44  1   
 29  12  45  1   
 30  13  46  1   
 31  13  47  1   
 32  13  48  1   
 33  14  15  am  
 34  15  16  2   
 35  15  17  1   
 36  17  18  1   
 37  17  49  1   
 38  17  50  1   
 39  18  19  1   
 40  18  20  1   
 41  19  21  ar  
 42  19  22  ar  
 43  20  23  2   
 44  20  51  1   
 45  21  24  ar  
 46  21  25  1   
 47  22  23  1   
 48  22  26  ar  
 49  23  27  1   
 50  24  28  ar  
 51  24  52  1   
 52  25  29  1   
 53  25  53  1   
 54  25  54  1   
 55  26  28  ar  
 56  26  55  1   
 57  27  30  2   
 58  27  31  1   
 59  28  56  1   
 60  29  57  1   
 61  29  58  1   
 62  29  59  1   
 63  31  60  1   
 64  31  61  1   
 65  31  62  1   
@<TRIPOS>SUBSTRUCTURE
  1 ****  15 GROUP 4 **** **** 0

# MOE 2024.06 (io_trps.svl 2023.06)
