@<TRIPOS>MOLECULE
NONAME
54 56 1 0 0 
SMALL
USER_CHARGES


@<TRIPOS>ATOM
  1 O       -2.4500     2.1030    -1.0150 O.co2 1 <1>  -0.9000 
  2 C       -1.3820     2.6690    -0.7790 C.2   1 <1>   0.9060 
  3 O       -0.9260     3.5510    -1.5240 O.co2 1 <1>  -0.9000 
  4 C       -0.6950     2.3910     0.5590 C.3   1 <1>  -0.1060 
  5 C       -1.6120     2.8020     1.7540 C.3   1 <1>   0.2000 
  6 C        0.6040     3.2080     0.5820 C.3   1 <1>   0.3430 
  7 C       -0.3510     0.8860     0.6750 C.3   1 <1>  -0.0650 
  8 O       -2.8290     3.2940     1.3230 O.3   1 <1>  -0.6800 
  9 C       -1.0090     3.9100     2.6230 C.3   1 <1>  -0.1600 
 10 N        0.2590     4.6560     0.5920 N.4   1 <1>  -0.9590 
 11 C        0.6810     0.4110    -0.3580 C.3   1 <1>  -0.1950 
 12 C       -0.5840     5.0940     1.7500 C.3   1 <1>   0.3430 
 13 C        1.4130     5.5340     0.2700 C.3   1 <1>   0.3430 
 14 C        1.4250    -0.8660    -0.1350 C.3   1 <1>  -0.2000 
 15 C        2.1520     0.4470    -0.0820 C.3   1 <1>  -0.2000 
 16 C        0.9520     6.8540    -0.3480 C.3   1 <1>   0.1200 
 17 O        2.0670     7.7120    -0.4000 O.3   1 <1>  -0.3630 
 18 C        1.9460     9.0160    -0.7690 C.ar  1 <1>   0.0830 
 19 C        3.0200     9.8740    -0.5250 C.ar  1 <1>  -0.1430 
 20 C        0.7880     9.5050    -1.3700 C.ar  1 <1>  -0.1500 
 21 C        2.9100    11.2220    -0.8590 C.ar  1 <1>  -0.1430 
 22 C        4.3050     9.3440     0.1140 C.3   1 <1>  -0.0970 
 23 C        0.6920    10.8400    -1.7070 C.ar  1 <1>  -0.1500 
 24 C        1.7480    11.6930    -1.4490 C.ar  1 <1>  -0.1500 
 25 C        4.0350    12.2150    -0.5960 C.3   1 <1>  -0.0970 
 26 H       -1.8360     1.9450     2.3670 H     1 <1>   0.0800 
 27 H        1.1710     2.9770    -0.3060 H     1 <1>   0.0800 
 28 H        1.1920     2.9550     1.4470 H     1 <1>   0.0800 
 29 H        0.0190     0.6700     1.6620 H     1 <1>   0.0800 
 30 H       -1.2530     0.3110     0.5380 H     1 <1>   0.0800 
 31 H       -3.0700     2.8290     0.4670 H     1 <1>   0.4000 
 32 H       -1.7330     4.2340     3.3500 H     1 <1>   0.0800 
 33 H       -0.1610     3.5350     3.1660 H     1 <1>   0.0800 
 34 H       -0.3630     4.6680    -0.2620 H     1 <1>   0.4500 
 35 H        0.3530     0.5850    -1.3720 H     1 <1>   0.1000 
 36 H       -0.0460     5.8050     2.3540 H     1 <1>   0.0800 
 37 H       -1.4720     5.5760     1.3710 H     1 <1>   0.0800 
 38 H        1.9760     5.7330     1.1660 H     1 <1>   0.0800 
 39 H        2.0530     5.0370    -0.4410 H     1 <1>   0.0800 
 40 H        1.2670    -1.4110     0.7800 H     1 <1>   0.1000 
 41 H        1.5850    -1.5170    -0.9770 H     1 <1>   0.1000 
 42 H        2.8240     0.6890    -0.8880 H     1 <1>   0.1000 
 43 H        2.5220     0.7680     0.8760 H     1 <1>   0.1000 
 44 H        0.2010     7.3260     0.2600 H     1 <1>   0.0800 
 45 H        0.5930     6.6950    -1.3500 H     1 <1>   0.0800 
 46 H       -0.0480     8.8690    -1.5890 H     1 <1>   0.1500 
 47 H        5.1690     9.7890    -0.3440 H     1 <1>   0.0800 
 48 H        4.4010     8.2810    -0.0040 H     1 <1>   0.0800 
 49 H        4.3080     9.5740     1.1640 H     1 <1>   0.0800 
 50 H       -0.2020    11.2190    -2.1710 H     1 <1>   0.1500 
 51 H        1.6560    12.7320    -1.7150 H     1 <1>   0.1500 
 52 H        3.7060    13.2250    -0.7600 H     1 <1>   0.0800 
 53 H        4.8600    12.0170    -1.2550 H     1 <1>   0.0800 
 54 H        4.3700    12.1380     0.4230 H     1 <1>   0.0800 
@<TRIPOS>BOND
  1   1   2  ar  
  2   2   3  ar  
  3   2   4  1   
  4   4   5  1   
  5   4   6  1   
  6   4   7  1   
  7   5   8  1   
  8   5   9  1   
  9   5  26  1   
 10   6  10  1   
 11   6  27  1   
 12   6  28  1   
 13   7  11  1   
 14   7  29  1   
 15   7  30  1   
 16   8  31  1   
 17   9  12  1   
 18   9  32  1   
 19   9  33  1   
 20  10  12  1   
 21  10  13  1   
 22  10  34  1   
 23  11  14  1   
 24  11  15  1   
 25  11  35  1   
 26  12  36  1   
 27  12  37  1   
 28  13  16  1   
 29  13  38  1   
 30  13  39  1   
 31  14  15  1   
 32  14  40  1   
 33  14  41  1   
 34  15  42  1   
 35  15  43  1   
 36  16  17  1   
 37  16  44  1   
 38  16  45  1   
 39  17  18  1   
 40  18  19  ar  
 41  18  20  ar  
 42  19  21  ar  
 43  19  22  1   
 44  20  23  ar  
 45  20  46  1   
 46  21  24  ar  
 47  21  25  1   
 48  22  47  1   
 49  22  48  1   
 50  22  49  1   
 51  23  24  ar  
 52  23  50  1   
 53  24  51  1   
 54  25  52  1   
 55  25  53  1   
 56  25  54  1   
@<TRIPOS>SUBSTRUCTURE
  1 ****  13 GROUP 4 **** **** 0

# MOE 2024.06 (io_trps.svl 2023.06)
