@<TRIPOS>MOLECULE
NONAME
61 64 1 0 0 
SMALL
USER_CHARGES


@<TRIPOS>ATOM
  1 O       -1.6920    -0.1990     0.3560 O.2   1 <1>  -0.5700 
  2 C       -2.4450     0.7460     0.2220 C.2   1 <1>   0.7160 
  3 N       -3.7590     0.5380     0.5220 N.am  1 <1>  -0.7300 
  4 C       -1.9970     2.0290    -0.2300 C.2   1 <1>  -0.0860 
  5 C       -4.2890    -0.6320     1.2680 C.3   1 <1>   0.1400 
  6 C       -2.7710     3.1960    -0.2890 C.2   1 <1>   0.3720 
  7 C       -0.7770     2.4500    -0.6670 C.2   1 <1>   0.0870 
  8 C       -4.2820    -1.8920     0.3850 C.3   1 <1>   0.2000 
  9 N       -2.0820     4.1960    -0.7080 N.2   1 <1>  -0.4100 
 10 N       -4.1230     3.3030     0.0670 N.pl3 1 <1>  -0.8210 
 11 O       -0.8840     3.7280    -0.9270 O.3   1 <1>  -0.0190 
 12 C        0.4920     1.7980    -0.8730 C.ar  1 <1>   0.0530 
 13 O       -4.9960    -1.6310    -0.7870 O.3   1 <1>  -0.6800 
 14 C       -4.8940    -3.1200     1.0880 C.3   1 <1>   0.3430 
 15 C       -4.9730     3.8550    -1.0370 C.3   1 <1>   0.2090 
 16 C       -4.3200     4.1420     1.2920 C.3   1 <1>   0.2090 
 17 C        0.5960     0.5520    -1.4890 C.ar  1 <1>  -0.1500 
 18 C        1.6760     2.4160    -0.4700 C.ar  1 <1>  -0.1500 
 19 N       -5.2980    -4.1410     0.0750 N.4   1 <1>  -0.9590 
 20 C       -6.4430     3.9720    -0.5960 C.3   1 <1>   0.1200 
 21 C       -5.8130     4.2540     1.6530 C.3   1 <1>   0.1200 
 22 C        1.8220    -0.0540    -1.6880 C.ar  1 <1>  -0.1500 
 23 C        2.9070     1.8170    -0.6660 C.ar  1 <1>  -0.1500 
 24 C       -6.4080    -5.0140     0.5480 C.3   1 <1>   0.3430 
 25 C       -4.1370    -4.9140    -0.4520 C.3   1 <1>   0.3430 
 26 O       -6.5560     4.7400     0.5700 O.3   1 <1>  -0.5600 
 27 C        2.9820     0.5770    -1.2760 C.ar  1 <1>  -0.1500 
 28 C       -6.8970    -5.8920    -0.6050 C.3   1 <1>  -0.1600 
 29 C       -4.5920    -5.7900    -1.6210 C.3   1 <1>  -0.1600 
 30 C       -5.7550    -6.7090    -1.2250 C.3   1 <1>  -0.1600 
 31 H       -4.3310     1.3990     0.5000 H     1 <1>   0.3700 
 32 H       -5.2910    -0.4190     1.6010 H     1 <1>   0.0800 
 33 H       -3.6740    -0.7980     2.1370 H     1 <1>   0.0800 
 34 H       -3.2680    -2.1210     0.1060 H     1 <1>   0.0800 
 35 H       -4.6750    -0.7750    -1.1530 H     1 <1>   0.4000 
 36 H       -5.7640    -2.7940     1.6320 H     1 <1>   0.0800 
 37 H       -4.1940    -3.5350     1.7940 H     1 <1>   0.0800 
 38 H       -4.9060     3.2120    -1.8970 H     1 <1>   0.0800 
 39 H       -4.6160     4.8310    -1.3250 H     1 <1>   0.0800 
 40 H       -3.9240     5.1300     1.1270 H     1 <1>   0.0800 
 41 H       -3.7850     3.7040     2.1170 H     1 <1>   0.0800 
 42 H       -0.2960     0.0510    -1.8190 H     1 <1>   0.1500 
 43 H        1.6290     3.3810     0.0030 H     1 <1>   0.1500 
 44 H       -5.6480    -3.5660    -0.7150 H     1 <1>   0.4500 
 45 H       -6.8610     2.9990    -0.4090 H     1 <1>   0.0800 
 46 H       -7.0220     4.4560    -1.3630 H     1 <1>   0.0800 
 47 H       -5.9460     4.9380     2.4720 H     1 <1>   0.0800 
 48 H       -6.2080     3.2940     1.9360 H     1 <1>   0.0800 
 49 H        1.8770    -1.0180    -2.1630 H     1 <1>   0.1500 
 50 H        3.8060     2.3130    -0.3460 H     1 <1>   0.1500 
 51 H       -7.2250    -4.4100     0.9090 H     1 <1>   0.0800 
 52 H       -6.0620    -5.6390     1.3550 H     1 <1>   0.0800 
 53 H       -3.7280    -5.5370     0.3270 H     1 <1>   0.0800 
 54 H       -3.3670    -4.2400    -0.7920 H     1 <1>   0.0800 
 55 H        3.9380     0.1070    -1.4290 H     1 <1>   0.1500 
 56 H       -7.3520    -5.2710    -1.3570 H     1 <1>   0.0800 
 57 H       -7.6560    -6.5620    -0.2400 H     1 <1>   0.0800 
 58 H       -3.7630    -6.3880    -1.9560 H     1 <1>   0.0800 
 59 H       -4.8860    -5.1590    -2.4420 H     1 <1>   0.0800 
 60 H       -6.1130    -7.2380    -2.0930 H     1 <1>   0.0800 
 61 H       -5.4090    -7.4410    -0.5140 H     1 <1>   0.0800 
@<TRIPOS>BOND
  1   1   2  2   
  2   2   3  am  
  3   2   4  1   
  4   3   5  1   
  5   3  31  1   
  6   4   6  1   
  7   4   7  2   
  8   5   8  1   
  9   5  32  1   
 10   5  33  1   
 11   6   9  2   
 12   6  10  1   
 13   7  11  1   
 14   7  12  1   
 15   8  13  1   
 16   8  14  1   
 17   8  34  1   
 18   9  11  1   
 19  10  15  1   
 20  10  16  1   
 21  12  17  ar  
 22  12  18  ar  
 23  13  35  1   
 24  14  19  1   
 25  14  36  1   
 26  14  37  1   
 27  15  20  1   
 28  15  38  1   
 29  15  39  1   
 30  16  21  1   
 31  16  40  1   
 32  16  41  1   
 33  17  22  ar  
 34  17  42  1   
 35  18  23  ar  
 36  18  43  1   
 37  19  24  1   
 38  19  25  1   
 39  19  44  1   
 40  20  26  1   
 41  20  45  1   
 42  20  46  1   
 43  21  26  1   
 44  21  47  1   
 45  21  48  1   
 46  22  27  ar  
 47  22  49  1   
 48  23  27  ar  
 49  23  50  1   
 50  24  28  1   
 51  24  51  1   
 52  24  52  1   
 53  25  29  1   
 54  25  53  1   
 55  25  54  1   
 56  27  55  1   
 57  28  30  1   
 58  28  56  1   
 59  28  57  1   
 60  29  30  1   
 61  29  58  1   
 62  29  59  1   
 63  30  60  1   
 64  30  61  1   
@<TRIPOS>SUBSTRUCTURE
  1 ****   2 GROUP 4 **** **** 0

# MOE 2024.06 (io_trps.svl 2023.06)
