@<TRIPOS>MOLECULE
NONAME
50 52 1 0 0 
SMALL
USER_CHARGES


@<TRIPOS>ATOM
  1 O       -0.7100     0.5330     1.7820 O.2   1 <1>  -0.5700 
  2 C       -1.7180     1.0800     1.4010 C.2   1 <1>   0.5690 
  3 N       -2.8890     0.3970     1.2340 N.am  1 <1>  -0.6600 
  4 C       -1.6210     2.5580     1.0870 C.3   1 <1>  -0.0990 
  5 C       -4.1690     0.9350     0.7190 C.3   1 <1>   0.1400 
  6 C       -2.9800    -1.0630     1.4470 C.3   1 <1>   0.1400 
  7 C       -1.1030     2.7690    -0.3400 C.3   1 <1>  -0.0160 
  8 C       -5.1880    -0.2040     0.8830 C.3   1 <1>  -0.0800 
  9 C       -4.3360    -1.4870     0.8790 C.3   1 <1>  -0.0800 
 10 C       -0.7840     4.2380    -0.5850 C.ar  1 <1>  -0.1440 
 11 C       -6.3880    -0.2080    -0.1150 C.3   1 <1>   0.2800 
 12 C       -4.2260    -2.0680    -0.5390 C.3   1 <1>  -0.1600 
 13 C        0.4020     4.8180    -0.1400 C.ar  1 <1>   0.0820 
 14 C       -1.6960     5.0280    -1.2680 C.ar  1 <1>  -0.1500 
 15 O       -6.0350     0.4120    -1.2990 O.3   1 <1>  -0.6800 
 16 C       -6.7700    -1.6540    -0.4810 C.3   1 <1>  -0.1600 
 17 C       -7.6220     0.5420     0.4330 C.3   1 <1>  -0.1600 
 18 C       -5.6070    -2.4630    -1.0960 C.3   1 <1>  -0.1600 
 19 O        1.3160     4.1000     0.5350 O.3   1 <1>  -0.5320 
 20 C        0.6690     6.1550    -0.3780 C.ar  1 <1>  -0.1500 
 21 C       -1.4310     6.3670    -1.5060 C.ar  1 <1>  -0.1500 
 22 C       -7.4070     2.0310     0.7580 C.3   1 <1>  -0.2400 
 23 C       -0.2470     6.9320    -1.0620 C.ar  1 <1>  -0.1500 
 24 H       -2.5690     3.0450     1.2120 H     1 <1>   0.0800 
 25 H       -0.9410     3.0020     1.7900 H     1 <1>   0.0800 
 26 H       -4.4730     1.8040     1.2740 H     1 <1>   0.0800 
 27 H       -4.0270     1.2000    -0.3130 H     1 <1>   0.0800 
 28 H       -2.1620    -1.5690     0.9620 H     1 <1>   0.0800 
 29 H       -2.9380    -1.2590     2.5050 H     1 <1>   0.0800 
 30 H       -1.8450     2.4290    -1.0420 H     1 <1>   0.0800 
 31 H       -0.2220     2.1740    -0.5050 H     1 <1>   0.0800 
 32 H       -5.5880    -0.1230     1.8770 H     1 <1>   0.0800 
 33 H       -4.7690    -2.2340     1.5210 H     1 <1>   0.0800 
 34 H       -3.7880    -1.3250    -1.1840 H     1 <1>   0.0800 
 35 H       -3.5760    -2.9260    -0.5440 H     1 <1>   0.0800 
 36 H       -2.6200     4.6070    -1.6220 H     1 <1>   0.1500 
 37 H       -6.7580     0.3070    -1.9420 H     1 <1>   0.4000 
 38 H       -7.0830    -2.1510     0.4210 H     1 <1>   0.0800 
 39 H       -7.6130    -1.6670    -1.1490 H     1 <1>   0.0800 
 40 H       -8.4240     0.4620    -0.2800 H     1 <1>   0.0800 
 41 H       -7.9560     0.0470     1.3280 H     1 <1>   0.0800 
 42 H       -5.7820    -3.5090    -0.9150 H     1 <1>   0.0800 
 43 H       -5.5950    -2.3190    -2.1630 H     1 <1>   0.0800 
 44 H        1.0400     3.1770     0.6830 H     1 <1>   0.4500 
 45 H        1.5930     6.5780    -0.0250 H     1 <1>   0.1500 
 46 H       -2.1460     6.9700    -2.0380 H     1 <1>   0.1500 
 47 H       -7.0230     2.5580    -0.0980 H     1 <1>   0.0800 
 48 H       -6.7210     2.1500     1.5770 H     1 <1>   0.0800 
 49 H       -8.3420     2.4810     1.0400 H     1 <1>   0.0800 
 50 H       -0.0410     7.9710    -1.2470 H     1 <1>   0.1500 
@<TRIPOS>BOND
  1   1   2  2   
  2   2   3  am  
  3   2   4  1   
  4   3   5  1   
  5   3   6  1   
  6   4   7  1   
  7   4  24  1   
  8   4  25  1   
  9   5   8  1   
 10   5  26  1   
 11   5  27  1   
 12   6   9  1   
 13   6  28  1   
 14   6  29  1   
 15   7  10  1   
 16   7  30  1   
 17   7  31  1   
 18   8   9  1   
 19   8  11  1   
 20   8  32  1   
 21   9  12  1   
 22   9  33  1   
 23  10  13  ar  
 24  10  14  ar  
 25  11  15  1   
 26  11  16  1   
 27  11  17  1   
 28  12  18  1   
 29  12  34  1   
 30  12  35  1   
 31  13  19  1   
 32  13  20  ar  
 33  14  21  ar  
 34  14  36  1   
 35  15  37  1   
 36  16  18  1   
 37  16  38  1   
 38  16  39  1   
 39  17  22  1   
 40  17  40  1   
 41  17  41  1   
 42  18  42  1   
 43  18  43  1   
 44  19  44  1   
 45  20  23  ar  
 46  20  45  1   
 47  21  23  ar  
 48  21  46  1   
 49  22  47  1   
 50  22  48  1   
 51  22  49  1   
 52  23  50  1   
@<TRIPOS>SUBSTRUCTURE
  1 ****   5 GROUP 4 **** **** 0

# MOE 2024.06 (io_trps.svl 2023.06)
