@<TRIPOS>MOLECULE
NONAME
57 59 1 0 0 
SMALL
USER_CHARGES


@<TRIPOS>ATOM
  1 O       -1.2890     0.5200     1.5220 O.2   1 <1>  -0.5700 
  2 C       -2.1830     1.3470     1.4750 C.2   1 <1>   0.5440 
  3 N       -3.4770     0.8880     1.3890 N.am  1 <1>  -0.6600 
  4 C       -1.8650     2.7660     1.4820 C.ar  1 <1>   0.0860 
  5 C       -3.8000    -0.5250     1.7440 C.3   1 <1>   0.1400 
  6 C       -4.4770     1.5060     0.4720 C.3   1 <1>   0.1400 
  7 C       -0.7150     3.2430     0.8580 C.ar  1 <1>  -0.1500 
  8 C       -2.6880     3.6980     2.1150 C.ar  1 <1>  -0.1500 
  9 C       -3.8000    -1.3720     0.4500 C.3   1 <1>   0.4230 
 10 C       -4.5460     0.6680    -0.8150 C.3   1 <1>  -0.1600 
 11 C       -0.3860     4.5900     0.8370 C.ar  1 <1>   0.1170 
 12 C       -2.3790     5.0450     2.1090 C.ar  1 <1>  -0.1500 
 13 N       -3.9970    -2.8450     0.6730 N.4   1 <1>  -0.9590 
 14 C       -4.8640    -0.8290    -0.5300 C.3   1 <1>  -0.1060 
 15 N        0.7970     4.9840     0.1940 N.am  1 <1>  -0.5470 
 16 C       -1.2350     5.4890     1.4730 C.ar  1 <1>  -0.1500 
 17 C       -3.8660    -3.6190    -0.5880 C.3   1 <1>   0.3430 
 18 C       -3.1950    -3.4280     1.7810 C.3   1 <1>   0.2630 
 19 C       -6.2530    -0.9760     0.1220 C.2   1 <1>   0.9060 
 20 C       -4.7940    -1.6150    -1.8600 C.3   1 <1>  -0.1600 
 21 C        1.1620     6.1870    -0.3510 C.2   1 <1>   0.5690 
 22 C       -4.8820    -3.1310    -1.6230 C.3   1 <1>  -0.1600 
 23 O       -6.4600    -1.9340     0.8840 O.co2 1 <1>  -0.9000 
 24 O       -7.1240    -0.1390    -0.1100 O.co2 1 <1>  -0.9000 
 25 O        0.4300     7.1460    -0.3900 O.2   1 <1>  -0.5700 
 26 C        2.5670     6.2950    -0.9530 C.3   1 <1>  -0.0190 
 27 C        3.3720     7.4410    -0.3170 C.3   1 <1>  -0.2400 
 28 C        2.5090     6.4760    -2.4790 C.3   1 <1>  -0.2400 
 29 H       -3.0600    -0.8870     2.4330 H     1 <1>   0.0800 
 30 H       -4.7600    -0.5580     2.2290 H     1 <1>   0.0800 
 31 H       -5.4410     1.5320     0.9530 H     1 <1>   0.0800 
 32 H       -4.2010     2.5160     0.2240 H     1 <1>   0.0800 
 33 H       -0.0670     2.5340     0.3760 H     1 <1>   0.1500 
 34 H       -3.5770     3.3600     2.6190 H     1 <1>   0.1500 
 35 H       -2.8320    -1.2360     0.0000 H     1 <1>   0.0800 
 36 H       -5.3090     1.0830    -1.4520 H     1 <1>   0.0800 
 37 H       -3.6080     0.7620    -1.3340 H     1 <1>   0.0800 
 38 H       -3.0280     5.7510     2.5990 H     1 <1>   0.1500 
 39 H       -5.0220    -2.8690     0.9290 H     1 <1>   0.4500 
 40 H        1.4850     4.2420     0.0870 H     1 <1>   0.3700 
 41 H       -1.0040     6.5390     1.4790 H     1 <1>   0.1500 
 42 H       -2.8690    -3.5030    -0.9800 H     1 <1>   0.0800 
 43 H       -4.0380    -4.6640    -0.3930 H     1 <1>   0.0800 
 44 H       -2.1430    -3.2950     1.5900 H     1 <1>   0.0800 
 45 H       -3.4070    -4.4800     1.8770 H     1 <1>   0.0800 
 46 H       -3.4450    -2.9470     2.7120 H     1 <1>   0.0800 
 47 H       -5.6040    -1.3050    -2.5000 H     1 <1>   0.0800 
 48 H       -3.8700    -1.3940    -2.3670 H     1 <1>   0.0800 
 49 H       -4.7170    -3.6480    -2.5520 H     1 <1>   0.0800 
 50 H       -5.8740    -3.3900    -1.2900 H     1 <1>   0.0800 
 51 H        3.0940     5.3790    -0.7520 H     1 <1>   0.0800 
 52 H        2.8920     8.3850    -0.5110 H     1 <1>   0.0800 
 53 H        4.3690     7.4710    -0.7180 H     1 <1>   0.0800 
 54 H        3.4320     7.3040     0.7480 H     1 <1>   0.0800 
 55 H        2.0020     7.3940    -2.7240 H     1 <1>   0.0800 
 56 H        1.9710     5.6620    -2.9300 H     1 <1>   0.0800 
 57 H        3.5000     6.5070    -2.8950 H     1 <1>   0.0800 
@<TRIPOS>BOND
  1   1   2  2   
  2   2   3  am  
  3   2   4  1   
  4   3   5  1   
  5   3   6  1   
  6   4   7  ar  
  7   4   8  ar  
  8   5   9  1   
  9   5  29  1   
 10   5  30  1   
 11   6  10  1   
 12   6  31  1   
 13   6  32  1   
 14   7  11  ar  
 15   7  33  1   
 16   8  12  ar  
 17   8  34  1   
 18   9  13  1   
 19   9  14  1   
 20   9  35  1   
 21  10  14  1   
 22  10  36  1   
 23  10  37  1   
 24  11  15  1   
 25  11  16  ar  
 26  12  16  ar  
 27  12  38  1   
 28  13  17  1   
 29  13  18  1   
 30  13  39  1   
 31  14  19  1   
 32  14  20  1   
 33  15  21  am  
 34  15  40  1   
 35  16  41  1   
 36  17  22  1   
 37  17  42  1   
 38  17  43  1   
 39  18  44  1   
 40  18  45  1   
 41  18  46  1   
 42  19  23  ar  
 43  19  24  ar  
 44  20  22  1   
 45  20  47  1   
 46  20  48  1   
 47  21  25  2   
 48  21  26  1   
 49  22  49  1   
 50  22  50  1   
 51  26  27  1   
 52  26  28  1   
 53  26  51  1   
 54  27  52  1   
 55  27  53  1   
 56  27  54  1   
 57  28  55  1   
 58  28  56  1   
 59  28  57  1   
@<TRIPOS>SUBSTRUCTURE
  1 ****   2 GROUP 4 **** **** 0

# MOE 2024.06 (io_trps.svl 2023.06)
