@<TRIPOS>MOLECULE
NONAME
49 51 1 0 0 
SMALL
USER_CHARGES


@<TRIPOS>ATOM
  1 O        2.8470    -0.3650     1.6690 O.3   1 <1>  -0.6800 
  2 C        1.6510    -0.2690     0.9450 C.3   1 <1>   0.1200 
  3 C        1.9380     0.0500    -0.5400 C.3   1 <1>   0.3430 
  4 N        3.2840    -0.4750    -0.9410 N.4   1 <1>  -0.9590 
  5 C        4.0650     0.4970    -1.7420 C.3   1 <1>   0.4810 
  6 C        3.2500    -1.7990    -1.6060 C.3   1 <1>   0.5230 
  7 C        4.2170     1.7960    -0.9810 C.2   1 <1>  -0.2540 
  8 C        2.5270    -2.7900    -0.7300 C.2   1 <1>  -0.3320 
  9 C        3.6890     2.9780    -1.3300 C.2   1 <1>  -0.2880 
 10 C        5.0710     1.7480     0.2910 C.3   1 <1>   0.1160 
 11 N        3.0380    -3.3990     0.3630 N.pl3 1 <1>   0.0480 
 12 C        1.2620    -3.2450    -0.8700 C.2   1 <1>   0.0770 
 13 C        3.9820     4.2140    -0.4730 C.3   1 <1>  -0.0220 
 14 C        6.1240     2.9150     0.3480 C.3   1 <1>   0.0000 
 15 C        4.3110     2.5350     1.4090 C.3   1 <1>   0.0000 
 16 C        2.0260    -4.1680     0.8230 C.2   1 <1>   0.0360 
 17 C        4.3960    -3.3130     0.9380 C.3   1 <1>   0.0160 
 18 N        0.9460    -4.0950     0.1170 N.2   1 <1>  -0.5650 
 19 C        4.8880     3.8150     0.7240 C.3   1 <1>   0.0000 
 20 C        7.1900     2.7810     1.4630 C.3   1 <1>  -0.2400 
 21 C        6.8580     3.2550    -0.9680 C.3   1 <1>  -0.2400 
 22 H        2.6520    -0.4460     2.6290 H     1 <1>   0.4000 
 23 H        1.1260    -1.2040     1.0370 H     1 <1>   0.0800 
 24 H        1.0450     0.5080     1.3780 H     1 <1>   0.0800 
 25 H        1.9160     1.1210    -0.6520 H     1 <1>   0.0800 
 26 H        1.1600    -0.3590    -1.1630 H     1 <1>   0.0800 
 27 H        3.7440    -0.5760    -0.0210 H     1 <1>   0.4500 
 28 H        5.0440     0.1010    -1.9600 H     1 <1>   0.0800 
 29 H        3.5610     0.6900    -2.6750 H     1 <1>   0.0800 
 30 H        2.7340    -1.7180    -2.5490 H     1 <1>   0.0800 
 31 H        4.2510    -2.1510    -1.7970 H     1 <1>   0.0800 
 32 H        3.0710     3.1700    -2.1920 H     1 <1>   0.1500 
 33 H        5.4320     0.7790     0.5900 H     1 <1>   0.0000 
 34 H        0.5370    -3.0070    -1.6330 H     1 <1>   0.1500 
 35 H        3.0600     4.6280    -0.1020 H     1 <1>   0.0800 
 36 H        4.4730     4.9670    -1.0640 H     1 <1>   0.0800 
 37 H        3.2380     2.4550     1.3580 H     1 <1>   0.0000 
 38 H        4.6690     2.3560     2.4070 H     1 <1>   0.0000 
 39 H        2.1280    -4.7860     1.6990 H     1 <1>   0.1500 
 40 H        5.1140    -3.6560     0.2160 H     1 <1>   0.0800 
 41 H        4.4550    -3.9360     1.8130 H     1 <1>   0.0800 
 42 H        4.6110    -2.2990     1.2150 H     1 <1>   0.0800 
 43 H        5.1050     4.6190     1.4060 H     1 <1>   0.0000 
 44 H        7.7310     3.7060     1.5580 H     1 <1>   0.0800 
 45 H        7.8920     2.0080     1.2090 H     1 <1>   0.0800 
 46 H        6.7830     2.5470     2.4280 H     1 <1>   0.0800 
 47 H        7.3900     4.1830    -0.8550 H     1 <1>   0.0800 
 48 H        6.2060     3.3580    -1.8130 H     1 <1>   0.0800 
 49 H        7.5730     2.4860    -1.1980 H     1 <1>   0.0800 
@<TRIPOS>BOND
  1   1   2  1   
  2   1  22  1   
  3   2   3  1   
  4   2  23  1   
  5   2  24  1   
  6   3   4  1   
  7   3  25  1   
  8   3  26  1   
  9   4   5  1   
 10   4   6  1   
 11   4  27  1   
 12   5   7  1   
 13   5  28  1   
 14   5  29  1   
 15   6   8  1   
 16   6  30  1   
 17   6  31  1   
 18   7   9  2   
 19   7  10  1   
 20   8  11  1   
 21   8  12  2   
 22   9  13  1   
 23   9  32  1   
 24  10  14  1   
 25  10  15  1   
 26  10  33  1   
 27  11  16  1   
 28  11  17  1   
 29  12  18  1   
 30  12  34  1   
 31  13  19  1   
 32  13  35  1   
 33  13  36  1   
 34  14  19  1   
 35  14  20  1   
 36  14  21  1   
 37  15  19  1   
 38  15  37  1   
 39  15  38  1   
 40  16  18  2   
 41  16  39  1   
 42  17  40  1   
 43  17  41  1   
 44  17  42  1   
 45  19  43  1   
 46  20  44  1   
 47  20  45  1   
 48  20  46  1   
 49  21  47  1   
 50  21  48  1   
 51  21  49  1   
@<TRIPOS>SUBSTRUCTURE
  1 ****   4 GROUP 4 **** **** 0

# MOE 2024.06 (io_trps.svl 2023.06)
