@<TRIPOS>MOLECULE
NONAME
46 48 1 0 0 
SMALL
USER_CHARGES


@<TRIPOS>ATOM
  1 F        1.9540     0.9980     0.7550 F     1 <1>  -0.1900 
  2 C        2.4520    -0.1160     0.2900 C.ar  1 <1>   0.1900 
  3 C        3.4820    -0.0610    -0.6480 C.ar  1 <1>   0.0860 
  4 C        1.9270    -1.2980     0.7700 C.ar  1 <1>  -0.1500 
  5 C        4.0290     1.1820    -1.1430 C.2   1 <1>   0.5440 
  6 C        3.9610    -1.2880    -1.1120 C.ar  1 <1>  -0.1500 
  7 C        2.4300    -2.5000     0.3030 C.ar  1 <1>   0.0830 
  8 O        3.9600     1.4030    -2.3360 O.2   1 <1>  -0.5700 
  9 N        4.6660     2.1170    -0.3450 N.am  1 <1>  -0.6600 
 10 C        3.4510    -2.4880    -0.6470 C.ar  1 <1>  -0.1500 
 11 O        1.8840    -3.6280     0.8070 O.3   1 <1>  -0.3620 
 12 C        5.0050     1.8630     1.1060 C.3   1 <1>   0.2200 
 13 C        4.9810     3.4570    -0.9500 C.3   1 <1>   0.1400 
 14 C        2.2570    -4.9100     0.3480 C.3   1 <1>   0.0400 
 15 C        4.3470     2.8900     2.0410 C.3   1 <1>   0.1200 
 16 C        6.5300     1.7710     1.3560 C.3   1 <1>   0.3430 
 17 C        5.8330     4.4110    -0.0960 C.3   1 <1>  -0.0800 
 18 O        5.1500     4.0200     2.1920 O.3   1 <1>  -0.5600 
 19 N        7.3540     2.4050     0.2840 N.4   1 <1>  -0.9590 
 20 C        5.0990     4.9340     1.1470 C.3   1 <1>   0.1200 
 21 C        7.2480     3.8980     0.2200 C.3   1 <1>   0.3430 
 22 C        8.8210     2.0040     0.3720 C.3   1 <1>   0.2370 
 23 C        9.7130     2.5280    -0.7600 C.2   1 <1>   0.9060 
 24 O        9.9500     1.7760    -1.7050 O.co2 1 <1>  -0.9000 
 25 O       10.0660     3.7110    -0.7170 O.co2 1 <1>  -0.9000 
 26 H        1.1340    -1.2940     1.4950 H     1 <1>   0.1500 
 27 H        4.7400    -1.2910    -1.8560 H     1 <1>   0.1500 
 28 H        3.8530    -3.4060    -1.0350 H     1 <1>   0.1500 
 29 H        4.6000     0.9130     1.3970 H     1 <1>   0.0800 
 30 H        5.4930     3.2960    -1.8850 H     1 <1>   0.0800 
 31 H        4.0480     3.9410    -1.1890 H     1 <1>   0.0800 
 32 H        1.6690    -5.6380     0.8780 H     1 <1>   0.0800 
 33 H        3.3010    -5.0650     0.5530 H     1 <1>   0.0800 
 34 H        2.0560    -4.9760    -0.7060 H     1 <1>   0.0800 
 35 H        4.2440     2.4590     3.0210 H     1 <1>   0.0800 
 36 H        3.3670     3.1740     1.6950 H     1 <1>   0.0800 
 37 H        6.7910     0.7290     1.4190 H     1 <1>   0.0800 
 38 H        6.7630     2.2190     2.3080 H     1 <1>   0.0800 
 39 H        5.9800     5.2830    -0.7070 H     1 <1>   0.0800 
 40 H        7.0030     2.0580    -0.6250 H     1 <1>   0.4500 
 41 H        4.0700     5.1710     0.9320 H     1 <1>   0.0800 
 42 H        5.5810     5.8300     1.4980 H     1 <1>   0.0800 
 43 H        7.5920     4.3290     1.1460 H     1 <1>   0.0800 
 44 H        7.9020     4.2550    -0.5600 H     1 <1>   0.0800 
 45 H        9.2410     2.3670     1.2920 H     1 <1>   0.0800 
 46 H        8.9070     0.9330     0.3580 H     1 <1>   0.0800 
@<TRIPOS>BOND
  1   1   2  1   
  2   2   3  ar  
  3   2   4  ar  
  4   3   5  1   
  5   3   6  ar  
  6   4   7  ar  
  7   4  26  1   
  8   5   8  2   
  9   5   9  am  
 10   6  10  ar  
 11   6  27  1   
 12   7  10  ar  
 13   7  11  1   
 14   9  12  1   
 15   9  13  1   
 16  10  28  1   
 17  11  14  1   
 18  12  15  1   
 19  12  16  1   
 20  12  29  1   
 21  13  17  1   
 22  13  30  1   
 23  13  31  1   
 24  14  32  1   
 25  14  33  1   
 26  14  34  1   
 27  15  18  1   
 28  15  35  1   
 29  15  36  1   
 30  16  19  1   
 31  16  37  1   
 32  16  38  1   
 33  17  20  1   
 34  17  21  1   
 35  17  39  1   
 36  18  20  1   
 37  19  21  1   
 38  19  22  1   
 39  19  40  1   
 40  20  41  1   
 41  20  42  1   
 42  21  43  1   
 43  21  44  1   
 44  22  23  1   
 45  22  45  1   
 46  22  46  1   
 47  23  24  ar  
 48  23  25  ar  
@<TRIPOS>SUBSTRUCTURE
  1 ****   9 GROUP 4 **** **** 0

# MOE 2024.06 (io_trps.svl 2023.06)
