@<TRIPOS>MOLECULE
NONAME
45 47 1 0 0 
SMALL
USER_CHARGES


@<TRIPOS>ATOM
  1 O       -0.3370     0.1420     0.1750 O.2   1 <1>  -0.5700 
  2 C       -1.3910     0.7170     0.0410 C.2   1 <1>   0.5690 
  3 N       -2.5620     0.0310    -0.1040 N.am  1 <1>  -0.6600 
  4 C       -1.4130     2.2380     0.0270 C.3   1 <1>  -0.0990 
  5 C       -3.9090     0.6100    -0.3390 C.3   1 <1>   0.1400 
  6 C       -2.6230    -1.4510    -0.0820 C.3   1 <1>   0.1400 
  7 C       -0.0520     2.8790     0.3380 C.3   1 <1>  -0.0160 
  8 C       -4.7890    -0.5880    -0.6930 C.3   1 <1>   0.2000 
  9 C       -4.1140    -1.7900    -0.0400 C.3   1 <1>  -0.0800 
 10 C       -0.1660     4.3940     0.3110 C.ar  1 <1>  -0.1440 
 11 O       -6.0780    -0.4350    -0.2080 O.3   1 <1>  -0.6800 
 12 C       -4.4600    -3.1250    -0.7160 C.3   1 <1>   0.0210 
 13 C        0.0290     5.1000    -0.8680 C.ar  1 <1>   0.1600 
 14 C       -0.4740     5.0950     1.4600 C.ar  1 <1>  -0.1500 
 15 C       -3.6750    -4.2660    -0.0990 C.2   1 <1>   0.1080 
 16 N       -0.0620     6.4150    -0.9910 N.ar  1 <1>  -0.6200 
 17 C       -0.5690     6.4660     1.3520 C.ar  1 <1>  -0.1500 
 18 N       -3.7530    -4.5730     1.1590 N.2   1 <1>  -0.7070 
 19 C       -2.7890    -5.0880    -0.7870 C.2   1 <1>  -0.1500 
 20 C       -0.3570     7.0650     0.1220 C.ar  1 <1>   0.1600 
 21 N       -2.9090    -5.6110     1.3080 N.pl3 1 <1>   0.3000 
 22 C       -2.3120    -5.9410     0.1430 C.2   1 <1>  -0.3320 
 23 C       -1.3070    -7.0670    -0.0110 C.3   1 <1>  -0.0600 
 24 H       -1.7390     2.5620    -0.9430 H     1 <1>   0.0800 
 25 H       -2.1280     2.5750     0.7550 H     1 <1>   0.0800 
 26 H       -4.2530     1.0820     0.5650 H     1 <1>   0.0800 
 27 H       -3.8850     1.3170    -1.1490 H     1 <1>   0.0800 
 28 H       -2.1620    -1.8320    -0.9770 H     1 <1>   0.0800 
 29 H       -2.1070    -1.8450     0.7780 H     1 <1>   0.0800 
 30 H        0.6760     2.5550    -0.3860 H     1 <1>   0.0800 
 31 H        0.2890     2.5540     1.3060 H     1 <1>   0.0800 
 32 H       -4.8400    -0.6950    -1.7630 H     1 <1>   0.0800 
 33 H       -4.3930    -1.8420     0.9980 H     1 <1>   0.0800 
 34 H       -6.0900    -0.5480     0.7630 H     1 <1>   0.4000 
 35 H       -4.2460    -3.0740    -1.7680 H     1 <1>   0.0800 
 36 H       -5.5100    -3.3260    -0.5970 H     1 <1>   0.0800 
 37 H        0.2720     4.5520    -1.7620 H     1 <1>   0.1500 
 38 H       -0.6340     4.5980     2.4010 H     1 <1>   0.1500 
 39 H       -0.8040     7.0670     2.2110 H     1 <1>   0.1500 
 40 H       -2.5520    -5.0330    -1.8350 H     1 <1>   0.1500 
 41 H       -0.4350     8.1370     0.0500 H     1 <1>   0.1500 
 42 H       -2.7630    -6.0700     2.2150 H     1 <1>   0.2700 
 43 H       -0.9770    -7.1310    -1.0330 H     1 <1>   0.0800 
 44 H       -1.7540    -8.0060     0.2640 H     1 <1>   0.0800 
 45 H       -0.4500    -6.8890     0.6150 H     1 <1>   0.0800 
@<TRIPOS>BOND
  1   1   2  2   
  2   2   3  am  
  3   2   4  1   
  4   3   5  1   
  5   3   6  1   
  6   4   7  1   
  7   4  24  1   
  8   4  25  1   
  9   5   8  1   
 10   5  26  1   
 11   5  27  1   
 12   6   9  1   
 13   6  28  1   
 14   6  29  1   
 15   7  10  1   
 16   7  30  1   
 17   7  31  1   
 18   8   9  1   
 19   8  11  1   
 20   8  32  1   
 21   9  12  1   
 22   9  33  1   
 23  10  13  ar  
 24  10  14  ar  
 25  11  34  1   
 26  12  15  1   
 27  12  35  1   
 28  12  36  1   
 29  13  16  ar  
 30  13  37  1   
 31  14  17  ar  
 32  14  38  1   
 33  15  18  2   
 34  15  19  1   
 35  16  20  ar  
 36  17  20  ar  
 37  17  39  1   
 38  18  21  1   
 39  19  22  2   
 40  19  40  1   
 41  20  41  1   
 42  21  22  1   
 43  21  42  1   
 44  22  23  1   
 45  23  43  1   
 46  23  44  1   
 47  23  45  1   
@<TRIPOS>SUBSTRUCTURE
  1 ****   3 GROUP 4 **** **** 0

# MOE 2024.06 (io_trps.svl 2023.06)
