@<TRIPOS>MOLECULE
NONAME
56 59 1 0 0 
SMALL
USER_CHARGES


@<TRIPOS>ATOM
  1 O       -2.9910     1.9120    -1.4600 O.2   1 <1>  -0.5700 
  2 C       -2.4070     1.6210    -0.4460 C.2   1 <1>   0.5690 
  3 N       -1.9620     0.3640    -0.2120 N.am  1 <1>  -0.7300 
  4 C       -2.1700     2.6890     0.6020 C.3   1 <1>  -0.0990 
  5 C       -2.0700    -0.7620    -1.1680 C.3   1 <1>   0.2200 
  6 C       -0.8160     3.3900     0.4000 C.3   1 <1>  -0.1600 
  7 C       -3.1660    -1.7380    -0.7570 C.3   1 <1>  -0.0800 
  8 C       -0.8410    -1.6480    -1.0210 C.3   1 <1>   0.1200 
  9 C       -0.5950     4.5100     1.4280 C.3   1 <1>   0.0200 
 10 C       -2.4580    -2.6540     0.2490 C.3   1 <1>   0.1200 
 11 C       -4.4700    -1.1070    -0.2350 C.3   1 <1>  -0.0170 
 12 O       -1.0860    -2.4140     0.1180 O.3   1 <1>  -0.5600 
 13 C        0.7310     5.2150     1.2100 C.2   1 <1>   0.2980 
 14 C       -5.5160    -2.1760     0.0430 C.ar  1 <1>  -0.1440 
 15 O        1.8390     4.5590     1.4330 O.3   1 <1>  -0.0190 
 16 N        0.8750     6.4140     0.8240 N.2   1 <1>  -0.5650 
 17 C       -5.7440    -2.6700     1.3110 C.ar  1 <1>  -0.1500 
 18 C       -6.2920    -2.7090    -0.9670 C.ar  1 <1>  -0.1500 
 19 N        2.7720     5.4160     1.1640 N.2   1 <1>  -0.4100 
 20 C        2.2090     6.5150     0.8010 C.2   1 <1>   0.4620 
 21 C       -6.7050    -3.6490     1.5020 C.ar  1 <1>   0.1600 
 22 C       -7.2270    -3.6850    -0.6690 C.ar  1 <1>   0.1600 
 23 C        2.8990     7.7330     0.4090 C.ar  1 <1>   0.0540 
 24 N       -7.4510    -4.1710     0.5420 N.ar  1 <1>  -0.6200 
 25 C        2.2040     8.8700    -0.0110 C.ar  1 <1>  -0.1500 
 26 C        4.2920     7.8160     0.4370 C.ar  1 <1>  -0.1500 
 27 C        2.8560    10.0320    -0.3840 C.ar  1 <1>  -0.1440 
 28 C        4.9560     8.9710     0.0650 C.ar  1 <1>  -0.1500 
 29 C        4.2390    10.0790    -0.3460 C.ar  1 <1>  -0.1500 
 30 C        2.0700    11.2490    -0.8370 C.3   1 <1>  -0.0970 
 31 H       -1.4870     0.1200     0.6600 H     1 <1>   0.3700 
 32 H       -2.9650     3.4090     0.5290 H     1 <1>   0.0800 
 33 H       -2.2150     2.2410     1.5780 H     1 <1>   0.0800 
 34 H       -2.1940    -0.3970    -2.1740 H     1 <1>   0.0800 
 35 H       -0.0220     2.6680     0.4760 H     1 <1>   0.0800 
 36 H       -0.7840     3.8130    -0.5910 H     1 <1>   0.0800 
 37 H       -3.4070    -2.3370    -1.6180 H     1 <1>   0.0800 
 38 H        0.0680    -1.0870    -0.8970 H     1 <1>   0.0800 
 39 H       -0.7490    -2.3180    -1.8580 H     1 <1>   0.0800 
 40 H       -0.6100     4.1080     2.4250 H     1 <1>   0.0800 
 41 H       -1.3850     5.2360     1.3470 H     1 <1>   0.0800 
 42 H       -2.6530    -3.6930     0.0460 H     1 <1>   0.0800 
 43 H       -2.7340    -2.4240     1.2630 H     1 <1>   0.0800 
 44 H       -4.8510    -0.4180    -0.9690 H     1 <1>   0.0800 
 45 H       -4.2850    -0.5490     0.6650 H     1 <1>   0.0800 
 46 H       -5.1860    -2.3040     2.1530 H     1 <1>   0.1500 
 47 H       -6.1780    -2.3730    -1.9810 H     1 <1>   0.1500 
 48 H       -6.8690    -4.0230     2.4980 H     1 <1>   0.1500 
 49 H       -7.8240    -4.0890    -1.4690 H     1 <1>   0.1500 
 50 H        1.1290     8.8360    -0.0450 H     1 <1>   0.1500 
 51 H        4.8660     6.9630     0.7540 H     1 <1>   0.1500 
 52 H        6.0310     9.0080     0.0950 H     1 <1>   0.1500 
 53 H        4.7600    10.9750    -0.6350 H     1 <1>   0.1500 
 54 H        2.4950    12.1430    -0.4170 H     1 <1>   0.0800 
 55 H        1.0440    11.1810    -0.5190 H     1 <1>   0.0800 
 56 H        2.0960    11.3210    -1.9090 H     1 <1>   0.0800 
@<TRIPOS>BOND
  1   1   2  2   
  2   2   3  am  
  3   2   4  1   
  4   3   5  1   
  5   3  31  1   
  6   4   6  1   
  7   4  32  1   
  8   4  33  1   
  9   5   7  1   
 10   5   8  1   
 11   5  34  1   
 12   6   9  1   
 13   6  35  1   
 14   6  36  1   
 15   7  10  1   
 16   7  11  1   
 17   7  37  1   
 18   8  12  1   
 19   8  38  1   
 20   8  39  1   
 21   9  13  1   
 22   9  40  1   
 23   9  41  1   
 24  10  12  1   
 25  10  42  1   
 26  10  43  1   
 27  11  14  1   
 28  11  44  1   
 29  11  45  1   
 30  13  15  1   
 31  13  16  2   
 32  14  17  ar  
 33  14  18  ar  
 34  15  19  1   
 35  16  20  1   
 36  17  21  ar  
 37  17  46  1   
 38  18  22  ar  
 39  18  47  1   
 40  19  20  2   
 41  20  23  1   
 42  21  24  ar  
 43  21  48  1   
 44  22  24  ar  
 45  22  49  1   
 46  23  25  ar  
 47  23  26  ar  
 48  25  27  ar  
 49  25  50  1   
 50  26  28  ar  
 51  26  51  1   
 52  27  29  ar  
 53  27  30  1   
 54  28  29  ar  
 55  28  52  1   
 56  29  53  1   
 57  30  54  1   
 58  30  55  1   
 59  30  56  1   
@<TRIPOS>SUBSTRUCTURE
  1 ****   6 GROUP 4 **** **** 0

# MOE 2024.06 (io_trps.svl 2023.06)
