@<TRIPOS>MOLECULE
NONAME
45 47 1 0 0 
SMALL
USER_CHARGES


@<TRIPOS>ATOM
  1 O       -0.0790    -0.6110     1.2140 O.2   1 <1>  -0.5700 
  2 C       -0.9860     0.1200     0.8920 C.2   1 <1>   0.5690 
  3 N       -2.0850    -0.3640     0.2320 N.am  1 <1>  -0.6600 
  4 C       -0.8670     1.6050     1.2520 C.3   1 <1>   0.2010 
  5 C       -3.2290     0.4270    -0.2880 C.3   1 <1>   0.1400 
  6 C       -2.2370    -1.7960    -0.1120 C.3   1 <1>   0.1400 
  7 N       -0.7860     2.5060     0.0580 N.am  1 <1>  -0.7300 
  8 C       -4.1290    -0.5840    -1.0010 C.3   1 <1>   0.2000 
  9 C       -3.7090    -1.9610    -0.4880 C.3   1 <1>  -0.0800 
 10 C       -1.5070     3.6090    -0.2290 C.2   1 <1>   0.5690 
 11 O       -5.4660    -0.3640    -0.7090 O.3   1 <1>  -0.6800 
 12 C       -3.9590    -3.0810    -1.5120 C.3   1 <1>  -0.0170 
 13 O       -1.4020     4.1300    -1.3070 O.2   1 <1>  -0.5700 
 14 C       -2.4630     4.1960     0.7800 C.3   1 <1>  -0.1790 
 15 C       -3.5550    -4.4400    -0.9500 C.ar  1 <1>  -0.1440 
 16 C       -4.3660    -5.1530    -0.0360 C.ar  1 <1>   0.0000 
 17 C       -2.3700    -5.0080    -1.3180 C.ar  1 <1>  -0.1500 
 18 C       -3.8810    -6.3940     0.4430 C.ar  1 <1>   0.3100 
 19 C       -5.6270    -4.7120     0.4280 C.ar  1 <1>  -0.1500 
 20 C       -1.9870    -6.2460    -0.7900 C.ar  1 <1>   0.1600 
 21 N       -2.6940    -6.9260     0.0570 N.ar  1 <1>  -0.6200 
 22 C       -4.6570    -7.1180     1.3620 C.ar  1 <1>  -0.1500 
 23 C       -6.3600    -5.4430     1.3230 C.ar  1 <1>  -0.1500 
 24 C       -5.8700    -6.6610     1.7990 C.ar  1 <1>  -0.1500 
 25 H        0.0240     1.7370     1.8400 H     1 <1>   0.0800 
 26 H       -1.7070     1.8710     1.8650 H     1 <1>   0.0800 
 27 H       -3.7460     0.8970     0.5310 H     1 <1>   0.0800 
 28 H       -2.8840     1.1690    -0.9870 H     1 <1>   0.0800 
 29 H       -1.5960    -2.0200    -0.9480 H     1 <1>   0.0800 
 30 H       -1.9680    -2.4250     0.7200 H     1 <1>   0.0800 
 31 H       -0.1330     2.2050    -0.6710 H     1 <1>   0.3700 
 32 H       -3.9960    -0.5010    -2.0660 H     1 <1>   0.0800 
 33 H       -4.2390    -2.1790     0.4230 H     1 <1>   0.0800 
 34 H       -5.6310    -0.4800     0.2460 H     1 <1>   0.4000 
 35 H       -3.3950    -2.8770    -2.4060 H     1 <1>   0.0800 
 36 H       -4.9960    -3.0960    -1.7980 H     1 <1>   0.0800 
 37 H       -1.9550     4.3650     1.7110 H     1 <1>   0.0800 
 38 H       -3.2910     3.5300     0.9310 H     1 <1>   0.0800 
 39 H       -2.8360     5.1360     0.4170 H     1 <1>   0.0800 
 40 H       -1.7030    -4.5280    -2.0110 H     1 <1>   0.1500 
 41 H       -6.0270    -3.7810     0.0720 H     1 <1>   0.1500 
 42 H       -1.0440    -6.6590    -1.1060 H     1 <1>   0.1500 
 43 H       -4.2610    -8.0530     1.7130 H     1 <1>   0.1500 
 44 H       -7.3180    -5.0950     1.6690 H     1 <1>   0.1500 
 45 H       -6.4540    -7.2280     2.5040 H     1 <1>   0.1500 
@<TRIPOS>BOND
  1   1   2  2   
  2   2   3  am  
  3   2   4  1   
  4   3   5  1   
  5   3   6  1   
  6   4   7  1   
  7   4  25  1   
  8   4  26  1   
  9   5   8  1   
 10   5  27  1   
 11   5  28  1   
 12   6   9  1   
 13   6  29  1   
 14   6  30  1   
 15   7  10  am  
 16   7  31  1   
 17   8   9  1   
 18   8  11  1   
 19   8  32  1   
 20   9  12  1   
 21   9  33  1   
 22  10  13  2   
 23  10  14  1   
 24  11  34  1   
 25  12  15  1   
 26  12  35  1   
 27  12  36  1   
 28  14  37  1   
 29  14  38  1   
 30  14  39  1   
 31  15  16  ar  
 32  15  17  ar  
 33  16  18  ar  
 34  16  19  ar  
 35  17  20  ar  
 36  17  40  1   
 37  18  21  ar  
 38  18  22  ar  
 39  19  23  ar  
 40  19  41  1   
 41  20  21  ar  
 42  20  42  1   
 43  22  24  ar  
 44  22  43  1   
 45  23  24  ar  
 46  23  44  1   
 47  24  45  1   
@<TRIPOS>SUBSTRUCTURE
  1 ****   9 GROUP 4 **** **** 0

# MOE 2024.06 (io_trps.svl 2023.06)
