@<TRIPOS>MOLECULE
NONAME
31 32 1 0 0 
SMALL
USER_CHARGES


@<TRIPOS>ATOM
  1 F       -0.6010    -0.1600    -0.7230 F     1 <1>  -0.1900 
  2 C       -1.6890    -0.8670    -0.5070 C.ar  1 <1>   0.1900 
  3 C       -2.8180    -0.3630     0.1320 C.ar  1 <1>   0.3920 
  4 C       -1.7070    -2.1700    -0.9310 C.ar  1 <1>   0.1600 
  5 O       -2.9620     0.8940     0.6130 O.3   1 <1>  -0.3630 
  6 N       -3.8750    -1.1250     0.3190 N.ar  1 <1>  -0.6200 
  7 N       -2.7590    -2.9410    -0.7490 N.ar  1 <1>  -0.6200 
  8 C       -1.9980     1.9160     0.4900 C.3   1 <1>   0.0400 
  9 C       -3.7890    -2.3630    -0.1360 C.ar  1 <1>   0.7200 
 10 N       -4.9020    -3.1020     0.0740 N.pl3 1 <1>  -0.8690 
 11 C       -4.9160    -4.5730     0.1110 C.3   1 <1>   0.2090 
 12 C       -6.3660    -5.0480     0.0900 C.3   1 <1>  -0.1600 
 13 C       -6.4360    -6.5800     0.0400 C.3   1 <1>   0.0960 
 14 N       -7.8360    -7.0430     0.0710 N.pl3 1 <1>   0.3140 
 15 N       -8.4340    -7.4630     1.1900 N.2   1 <1>  -0.4180 
 16 C       -8.6940    -7.1240    -0.9480 C.2   1 <1>  -0.3020 
 17 N       -9.6430    -7.8040     0.9030 N.2   1 <1>  -0.2270 
 18 C       -9.8220    -7.6030    -0.4050 C.2   1 <1>   0.0770 
 19 H       -0.8460    -2.5830    -1.4260 H     1 <1>   0.1500 
 20 H       -2.3990     2.8080     0.9370 H     1 <1>   0.0800 
 21 H       -1.8010     2.0910    -0.5540 H     1 <1>   0.0800 
 22 H       -1.1030     1.6210     1.0090 H     1 <1>   0.0800 
 23 H       -5.5570    -2.6210     0.6910 H     1 <1>   0.4000 
 24 H       -4.4170    -4.9130     1.0040 H     1 <1>   0.0800 
 25 H       -4.3890    -4.9580    -0.7480 H     1 <1>   0.0800 
 26 H       -6.8560    -4.6400    -0.7770 H     1 <1>   0.0800 
 27 H       -6.8650    -4.6990     0.9780 H     1 <1>   0.0800 
 28 H       -5.9260    -7.0020     0.8880 H     1 <1>   0.0800 
 29 H       -5.9740    -6.9480    -0.8570 H     1 <1>   0.0800 
 30 H       -8.4600    -6.8460    -1.9580 H     1 <1>   0.1500 
 31 H      -10.7620    -7.8180    -0.8840 H     1 <1>   0.1500 
@<TRIPOS>BOND
  1   1   2  1   
  2   2   3  ar  
  3   2   4  ar  
  4   3   5  1   
  5   3   6  ar  
  6   4   7  ar  
  7   4  19  1   
  8   5   8  1   
  9   6   9  ar  
 10   7   9  ar  
 11   8  20  1   
 12   8  21  1   
 13   8  22  1   
 14   9  10  1   
 15  10  11  1   
 16  10  23  1   
 17  11  12  1   
 18  11  24  1   
 19  11  25  1   
 20  12  13  1   
 21  12  26  1   
 22  12  27  1   
 23  13  14  1   
 24  13  28  1   
 25  13  29  1   
 26  14  15  1   
 27  14  16  1   
 28  15  17  2   
 29  16  18  2   
 30  16  30  1   
 31  17  18  1   
 32  18  31  1   
@<TRIPOS>SUBSTRUCTURE
  1 ****  10 GROUP 4 **** **** 0

# MOE 2024.06 (io_trps.svl 2023.06)
