@<TRIPOS>MOLECULE
NONAME
52 54 1 0 0 
SMALL
USER_CHARGES


@<TRIPOS>ATOM
  1 O        3.6140    -1.2430    -1.3750 O.2   1 <1>  -0.5700 
  2 C        2.7830    -1.9260    -0.8290 C.2   1 <1>   0.5690 
  3 N        2.7620    -2.2040     0.4890 N.am  1 <1>  -0.6600 
  4 C        1.6040    -2.5390    -1.5240 C.3   1 <1>  -0.0990 
  5 C        1.5540    -2.9510     0.8790 C.3   1 <1>   0.1400 
  6 C        3.7810    -1.7580     1.4900 C.3   1 <1>   0.2010 
  7 C        0.6410    -2.8580    -0.3620 C.3   1 <1>   0.0640 
  8 C        3.6720    -0.2770     1.8500 C.2   1 <1>   0.5690 
  9 C       -0.2590    -4.0800    -0.5820 C.ar  1 <1>  -0.1440 
 10 O        3.6020     0.0210     3.0190 O.2   1 <1>  -0.5700 
 11 N        3.6760     0.6290     0.8230 N.am  1 <1>  -0.4940 
 12 C       -0.7410    -4.8090     0.4990 C.ar  1 <1>  -0.1500 
 13 C       -0.6380    -4.4690    -1.8620 C.ar  1 <1>  -0.1500 
 14 C        3.6760     2.0450     0.7590 C.2   1 <1>  -0.0880 
 15 C       -1.5570    -5.9100     0.3060 C.ar  1 <1>  -0.1500 
 16 C       -1.4540    -5.5700    -2.0570 C.ar  1 <1>  -0.1500 
 17 N        3.2640     2.9500     1.6940 N.pl3 1 <1>   0.3140 
 18 C        4.0990     2.7710    -0.3050 C.2   1 <1>  -0.1810 
 19 C       -1.9120    -6.2940    -0.9730 C.ar  1 <1>  -0.1500 
 20 N        3.4240     4.2180     1.2560 N.2   1 <1>  -0.7070 
 21 C        2.6290     2.7220     2.9970 C.3   1 <1>   0.0160 
 22 C        3.9250     4.1020     0.0680 C.2   1 <1>   0.1080 
 23 C        4.6510     2.2530    -1.6240 C.3   1 <1>   0.0210 
 24 C        4.2630     5.3180    -0.7760 C.3   1 <1>   0.0210 
 25 C        6.1610     2.0370    -1.5220 C.3   1 <1>  -0.2400 
 26 C        3.0750     5.7330    -1.6510 C.3   1 <1>  -0.2400 
 27 H        1.9360    -3.4320    -2.0190 H     1 <1>   0.0800 
 28 H        1.1700    -1.8560    -2.2300 H     1 <1>   0.0800 
 29 H        1.0860    -2.5090     1.7420 H     1 <1>   0.0800 
 30 H        1.8250    -3.9730     1.0830 H     1 <1>   0.0800 
 31 H        4.7630    -1.9330     1.0870 H     1 <1>   0.0800 
 32 H        3.6830    -2.3440     2.3860 H     1 <1>   0.0800 
 33 H        0.0010    -2.0040    -0.2190 H     1 <1>   0.0800 
 34 H        3.7620     0.1770    -0.1000 H     1 <1>   0.3700 
 35 H       -0.4960    -4.5330     1.5090 H     1 <1>   0.1500 
 36 H       -0.3100    -3.9220    -2.7280 H     1 <1>   0.1500 
 37 H       -1.9190    -6.4680     1.1520 H     1 <1>   0.1500 
 38 H       -1.7350    -5.8620    -3.0540 H     1 <1>   0.1500 
 39 H       -2.5460    -7.1500    -1.1240 H     1 <1>   0.1500 
 40 H        1.9060     1.9350     2.9070 H     1 <1>   0.0800 
 41 H        2.1410     3.6240     3.3150 H     1 <1>   0.0800 
 42 H        3.3830     2.4510     3.7110 H     1 <1>   0.0800 
 43 H        4.4330     2.9510    -2.4120 H     1 <1>   0.0800 
 44 H        4.1720     1.3240    -1.8760 H     1 <1>   0.0800 
 45 H        5.1170     5.1050    -1.3910 H     1 <1>   0.0800 
 46 H        4.5240     6.1280    -0.1190 H     1 <1>   0.0800 
 47 H        6.6530     2.9620    -1.2810 H     1 <1>   0.0800 
 48 H        6.5470     1.6670    -2.4550 H     1 <1>   0.0800 
 49 H        6.3780     1.3210    -0.7490 H     1 <1>   0.0800 
 50 H        2.8060     4.9340    -2.3180 H     1 <1>   0.0800 
 51 H        3.3250     6.6050    -2.2280 H     1 <1>   0.0800 
 52 H        2.2290     5.9590    -1.0260 H     1 <1>   0.0800 
@<TRIPOS>BOND
  1   1   2  2   
  2   2   3  am  
  3   2   4  1   
  4   3   5  1   
  5   3   6  1   
  6   4   7  1   
  7   4  27  1   
  8   4  28  1   
  9   5   7  1   
 10   5  29  1   
 11   5  30  1   
 12   6   8  1   
 13   6  31  1   
 14   6  32  1   
 15   7   9  1   
 16   7  33  1   
 17   8  10  2   
 18   8  11  am  
 19   9  12  ar  
 20   9  13  ar  
 21  11  14  1   
 22  11  34  1   
 23  12  15  ar  
 24  12  35  1   
 25  13  16  ar  
 26  13  36  1   
 27  14  17  1   
 28  14  18  2   
 29  15  19  ar  
 30  15  37  1   
 31  16  19  ar  
 32  16  38  1   
 33  17  20  1   
 34  17  21  1   
 35  18  22  1   
 36  18  23  1   
 37  19  39  1   
 38  20  22  2   
 39  21  40  1   
 40  21  41  1   
 41  21  42  1   
 42  22  24  1   
 43  23  25  1   
 44  23  43  1   
 45  23  44  1   
 46  24  26  1   
 47  24  45  1   
 48  24  46  1   
 49  25  47  1   
 50  25  48  1   
 51  25  49  1   
 52  26  50  1   
 53  26  51  1   
 54  26  52  1   
@<TRIPOS>SUBSTRUCTURE
  1 ****   2 GROUP 4 **** **** 0

# MOE 2024.06 (io_trps.svl 2023.06)
