@<TRIPOS>MOLECULE
NONAME
56 58 1 0 0 
SMALL
USER_CHARGES


@<TRIPOS>ATOM
  1 O        4.0080    -0.9710     1.3120 O.2   1 <1>  -0.5700 
  2 C        2.9800    -1.3060     0.7460 C.2   1 <1>   0.5440 
  3 N        2.7240    -0.6620    -0.4380 N.am  1 <1>  -0.6600 
  4 C        2.1610    -2.3920     1.2580 C.ar  1 <1>   0.0860 
  5 C        3.3540    -1.1330    -1.7070 C.3   1 <1>   0.1400 
  6 C        2.1920     0.7250    -0.4390 C.3   1 <1>   0.1400 
  7 C        0.7620    -2.4430     1.1340 C.ar  1 <1>   0.0830 
  8 C        2.7900    -3.4540     1.9130 C.ar  1 <1>  -0.1500 
  9 C        4.8580    -0.7840    -1.7740 C.3   1 <1>   0.3430 
 10 C        3.3040     1.7670    -0.2500 C.3   1 <1>  -0.1600 
 11 O        0.1260    -1.4020     0.5400 O.3   1 <1>  -0.3630 
 12 C        0.0530    -3.5380     1.6280 C.ar  1 <1>  -0.1500 
 13 C        2.0820    -4.5330     2.4040 C.ar  1 <1>  -0.1500 
 14 N        5.2160     0.3440    -0.8590 N.4   1 <1>  -0.9590 
 15 C        4.5070     1.6100    -1.1830 C.3   1 <1>   0.3430 
 16 C       -1.2740    -1.3320     0.3990 C.3   1 <1>   0.1200 
 17 C        0.7090    -4.5770     2.2580 C.ar  1 <1>  -0.1500 
 18 C        6.6770     0.4850    -0.6510 C.3   1 <1>   0.3430 
 19 C       -1.6100    -0.0170    -0.2970 C.3   1 <1>  -0.2400 
 20 C        6.9400     1.2450     0.6490 C.3   1 <1>  -0.1600 
 21 C        8.4400     1.3280     0.9880 C.3   1 <1>  -0.0800 
 22 C        8.6370     2.1030     2.2860 C.3   1 <1>   0.1200 
 23 C        9.2240     2.1950     0.0020 C.3   1 <1>  -0.1600 
 24 O        8.6300     3.4300     1.8890 O.3   1 <1>  -0.5600 
 25 C        9.3160     3.5600     0.6870 C.3   1 <1>   0.1200 
 26 H        2.8450    -0.6890    -2.5440 H     1 <1>   0.0800 
 27 H        3.2340    -2.1990    -1.7910 H     1 <1>   0.0800 
 28 H        1.4770     0.8260     0.3620 H     1 <1>   0.0800 
 29 H        1.6650     0.9020    -1.3620 H     1 <1>   0.0800 
 30 H        3.8580    -3.4320     2.0400 H     1 <1>   0.1500 
 31 H        5.1350    -0.5520    -2.7890 H     1 <1>   0.0800 
 32 H        5.4110    -1.6600    -1.4770 H     1 <1>   0.0800 
 33 H        3.6390     1.7490     0.7730 H     1 <1>   0.0800 
 34 H        2.8750     2.7390    -0.4140 H     1 <1>   0.0800 
 35 H       -1.0140    -3.6020     1.5380 H     1 <1>   0.1500 
 36 H        2.5960    -5.3380     2.9020 H     1 <1>   0.1500 
 37 H        4.8070     0.0340     0.0550 H     1 <1>   0.4500 
 38 H        5.1700     2.4470    -1.0380 H     1 <1>   0.0800 
 39 H        4.1850     1.6100    -2.2110 H     1 <1>   0.0800 
 40 H       -1.7190    -1.3690     1.3790 H     1 <1>   0.0800 
 41 H       -1.6010    -2.1700    -0.1930 H     1 <1>   0.0800 
 42 H        0.1550    -5.4180     2.6380 H     1 <1>   0.1500 
 43 H        7.1230     0.9990    -1.4860 H     1 <1>   0.0800 
 44 H        7.1250    -0.4920    -0.5730 H     1 <1>   0.0800 
 45 H       -1.2730     0.8130     0.2970 H     1 <1>   0.0800 
 46 H       -2.6740     0.0630    -0.4240 H     1 <1>   0.0800 
 47 H       -1.1470     0.0170    -1.2670 H     1 <1>   0.0800 
 48 H        6.4380     0.7360     1.4540 H     1 <1>   0.0800 
 49 H        6.5450     2.2440     0.5850 H     1 <1>   0.0800 
 50 H        8.8590     0.3400     1.0760 H     1 <1>   0.0800 
 51 H        9.5960     1.8920     2.7300 H     1 <1>   0.0800 
 52 H        7.8550     1.9420     3.0080 H     1 <1>   0.0800 
 53 H        8.7650     2.2840    -0.9650 H     1 <1>   0.0800 
 54 H       10.2200     1.8080    -0.1290 H     1 <1>   0.0800 
 55 H        8.8490     4.3410     0.1120 H     1 <1>   0.0800 
 56 H       10.3370     3.8240     0.9070 H     1 <1>   0.0800 
@<TRIPOS>BOND
  1   1   2  2   
  2   2   3  am  
  3   2   4  1   
  4   3   5  1   
  5   3   6  1   
  6   4   7  ar  
  7   4   8  ar  
  8   5   9  1   
  9   5  26  1   
 10   5  27  1   
 11   6  10  1   
 12   6  28  1   
 13   6  29  1   
 14   7  11  1   
 15   7  12  ar  
 16   8  13  ar  
 17   8  30  1   
 18   9  14  1   
 19   9  31  1   
 20   9  32  1   
 21  10  15  1   
 22  10  33  1   
 23  10  34  1   
 24  11  16  1   
 25  12  17  ar  
 26  12  35  1   
 27  13  17  ar  
 28  13  36  1   
 29  14  15  1   
 30  14  18  1   
 31  14  37  1   
 32  15  38  1   
 33  15  39  1   
 34  16  19  1   
 35  16  40  1   
 36  16  41  1   
 37  17  42  1   
 38  18  20  1   
 39  18  43  1   
 40  18  44  1   
 41  19  45  1   
 42  19  46  1   
 43  19  47  1   
 44  20  21  1   
 45  20  48  1   
 46  20  49  1   
 47  21  22  1   
 48  21  23  1   
 49  21  50  1   
 50  22  24  1   
 51  22  51  1   
 52  22  52  1   
 53  23  25  1   
 54  23  53  1   
 55  23  54  1   
 56  24  25  1   
 57  25  55  1   
 58  25  56  1   
@<TRIPOS>SUBSTRUCTURE
  1 ****   1 GROUP 4 **** **** 0

# MOE 2024.06 (io_trps.svl 2023.06)
