@<TRIPOS>MOLECULE
NONAME
44 46 1 0 0 
SMALL
USER_CHARGES


@<TRIPOS>ATOM
  1 S        0.6820    -0.4110    -0.9650 S.o2  1 <1>   1.3330 
  2 O        2.0380    -0.9060    -0.8740 O.2   1 <1>  -0.6500 
  3 O       -0.0380    -0.5360    -2.2120 O.2   1 <1>  -0.6500 
  4 N       -0.2450    -1.2050     0.2180 N.am  1 <1>  -0.8490 
  5 C        0.6470     1.3110    -0.4410 C.3   1 <1>  -0.0550 
  6 C        0.1600    -2.6040     0.3950 C.3   1 <1>   0.1160 
  7 C       -1.6910    -1.1380    -0.0290 C.3   1 <1>   0.1160 
  8 C        1.6160     1.7410     0.6850 C.3   1 <1>  -0.0800 
  9 C        3.0900     1.6960     0.2740 C.3   1 <1>   0.2200 
 10 C        1.5710     0.9300     1.9860 C.3   1 <1>   0.1200 
 11 N        3.6590     3.0600     0.3300 N.am  1 <1>  -0.7300 
 12 C        3.7230     0.8060     1.3420 C.3   1 <1>   0.1200 
 13 O        2.8820     0.9120     2.4440 O.3   1 <1>  -0.5600 
 14 C        3.6080     3.9780    -0.6750 C.2   1 <1>   0.7150 
 15 O        3.0240     3.6830    -1.7020 O.2   1 <1>  -0.5700 
 16 C        4.2180     5.2780    -0.5070 C.2   1 <1>   0.0550 
 17 O        4.8260     5.5980     0.6480 O.3   1 <1>  -0.2800 
 18 C        4.3020     6.3260    -1.3650 C.2   1 <1>  -0.1500 
 19 C        5.2970     6.8390     0.5360 C.ar  1 <1>   0.1400 
 20 C        4.9990     7.3550    -0.7110 C.ar  1 <1>   0.0000 
 21 C        5.9940     7.5720     1.4870 C.ar  1 <1>  -0.1500 
 22 C        5.4070     8.6510    -1.0330 C.ar  1 <1>  -0.1500 
 23 C        6.3950     8.8530     1.1630 C.ar  1 <1>  -0.1500 
 24 C        6.1010     9.3890    -0.0950 C.ar  1 <1>  -0.1500 
 25 H        0.8710     1.9210    -1.2970 H     1 <1>   0.0800 
 26 H       -0.3520     1.5590    -0.1440 H     1 <1>   0.0800 
 27 H       -0.4400    -3.0740     1.1550 H     1 <1>   0.0800 
 28 H        1.1910    -2.6540     0.7030 H     1 <1>   0.0800 
 29 H        0.0490    -3.1450    -0.5310 H     1 <1>   0.0800 
 30 H       -2.2280    -1.5700     0.7980 H     1 <1>   0.0800 
 31 H       -1.9450    -1.6730    -0.9300 H     1 <1>   0.0800 
 32 H       -2.0030    -0.1140    -0.1380 H     1 <1>   0.0800 
 33 H        1.3570     2.7530     0.9440 H     1 <1>   0.0800 
 34 H        3.2490     1.2810    -0.7080 H     1 <1>   0.0800 
 35 H        1.2760    -0.0910     1.8360 H     1 <1>   0.0800 
 36 H        0.9440     1.3840     2.7340 H     1 <1>   0.0800 
 37 H        4.0400     3.3520     1.2320 H     1 <1>   0.3700 
 38 H        4.7180     1.1100     1.6110 H     1 <1>   0.0800 
 39 H        3.7250    -0.2240     1.0250 H     1 <1>   0.0800 
 40 H        3.9150     6.3860    -2.3660 H     1 <1>   0.1500 
 41 H        6.2070     7.1360     2.4460 H     1 <1>   0.1500 
 42 H        5.1770     9.0550    -2.0030 H     1 <1>   0.1500 
 43 H        6.9370     9.4480     1.8770 H     1 <1>   0.1500 
 44 H        6.4230    10.3900    -0.3270 H     1 <1>   0.1500 
@<TRIPOS>BOND
  1   1   2  2   
  2   1   3  2   
  3   1   4  am  
  4   1   5  1   
  5   4   6  1   
  6   4   7  1   
  7   5   8  1   
  8   5  25  1   
  9   5  26  1   
 10   6  27  1   
 11   6  28  1   
 12   6  29  1   
 13   7  30  1   
 14   7  31  1   
 15   7  32  1   
 16   8   9  1   
 17   8  10  1   
 18   8  33  1   
 19   9  11  1   
 20   9  12  1   
 21   9  34  1   
 22  10  13  1   
 23  10  35  1   
 24  10  36  1   
 25  11  14  am  
 26  11  37  1   
 27  12  13  1   
 28  12  38  1   
 29  12  39  1   
 30  14  15  2   
 31  14  16  1   
 32  16  17  1   
 33  16  18  2   
 34  17  19  1   
 35  18  20  1   
 36  18  40  1   
 37  19  20  ar  
 38  19  21  ar  
 39  20  22  ar  
 40  21  23  ar  
 41  21  41  1   
 42  22  24  ar  
 43  22  42  1   
 44  23  24  ar  
 45  23  43  1   
 46  24  44  1   
@<TRIPOS>SUBSTRUCTURE
  1 ****  11 GROUP 4 **** **** 0

# MOE 2024.06 (io_trps.svl 2023.06)
