@<TRIPOS>MOLECULE
NONAME
48 50 1 0 0 
SMALL
USER_CHARGES


@<TRIPOS>ATOM
  1 O        0.1010     0.0390    -0.4440 O.2   1 <1>  -0.5700 
  2 C        1.1920    -0.4700    -0.2690 C.2   1 <1>   0.7150 
  3 N        2.2920     0.3050    -0.0150 N.am  1 <1>  -0.4940 
  4 C        1.3830    -1.8990    -0.3090 C.2   1 <1>  -0.2370 
  5 C        2.4430     1.7110     0.0650 C.2   1 <1>  -0.0880 
  6 N        0.3730    -2.8320    -0.1500 N.pl3 1 <1>   0.0480 
  7 C        2.5510    -2.5850    -0.5000 C.2   1 <1>  -0.1500 
  8 N        3.6030     2.3650     0.3650 N.pl3 1 <1>   0.3140 
  9 C        1.5120     2.6740    -0.1300 C.2   1 <1>  -0.1500 
 10 C        0.9200    -4.0910    -0.2380 C.ar  1 <1>  -0.1520 
 11 C       -1.0570    -2.5470     0.1010 C.3   1 <1>   0.0160 
 12 C        2.2850    -3.9610    -0.4560 C.ar  1 <1>   0.0000 
 13 N        3.4230     3.7080     0.3620 N.2   1 <1>  -0.7070 
 14 C        4.9510     1.8000     0.6630 C.3   1 <1>   0.1760 
 15 C        2.1750     3.8760     0.0670 C.2   1 <1>   0.1080 
 16 C        0.3440    -5.3630    -0.1490 C.ar  1 <1>  -0.1500 
 17 C        3.0890    -5.1000    -0.5850 C.ar  1 <1>  -0.1500 
 18 C        5.5230     1.0760    -0.5740 C.3   1 <1>  -0.1600 
 19 C        4.9140     0.9170     1.9240 C.3   1 <1>  -0.2400 
 20 C        1.5470     5.2450    -0.0430 C.3   1 <1>  -0.0590 
 21 C        1.1430    -6.4750    -0.2770 C.ar  1 <1>  -0.1500 
 22 C        2.5220    -6.3500    -0.4950 C.ar  1 <1>  -0.1430 
 23 C        6.9880     0.6470    -0.4070 C.3   1 <1>  -0.2400 
 24 C        3.3620    -7.6070    -0.6290 C.3   1 <1>  -0.0970 
 25 H        3.1210    -0.2490     0.1760 H     1 <1>   0.3700 
 26 H        3.5370    -2.1930    -0.6720 H     1 <1>   0.1500 
 27 H        0.4740     2.5530    -0.3840 H     1 <1>   0.1500 
 28 H       -1.1440    -1.8430     0.9070 H     1 <1>   0.0800 
 29 H       -1.5770    -3.4480     0.3630 H     1 <1>   0.0800 
 30 H       -1.4930    -2.1270    -0.7870 H     1 <1>   0.0800 
 31 H        5.5880     2.6410     0.8740 H     1 <1>   0.0800 
 32 H       -0.7120    -5.4710     0.0150 H     1 <1>   0.1500 
 33 H        4.1420    -4.9720    -0.7540 H     1 <1>   0.1500 
 34 H        5.4640     1.7490    -1.4130 H     1 <1>   0.0800 
 35 H        4.9320     0.2080    -0.8070 H     1 <1>   0.0800 
 36 H        4.3930    -0.0050     1.7460 H     1 <1>   0.0800 
 37 H        4.4290     1.4480     2.7240 H     1 <1>   0.0800 
 38 H        5.9130     0.6840     2.2430 H     1 <1>   0.0800 
 39 H        0.5070     5.1620    -0.2960 H     1 <1>   0.0800 
 40 H        2.0530     5.8110    -0.8030 H     1 <1>   0.0800 
 41 H        1.6430     5.7580     0.8960 H     1 <1>   0.0800 
 42 H        0.7100    -7.4580    -0.2090 H     1 <1>   0.1500 
 43 H        7.6000     1.4930    -0.1470 H     1 <1>   0.0800 
 44 H        7.3550     0.2360    -1.3310 H     1 <1>   0.0800 
 45 H        7.0880    -0.1040     0.3560 H     1 <1>   0.0800 
 46 H        4.3960    -7.3610    -0.7890 H     1 <1>   0.0800 
 47 H        3.0150    -8.1910    -1.4620 H     1 <1>   0.0800 
 48 H        3.2840    -8.1960     0.2670 H     1 <1>   0.0800 
@<TRIPOS>BOND
  1   1   2  2   
  2   2   3  am  
  3   2   4  1   
  4   3   5  1   
  5   3  25  1   
  6   4   6  1   
  7   4   7  2   
  8   5   8  1   
  9   5   9  2   
 10   6  10  1   
 11   6  11  1   
 12   7  12  1   
 13   7  26  1   
 14   8  13  1   
 15   8  14  1   
 16   9  15  1   
 17   9  27  1   
 18  10  12  ar  
 19  10  16  ar  
 20  11  28  1   
 21  11  29  1   
 22  11  30  1   
 23  12  17  ar  
 24  13  15  2   
 25  14  18  1   
 26  14  19  1   
 27  14  31  1   
 28  15  20  1   
 29  16  21  ar  
 30  16  32  1   
 31  17  22  ar  
 32  17  33  1   
 33  18  23  1   
 34  18  34  1   
 35  18  35  1   
 36  19  36  1   
 37  19  37  1   
 38  19  38  1   
 39  20  39  1   
 40  20  40  1   
 41  20  41  1   
 42  21  22  ar  
 43  21  42  1   
 44  22  24  1   
 45  23  43  1   
 46  23  44  1   
 47  23  45  1   
 48  24  46  1   
 49  24  47  1   
 50  24  48  1   
@<TRIPOS>SUBSTRUCTURE
  1 ****   2 GROUP 4 **** **** 0

# MOE 2024.06 (io_trps.svl 2023.06)
