@<TRIPOS>MOLECULE
NONAME
46 48 1 0 0 
SMALL
USER_CHARGES


@<TRIPOS>ATOM
  1 CL      -1.9360    -0.2730    -2.2110 Cl    1 <1>  -0.1770 
  2 C       -2.5900     0.4740    -0.7710 C.ar  1 <1>   0.1770 
  3 C       -3.8700     0.1730    -0.3240 C.ar  1 <1>  -0.1440 
  4 C       -1.7810     1.3790    -0.1110 C.ar  1 <1>  -0.1500 
  5 C       -4.3580     0.8210     0.8190 C.ar  1 <1>   0.0860 
  6 C       -4.7560    -0.8420    -1.0500 C.3   1 <1>  -0.0960 
  7 C       -2.2520     2.0080     1.0260 C.ar  1 <1>  -0.1500 
  8 C       -5.6970     0.5930     1.3250 C.2   1 <1>   0.5440 
  9 C       -3.5270     1.7270     1.4790 C.ar  1 <1>  -0.1500 
 10 O       -5.8810    -0.2790     2.1520 O.2   1 <1>  -0.5700 
 11 N       -6.7610     1.3490     0.8810 N.am  1 <1>  -0.6600 
 12 C       -8.1580     1.0740     1.3230 C.3   1 <1>   0.1400 
 13 C       -6.6270     2.4030    -0.1700 C.3   1 <1>   0.1400 
 14 C       -9.0010     0.5440     0.1420 C.3   1 <1>   0.0000 
 15 C       -7.9470     2.6310    -0.9250 C.3   1 <1>  -0.1600 
 16 C      -10.4950     0.5970     0.5110 C.3   1 <1>   0.2000 
 17 C       -8.6780     1.3050    -1.1850 C.3   1 <1>  -0.1600 
 18 C       -8.8040    -0.9660    -0.0700 C.3   1 <1>  -0.1600 
 19 O      -11.0300     1.8730     0.3130 O.3   1 <1>  -0.5600 
 20 C      -11.1780    -0.4500    -0.3750 C.3   1 <1>  -0.1600 
 21 C      -10.0780    -1.4440    -0.7750 C.3   1 <1>  -0.1600 
 22 C      -12.2770     2.0840     0.8940 C.3   1 <1>   0.0400 
 23 H       -0.7940     1.5840    -0.4850 H     1 <1>   0.1500 
 24 H       -5.2650    -1.4700    -0.3400 H     1 <1>   0.0800 
 25 H       -4.1880    -1.4880    -1.6930 H     1 <1>   0.0800 
 26 H       -5.4910    -0.3280    -1.6430 H     1 <1>   0.0800 
 27 H       -1.6300     2.7110     1.5540 H     1 <1>   0.1500 
 28 H       -3.8990     2.2140     2.3640 H     1 <1>   0.1500 
 29 H       -8.1750     0.3750     2.1400 H     1 <1>   0.0800 
 30 H       -8.5860     1.9940     1.6820 H     1 <1>   0.0800 
 31 H       -6.3060     3.3230     0.2870 H     1 <1>   0.0800 
 32 H       -5.8770     2.1020    -0.8810 H     1 <1>   0.0800 
 33 H       -8.5830     3.2820    -0.3500 H     1 <1>   0.0800 
 34 H       -7.7430     3.1270    -1.8580 H     1 <1>   0.0800 
 35 H      -10.6110     0.3270     1.5480 H     1 <1>   0.0800 
 36 H       -8.0400     0.7040    -1.8080 H     1 <1>   0.0800 
 37 H       -9.5750     1.4930    -1.7480 H     1 <1>   0.0800 
 38 H       -7.9140    -1.1990    -0.6280 H     1 <1>   0.0800 
 39 H       -8.7320    -1.4580     0.8850 H     1 <1>   0.0800 
 40 H      -11.9630    -0.9460     0.1670 H     1 <1>   0.0800 
 41 H      -11.5830     0.0130    -1.2580 H     1 <1>   0.0800 
 42 H      -10.3250    -2.4510    -0.4860 H     1 <1>   0.0800 
 43 H       -9.9360    -1.4130    -1.8420 H     1 <1>   0.0800 
 44 H      -12.5710     3.0990     0.6920 H     1 <1>   0.0800 
 45 H      -12.2060     1.9320     1.9570 H     1 <1>   0.0800 
 46 H      -12.9940     1.4090     0.4600 H     1 <1>   0.0800 
@<TRIPOS>BOND
  1   1   2  1   
  2   2   3  ar  
  3   2   4  ar  
  4   3   5  ar  
  5   3   6  1   
  6   4   7  ar  
  7   4  23  1   
  8   5   8  1   
  9   5   9  ar  
 10   6  24  1   
 11   6  25  1   
 12   6  26  1   
 13   7   9  ar  
 14   7  27  1   
 15   8  10  2   
 16   8  11  am  
 17   9  28  1   
 18  11  12  1   
 19  11  13  1   
 20  12  14  1   
 21  12  29  1   
 22  12  30  1   
 23  13  15  1   
 24  13  31  1   
 25  13  32  1   
 26  14  16  1   
 27  14  17  1   
 28  14  18  1   
 29  15  17  1   
 30  15  33  1   
 31  15  34  1   
 32  16  19  1   
 33  16  20  1   
 34  16  35  1   
 35  17  36  1   
 36  17  37  1   
 37  18  21  1   
 38  18  38  1   
 39  18  39  1   
 40  19  22  1   
 41  20  21  1   
 42  20  40  1   
 43  20  41  1   
 44  21  42  1   
 45  21  43  1   
 46  22  44  1   
 47  22  45  1   
 48  22  46  1   
@<TRIPOS>SUBSTRUCTURE
  1 ****  11 GROUP 4 **** **** 0

# MOE 2024.06 (io_trps.svl 2023.06)
