@<TRIPOS>MOLECULE
NONAME
48 50 1 0 0 
SMALL
USER_CHARGES


@<TRIPOS>ATOM
  1 CL       0.0000    -0.5380     0.7360 Cl    1 <1>  -0.1770 
  2 C       -1.5840    -1.2180     0.4620 C.ar  1 <1>   0.1770 
  3 C       -2.4830    -1.2870     1.5090 C.ar  1 <1>  -0.1500 
  4 C       -1.9150    -1.6770    -0.7990 C.ar  1 <1>  -0.1500 
  5 C       -3.7390    -1.8260     1.2870 C.ar  1 <1>  -0.1500 
  6 C       -3.1730    -2.2150    -1.0140 C.ar  1 <1>  -0.1500 
  7 C       -4.0890    -2.2900     0.0270 C.ar  1 <1>  -0.1440 
  8 C       -5.4690    -2.8820    -0.2100 C.3   1 <1>  -0.0160 
  9 C       -5.4750    -4.3800     0.1150 C.3   1 <1>  -0.1600 
 10 C       -6.8620    -5.0100    -0.1130 C.3   1 <1>  -0.0990 
 11 C       -6.9230    -6.5050     0.1760 C.2   1 <1>   0.5690 
 12 O       -6.0590    -7.0150     0.8490 O.2   1 <1>  -0.5700 
 13 N       -7.9610    -7.2460    -0.3140 N.am  1 <1>  -0.6600 
 14 C       -9.1940    -6.7410    -0.9680 C.3   1 <1>   0.1400 
 15 C       -8.0790    -8.7050    -0.0630 C.3   1 <1>   0.1400 
 16 C      -10.2520    -7.7860    -0.6220 C.3   1 <1>   0.2000 
 17 C       -9.4630    -9.1000    -0.5960 C.3   1 <1>  -0.0800 
 18 O      -10.7290    -7.5050     0.6490 O.3   1 <1>  -0.6800 
 19 C      -10.1250   -10.2520     0.1830 C.3   1 <1>  -0.0160 
 20 C       -9.3060   -11.5290     0.0650 C.ar  1 <1>  -0.1440 
 21 C       -8.3960   -11.9080     1.0320 C.ar  1 <1>  -0.1500 
 22 C       -9.4300   -12.3740    -1.0190 C.ar  1 <1>  -0.1500 
 23 C       -7.6720   -13.0780     0.8700 C.ar  1 <1>   0.1600 
 24 C       -8.6580   -13.5220    -1.0840 C.ar  1 <1>   0.1600 
 25 N       -7.7810   -13.8940    -0.1660 N.ar  1 <1>  -0.6200 
 26 H       -2.2010    -0.9250     2.4810 H     1 <1>   0.1500 
 27 H       -1.1980    -1.6130    -1.5970 H     1 <1>   0.1500 
 28 H       -4.4420    -1.8860     2.1000 H     1 <1>   0.1500 
 29 H       -3.4350    -2.5760    -1.9930 H     1 <1>   0.1500 
 30 H       -6.1870    -2.3720     0.4090 H     1 <1>   0.0800 
 31 H       -5.7550    -2.7290    -1.2360 H     1 <1>   0.0800 
 32 H       -5.1820    -4.5220     1.1410 H     1 <1>   0.0800 
 33 H       -4.7490    -4.8830    -0.5030 H     1 <1>   0.0800 
 34 H       -7.1480    -4.8500    -1.1360 H     1 <1>   0.0800 
 35 H       -7.5800    -4.5220     0.5200 H     1 <1>   0.0800 
 36 H       -9.4760    -5.7630    -0.6160 H     1 <1>   0.0800 
 37 H       -9.0390    -6.7140    -2.0330 H     1 <1>   0.0800 
 38 H       -7.2940    -9.2420    -0.5670 H     1 <1>   0.0800 
 39 H       -8.0050    -8.8850     0.9960 H     1 <1>   0.0800 
 40 H      -11.0820    -7.7960    -1.3070 H     1 <1>   0.0800 
 41 H       -9.3300    -9.4180    -1.6150 H     1 <1>   0.0800 
 42 H       -9.9650    -7.3850     1.2500 H     1 <1>   0.4000 
 43 H      -11.1120   -10.4260    -0.2080 H     1 <1>   0.0800 
 44 H      -10.2330    -9.9920     1.2210 H     1 <1>   0.0800 
 45 H       -8.2400   -11.3070     1.9090 H     1 <1>   0.1500 
 46 H      -10.1190   -12.1520    -1.8130 H     1 <1>   0.1500 
 47 H       -6.9660   -13.3560     1.6330 H     1 <1>   0.1500 
 48 H       -8.7690   -14.1700    -1.9370 H     1 <1>   0.1500 
@<TRIPOS>BOND
  1   1   2  1   
  2   2   3  ar  
  3   2   4  ar  
  4   3   5  ar  
  5   3  26  1   
  6   4   6  ar  
  7   4  27  1   
  8   5   7  ar  
  9   5  28  1   
 10   6   7  ar  
 11   6  29  1   
 12   7   8  1   
 13   8   9  1   
 14   8  30  1   
 15   8  31  1   
 16   9  10  1   
 17   9  32  1   
 18   9  33  1   
 19  10  11  1   
 20  10  34  1   
 21  10  35  1   
 22  11  12  2   
 23  11  13  am  
 24  13  14  1   
 25  13  15  1   
 26  14  16  1   
 27  14  36  1   
 28  14  37  1   
 29  15  17  1   
 30  15  38  1   
 31  15  39  1   
 32  16  17  1   
 33  16  18  1   
 34  16  40  1   
 35  17  19  1   
 36  17  41  1   
 37  18  42  1   
 38  19  20  1   
 39  19  43  1   
 40  19  44  1   
 41  20  21  ar  
 42  20  22  ar  
 43  21  23  ar  
 44  21  45  1   
 45  22  24  ar  
 46  22  46  1   
 47  23  25  ar  
 48  23  47  1   
 49  24  25  ar  
 50  24  48  1   
@<TRIPOS>SUBSTRUCTURE
  1 ****  11 GROUP 4 **** **** 0

# MOE 2024.06 (io_trps.svl 2023.06)
