@<TRIPOS>MOLECULE
NONAME
43 44 1 0 0 
SMALL
USER_CHARGES


@<TRIPOS>ATOM
  1 S        1.8340     0.3330    -0.4510 S.o2  1 <1>   1.3330 
  2 O        2.7370     0.3440     0.6740 O.2   1 <1>  -0.6500 
  3 O        1.9040    -0.6790    -1.4740 O.2   1 <1>  -0.6500 
  4 N        2.0110     1.8000    -1.2490 N.am  1 <1>  -0.9140 
  5 C        0.1620     0.3750     0.1620 C.3   1 <1>  -0.1350 
  6 C        1.8670     2.9970    -0.4370 C.3   1 <1>   0.1960 
  7 C        2.3390     4.2000    -1.2440 C.3   1 <1>  -0.0990 
  8 C        2.2200     5.4490    -0.4040 C.2   1 <1>   0.5690 
  9 O        1.1120     5.8000    -0.0780 O.2   1 <1>  -0.5700 
 10 N        3.3670     6.1000    -0.0470 N.am  1 <1>  -0.4940 
 11 C        3.5290     7.3130     0.6650 C.2   1 <1>  -0.0880 
 12 N        4.6930     7.7790     1.2120 N.pl3 1 <1>   0.3140 
 13 C        2.5890     8.2510     0.9250 C.2   1 <1>  -0.1500 
 14 N        4.5030     8.9920     1.7920 N.2   1 <1>  -0.7070 
 15 C        6.0370     7.1290     1.3250 C.3   1 <1>   0.2710 
 16 C        3.2490     9.2560     1.6160 C.2   1 <1>   0.1080 
 17 C        6.3620     6.1630     0.1660 C.3   1 <1>  -0.1950 
 18 C        6.1680     6.4050     2.6720 C.3   1 <1>  -0.2400 
 19 C        2.6110    10.5290     2.1210 C.3   1 <1>  -0.0590 
 20 C        7.7300     6.1610    -0.4440 C.3   1 <1>  -0.2000 
 21 C        6.5540     6.6520    -1.2370 C.3   1 <1>  -0.2000 
 22 H        1.3920     1.7900    -2.0570 H     1 <1>   0.4200 
 23 H       -0.0670    -0.5540     0.6460 H     1 <1>   0.0800 
 24 H       -0.5300     0.5170    -0.6450 H     1 <1>   0.0800 
 25 H        0.0400     1.1650     0.8760 H     1 <1>   0.0800 
 26 H        2.4710     2.9070     0.4520 H     1 <1>   0.0800 
 27 H        0.8380     3.1320    -0.1420 H     1 <1>   0.0800 
 28 H        1.7250     4.3210    -2.1170 H     1 <1>   0.0800 
 29 H        3.3590     4.0540    -1.5500 H     1 <1>   0.0800 
 30 H        4.2350     5.6850    -0.3860 H     1 <1>   0.3700 
 31 H        1.5490     8.2390     0.6570 H     1 <1>   0.1500 
 32 H        6.7550     7.9300     1.3040 H     1 <1>   0.0800 
 33 H        5.9440     5.1830     0.3210 H     1 <1>   0.1000 
 34 H        5.4450     5.6130     2.7470 H     1 <1>   0.0800 
 35 H        6.0120     7.1030     3.4760 H     1 <1>   0.0800 
 36 H        7.1540     5.9880     2.7700 H     1 <1>   0.0800 
 37 H        1.5640    10.5440     1.8820 H     1 <1>   0.0800 
 38 H        3.0910    11.3750     1.6660 H     1 <1>   0.0800 
 39 H        2.7310    10.5900     3.1870 H     1 <1>   0.0800 
 40 H        8.1770     5.2200    -0.7170 H     1 <1>   0.1000 
 41 H        8.4620     6.8820    -0.1200 H     1 <1>   0.1000 
 42 H        6.4750     7.7080    -1.4380 H     1 <1>   0.1000 
 43 H        6.2080     6.0520    -2.0610 H     1 <1>   0.1000 
@<TRIPOS>BOND
  1   1   2  2   
  2   1   3  2   
  3   1   4  am  
  4   1   5  1   
  5   4   6  1   
  6   4  22  1   
  7   5  23  1   
  8   5  24  1   
  9   5  25  1   
 10   6   7  1   
 11   6  26  1   
 12   6  27  1   
 13   7   8  1   
 14   7  28  1   
 15   7  29  1   
 16   8   9  2   
 17   8  10  am  
 18  10  11  1   
 19  10  30  1   
 20  11  12  1   
 21  11  13  2   
 22  12  14  1   
 23  12  15  1   
 24  13  16  1   
 25  13  31  1   
 26  14  16  2   
 27  15  17  1   
 28  15  18  1   
 29  15  32  1   
 30  16  19  1   
 31  17  20  1   
 32  17  21  1   
 33  17  33  1   
 34  18  34  1   
 35  18  35  1   
 36  18  36  1   
 37  19  37  1   
 38  19  38  1   
 39  19  39  1   
 40  20  21  1   
 41  20  40  1   
 42  20  41  1   
 43  21  42  1   
 44  21  43  1   
@<TRIPOS>SUBSTRUCTURE
  1 ****  10 GROUP 4 **** **** 0

# MOE 2024.06 (io_trps.svl 2023.06)
