@<TRIPOS>MOLECULE
NONAME
50 53 1 0 0 
SMALL
USER_CHARGES


@<TRIPOS>ATOM
  1 S       -1.1940     1.6040    -2.6560 S.3   1 <1>  -0.0800 
  2 C       -1.5080     1.5420    -0.9290 C.2   1 <1>  -0.1400 
  3 C       -2.6010     0.6010    -2.9800 C.2   1 <1>  -0.1100 
  4 C       -2.6070     0.8200    -0.6730 C.2   1 <1>  -0.1810 
  5 C       -0.6200     2.2360     0.0980 C.3   1 <1>   0.4600 
  6 C       -3.2340     0.2730    -1.8370 C.2   1 <1>  -0.1500 
  7 C       -3.0710     0.6500     0.7560 C.3   1 <1>   0.0210 
  8 O       -1.0560     1.8690     1.3940 O.3   1 <1>  -0.5600 
  9 C       -0.6900     3.7640    -0.0360 C.3   1 <1>  -0.1600 
 10 C        0.8300     1.7540    -0.0190 C.3   1 <1>  -0.1600 
 11 C       -2.4420     1.7570     1.6240 C.3   1 <1>   0.1200 
 12 C        0.2400     4.4550     0.9620 C.3   1 <1>   0.1400 
 13 C        1.7480     2.4760     0.9710 C.3   1 <1>   0.1400 
 14 N        1.6280     3.9470     0.7640 N.am  1 <1>  -0.6600 
 15 C        2.7150     4.7090     0.4170 C.2   1 <1>   0.5690 
 16 O        3.8240     4.2340     0.3300 O.2   1 <1>  -0.5700 
 17 C        2.5520     6.1920     0.1400 C.3   1 <1>  -0.0990 
 18 C        3.8210     6.8270    -0.4410 C.3   1 <1>   0.0960 
 19 N        3.6270     8.2790    -0.6090 N.pl3 1 <1>   0.3140 
 20 N        2.9020     8.7690    -1.6320 N.2   1 <1>  -0.7070 
 21 C        4.0750     9.2720     0.1940 C.2   1 <1>  -0.3320 
 22 C        2.9110    10.0520    -1.4640 C.2   1 <1>   0.1080 
 23 C        3.6290    10.4300    -0.3370 C.2   1 <1>  -0.1500 
 24 C        4.9150     9.0770     1.4460 C.3   1 <1>  -0.0600 
 25 C        2.2080    10.9960    -2.4110 C.3   1 <1>  -0.0590 
 26 H       -2.8080     0.3580    -4.0070 H     1 <1>   0.1500 
 27 H       -4.1190    -0.3330    -1.7620 H     1 <1>   0.1500 
 28 H       -2.7750    -0.3160     1.1230 H     1 <1>   0.0800 
 29 H       -4.1420     0.7220     0.8080 H     1 <1>   0.0800 
 30 H       -1.6990     4.1020     0.1010 H     1 <1>   0.0800 
 31 H       -0.3930     4.0450    -1.0310 H     1 <1>   0.0800 
 32 H        1.1950     1.9350    -1.0120 H     1 <1>   0.0800 
 33 H        0.8660     0.6940     0.1530 H     1 <1>   0.0800 
 34 H       -2.5840     1.5360     2.6660 H     1 <1>   0.0800 
 35 H       -2.9000     2.7060     1.4080 H     1 <1>   0.0800 
 36 H       -0.0730     4.2290     1.9680 H     1 <1>   0.0800 
 37 H        0.1850     5.5200     0.8320 H     1 <1>   0.0800 
 38 H        2.7630     2.1480     0.8240 H     1 <1>   0.0800 
 39 H        1.4630     2.2360     1.9810 H     1 <1>   0.0800 
 40 H        2.2990     6.6830     1.0610 H     1 <1>   0.0800 
 41 H        1.7550     6.3280    -0.5670 H     1 <1>   0.0800 
 42 H        4.0400     6.4010    -1.4030 H     1 <1>   0.0800 
 43 H        4.6600     6.6570     0.2070 H     1 <1>   0.0800 
 44 H        3.7780    11.4350     0.0120 H     1 <1>   0.1500 
 45 H        4.3930     8.4550     2.1510 H     1 <1>   0.0800 
 46 H        5.1150    10.0260     1.9080 H     1 <1>   0.0800 
 47 H        5.8530     8.6140     1.1950 H     1 <1>   0.0800 
 48 H        1.1570    10.7750    -2.4200 H     1 <1>   0.0800 
 49 H        2.6010    10.8640    -3.4020 H     1 <1>   0.0800 
 50 H        2.3550    12.0140    -2.1040 H     1 <1>   0.0800 
@<TRIPOS>BOND
  1   1   2  1   
  2   1   3  1   
  3   2   4  2   
  4   2   5  1   
  5   3   6  2   
  6   3  26  1   
  7   4   6  1   
  8   4   7  1   
  9   5   8  1   
 10   5   9  1   
 11   5  10  1   
 12   6  27  1   
 13   7  11  1   
 14   7  28  1   
 15   7  29  1   
 16   8  11  1   
 17   9  12  1   
 18   9  30  1   
 19   9  31  1   
 20  10  13  1   
 21  10  32  1   
 22  10  33  1   
 23  11  34  1   
 24  11  35  1   
 25  12  14  1   
 26  12  36  1   
 27  12  37  1   
 28  13  14  1   
 29  13  38  1   
 30  13  39  1   
 31  14  15  am  
 32  15  16  2   
 33  15  17  1   
 34  17  18  1   
 35  17  40  1   
 36  17  41  1   
 37  18  19  1   
 38  18  42  1   
 39  18  43  1   
 40  19  20  1   
 41  19  21  1   
 42  20  22  2   
 43  21  23  2   
 44  21  24  1   
 45  22  23  1   
 46  22  25  1   
 47  23  44  1   
 48  24  45  1   
 49  24  46  1   
 50  24  47  1   
 51  25  48  1   
 52  25  49  1   
 53  25  50  1   
@<TRIPOS>SUBSTRUCTURE
  1 ****  12 GROUP 4 **** **** 0

# MOE 2024.06 (io_trps.svl 2023.06)
