@<TRIPOS>MOLECULE
NONAME
50 51 1 0 0 
SMALL
USER_CHARGES


@<TRIPOS>ATOM
  1 S        0.5400     0.2200     0.5310 S.o2  1 <1>   1.3330 
  2 O        0.0470     0.4400     1.8710 O.2   1 <1>  -0.6500 
  3 O        1.9680     0.1590     0.3020 O.2   1 <1>  -0.6500 
  4 N       -0.1590    -1.1990    -0.0840 N.am  1 <1>  -0.8490 
  5 C       -0.1440     1.5050    -0.5140 C.3   1 <1>  -0.0550 
  6 C        0.5630    -1.7590    -1.2310 C.3   1 <1>   0.1160 
  7 C       -0.3340    -2.2280     0.9470 C.3   1 <1>   0.1160 
  8 C        0.2900     2.9180    -0.0850 C.3   1 <1>  -0.0800 
  9 C       -0.2470     4.0070    -1.0070 C.3   1 <1>   0.2000 
 10 C        1.8030     3.1390    -0.0980 C.3   1 <1>   0.2090 
 11 O       -1.5500     4.3240    -0.6550 O.3   1 <1>  -0.6800 
 12 C        0.7090     5.1890    -0.8340 C.3   1 <1>   0.2090 
 13 N        1.9900     4.5910    -0.3530 N.pl3 1 <1>  -0.8380 
 14 C        3.1290     5.2910    -0.1790 C.ar  1 <1>   0.4100 
 15 N        3.0840     6.6070    -0.4290 N.ar  1 <1>  -0.6200 
 16 C        4.3240     4.6950     0.2440 C.ar  1 <1>  -0.1500 
 17 C        4.1650     7.3070    -0.2650 C.ar  1 <1>   0.5280 
 18 C        5.4410     5.4580     0.4050 C.ar  1 <1>   0.2180 
 19 N        5.3370     6.7760     0.1430 N.ar  1 <1>  -0.1790 
 20 C        4.1080     8.8020    -0.5470 C.3   1 <1>  -0.0170 
 21 C        6.7740     4.8920     0.8620 C.3   1 <1>  -0.0970 
 22 C        4.1950     9.6430     0.7380 C.3   1 <1>  -0.1600 
 23 C        4.1190    11.1410     0.4260 C.3   1 <1>  -0.2400 
 24 H        0.1550     1.3330    -1.5300 H     1 <1>   0.0800 
 25 H       -1.2150     1.4500    -0.4750 H     1 <1>   0.0800 
 26 H        0.0250    -2.6020    -1.6310 H     1 <1>   0.0800 
 27 H        1.5490    -2.0800    -0.9360 H     1 <1>   0.0800 
 28 H        0.6580    -1.0190    -2.0070 H     1 <1>   0.0800 
 29 H       -0.7990    -3.1030     0.5270 H     1 <1>   0.0800 
 30 H       -0.9690    -1.8560     1.7340 H     1 <1>   0.0800 
 31 H        0.6190    -2.5000     1.3710 H     1 <1>   0.0800 
 32 H       -0.0480     3.1030     0.9210 H     1 <1>   0.0800 
 33 H       -0.2430     3.6890    -2.0360 H     1 <1>   0.0800 
 34 H        2.2640     2.5800    -0.8960 H     1 <1>   0.0800 
 35 H        2.2380     2.8480     0.8450 H     1 <1>   0.0800 
 36 H       -1.5980     4.6010     0.2810 H     1 <1>   0.4000 
 37 H        0.3400     5.8780    -0.0940 H     1 <1>   0.0800 
 38 H        0.8590     5.6990    -1.7700 H     1 <1>   0.0800 
 39 H        4.3450     3.6390     0.4350 H     1 <1>   0.1500 
 40 H        6.1420     7.3930     0.2510 H     1 <1>   0.4570 
 41 H        4.9010     9.0710    -1.2210 H     1 <1>   0.0800 
 42 H        3.1790     9.0240    -1.0450 H     1 <1>   0.0800 
 43 H        6.6950     3.8310     1.0280 H     1 <1>   0.0800 
 44 H        7.0840     5.3510     1.7840 H     1 <1>   0.0800 
 45 H        7.5310     5.0570     0.1150 H     1 <1>   0.0800 
 46 H        3.3770     9.3830     1.3910 H     1 <1>   0.0800 
 47 H        5.1140     9.4460     1.2620 H     1 <1>   0.0800 
 48 H        3.1910    11.3800    -0.0650 H     1 <1>   0.0800 
 49 H        4.9330    11.4450    -0.2080 H     1 <1>   0.0800 
 50 H        4.1700    11.7110     1.3380 H     1 <1>   0.0800 
@<TRIPOS>BOND
  1   1   2  2   
  2   1   3  2   
  3   1   4  am  
  4   1   5  1   
  5   4   6  1   
  6   4   7  1   
  7   5   8  1   
  8   5  24  1   
  9   5  25  1   
 10   6  26  1   
 11   6  27  1   
 12   6  28  1   
 13   7  29  1   
 14   7  30  1   
 15   7  31  1   
 16   8   9  1   
 17   8  10  1   
 18   8  32  1   
 19   9  11  1   
 20   9  12  1   
 21   9  33  1   
 22  10  13  1   
 23  10  34  1   
 24  10  35  1   
 25  11  36  1   
 26  12  13  1   
 27  12  37  1   
 28  12  38  1   
 29  13  14  1   
 30  14  15  ar  
 31  14  16  ar  
 32  15  17  ar  
 33  16  18  ar  
 34  16  39  1   
 35  17  19  ar  
 36  17  20  1   
 37  18  19  ar  
 38  18  21  1   
 39  19  40  1   
 40  20  22  1   
 41  20  41  1   
 42  20  42  1   
 43  21  43  1   
 44  21  44  1   
 45  21  45  1   
 46  22  23  1   
 47  22  46  1   
 48  22  47  1   
 49  23  48  1   
 50  23  49  1   
 51  23  50  1   
@<TRIPOS>SUBSTRUCTURE
  1 ****  13 GROUP 4 **** **** 0

# MOE 2024.06 (io_trps.svl 2023.06)
