@<TRIPOS>MOLECULE
NONAME
47 50 1 0 0 
SMALL
USER_CHARGES


@<TRIPOS>ATOM
  1 O       -0.9440     1.0880    -2.1210 O.2   1 <1>  -0.5700 
  2 C       -1.8510     1.5260    -1.4310 C.2   1 <1>   0.5440 
  3 N       -2.9350     0.7000    -1.1600 N.am  1 <1>  -0.6600 
  4 C       -1.7080     2.8860    -0.9030 C.ar  1 <1>   0.3960 
  5 C       -3.0020    -0.7150    -1.6730 C.3   1 <1>   0.1400 
  6 C       -4.1760     1.2010    -0.4890 C.3   1 <1>   0.1400 
  7 N       -2.7420     3.7840    -0.9780 N.ar  1 <1>  -0.6200 
  8 C       -0.5090     3.2600    -0.3410 C.ar  1 <1>  -0.1500 
  9 C       -3.4120    -1.7570    -0.5960 C.3   1 <1>  -0.1060 
 10 C       -5.0420     0.0710     0.0740 C.3   1 <1>  -0.1600 
 11 C       -2.5510     4.9770    -0.5040 C.ar  1 <1>   0.1600 
 12 C       -0.2890     4.5420     0.1820 C.ar  1 <1>   0.0000 
 13 C       -4.3210    -2.7570    -1.3330 C.2   1 <1>   0.9060 
 14 C       -4.1330    -1.0420     0.5800 C.3   1 <1>   0.2000 
 15 C       -2.1900    -2.5620    -0.0710 C.3   1 <1>  -0.0650 
 16 C       -1.3610     5.4410     0.0960 C.ar  1 <1>   0.0000 
 17 C        0.9180     4.9630     0.7700 C.ar  1 <1>  -0.1500 
 18 O       -5.4300    -3.0730    -0.8730 O.co2 1 <1>  -0.9000 
 19 O       -3.9210    -3.2470    -2.3950 O.co2 1 <1>  -0.9000 
 20 O       -4.8860    -1.9200     1.3300 O.3   1 <1>  -0.6800 
 21 C       -1.0650    -1.7540     0.6020 C.3   1 <1>  -0.1950 
 22 C       -1.1950     6.7440     0.6050 C.ar  1 <1>  -0.1500 
 23 C        1.0550     6.2350     1.2590 C.ar  1 <1>  -0.1500 
 24 C        0.0850    -1.2050    -0.1800 C.3   1 <1>  -0.2000 
 25 C        0.2920    -2.3670     0.7460 C.3   1 <1>  -0.2000 
 26 C       -0.0130     7.1340     1.1750 C.ar  1 <1>  -0.1500 
 27 H       -3.7290    -0.7210    -2.4670 H     1 <1>   0.0800 
 28 H       -2.0700    -1.0120    -2.1210 H     1 <1>   0.0800 
 29 H       -3.8900     1.8380     0.3300 H     1 <1>   0.0800 
 30 H       -4.7480     1.7870    -1.1870 H     1 <1>   0.0800 
 31 H        0.2940     2.5470    -0.3020 H     1 <1>   0.1500 
 32 H       -5.6950    -0.3060    -0.6940 H     1 <1>   0.0800 
 33 H       -5.6460     0.4540     0.8760 H     1 <1>   0.0800 
 34 H       -3.3650     5.6780    -0.5690 H     1 <1>   0.1500 
 35 H       -3.4210    -0.6000     1.2510 H     1 <1>   0.0800 
 36 H       -2.5490    -3.2890     0.6360 H     1 <1>   0.0800 
 37 H       -1.7680    -3.1160    -0.8930 H     1 <1>   0.0800 
 38 H        1.7350     4.2660     0.8290 H     1 <1>   0.1500 
 39 H       -5.3330    -2.5170     0.6530 H     1 <1>   0.4000 
 40 H       -1.4030    -1.1910     1.4530 H     1 <1>   0.1000 
 41 H       -2.0160     7.4350     0.5390 H     1 <1>   0.1500 
 42 H        1.9790     6.5570     1.7090 H     1 <1>   0.1500 
 43 H        0.1100    -1.3700    -1.2430 H     1 <1>   0.1000 
 44 H        0.4610    -0.2340     0.0890 H     1 <1>   0.1000 
 45 H        0.8330    -2.2120     1.6620 H     1 <1>   0.1000 
 46 H        0.4730    -3.3380     0.3170 H     1 <1>   0.1000 
 47 H        0.1120     8.1310     1.5640 H     1 <1>   0.1500 
@<TRIPOS>BOND
  1   1   2  2   
  2   2   3  am  
  3   2   4  1   
  4   3   5  1   
  5   3   6  1   
  6   4   7  ar  
  7   4   8  ar  
  8   5   9  1   
  9   5  27  1   
 10   5  28  1   
 11   6  10  1   
 12   6  29  1   
 13   6  30  1   
 14   7  11  ar  
 15   8  12  ar  
 16   8  31  1   
 17   9  13  1   
 18   9  14  1   
 19   9  15  1   
 20  10  14  1   
 21  10  32  1   
 22  10  33  1   
 23  11  16  ar  
 24  11  34  1   
 25  12  16  ar  
 26  12  17  ar  
 27  13  18  ar  
 28  13  19  ar  
 29  14  20  1   
 30  14  35  1   
 31  15  21  1   
 32  15  36  1   
 33  15  37  1   
 34  16  22  ar  
 35  17  23  ar  
 36  17  38  1   
 37  20  39  1   
 38  21  24  1   
 39  21  25  1   
 40  21  40  1   
 41  22  26  ar  
 42  22  41  1   
 43  23  26  ar  
 44  23  42  1   
 45  24  25  1   
 46  24  43  1   
 47  24  44  1   
 48  25  45  1   
 49  25  46  1   
 50  26  47  1   
@<TRIPOS>SUBSTRUCTURE
  1 ****   2 GROUP 4 **** **** 0

# MOE 2024.06 (io_trps.svl 2023.06)
