@<TRIPOS>MOLECULE
NONAME
60 63 1 0 0 
SMALL
USER_CHARGES


@<TRIPOS>ATOM
  1 O       -0.3430     0.6310    -0.8900 O.2   1 <1>  -0.5700 
  2 C       -1.3710     1.2780    -0.9530 C.2   1 <1>   0.5440 
  3 N       -2.5740     0.6100    -0.8630 N.am  1 <1>  -0.6600 
  4 C       -1.2970     2.7220    -1.1020 C.ar  1 <1>   0.0860 
  5 C       -3.8220     1.2150    -0.3020 C.3   1 <1>   0.1400 
  6 C       -2.6730    -0.8730    -1.0410 C.3   1 <1>   0.1400 
  7 C       -0.3310     3.4610    -0.4250 C.ar  1 <1>  -0.1500 
  8 C       -2.1690     3.4240    -1.9320 C.ar  1 <1>  -0.1500 
  9 C       -4.3310     0.4190     0.9170 C.3   1 <1>   0.2950 
 10 C       -3.2410    -1.5490     0.2240 C.3   1 <1>   0.2000 
 11 C       -0.2340     4.8410    -0.5370 C.ar  1 <1>   0.1170 
 12 C       -2.0990     4.7990    -2.0490 C.ar  1 <1>  -0.1500 
 13 O       -4.4450    -0.9390     0.5890 O.3   1 <1>  -0.5600 
 14 C       -5.6970     0.9530     1.3890 C.3   1 <1>  -0.1950 
 15 C       -3.5440    -3.0400     0.0280 C.3   1 <1>  -0.1600 
 16 N        0.7700     5.4900     0.1930 N.am  1 <1>  -0.5470 
 17 C       -1.1450     5.5200    -1.3510 C.ar  1 <1>  -0.1430 
 18 C       -6.6630     0.1130     2.1660 C.3   1 <1>  -0.2000 
 19 C       -6.9870     0.5270     0.7570 C.3   1 <1>  -0.2000 
 20 C       -2.2850    -3.8810    -0.2370 C.3   1 <1>  -0.1600 
 21 C        1.7930     6.2710    -0.2610 C.2   1 <1>   0.6300 
 22 C       -1.1300     7.0360    -1.5030 C.3   1 <1>  -0.0970 
 23 C       -2.6290    -5.3720    -0.3300 C.3   1 <1>  -0.1600 
 24 O        1.9640     6.5430    -1.4230 O.2   1 <1>  -0.5700 
 25 C        2.7720     6.8060     0.7720 C.3   1 <1>  -0.1000 
 26 C       -1.3770    -6.2120    -0.5970 C.3   1 <1>  -0.2400 
 27 C        2.3080     7.4090     2.0700 C.3   1 <1>  -0.2000 
 28 C        2.8960     8.2840     1.0070 C.3   1 <1>  -0.2000 
 29 H       -3.6460     2.2300     0.0020 H     1 <1>   0.0800 
 30 H       -4.5850     1.2190    -1.0600 H     1 <1>   0.0800 
 31 H       -3.3200    -1.0820    -1.8740 H     1 <1>   0.0800 
 32 H       -1.7070    -1.2870    -1.2670 H     1 <1>   0.0800 
 33 H        0.3700     2.9340     0.1960 H     1 <1>   0.1500 
 34 H       -2.9080     2.8810    -2.4960 H     1 <1>   0.1500 
 35 H       -3.6260     0.5060     1.7260 H     1 <1>   0.0800 
 36 H       -2.5450    -1.4330     1.0380 H     1 <1>   0.0800 
 37 H       -2.7930     5.3090    -2.6950 H     1 <1>   0.1500 
 38 H       -5.6270     1.9840     1.6890 H     1 <1>   0.1000 
 39 H       -4.0200    -3.4030     0.9220 H     1 <1>   0.0800 
 40 H       -4.2340    -3.1560    -0.7900 H     1 <1>   0.0800 
 41 H        0.8210     5.2550     1.1820 H     1 <1>   0.3700 
 42 H       -6.4290    -0.9220     2.3510 H     1 <1>   0.1000 
 43 H       -7.2090     0.5630     2.9770 H     1 <1>   0.1000 
 44 H       -7.7580     1.2600     0.5990 H     1 <1>   0.1000 
 45 H       -6.9740    -0.2310    -0.0070 H     1 <1>   0.1000 
 46 H       -1.8210    -3.5720    -1.1580 H     1 <1>   0.0800 
 47 H       -1.5780    -3.7290     0.5610 H     1 <1>   0.0800 
 48 H       -2.0930     7.4000    -1.8140 H     1 <1>   0.0800 
 49 H       -0.4030     7.3190    -2.2430 H     1 <1>   0.0800 
 50 H       -0.8790     7.5110    -0.5720 H     1 <1>   0.0800 
 51 H       -3.0840    -5.6980     0.5900 H     1 <1>   0.0800 
 52 H       -3.3380    -5.5310    -1.1260 H     1 <1>   0.0800 
 53 H        3.6850     6.2400     0.7730 H     1 <1>   0.1000 
 54 H       -0.6630    -6.0850     0.1980 H     1 <1>   0.0800 
 55 H       -0.9180    -5.9200    -1.5250 H     1 <1>   0.0800 
 56 H       -1.6380    -7.2530    -0.6580 H     1 <1>   0.0800 
 57 H        1.2550     7.5110     2.2710 H     1 <1>   0.1000 
 58 H        2.8830     7.2290     2.9620 H     1 <1>   0.1000 
 59 H        3.8790     8.6970     1.1510 H     1 <1>   0.1000 
 60 H        2.2520     8.9420     0.4490 H     1 <1>   0.1000 
@<TRIPOS>BOND
  1   1   2  2   
  2   2   3  am  
  3   2   4  1   
  4   3   5  1   
  5   3   6  1   
  6   4   7  ar  
  7   4   8  ar  
  8   5   9  1   
  9   5  29  1   
 10   5  30  1   
 11   6  10  1   
 12   6  31  1   
 13   6  32  1   
 14   7  11  ar  
 15   7  33  1   
 16   8  12  ar  
 17   8  34  1   
 18   9  13  1   
 19   9  14  1   
 20   9  35  1   
 21  10  13  1   
 22  10  15  1   
 23  10  36  1   
 24  11  16  1   
 25  11  17  ar  
 26  12  17  ar  
 27  12  37  1   
 28  14  18  1   
 29  14  19  1   
 30  14  38  1   
 31  15  20  1   
 32  15  39  1   
 33  15  40  1   
 34  16  21  am  
 35  16  41  1   
 36  17  22  1   
 37  18  19  1   
 38  18  42  1   
 39  18  43  1   
 40  19  44  1   
 41  19  45  1   
 42  20  23  1   
 43  20  46  1   
 44  20  47  1   
 45  21  24  2   
 46  21  25  1   
 47  22  48  1   
 48  22  49  1   
 49  22  50  1   
 50  23  26  1   
 51  23  51  1   
 52  23  52  1   
 53  25  27  1   
 54  25  28  1   
 55  25  53  1   
 56  26  54  1   
 57  26  55  1   
 58  26  56  1   
 59  27  28  1   
 60  27  57  1   
 61  27  58  1   
 62  28  59  1   
 63  28  60  1   
@<TRIPOS>SUBSTRUCTURE
  1 ****   2 GROUP 4 **** **** 0

# MOE 2024.06 (io_trps.svl 2023.06)
