@<TRIPOS>MOLECULE
NONAME
53 56 1 0 0 
SMALL
USER_CHARGES


@<TRIPOS>ATOM
  1 F        0.9460    -2.2890    -1.6070 F     1 <1>  -0.1900 
  2 C        1.7730    -2.4000    -0.5990 C.ar  1 <1>   0.1900 
  3 C        1.2710    -2.6210     0.6760 C.ar  1 <1>  -0.0320 
  4 C        3.1260    -2.2930    -0.8600 C.ar  1 <1>  -0.1500 
  5 C        2.1840    -2.7560     1.7130 C.ar  1 <1>  -0.1500 
  6 C       -0.2310    -2.7260     0.9270 C.3   1 <1>   0.0320 
  7 C        4.0190    -2.4190     0.1900 C.ar  1 <1>  -0.1500 
  8 C        3.5470    -2.6520     1.4720 C.ar  1 <1>  -0.1500 
  9 C       -0.7820    -4.0920     0.4830 C.2   1 <1>   0.6300 
 10 C       -0.9920    -1.4330     0.7860 C.3   1 <1>  -0.2000 
 11 C       -0.8360    -2.0600     2.1350 C.3   1 <1>  -0.2000 
 12 O       -0.1910    -5.0970     0.8160 O.2   1 <1>  -0.5700 
 13 N       -1.9000    -4.2110    -0.3000 N.am  1 <1>  -0.6600 
 14 C       -1.9240    -5.2980    -1.3120 C.3   1 <1>   0.1400 
 15 C       -3.2540    -3.9000     0.2270 C.3   1 <1>   0.1400 
 16 C       -2.4500    -6.5950    -0.6550 C.3   1 <1>   0.4230 
 17 C       -3.8130    -5.1490     0.9290 C.3   1 <1>  -0.1600 
 18 N       -2.3440    -7.8330    -1.5300 N.4   1 <1>  -0.9590 
 19 C       -3.8320    -6.4360     0.0510 C.3   1 <1>   0.0000 
 20 C       -3.1110    -9.0060    -1.0030 C.3   1 <1>   0.3430 
 21 C       -2.6900    -7.5910    -2.9670 C.3   1 <1>   0.2630 
 22 C       -4.0230    -7.6650     0.9880 C.3   1 <1>  -0.1600 
 23 C       -5.0570    -6.3870    -0.9100 C.3   1 <1>   0.1200 
 24 C       -3.2720    -8.9310     0.5180 C.3   1 <1>  -0.1600 
 25 O       -4.8740    -5.5110    -1.9660 O.3   1 <1>  -0.6800 
 26 H        3.4690    -2.1170    -1.8640 H     1 <1>   0.1500 
 27 H        1.8360    -2.9470     2.7130 H     1 <1>   0.1500 
 28 H        5.0780    -2.3380     0.0120 H     1 <1>   0.1500 
 29 H        4.2420    -2.7560     2.2880 H     1 <1>   0.1500 
 30 H       -0.4360    -0.5370     0.5740 H     1 <1>   0.1000 
 31 H       -1.9430    -1.4350     0.2870 H     1 <1>   0.1000 
 32 H       -1.6900    -2.5140     2.6030 H     1 <1>   0.1000 
 33 H       -0.1910    -1.5760     2.8470 H     1 <1>   0.1000 
 34 H       -2.5300    -4.9860    -2.1410 H     1 <1>   0.0800 
 35 H       -0.9220    -5.4590    -1.6680 H     1 <1>   0.0800 
 36 H       -3.2080    -3.0940     0.9360 H     1 <1>   0.0800 
 37 H       -3.8940    -3.5930    -0.5820 H     1 <1>   0.0800 
 38 H       -1.7610    -6.7610     0.1570 H     1 <1>   0.0800 
 39 H       -3.1950    -5.3070     1.7970 H     1 <1>   0.0800 
 40 H       -4.8020    -4.9320     1.2910 H     1 <1>   0.0800 
 41 H       -1.3460    -8.0880    -1.4910 H     1 <1>   0.4500 
 42 H       -4.0910    -9.0270    -1.4490 H     1 <1>   0.0800 
 43 H       -2.6080    -9.9220    -1.2710 H     1 <1>   0.0800 
 44 H       -3.7160    -7.2770    -3.0590 H     1 <1>   0.0800 
 45 H       -2.5530    -8.4920    -3.5430 H     1 <1>   0.0800 
 46 H       -2.0590    -6.8230    -3.3840 H     1 <1>   0.0800 
 47 H       -3.6720    -7.4460     1.9820 H     1 <1>   0.0800 
 48 H       -5.0730    -7.8880     1.0890 H     1 <1>   0.0800 
 49 H       -5.9340    -6.0700    -0.3700 H     1 <1>   0.0800 
 50 H       -5.2620    -7.3540    -1.3310 H     1 <1>   0.0800 
 51 H       -3.8010    -9.8030     0.8620 H     1 <1>   0.0800 
 52 H       -2.2940    -8.9610     0.9690 H     1 <1>   0.0800 
 53 H       -5.7340    -5.2810    -2.3810 H     1 <1>   0.4000 
@<TRIPOS>BOND
  1   1   2  1   
  2   2   3  ar  
  3   2   4  ar  
  4   3   5  ar  
  5   3   6  1   
  6   4   7  ar  
  7   4  26  1   
  8   5   8  ar  
  9   5  27  1   
 10   6   9  1   
 11   6  10  1   
 12   6  11  1   
 13   7   8  ar  
 14   7  28  1   
 15   8  29  1   
 16   9  12  2   
 17   9  13  am  
 18  10  11  1   
 19  10  30  1   
 20  10  31  1   
 21  11  32  1   
 22  11  33  1   
 23  13  14  1   
 24  13  15  1   
 25  14  16  1   
 26  14  34  1   
 27  14  35  1   
 28  15  17  1   
 29  15  36  1   
 30  15  37  1   
 31  16  18  1   
 32  16  19  1   
 33  16  38  1   
 34  17  19  1   
 35  17  39  1   
 36  17  40  1   
 37  18  20  1   
 38  18  21  1   
 39  18  41  1   
 40  19  22  1   
 41  19  23  1   
 42  20  24  1   
 43  20  42  1   
 44  20  43  1   
 45  21  44  1   
 46  21  45  1   
 47  21  46  1   
 48  22  24  1   
 49  22  47  1   
 50  22  48  1   
 51  23  25  1   
 52  23  49  1   
 53  23  50  1   
 54  24  51  1   
 55  24  52  1   
 56  25  53  1   
@<TRIPOS>SUBSTRUCTURE
  1 ****   9 GROUP 4 **** **** 0

# MOE 2024.06 (io_trps.svl 2023.06)
