@<TRIPOS>MOLECULE
NONAME
40 42 1 0 0 
SMALL
USER_CHARGES


@<TRIPOS>ATOM
  1 O       -0.5080    -1.0700    -0.4470 O.2   1 <1>  -0.5700 
  2 C        0.2950    -1.9610    -0.5530 C.2   1 <1>   0.5690 
  3 N        0.0410    -3.0540    -1.3030 N.am  1 <1>  -0.7300 
  4 C        1.6260    -1.8990     0.1650 C.3   1 <1>  -0.0990 
  5 C        0.9860    -4.1830    -1.4300 C.3   1 <1>   0.1400 
  6 C        2.7620    -2.3770    -0.7600 C.3   1 <1>  -0.0800 
  7 C        2.4280    -3.6510    -1.5700 C.3   1 <1>  -0.0800 
  8 C        4.0670    -2.6720    -0.0070 C.3   1 <1>  -0.1600 
  9 C        3.4840    -4.6830    -1.1580 C.3   1 <1>  -0.1600 
 10 C        4.7020    -3.8510    -0.7440 C.3   1 <1>   0.2200 
 11 N        5.7060    -4.5650     0.1110 N.am  1 <1>  -0.6600 
 12 C        6.8000    -3.9130     0.6700 C.2   1 <1>   0.5440 
 13 C        5.5440    -6.0400     0.3210 C.3   1 <1>   0.0600 
 14 O        7.3540    -4.4510     1.6150 O.2   1 <1>  -0.5700 
 15 C        7.3080    -2.6120     0.2140 C.ar  1 <1>   0.3960 
 16 N        7.3870    -2.3320    -1.1010 N.ar  1 <1>  -0.6200 
 17 C        7.7110    -1.6870     1.1810 C.ar  1 <1>  -0.1500 
 18 C        7.8640    -1.1490    -1.4080 C.ar  1 <1>   0.3930 
 19 C        8.2030    -0.4470     0.8300 C.ar  1 <1>  -0.1500 
 20 O        7.9360    -0.9210    -2.7050 O.3   1 <1>  -0.5330 
 21 C        8.2780    -0.1770    -0.5150 C.ar  1 <1>  -0.1500 
 22 H       -0.8730    -3.1160    -1.7550 H     1 <1>   0.3700 
 23 H        1.8110    -0.8920     0.4910 H     1 <1>   0.0800 
 24 H        1.5560    -2.5280     1.0330 H     1 <1>   0.0800 
 25 H        0.8970    -4.7950    -0.5480 H     1 <1>   0.0800 
 26 H        0.7290    -4.7810    -2.2870 H     1 <1>   0.0800 
 27 H        2.9520    -1.5900    -1.4710 H     1 <1>   0.0800 
 28 H        2.5860    -3.4190    -2.6100 H     1 <1>   0.0800 
 29 H        3.8550    -2.9680     1.0060 H     1 <1>   0.0800 
 30 H        4.7040    -1.8070    -0.0030 H     1 <1>   0.0800 
 31 H        3.7160    -5.3540    -1.9660 H     1 <1>   0.0800 
 32 H        3.1150    -5.2340    -0.3120 H     1 <1>   0.0800 
 33 H        5.1830    -3.4970    -1.6400 H     1 <1>   0.0800 
 34 H        5.3590    -6.5310    -0.6180 H     1 <1>   0.0800 
 35 H        4.7280    -6.2240     0.9970 H     1 <1>   0.0800 
 36 H        6.4370    -6.4680     0.7440 H     1 <1>   0.0800 
 37 H        7.6360    -1.9570     2.2200 H     1 <1>   0.1500 
 38 H        8.5160     0.2700     1.5710 H     1 <1>   0.1500 
 39 H        7.6480    -1.7220    -3.1740 H     1 <1>   0.4500 
 40 H        8.6520     0.7610    -0.8820 H     1 <1>   0.1500 
@<TRIPOS>BOND
  1   1   2  2   
  2   2   3  am  
  3   2   4  1   
  4   3   5  1   
  5   3  22  1   
  6   4   6  1   
  7   4  23  1   
  8   4  24  1   
  9   5   7  1   
 10   5  25  1   
 11   5  26  1   
 12   6   7  1   
 13   6   8  1   
 14   6  27  1   
 15   7   9  1   
 16   7  28  1   
 17   8  10  1   
 18   8  29  1   
 19   8  30  1   
 20   9  10  1   
 21   9  31  1   
 22   9  32  1   
 23  10  11  1   
 24  10  33  1   
 25  11  12  am  
 26  11  13  1   
 27  12  14  2   
 28  12  15  1   
 29  13  34  1   
 30  13  35  1   
 31  13  36  1   
 32  15  16  ar  
 33  15  17  ar  
 34  16  18  ar  
 35  17  19  ar  
 36  17  37  1   
 37  18  20  1   
 38  18  21  ar  
 39  19  21  ar  
 40  19  38  1   
 41  20  39  1   
 42  21  40  1   
@<TRIPOS>SUBSTRUCTURE
  1 ****   8 GROUP 4 **** **** 0

# MOE 2024.06 (io_trps.svl 2023.06)
