@<TRIPOS>MOLECULE
NONAME
45 46 1 0 0 
SMALL
USER_CHARGES


@<TRIPOS>ATOM
  1 S        1.5420    -2.0490     0.5070 S.o2  1 <1>   1.5010 
  2 O        2.6720    -2.8810     0.1560 O.2   1 <1>  -0.6500 
  3 O        0.8650    -2.2720     1.7660 O.2   1 <1>  -0.6500 
  4 N        0.3900    -2.2550    -0.7070 N.am  1 <1>  -0.9140 
  5 C        1.9440    -0.2690     0.3260 C.2   1 <1>   0.1640 
  6 C       -0.5440    -3.3770    -0.6240 C.3   1 <1>   0.2760 
  7 N        1.0430     0.6440    -0.1450 N.2   1 <1>  -0.5650 
  8 C        3.0990     0.3750     0.6380 C.2   1 <1>  -0.3020 
  9 C       -1.6830    -3.1510     0.3770 C.3   1 <1>  -0.0800 
 10 C        0.0380    -4.7440    -0.2370 C.3   1 <1>   0.1200 
 11 C        1.6630     1.7760    -0.1020 C.2   1 <1>   0.0060 
 12 N        2.9230     1.6780     0.3650 N.pl3 1 <1>   0.0330 
 13 C       -1.5700    -4.3720     1.2950 C.3   1 <1>   0.1200 
 14 C       -3.0450    -3.1040    -0.3440 C.3   1 <1>  -0.0550 
 15 O       -0.9640    -5.3480     0.5160 O.3   1 <1>  -0.5600 
 16 C        1.0430     3.0950    -0.5280 C.3   1 <1>   0.0200 
 17 S       -4.3930    -2.5250     0.6880 S.o2  1 <1>   1.3330 
 18 C        0.7000     3.9620     0.6870 C.3   1 <1>  -0.2400 
 19 O       -4.6640    -3.4820     1.7380 O.2   1 <1>  -0.6500 
 20 O       -4.1170    -1.1470     1.0250 O.2   1 <1>  -0.6500 
 21 N       -5.7110    -2.5510    -0.3820 N.am  1 <1>  -0.8490 
 22 C       -6.3350    -3.8740    -0.5030 C.3   1 <1>   0.1160 
 23 C       -6.7280    -1.5540    -0.0330 C.3   1 <1>   0.1160 
 24 H       -0.1510    -1.3880    -0.6660 H     1 <1>   0.4200 
 25 H       -0.9670    -3.4980    -1.6070 H     1 <1>   0.0800 
 26 H        4.0130    -0.0300     1.0350 H     1 <1>   0.1500 
 27 H       -1.5530    -2.2490     0.9490 H     1 <1>   0.0800 
 28 H        0.9110    -4.6780     0.3860 H     1 <1>   0.0800 
 29 H        0.2430    -5.3550    -1.0980 H     1 <1>   0.0800 
 30 H        3.5920     2.4440     0.4880 H     1 <1>   0.2700 
 31 H       -2.5130    -4.7430     1.6550 H     1 <1>   0.0800 
 32 H       -0.9230    -4.1650     2.1330 H     1 <1>   0.0800 
 33 H       -3.2750    -4.0790    -0.7280 H     1 <1>   0.0800 
 34 H       -2.9670    -2.4350    -1.1790 H     1 <1>   0.0800 
 35 H        1.7200     3.6200    -1.1790 H     1 <1>   0.0800 
 36 H        0.1420     2.8930    -1.0830 H     1 <1>   0.0800 
 37 H        1.5860     4.2020     1.2460 H     1 <1>   0.0800 
 38 H        0.0170     3.4350     1.3300 H     1 <1>   0.0800 
 39 H        0.2350     4.8780     0.3670 H     1 <1>   0.0800 
 40 H       -7.0990    -3.8540    -1.2610 H     1 <1>   0.0800 
 41 H       -6.7790    -4.1690     0.4340 H     1 <1>   0.0800 
 42 H       -5.6000    -4.6090    -0.7820 H     1 <1>   0.0800 
 43 H       -7.5400    -1.5860    -0.7380 H     1 <1>   0.0800 
 44 H       -6.3000    -0.5650    -0.0590 H     1 <1>   0.0800 
 45 H       -7.1100    -1.7390     0.9580 H     1 <1>   0.0800 
@<TRIPOS>BOND
  1   1   2  2   
  2   1   3  2   
  3   1   4  am  
  4   1   5  1   
  5   4   6  1   
  6   4  24  1   
  7   5   7  1   
  8   5   8  2   
  9   6   9  1   
 10   6  10  1   
 11   6  25  1   
 12   7  11  2   
 13   8  12  1   
 14   8  26  1   
 15   9  13  1   
 16   9  14  1   
 17   9  27  1   
 18  10  15  1   
 19  10  28  1   
 20  10  29  1   
 21  11  12  1   
 22  11  16  1   
 23  12  30  1   
 24  13  15  1   
 25  13  31  1   
 26  13  32  1   
 27  14  17  1   
 28  14  33  1   
 29  14  34  1   
 30  16  18  1   
 31  16  35  1   
 32  16  36  1   
 33  17  19  2   
 34  17  20  2   
 35  17  21  am  
 36  18  37  1   
 37  18  38  1   
 38  18  39  1   
 39  21  22  1   
 40  21  23  1   
 41  22  40  1   
 42  22  41  1   
 43  22  42  1   
 44  23  43  1   
 45  23  44  1   
 46  23  45  1   
@<TRIPOS>SUBSTRUCTURE
  1 ****   9 GROUP 4 **** **** 0

# MOE 2024.06 (io_trps.svl 2023.06)
