@<TRIPOS>MOLECULE
NONAME
46 48 1 0 0 
SMALL
USER_CHARGES


@<TRIPOS>ATOM
  1 CL      -2.2390     0.7980    -1.3740 Cl    1 <1>  -0.1770 
  2 C       -1.1670     1.9410    -0.6020 C.ar  1 <1>   0.1770 
  3 C       -1.5660     2.6080     0.5540 C.ar  1 <1>   0.0860 
  4 C        0.0670     2.1540    -1.1860 C.ar  1 <1>  -0.1500 
  5 C       -0.6620     3.5160     1.1220 C.ar  1 <1>  -0.1440 
  6 C       -2.8710     2.3670     1.1270 C.2   1 <1>   0.5440 
  7 C        0.9440     3.0560    -0.6140 C.ar  1 <1>  -0.1500 
  8 C        0.5760     3.7330     0.5370 C.ar  1 <1>  -0.1500 
  9 C       -1.0320     4.2710     2.3930 C.3   1 <1>  -0.0960 
 10 O       -2.9860     1.5260     1.9990 O.2   1 <1>  -0.5700 
 11 N       -3.9770     3.0910     0.7330 N.am  1 <1>  -0.6600 
 12 C       -5.3350     2.8360     1.2990 C.3   1 <1>   0.1400 
 13 C       -3.9700     4.1080    -0.3530 C.3   1 <1>   0.1400 
 14 C       -6.2860     2.3100     0.2070 C.3   1 <1>   0.0000 
 15 C       -4.8870     3.6500    -1.4920 C.3   1 <1>  -0.1600 
 16 C       -7.6850     2.0630     0.7990 C.3   1 <1>   0.2000 
 17 C       -6.3020     3.3040    -0.9880 C.3   1 <1>  -0.1600 
 18 C       -5.9060     0.8940    -0.2620 C.3   1 <1>  -0.1600 
 19 O       -8.4280     3.2420     0.8960 O.3   1 <1>  -0.5600 
 20 C       -8.3520     1.0500    -0.1350 C.3   1 <1>  -0.1600 
 21 C       -7.2040     0.2580    -0.7740 C.3   1 <1>  -0.1600 
 22 C       -9.5740     3.1520     1.6830 C.3   1 <1>   0.0400 
 23 H        0.3360     1.6170    -2.0780 H     1 <1>   0.1500 
 24 H        1.9090     3.2300    -1.0580 H     1 <1>   0.1500 
 25 H        1.2690     4.4300     0.9760 H     1 <1>   0.1500 
 26 H       -0.2320     4.9130     2.7130 H     1 <1>   0.0800 
 27 H       -1.2440     3.5730     3.1840 H     1 <1>   0.0800 
 28 H       -1.9070     4.8740     2.2240 H     1 <1>   0.0800 
 29 H       -5.2820     2.1300     2.1090 H     1 <1>   0.0800 
 30 H       -5.7240     3.7570     1.6950 H     1 <1>   0.0800 
 31 H       -4.3290     5.0410     0.0470 H     1 <1>   0.0800 
 32 H       -2.9760     4.2690    -0.7300 H     1 <1>   0.0800 
 33 H       -4.9540     4.4340    -2.2250 H     1 <1>   0.0800 
 34 H       -4.4440     2.7990    -1.9760 H     1 <1>   0.0800 
 35 H       -7.5800     1.6340     1.7820 H     1 <1>   0.0800 
 36 H       -6.8870     2.9100    -1.7990 H     1 <1>   0.0800 
 37 H       -6.7690     4.2220    -0.6750 H     1 <1>   0.0800 
 38 H       -5.1370     0.8880    -1.0120 H     1 <1>   0.0800 
 39 H       -5.5480     0.3250     0.5790 H     1 <1>   0.0800 
 40 H       -9.0110     0.4000     0.4120 H     1 <1>   0.0800 
 41 H       -8.9020     1.5670    -0.9020 H     1 <1>   0.0800 
 42 H       -7.2460    -0.7840    -0.5060 H     1 <1>   0.0800 
 43 H       -7.2570     0.3430    -1.8460 H     1 <1>   0.0800 
 44 H      -10.0410     4.1210     1.7030 H     1 <1>   0.0800 
 45 H       -9.2980     2.8630     2.6820 H     1 <1>   0.0800 
 46 H      -10.2500     2.4350     1.2530 H     1 <1>   0.0800 
@<TRIPOS>BOND
  1   1   2  1   
  2   2   3  ar  
  3   2   4  ar  
  4   3   5  ar  
  5   3   6  1   
  6   4   7  ar  
  7   4  23  1   
  8   5   8  ar  
  9   5   9  1   
 10   6  10  2   
 11   6  11  am  
 12   7   8  ar  
 13   7  24  1   
 14   8  25  1   
 15   9  26  1   
 16   9  27  1   
 17   9  28  1   
 18  11  12  1   
 19  11  13  1   
 20  12  14  1   
 21  12  29  1   
 22  12  30  1   
 23  13  15  1   
 24  13  31  1   
 25  13  32  1   
 26  14  16  1   
 27  14  17  1   
 28  14  18  1   
 29  15  17  1   
 30  15  33  1   
 31  15  34  1   
 32  16  19  1   
 33  16  20  1   
 34  16  35  1   
 35  17  36  1   
 36  17  37  1   
 37  18  21  1   
 38  18  38  1   
 39  18  39  1   
 40  19  22  1   
 41  20  21  1   
 42  20  40  1   
 43  20  41  1   
 44  21  42  1   
 45  21  43  1   
 46  22  44  1   
 47  22  45  1   
 48  22  46  1   
@<TRIPOS>SUBSTRUCTURE
  1 ****  11 GROUP 4 **** **** 0

# MOE 2024.06 (io_trps.svl 2023.06)
