@<TRIPOS>MOLECULE
NONAME
47 49 1 0 0 
SMALL
USER_CHARGES


@<TRIPOS>ATOM
  1 O       -1.6080     0.5370    -1.5380 O.2   1 <1>  -0.5700 
  2 C       -1.5030     0.5310    -0.3270 C.2   1 <1>   0.5440 
  3 N       -1.6520    -0.6620     0.3200 N.am  1 <1>  -0.7300 
  4 C       -1.2310     1.7560     0.4080 C.ar  1 <1>   0.0860 
  5 C       -1.8770    -1.9730    -0.3350 C.3   1 <1>   0.2200 
  6 C       -0.6650     2.8590    -0.2300 C.ar  1 <1>  -0.1500 
  7 C       -1.5200     1.8870     1.7690 C.ar  1 <1>  -0.1500 
  8 C       -3.3250    -2.4220    -0.1910 C.3   1 <1>  -0.0800 
  9 C       -1.1720    -3.0500     0.4760 C.3   1 <1>   0.1200 
 10 C       -0.3870     4.0350     0.4440 C.ar  1 <1>   0.0820 
 11 C       -1.2470     3.0560     2.4570 C.ar  1 <1>  -0.1500 
 12 C       -3.3470    -3.0810     1.1940 C.3   1 <1>   0.1200 
 13 C       -4.3920    -1.3310    -0.3930 C.3   1 <1>  -0.0160 
 14 O       -2.0130    -3.2930     1.5620 O.3   1 <1>  -0.5600 
 15 O        0.1650     5.0390    -0.2810 O.3   1 <1>  -0.3630 
 16 C       -0.6800     4.1330     1.8010 C.ar  1 <1>  -0.1500 
 17 C       -5.7920    -1.9220    -0.3220 C.ar  1 <1>  -0.1430 
 18 C        0.4820     6.2920     0.3150 C.3   1 <1>   0.1810 
 19 C       -6.3650    -2.5560    -1.4050 C.ar  1 <1>  -0.1500 
 20 C       -6.5600    -1.8570     0.8230 C.ar  1 <1>  -0.1500 
 21 C        1.0850     7.2620    -0.6960 C.2   1 <1>   0.5690 
 22 C       -7.6400    -3.0860    -1.2930 C.ar  1 <1>   0.1600 
 23 C       -7.8260    -2.4200     0.8300 C.ar  1 <1>   0.1600 
 24 O        1.4350     8.3530    -0.3230 O.2   1 <1>  -0.5700 
 25 N        1.2270     6.9160    -1.9910 N.am  1 <1>  -0.8000 
 26 N       -8.3830    -3.0360    -0.1990 N.ar  1 <1>  -0.6200 
 27 H       -1.5380    -0.7270     1.3330 H     1 <1>   0.3700 
 28 H       -1.5480    -1.9510    -1.3610 H     1 <1>   0.0800 
 29 H       -0.4360     2.7960    -1.2790 H     1 <1>   0.1500 
 30 H       -1.9700     1.0700     2.3020 H     1 <1>   0.1500 
 31 H       -3.5000    -3.1970    -0.9160 H     1 <1>   0.0800 
 32 H       -0.2020    -2.7440     0.8250 H     1 <1>   0.0800 
 33 H       -1.0890    -3.9620    -0.0900 H     1 <1>   0.0800 
 34 H       -1.4780     3.1300     3.5060 H     1 <1>   0.1500 
 35 H       -3.8610    -4.0260     1.1770 H     1 <1>   0.0800 
 36 H       -3.7890    -2.4380     1.9340 H     1 <1>   0.0800 
 37 H       -4.2490    -0.8660    -1.3530 H     1 <1>   0.0800 
 38 H       -4.2920    -0.5620     0.3530 H     1 <1>   0.0800 
 39 H       -0.4780     5.0270     2.3600 H     1 <1>   0.1500 
 40 H       -0.4200     6.7160     0.7140 H     1 <1>   0.0800 
 41 H        1.1910     6.1230     1.1050 H     1 <1>   0.0800 
 42 H       -5.8330    -2.6430    -2.3350 H     1 <1>   0.1500 
 43 H       -6.1900    -1.3750     1.7080 H     1 <1>   0.1500 
 44 H       -8.0710    -3.5780    -2.1480 H     1 <1>   0.1500 
 45 H       -8.4110    -2.3610     1.7320 H     1 <1>   0.1500 
 46 H        1.6310     7.5710    -2.6610 H     1 <1>   0.3700 
 47 H        0.9430     5.9980    -2.3380 H     1 <1>   0.3700 
@<TRIPOS>BOND
  1   1   2  2   
  2   2   3  am  
  3   2   4  1   
  4   3   5  1   
  5   3  27  1   
  6   4   6  ar  
  7   4   7  ar  
  8   5   8  1   
  9   5   9  1   
 10   5  28  1   
 11   6  10  ar  
 12   6  29  1   
 13   7  11  ar  
 14   7  30  1   
 15   8  12  1   
 16   8  13  1   
 17   8  31  1   
 18   9  14  1   
 19   9  32  1   
 20   9  33  1   
 21  10  15  1   
 22  10  16  ar  
 23  11  16  ar  
 24  11  34  1   
 25  12  14  1   
 26  12  35  1   
 27  12  36  1   
 28  13  17  1   
 29  13  37  1   
 30  13  38  1   
 31  15  18  1   
 32  16  39  1   
 33  17  19  ar  
 34  17  20  ar  
 35  18  21  1   
 36  18  40  1   
 37  18  41  1   
 38  19  22  ar  
 39  19  42  1   
 40  20  23  ar  
 41  20  43  1   
 42  21  24  2   
 43  21  25  am  
 44  22  26  ar  
 45  22  44  1   
 46  23  26  ar  
 47  23  45  1   
 48  25  46  1   
 49  25  47  1   
@<TRIPOS>SUBSTRUCTURE
  1 ****   2 GROUP 4 **** **** 0

# MOE 2024.06 (io_trps.svl 2023.06)
