@<TRIPOS>MOLECULE
NONAME
43 45 1 0 0 
SMALL
USER_CHARGES


@<TRIPOS>ATOM
  1 CL       0.0960     0.0000    -2.2060 Cl    1 <1>  -0.1770 
  2 C        1.1320    -1.0410    -1.2410 C.ar  1 <1>   0.1770 
  3 C        0.7670    -2.3400    -0.8940 C.ar  1 <1>   0.4100 
  4 C        2.3460    -0.5750    -0.8180 C.ar  1 <1>   0.1600 
  5 N        1.5910    -3.0900    -0.1790 N.ar  1 <1>  -0.6200 
  6 N       -0.4430    -2.9110    -1.2530 N.pl3 1 <1>  -0.8380 
  7 N        3.1700    -1.3170    -0.0980 N.ar  1 <1>  -0.6200 
  8 C        2.7370    -2.5370     0.1730 C.ar  1 <1>   0.4770 
  9 C       -1.7190    -2.3300    -0.7310 C.3   1 <1>   0.2090 
 10 C       -0.5330    -4.3790    -1.5320 C.3   1 <1>   0.2090 
 11 C        3.6620    -3.4040     0.9930 C.3   1 <1>  -0.0960 
 12 C       -2.2260    -3.1100     0.4940 C.3   1 <1>   0.1400 
 13 C       -1.0540    -5.1600    -0.3110 C.3   1 <1>   0.1400 
 14 N       -2.3330    -4.5740     0.2030 N.am  1 <1>  -0.6600 
 15 C       -3.5520    -5.2170     0.1440 C.2   1 <1>   0.5440 
 16 O       -4.5650    -4.5430     0.1090 O.2   1 <1>  -0.5700 
 17 C       -3.6570    -6.6630     0.1060 C.ar  1 <1>   0.0860 
 18 C       -2.9300    -7.4760     0.9780 C.ar  1 <1>  -0.1500 
 19 C       -4.5040    -7.2960    -0.8040 C.ar  1 <1>  -0.1500 
 20 C       -3.0280    -8.8530     0.9270 C.ar  1 <1>  -0.1500 
 21 C       -4.6090    -8.6740    -0.8620 C.ar  1 <1>  -0.1500 
 22 C       -3.8640    -9.4660     0.0070 C.ar  1 <1>   0.0820 
 23 O       -3.9040   -10.8170     0.0190 O.3   1 <1>  -0.3630 
 24 C       -4.7570   -11.5420    -0.8380 C.3   1 <1>   0.0400 
 25 H        2.6540     0.4240    -1.0730 H     1 <1>   0.1500 
 26 H       -2.4670    -2.3610    -1.5050 H     1 <1>   0.0800 
 27 H       -1.5740    -1.3020    -0.4530 H     1 <1>   0.0800 
 28 H        0.4330    -4.7580    -1.8150 H     1 <1>   0.0800 
 29 H       -1.2010    -4.5360    -2.3610 H     1 <1>   0.0800 
 30 H        3.6550    -4.4080     0.6110 H     1 <1>   0.0800 
 31 H        3.3300    -3.4120     2.0130 H     1 <1>   0.0800 
 32 H        4.6660    -3.0240     0.9520 H     1 <1>   0.0800 
 33 H       -3.1780    -2.7130     0.8000 H     1 <1>   0.0800 
 34 H       -1.5360    -2.9660     1.3070 H     1 <1>   0.0800 
 35 H       -0.3120    -5.1230     0.4670 H     1 <1>   0.0800 
 36 H       -1.1890    -6.1880    -0.5940 H     1 <1>   0.0800 
 37 H       -2.2850    -7.0140     1.7050 H     1 <1>   0.1500 
 38 H       -5.0870    -6.6860    -1.4730 H     1 <1>   0.1500 
 39 H       -2.4600    -9.4680     1.6030 H     1 <1>   0.1500 
 40 H       -5.2740    -9.1120    -1.5820 H     1 <1>   0.1500 
 41 H       -4.6250   -12.5890    -0.6340 H     1 <1>   0.0800 
 42 H       -4.4900   -11.3320    -1.8580 H     1 <1>   0.0800 
 43 H       -5.7750   -11.2570    -0.6390 H     1 <1>   0.0800 
@<TRIPOS>BOND
  1   1   2  1   
  2   2   3  ar  
  3   2   4  ar  
  4   3   5  ar  
  5   3   6  1   
  6   4   7  ar  
  7   4  25  1   
  8   5   8  ar  
  9   6   9  1   
 10   6  10  1   
 11   7   8  ar  
 12   8  11  1   
 13   9  12  1   
 14   9  26  1   
 15   9  27  1   
 16  10  13  1   
 17  10  28  1   
 18  10  29  1   
 19  11  30  1   
 20  11  31  1   
 21  11  32  1   
 22  12  14  1   
 23  12  33  1   
 24  12  34  1   
 25  13  14  1   
 26  13  35  1   
 27  13  36  1   
 28  14  15  am  
 29  15  16  2   
 30  15  17  1   
 31  17  18  ar  
 32  17  19  ar  
 33  18  20  ar  
 34  18  37  1   
 35  19  21  ar  
 36  19  38  1   
 37  20  22  ar  
 38  20  39  1   
 39  21  22  ar  
 40  21  40  1   
 41  22  23  1   
 42  23  24  1   
 43  24  41  1   
 44  24  42  1   
 45  24  43  1   
@<TRIPOS>SUBSTRUCTURE
  1 ****  13 GROUP 4 **** **** 0

# MOE 2024.06 (io_trps.svl 2023.06)
