@<TRIPOS>MOLECULE
NONAME
49 52 1 0 0 
SMALL
USER_CHARGES


@<TRIPOS>ATOM
  1 O       -2.6020    -1.1840    -0.4200 O.3   1 <1>  -0.5600 
  2 C       -2.3030     0.0580     0.1400 C.3   1 <1>   0.1200 
  3 C       -1.4920    -2.0220    -0.5260 C.3   1 <1>   0.0400 
  4 C       -3.5700     0.9170     0.1870 C.3   1 <1>   0.0960 
  5 N       -4.5770     0.3870     1.1410 N.pl3 1 <1>   0.0480 
  6 C       -5.3790    -0.7080     1.0750 C.2   1 <1>   0.0060 
  7 C       -4.9170     0.9790     2.3000 C.2   1 <1>  -0.3020 
  8 N       -6.1780    -0.8340     2.0930 N.2   1 <1>  -0.5650 
  9 C       -5.3470    -1.7090    -0.0720 C.3   1 <1>   0.5230 
 10 C       -5.8850     0.2280     2.8650 C.2   1 <1>   0.0770 
 11 N       -6.5930    -2.5110    -0.0250 N.4   1 <1>  -0.8520 
 12 C       -6.4440    -3.8300    -0.6550 C.3   1 <1>   0.2960 
 13 C       -7.7660    -1.7320    -0.4940 C.3   1 <1>   0.4860 
 14 C       -7.1040    -5.0050    -0.0190 C.3   1 <1>  -0.2000 
 15 C       -5.6160    -4.8460     0.0570 C.3   1 <1>  -0.2000 
 16 C       -9.0350    -2.4360    -0.0620 C.ar  1 <1>  -0.1440 
 17 C       -9.7970    -3.1350    -0.9740 C.ar  1 <1>  -0.1500 
 18 C       -9.4260    -2.3770     1.2860 C.ar  1 <1>  -0.1500 
 19 C      -10.9500    -3.7980    -0.5460 C.ar  1 <1>   0.0000 
 20 C      -10.5600    -3.0250     1.7170 C.ar  1 <1>  -0.1500 
 21 C      -11.3220    -3.7410     0.7920 C.ar  1 <1>  -0.1520 
 22 C      -11.9210    -4.5870    -1.1980 C.2   1 <1>  -0.1500 
 23 N      -12.4760    -4.4670     0.9500 N.pl3 1 <1>   0.0330 
 24 C      -12.8260    -4.9760    -0.2690 C.2   1 <1>  -0.3020 
 25 H       -1.5610     0.5380    -0.4760 H     1 <1>   0.0800 
 26 H       -1.9060    -0.0840     1.1320 H     1 <1>   0.0800 
 27 H       -1.8070    -2.9520    -0.9660 H     1 <1>   0.0800 
 28 H       -1.0860    -2.2060     0.4550 H     1 <1>   0.0800 
 29 H       -0.7520    -1.5590    -1.1570 H     1 <1>   0.0800 
 30 H       -4.0030     0.9860    -0.7940 H     1 <1>   0.0800 
 31 H       -3.3030     1.9100     0.4990 H     1 <1>   0.0800 
 32 H       -4.4660     1.8860     2.6630 H     1 <1>   0.1500 
 33 H       -4.4970    -2.3550     0.0640 H     1 <1>   0.0800 
 34 H       -5.2500    -1.2050    -1.0180 H     1 <1>   0.0800 
 35 H       -6.3900     0.4020     3.8030 H     1 <1>   0.1500 
 36 H       -6.7530    -2.6350     0.9880 H     1 <1>   0.4500 
 37 H       -6.3920    -3.7940    -1.7330 H     1 <1>   0.1000 
 38 H       -7.7440    -1.6350    -1.5660 H     1 <1>   0.0800 
 39 H       -7.7510    -0.7470    -0.0570 H     1 <1>   0.0800 
 40 H       -7.5030    -5.7790    -0.6510 H     1 <1>   0.1000 
 41 H       -7.6920    -4.8650     0.8730 H     1 <1>   0.1000 
 42 H       -5.1850    -4.6220     1.0180 H     1 <1>   0.1000 
 43 H       -5.0140    -5.5310    -0.5150 H     1 <1>   0.1000 
 44 H       -9.5360    -3.1970    -2.0150 H     1 <1>   0.1500 
 45 H       -8.8360    -1.8190     1.9950 H     1 <1>   0.1500 
 46 H      -10.8660    -2.9840     2.7480 H     1 <1>   0.1500 
 47 H      -11.9110    -4.8170    -2.2490 H     1 <1>   0.1500 
 48 H      -12.9830    -4.5940     1.8310 H     1 <1>   0.2700 
 49 H      -13.7040    -5.5840    -0.4020 H     1 <1>   0.1500 
@<TRIPOS>BOND
  1   1   2  1   
  2   1   3  1   
  3   2   4  1   
  4   2  25  1   
  5   2  26  1   
  6   3  27  1   
  7   3  28  1   
  8   3  29  1   
  9   4   5  1   
 10   4  30  1   
 11   4  31  1   
 12   5   6  1   
 13   5   7  1   
 14   6   8  2   
 15   6   9  1   
 16   7  10  2   
 17   7  32  1   
 18   8  10  1   
 19   9  11  1   
 20   9  33  1   
 21   9  34  1   
 22  10  35  1   
 23  11  12  1   
 24  11  13  1   
 25  11  36  1   
 26  12  14  1   
 27  12  15  1   
 28  12  37  1   
 29  13  16  1   
 30  13  38  1   
 31  13  39  1   
 32  14  15  1   
 33  14  40  1   
 34  14  41  1   
 35  15  42  1   
 36  15  43  1   
 37  16  17  ar  
 38  16  18  ar  
 39  17  19  ar  
 40  17  44  1   
 41  18  20  ar  
 42  18  45  1   
 43  19  21  ar  
 44  19  22  1   
 45  20  21  ar  
 46  20  46  1   
 47  21  23  1   
 48  22  24  2   
 49  22  47  1   
 50  23  24  1   
 51  23  48  1   
 52  24  49  1   
@<TRIPOS>SUBSTRUCTURE
  1 ****  11 GROUP 4 **** **** 0

# MOE 2024.06 (io_trps.svl 2023.06)
