@<TRIPOS>MOLECULE
NONAME
43 46 1 0 0 
SMALL
USER_CHARGES


@<TRIPOS>ATOM
  1 CL      -2.5480     2.7880    -1.2480 Cl    1 <1>  -0.1230 
  2 C       -2.3890     2.6320     0.4870 C.2   1 <1>   0.1230 
  3 C       -3.0030     1.6970     1.2330 C.2   1 <1>  -0.1400 
  4 C       -1.5540     3.5410     1.2060 C.2   1 <1>  -0.1500 
  5 S       -2.5540     1.9100     2.9190 S.3   1 <1>  -0.0800 
  6 C       -3.9500     0.5630     0.9120 C.3   1 <1>   0.5230 
  7 C       -1.5330     3.2900     2.5280 C.2   1 <1>  -0.1100 
  8 N       -4.9200     1.0130    -0.1200 N.4   1 <1>  -0.9590 
  9 C       -5.8650     2.0390     0.4470 C.3   1 <1>   0.3430 
 10 C       -5.6560    -0.1320    -0.7240 C.3   1 <1>   0.3430 
 11 C       -6.8210     2.6020    -0.6190 C.3   1 <1>   0.1440 
 12 C       -6.5610     0.3750    -1.8500 C.3   1 <1>  -0.1600 
 13 C       -7.8300     3.4900     0.0660 C.ar  1 <1>   0.1670 
 14 C       -7.5420     1.4540    -1.3570 C.3   1 <1>  -0.1600 
 15 C       -6.1290     3.5850    -1.6020 C.3   1 <1>  -0.1600 
 16 N       -8.4780     3.1690     1.1620 N.ar  1 <1>  -0.6200 
 17 C       -7.9850     4.6770    -0.5800 C.ar  1 <1>  -0.1430 
 18 C       -7.1000     4.7670    -1.7970 C.3   1 <1>  -0.0170 
 19 C       -9.3190     4.1060     1.5850 C.ar  1 <1>   0.4770 
 20 C       -8.8780     5.5760    -0.0510 C.ar  1 <1>   0.1600 
 21 N       -9.5550     5.2930     1.0430 N.ar  1 <1>  -0.6200 
 22 C      -10.1020     3.7940     2.8370 C.3   1 <1>  -0.0970 
 23 H       -1.0180     4.3250     0.6990 H     1 <1>   0.1500 
 24 H       -4.4770     0.2660     1.8050 H     1 <1>   0.0800 
 25 H       -3.3810    -0.2790     0.5550 H     1 <1>   0.0800 
 26 H       -1.0160     3.7710     3.3420 H     1 <1>   0.1500 
 27 H       -4.3700     1.4710    -0.8610 H     1 <1>   0.4500 
 28 H       -5.3140     2.8560     0.8860 H     1 <1>   0.0800 
 29 H       -6.4580     1.5890     1.2270 H     1 <1>   0.0800 
 30 H       -6.2580    -0.6180     0.0280 H     1 <1>   0.0800 
 31 H       -4.9600    -0.8550    -1.1220 H     1 <1>   0.0800 
 32 H       -7.1230    -0.4550    -2.2430 H     1 <1>   0.0800 
 33 H       -5.9560     0.7550    -2.6540 H     1 <1>   0.0800 
 34 H       -8.1100     1.8450    -2.1850 H     1 <1>   0.0800 
 35 H       -8.2460     0.9970    -0.6810 H     1 <1>   0.0800 
 36 H       -5.8720     3.1340    -2.5440 H     1 <1>   0.0800 
 37 H       -5.2320     3.9730    -1.1530 H     1 <1>   0.0800 
 38 H       -7.6940     4.6350    -2.6860 H     1 <1>   0.0800 
 39 H       -6.5790     5.7090    -1.8450 H     1 <1>   0.0800 
 40 H       -9.0420     6.5310    -0.5210 H     1 <1>   0.1500 
 41 H       -9.9780     2.7640     3.1170 H     1 <1>   0.0800 
 42 H      -11.1450     3.9850     2.6650 H     1 <1>   0.0800 
 43 H       -9.7580     4.4210     3.6380 H     1 <1>   0.0800 
@<TRIPOS>BOND
  1   1   2  1   
  2   2   3  2   
  3   2   4  1   
  4   3   5  1   
  5   3   6  1   
  6   4   7  2   
  7   4  23  1   
  8   5   7  1   
  9   6   8  1   
 10   6  24  1   
 11   6  25  1   
 12   7  26  1   
 13   8   9  1   
 14   8  10  1   
 15   8  27  1   
 16   9  11  1   
 17   9  28  1   
 18   9  29  1   
 19  10  12  1   
 20  10  30  1   
 21  10  31  1   
 22  11  13  1   
 23  11  14  1   
 24  11  15  1   
 25  12  14  1   
 26  12  32  1   
 27  12  33  1   
 28  13  16  ar  
 29  13  17  ar  
 30  14  34  1   
 31  14  35  1   
 32  15  18  1   
 33  15  36  1   
 34  15  37  1   
 35  16  19  ar  
 36  17  18  1   
 37  17  20  ar  
 38  18  38  1   
 39  18  39  1   
 40  19  21  ar  
 41  19  22  1   
 42  20  21  ar  
 43  20  40  1   
 44  22  41  1   
 45  22  42  1   
 46  22  43  1   
@<TRIPOS>SUBSTRUCTURE
  1 ****   9 GROUP 4 **** **** 0

# MOE 2024.06 (io_trps.svl 2023.06)
