@<TRIPOS>MOLECULE
NONAME
43 45 1 0 0 
SMALL
USER_CHARGES


@<TRIPOS>ATOM
  1 O        1.5790    -0.7120    -2.2550 O.2   1 <1>  -0.5700 
  2 C        2.0530    -0.8930    -1.1490 C.2   1 <1>   0.5440 
  3 N        2.8080     0.1430    -0.6120 N.am  1 <1>  -0.6600 
  4 C        1.8320    -2.1800    -0.4780 C.ar  1 <1>   0.3960 
  5 C        3.2100     0.1800     0.8450 C.3   1 <1>   0.2200 
  6 C        3.2720     1.2500    -1.5110 C.3   1 <1>   0.1400 
  7 N        2.8380    -2.7530     0.2170 N.ar  1 <1>  -0.6200 
  8 C        0.5860    -2.7890    -0.5900 C.ar  1 <1>  -0.1500 
  9 C        3.0500     1.5700     1.4830 C.3   1 <1>   0.1200 
 10 C        4.6570    -0.3420     1.0210 C.3   1 <1>   0.3430 
 11 C        4.5660     1.9560    -1.0590 C.3   1 <1>  -0.0800 
 12 C        2.5790    -3.9230     0.7790 C.ar  1 <1>   0.1600 
 13 C        0.3310    -4.0000     0.0090 C.ar  1 <1>   0.0830 
 14 O        4.2010     2.3380     1.2960 O.3   1 <1>  -0.5600 
 15 N        5.4190    -0.3360    -0.2760 N.4   1 <1>  -0.9590 
 16 C        4.3070     2.9700     0.0650 C.3   1 <1>   0.1200 
 17 C        5.7720     1.0380    -0.7570 C.3   1 <1>   0.3430 
 18 C        1.3680    -4.5820     0.7140 C.ar  1 <1>  -0.1500 
 19 O       -0.8990    -4.5350    -0.1320 O.3   1 <1>  -0.3620 
 20 C        6.6020    -1.2380    -0.2190 C.3   1 <1>   0.2630 
 21 C       -1.2280    -5.7970     0.4060 C.3   1 <1>   0.0400 
 22 H        2.5520    -0.4660     1.3980 H     1 <1>   0.0800 
 23 H        3.4370     0.8470    -2.4970 H     1 <1>   0.0800 
 24 H        2.4770     1.9710    -1.6010 H     1 <1>   0.0800 
 25 H       -0.1920    -2.3120    -1.1580 H     1 <1>   0.1500 
 26 H        2.9320     1.4560     2.5470 H     1 <1>   0.0800 
 27 H        2.1850     2.0880     1.1040 H     1 <1>   0.0800 
 28 H        4.5960    -1.3530     1.3880 H     1 <1>   0.0800 
 29 H        5.1720     0.2450     1.7640 H     1 <1>   0.0800 
 30 H        4.8640     2.5640    -1.8950 H     1 <1>   0.0800 
 31 H        3.3790    -4.3920     1.3290 H     1 <1>   0.1500 
 32 H        4.7310    -0.7120    -0.9530 H     1 <1>   0.4500 
 33 H        3.4150     3.5470    -0.1130 H     1 <1>   0.0800 
 34 H        5.1360     3.6540     0.1390 H     1 <1>   0.0800 
 35 H        6.4050     1.5220    -0.0310 H     1 <1>   0.0800 
 36 H        6.3420     0.9390    -1.6660 H     1 <1>   0.0800 
 37 H        1.2530    -5.5280     1.2060 H     1 <1>   0.1500 
 38 H        7.3130    -0.8770     0.5060 H     1 <1>   0.0800 
 39 H        7.0820    -1.2860    -1.1830 H     1 <1>   0.0800 
 40 H        6.2960    -2.2330     0.0600 H     1 <1>   0.0800 
 41 H       -2.2490    -6.0140     0.1500 H     1 <1>   0.0800 
 42 H       -1.1200    -5.7600     1.4760 H     1 <1>   0.0800 
 43 H       -0.5790    -6.5400    -0.0230 H     1 <1>   0.0800 
@<TRIPOS>BOND
  1   1   2  2   
  2   2   3  am  
  3   2   4  1   
  4   3   5  1   
  5   3   6  1   
  6   4   7  ar  
  7   4   8  ar  
  8   5   9  1   
  9   5  10  1   
 10   5  22  1   
 11   6  11  1   
 12   6  23  1   
 13   6  24  1   
 14   7  12  ar  
 15   8  13  ar  
 16   8  25  1   
 17   9  14  1   
 18   9  26  1   
 19   9  27  1   
 20  10  15  1   
 21  10  28  1   
 22  10  29  1   
 23  11  16  1   
 24  11  17  1   
 25  11  30  1   
 26  12  18  ar  
 27  12  31  1   
 28  13  18  ar  
 29  13  19  1   
 30  14  16  1   
 31  15  17  1   
 32  15  20  1   
 33  15  32  1   
 34  16  33  1   
 35  16  34  1   
 36  17  35  1   
 37  17  36  1   
 38  18  37  1   
 39  19  21  1   
 40  20  38  1   
 41  20  39  1   
 42  20  40  1   
 43  21  41  1   
 44  21  42  1   
 45  21  43  1   
@<TRIPOS>SUBSTRUCTURE
  1 ****   2 GROUP 4 **** **** 0

# MOE 2024.06 (io_trps.svl 2023.06)
