@<TRIPOS>MOLECULE
NONAME
50 53 1 0 0 
SMALL
USER_CHARGES


@<TRIPOS>ATOM
  1 O        0.1920    -0.1540    -1.8360 O.2   1 <1>  -0.5700 
  2 C       -0.6560     0.6080    -1.4360 C.2   1 <1>   0.5690 
  3 N       -1.8590     0.1510    -0.9630 N.am  1 <1>  -0.6600 
  4 C       -0.3400     2.0980    -1.4780 C.3   1 <1>   0.0820 
  5 C       -2.9330     0.9670    -0.3400 C.3   1 <1>   0.1400 
  6 C       -2.1840    -1.2930    -0.8710 C.3   1 <1>   0.1400 
  7 C       -0.3230     2.7450    -0.0980 C.2   1 <1>  -0.1810 
  8 C       -4.0060    -0.0400     0.0740 C.3   1 <1>   0.2000 
  9 C       -3.2880    -1.3820     0.1850 C.3   1 <1>  -0.0800 
 10 C       -0.9780     3.8250     0.3590 C.2   1 <1>  -0.0400 
 11 C        0.3960     2.3120     1.0180 C.2   1 <1>   0.1080 
 12 O       -4.5770     0.2990     1.2910 O.3   1 <1>  -0.6800 
 13 C       -4.2330    -2.5800    -0.0010 C.3   1 <1>  -0.0170 
 14 O       -0.6660     3.9810     1.6160 O.3   1 <1>  -0.0190 
 15 C       -1.9400     4.8040    -0.2840 C.3   1 <1>  -0.0600 
 16 N        0.1640     3.0690     2.0290 N.2   1 <1>  -0.4100 
 17 C        1.3260     1.1170     1.0710 C.3   1 <1>  -0.0590 
 18 C       -3.4810    -3.8960     0.0890 C.ar  1 <1>   0.1670 
 19 N       -2.9840    -4.3770    -1.0100 N.ar  1 <1>  -0.6200 
 20 C       -3.3500    -4.5200     1.3400 C.ar  1 <1>  -0.1500 
 21 C       -2.2960    -5.5450    -0.9360 C.ar  1 <1>   0.3100 
 22 C       -2.6680    -5.6940     1.4430 C.ar  1 <1>  -0.1500 
 23 C       -2.1110    -6.2450     0.2770 C.ar  1 <1>   0.0000 
 24 C       -1.7420    -6.0820    -2.1080 C.ar  1 <1>  -0.1500 
 25 C       -1.3810    -7.4500     0.2680 C.ar  1 <1>  -0.1500 
 26 C       -1.0350    -7.2560    -2.0960 C.ar  1 <1>  -0.1500 
 27 C       -0.8530    -7.9470    -0.8940 C.ar  1 <1>  -0.1500 
 28 H        0.6250     2.2310    -1.9320 H     1 <1>   0.0800 
 29 H       -1.0620     2.5790    -2.1080 H     1 <1>   0.0800 
 30 H       -2.5430     1.4710     0.5270 H     1 <1>   0.0800 
 31 H       -3.3260     1.6780    -1.0450 H     1 <1>   0.0800 
 32 H       -2.5380    -1.6360    -1.8280 H     1 <1>   0.0800 
 33 H       -1.3200    -1.8720    -0.5890 H     1 <1>   0.0800 
 34 H       -4.7840    -0.0720    -0.6700 H     1 <1>   0.0800 
 35 H       -2.8040    -1.4530     1.1430 H     1 <1>   0.0800 
 36 H       -3.8890     0.3700     1.9820 H     1 <1>   0.4000 
 37 H       -4.7180    -2.5200    -0.9600 H     1 <1>   0.0800 
 38 H       -5.0010    -2.5520     0.7520 H     1 <1>   0.0800 
 39 H       -2.1020     4.5610    -1.3170 H     1 <1>   0.0800 
 40 H       -1.5360     5.7980    -0.2210 H     1 <1>   0.0800 
 41 H       -2.8820     4.7790     0.2330 H     1 <1>   0.0800 
 42 H        1.9620     1.1020     0.2040 H     1 <1>   0.0800 
 43 H        0.7530     0.2090     1.1010 H     1 <1>   0.0800 
 44 H        1.9410     1.1700     1.9500 H     1 <1>   0.0800 
 45 H       -3.7910    -4.0610     2.2050 H     1 <1>   0.1500 
 46 H       -2.5470    -6.2020     2.3830 H     1 <1>   0.1500 
 47 H       -1.8910    -5.5360    -3.0210 H     1 <1>   0.1500 
 48 H       -1.2440    -7.9760     1.1960 H     1 <1>   0.1500 
 49 H       -0.6150    -7.6560    -3.0030 H     1 <1>   0.1500 
 50 H       -0.2960    -8.8670    -0.8980 H     1 <1>   0.1500 
@<TRIPOS>BOND
  1   1   2  2   
  2   2   3  am  
  3   2   4  1   
  4   3   5  1   
  5   3   6  1   
  6   4   7  1   
  7   4  28  1   
  8   4  29  1   
  9   5   8  1   
 10   5  30  1   
 11   5  31  1   
 12   6   9  1   
 13   6  32  1   
 14   6  33  1   
 15   7  10  2   
 16   7  11  1   
 17   8   9  1   
 18   8  12  1   
 19   8  34  1   
 20   9  13  1   
 21   9  35  1   
 22  10  14  1   
 23  10  15  1   
 24  11  16  2   
 25  11  17  1   
 26  12  36  1   
 27  13  18  1   
 28  13  37  1   
 29  13  38  1   
 30  14  16  1   
 31  15  39  1   
 32  15  40  1   
 33  15  41  1   
 34  17  42  1   
 35  17  43  1   
 36  17  44  1   
 37  18  19  ar  
 38  18  20  ar  
 39  19  21  ar  
 40  20  22  ar  
 41  20  45  1   
 42  21  23  ar  
 43  21  24  ar  
 44  22  23  ar  
 45  22  46  1   
 46  23  25  ar  
 47  24  26  ar  
 48  24  47  1   
 49  25  27  ar  
 50  25  48  1   
 51  26  27  ar  
 52  26  49  1   
 53  27  50  1   
@<TRIPOS>SUBSTRUCTURE
  1 ****   6 GROUP 4 **** **** 0

# MOE 2024.06 (io_trps.svl 2023.06)
