@<TRIPOS>MOLECULE
NONAME
30 31 1 0 0 
SMALL
USER_CHARGES


@<TRIPOS>ATOM
  1 CL       0.7170    -2.1070    -1.5620 Cl    1 <1>  -0.1240 
  2 C       -0.5390    -2.8700    -0.6270 C.2   1 <1>   0.1640 
  3 S       -2.0530    -2.0040    -0.4910 S.3   1 <1>  -0.0800 
  4 C       -0.5670    -4.0400     0.0310 C.2   1 <1>  -0.1500 
  5 C       -2.7410    -3.2920     0.5060 C.2   1 <1>  -0.0220 
  6 C       -1.8260    -4.2750     0.6710 C.2   1 <1>  -0.1500 
  7 S       -4.4570    -3.1250     1.0620 S.o2  1 <1>   1.5000 
  8 O       -4.6310    -3.9120     2.2620 O.2   1 <1>  -0.6500 
  9 O       -4.8060    -1.7200     1.1060 O.2   1 <1>  -0.6500 
 10 N       -5.3570    -3.8150    -0.2030 N.am  1 <1>  -0.8490 
 11 C       -5.0420    -5.2160    -0.5480 C.3   1 <1>   0.1960 
 12 C       -6.7990    -3.5530    -0.1430 C.3   1 <1>   0.1960 
 13 C       -5.7290    -6.2350     0.3660 C.3   1 <1>  -0.1860 
 14 C       -7.5260    -4.5240     0.7930 C.3   1 <1>  -0.1600 
 15 C       -5.4250    -7.6380    -0.1150 C.2   1 <1>   0.9060 
 16 C       -7.2310    -5.9630     0.3830 C.3   1 <1>   0.2000 
 17 O       -4.4690    -7.8160    -0.8770 O.co2 1 <1>  -0.9000 
 18 O       -6.1420    -8.5690     0.2720 O.co2 1 <1>  -0.9000 
 19 O       -7.8290    -6.8090     1.2860 O.3   1 <1>  -0.6800 
 20 H        0.2400    -4.7480     0.0890 H     1 <1>   0.1500 
 21 H       -2.0000    -5.1820     1.2280 H     1 <1>   0.1500 
 22 H       -5.3660    -5.3980    -1.5590 H     1 <1>   0.0800 
 23 H       -3.9780    -5.3790    -0.5350 H     1 <1>   0.0800 
 24 H       -6.9800    -2.5380     0.1680 H     1 <1>   0.0800 
 25 H       -7.2040    -3.6620    -1.1350 H     1 <1>   0.0800 
 26 H       -5.3320    -6.1550     1.3580 H     1 <1>   0.0800 
 27 H       -8.5840    -4.3480     0.7340 H     1 <1>   0.0800 
 28 H       -7.2100    -4.3580     1.8070 H     1 <1>   0.0800 
 29 H       -7.6510    -6.1740    -0.5870 H     1 <1>   0.0800 
 30 H       -7.4170    -7.7060     1.1170 H     1 <1>   0.4000 
@<TRIPOS>BOND
  1   1   2  1   
  2   2   3  1   
  3   2   4  2   
  4   3   5  1   
  5   4   6  1   
  6   4  20  1   
  7   5   6  2   
  8   5   7  1   
  9   6  21  1   
 10   7   8  2   
 11   7   9  2   
 12   7  10  am  
 13  10  11  1   
 14  10  12  1   
 15  11  13  1   
 16  11  22  1   
 17  11  23  1   
 18  12  14  1   
 19  12  24  1   
 20  12  25  1   
 21  13  15  1   
 22  13  16  1   
 23  13  26  1   
 24  14  16  1   
 25  14  27  1   
 26  14  28  1   
 27  15  17  ar  
 28  15  18  ar  
 29  16  19  1   
 30  16  29  1   
 31  19  30  1   
@<TRIPOS>SUBSTRUCTURE
  1 ****  11 GROUP 4 **** **** 0

# MOE 2024.06 (io_trps.svl 2023.06)
