@<TRIPOS>MOLECULE
NONAME
58 61 1 0 0 
SMALL
USER_CHARGES


@<TRIPOS>ATOM
  1 O       -3.4840     1.1740     0.9070 O.3   1 <1>  -0.5600 
  2 C       -2.6610     2.0900     1.5640 C.3   1 <1>   0.1200 
  3 C       -2.8630    -0.0530     0.6710 C.3   1 <1>   0.0400 
  4 C       -3.4330     3.3880     1.8170 C.3   1 <1>   0.0960 
  5 N       -3.7540     4.1090     0.5600 N.pl3 1 <1>   0.0480 
  6 C       -4.6450     3.8240    -0.4240 C.2   1 <1>   0.0060 
  7 C       -3.2090     5.2810     0.1860 C.2   1 <1>  -0.3020 
  8 N       -4.6960     4.7220    -1.3640 N.2   1 <1>  -0.5650 
  9 C       -5.5080     2.5700    -0.4410 C.3   1 <1>   0.5230 
 10 C       -3.7880     5.6370    -0.9800 C.2   1 <1>   0.0770 
 11 N       -6.6750     2.8630    -1.3080 N.4   1 <1>  -0.9590 
 12 C       -7.7240     3.6200    -0.5570 C.3   1 <1>   0.3430 
 13 C       -7.2070     1.6760    -2.0210 C.3   1 <1>   0.3430 
 14 C       -8.8430     4.1080    -1.4890 C.3   1 <1>   0.1430 
 15 C       -8.2950     2.1200    -3.0040 C.3   1 <1>  -0.1600 
 16 C       -9.9260     4.7180    -0.6340 C.ar  1 <1>   0.1670 
 17 C       -9.4090     2.9320    -2.3150 C.3   1 <1>  -0.1600 
 18 C       -8.4030     5.3000    -2.3820 C.3   1 <1>  -0.1600 
 19 N      -10.4320     4.1500     0.4300 N.ar  1 <1>  -0.6200 
 20 C      -10.3030     5.9440    -1.0870 C.ar  1 <1>  -0.1430 
 21 C       -9.5370     6.3420    -2.3240 C.3   1 <1>  -0.0170 
 22 C      -11.3730     4.8650     1.0540 C.ar  1 <1>   0.7200 
 23 C      -11.2750     6.6050    -0.3810 C.ar  1 <1>   0.1600 
 24 N      -11.8130     6.0740     0.6920 N.ar  1 <1>  -0.6200 
 25 N      -11.9360     4.3020     2.1810 N.pl3 1 <1>  -0.8380 
 26 C      -11.9380     2.8340     2.4270 C.3   1 <1>   0.1290 
 27 C      -12.7540     5.1080     3.1300 C.3   1 <1>   0.1290 
 28 H       -1.7890     2.2810     0.9600 H     1 <1>   0.0800 
 29 H       -2.3560     1.6600     2.5030 H     1 <1>   0.0800 
 30 H       -3.5620    -0.6980     0.1680 H     1 <1>   0.0800 
 31 H       -2.5770    -0.4960     1.6100 H     1 <1>   0.0800 
 32 H       -1.9980     0.0980     0.0480 H     1 <1>   0.0800 
 33 H       -2.8320     4.0340     2.4310 H     1 <1>   0.0800 
 34 H       -4.3400     3.1760     2.3520 H     1 <1>   0.0800 
 35 H       -2.4530     5.7970     0.7510 H     1 <1>   0.1500 
 36 H       -5.8220     2.3020     0.5540 H     1 <1>   0.0800 
 37 H       -4.9290     1.7610    -0.8530 H     1 <1>   0.0800 
 38 H       -3.5910     6.5200    -1.5690 H     1 <1>   0.1500 
 39 H       -6.2620     3.5310    -1.9850 H     1 <1>   0.4500 
 40 H       -7.2850     4.4720    -0.0630 H     1 <1>   0.0800 
 41 H       -8.1600     2.9850     0.1970 H     1 <1>   0.0800 
 42 H       -7.6260     0.9820    -1.3100 H     1 <1>   0.0800 
 43 H       -6.4150     1.1800    -2.5590 H     1 <1>   0.0800 
 44 H       -8.7280     1.2460    -3.4600 H     1 <1>   0.0800 
 45 H       -7.8450     2.6970    -3.7920 H     1 <1>   0.0800 
 46 H      -10.1080     3.2990    -3.0470 H     1 <1>   0.0800 
 47 H       -9.9550     2.2780    -1.6560 H     1 <1>   0.0800 
 48 H       -8.1960     5.0110    -3.3970 H     1 <1>   0.0800 
 49 H       -7.5150     5.7520    -1.9730 H     1 <1>   0.0800 
 50 H      -10.1770     6.2620    -3.1860 H     1 <1>   0.0800 
 51 H       -9.1520     7.3450    -2.2480 H     1 <1>   0.0800 
 52 H      -11.6140     7.5780    -0.6940 H     1 <1>   0.1500 
 53 H      -11.7300     2.2930     1.5200 H     1 <1>   0.0800 
 54 H      -12.9030     2.5240     2.7880 H     1 <1>   0.0800 
 55 H      -11.1900     2.5910     3.1600 H     1 <1>   0.0800 
 56 H      -12.3960     6.1220     3.1680 H     1 <1>   0.0800 
 57 H      -12.6940     4.6900     4.1190 H     1 <1>   0.0800 
 58 H      -13.7810     5.1120     2.8070 H     1 <1>   0.0800 
@<TRIPOS>BOND
  1   1   2  1   
  2   1   3  1   
  3   2   4  1   
  4   2  28  1   
  5   2  29  1   
  6   3  30  1   
  7   3  31  1   
  8   3  32  1   
  9   4   5  1   
 10   4  33  1   
 11   4  34  1   
 12   5   6  1   
 13   5   7  1   
 14   6   8  2   
 15   6   9  1   
 16   7  10  2   
 17   7  35  1   
 18   8  10  1   
 19   9  11  1   
 20   9  36  1   
 21   9  37  1   
 22  10  38  1   
 23  11  12  1   
 24  11  13  1   
 25  11  39  1   
 26  12  14  1   
 27  12  40  1   
 28  12  41  1   
 29  13  15  1   
 30  13  42  1   
 31  13  43  1   
 32  14  16  1   
 33  14  17  1   
 34  14  18  1   
 35  15  17  1   
 36  15  44  1   
 37  15  45  1   
 38  16  19  ar  
 39  16  20  ar  
 40  17  46  1   
 41  17  47  1   
 42  18  21  1   
 43  18  48  1   
 44  18  49  1   
 45  19  22  ar  
 46  20  21  1   
 47  20  23  ar  
 48  21  50  1   
 49  21  51  1   
 50  22  24  ar  
 51  22  25  1   
 52  23  24  ar  
 53  23  52  1   
 54  25  26  1   
 55  25  27  1   
 56  26  53  1   
 57  26  54  1   
 58  26  55  1   
 59  27  56  1   
 60  27  57  1   
 61  27  58  1   
@<TRIPOS>SUBSTRUCTURE
  1 ****  12 GROUP 4 **** **** 0

# MOE 2024.06 (io_trps.svl 2023.06)
