@<TRIPOS>MOLECULE
NONAME
55 58 1 0 0 
SMALL
USER_CHARGES


@<TRIPOS>ATOM
  1 O        0.3310     0.5410    -0.0310 O.2   1 <1>  -0.5700 
  2 C        0.3840     1.7320    -0.2850 C.2   1 <1>   0.6160 
  3 N        1.3600     2.1840    -1.1600 N.am  1 <1>  -0.6600 
  4 C       -0.5120     2.6150     0.4040 C.2   1 <1>   0.0290 
  5 C        1.6940     3.6280    -1.3740 C.3   1 <1>   0.1400 
  6 C        2.1220     1.2380    -2.0250 C.3   1 <1>   0.0600 
  7 C       -1.3940     3.4410    -0.3610 C.2   1 <1>   0.6160 
  8 C       -0.5500     2.6870     1.7740 C.2   1 <1>  -0.1500 
  9 C        2.4380     4.2560    -0.1770 C.3   1 <1>  -0.0800 
 10 O       -1.5380     3.3090    -1.5710 O.2   1 <1>  -0.5700 
 11 N       -2.1240     4.4180     0.3000 N.am  1 <1>  -0.4690 
 12 C       -1.3910     3.6150     2.4170 C.2   1 <1>  -0.1500 
 13 C        2.8470     5.6930    -0.5540 C.3   1 <1>   0.1400 
 14 C        3.6510     3.4140     0.2590 C.3   1 <1>  -0.1600 
 15 C       -2.1480     4.4690     1.6750 C.2   1 <1>  -0.0410 
 16 C       -2.7270     5.5230    -0.4910 C.3   1 <1>   0.3210 
 17 N        3.7430     6.3400     0.4610 N.am  1 <1>  -0.6600 
 18 C        4.4230     4.1280     1.3700 C.3   1 <1>  -0.1600 
 19 C       -1.7150     6.6530    -0.5990 C.2   1 <1>   0.0460 
 20 C        3.6990     7.6700     0.8130 C.2   1 <1>   0.5690 
 21 C        4.8970     5.5050     0.9100 C.3   1 <1>   0.1400 
 22 N       -0.8910     6.7790    -1.6470 N.2   1 <1>  -0.2270 
 23 C       -1.4620     7.6280     0.2860 C.2   1 <1>  -0.3020 
 24 O        4.4570     8.1440     1.6270 O.2   1 <1>  -0.5700 
 25 C        2.7020     8.6390     0.1940 C.3   1 <1>  -0.0990 
 26 N       -0.1360     7.7990    -1.4330 N.2   1 <1>  -0.4180 
 27 N       -0.4650     8.3300    -0.2510 N.pl3 1 <1>   0.3140 
 28 C        1.5090     8.9000     1.1320 C.3   1 <1>  -0.1600 
 29 C        0.2740     9.4380     0.3890 C.3   1 <1>   0.0960 
 30 H        0.8000     4.1880    -1.5790 H     1 <1>   0.0800 
 31 H        2.3140     3.7110    -2.2500 H     1 <1>   0.0800 
 32 H        1.7770     0.2270    -1.8940 H     1 <1>   0.0800 
 33 H        3.1680     1.2790    -1.7770 H     1 <1>   0.0800 
 34 H        1.9900     1.5060    -3.0590 H     1 <1>   0.0800 
 35 H        0.0690     2.0400     2.3730 H     1 <1>   0.1500 
 36 H        1.7520     4.3280     0.6480 H     1 <1>   0.0800 
 37 H       -1.4070     3.6410     3.4930 H     1 <1>   0.1500 
 38 H        1.9430     6.2600    -0.6760 H     1 <1>   0.0800 
 39 H        3.3650     5.6840    -1.4970 H     1 <1>   0.0800 
 40 H        4.3020     3.2500    -0.5820 H     1 <1>   0.0800 
 41 H        3.3230     2.4550     0.6220 H     1 <1>   0.0800 
 42 H       -2.7760     5.2080     2.1440 H     1 <1>   0.1500 
 43 H       -3.6080     5.8780     0.0100 H     1 <1>   0.0800 
 44 H       -3.0140     5.1880    -1.4730 H     1 <1>   0.0800 
 45 H        5.2780     3.5380     1.6510 H     1 <1>   0.0800 
 46 H        3.8020     4.2430     2.2410 H     1 <1>   0.0800 
 47 H        5.4200     5.9820     1.7210 H     1 <1>   0.0800 
 48 H        5.5860     5.3980     0.0900 H     1 <1>   0.0800 
 49 H       -1.9030     7.8470     1.2400 H     1 <1>   0.1500 
 50 H        2.3880     8.2900    -0.7680 H     1 <1>   0.0800 
 51 H        3.2130     9.5690     0.0190 H     1 <1>   0.0800 
 52 H        1.8190     9.6160     1.8730 H     1 <1>   0.0800 
 53 H        1.2440     7.9950     1.6540 H     1 <1>   0.0800 
 54 H       -0.3870     9.9210     1.0840 H     1 <1>   0.0800 
 55 H        0.5610    10.1500    -0.3630 H     1 <1>   0.0800 
@<TRIPOS>BOND
  1   1   2  2   
  2   2   3  am  
  3   2   4  1   
  4   3   5  1   
  5   3   6  1   
  6   4   7  1   
  7   4   8  2   
  8   5   9  1   
  9   5  30  1   
 10   5  31  1   
 11   6  32  1   
 12   6  33  1   
 13   6  34  1   
 14   7  10  2   
 15   7  11  am  
 16   8  12  1   
 17   8  35  1   
 18   9  13  1   
 19   9  14  1   
 20   9  36  1   
 21  11  15  1   
 22  11  16  1   
 23  12  15  2   
 24  12  37  1   
 25  13  17  1   
 26  13  38  1   
 27  13  39  1   
 28  14  18  1   
 29  14  40  1   
 30  14  41  1   
 31  15  42  1   
 32  16  19  1   
 33  16  43  1   
 34  16  44  1   
 35  17  20  am  
 36  17  21  1   
 37  18  21  1   
 38  18  45  1   
 39  18  46  1   
 40  19  22  1   
 41  19  23  2   
 42  20  24  2   
 43  20  25  1   
 44  21  47  1   
 45  21  48  1   
 46  22  26  2   
 47  23  27  1   
 48  23  49  1   
 49  25  28  1   
 50  25  50  1   
 51  25  51  1   
 52  26  27  1   
 53  27  29  1   
 54  28  29  1   
 55  28  52  1   
 56  28  53  1   
 57  29  54  1   
 58  29  55  1   
@<TRIPOS>SUBSTRUCTURE
  1 ****   9 GROUP 4 **** **** 0

# MOE 2024.06 (io_trps.svl 2023.06)
