@<TRIPOS>MOLECULE
NONAME
49 53 1 0 0 
SMALL
USER_CHARGES


@<TRIPOS>ATOM
  1 O       -0.6040     0.0360     0.0270 O.2   1 <1>  -0.5700 
  2 C       -1.6620     0.6370    -0.0900 C.2   1 <1>   0.7160 
  3 N       -2.7830    -0.1260    -0.3710 N.am  1 <1>  -0.6600 
  4 C       -1.6840     2.0930     0.0640 C.2   1 <1>   0.2030 
  5 C       -4.1420     0.3930    -0.6570 C.3   1 <1>   0.1400 
  6 C       -2.7520    -1.6030    -0.4600 C.3   1 <1>   0.1400 
  7 N       -2.7300     2.9060     0.0180 N.2   1 <1>  -0.7070 
  8 C       -0.5210     2.8420     0.2980 C.2   1 <1>  -0.1500 
  9 C       -4.9640    -0.8360    -1.0480 C.3   1 <1>   0.2000 
 10 C       -4.2190    -2.0330    -0.4600 C.3   1 <1>  -0.0800 
 11 N       -2.2380     4.1380     0.2180 N.pl3 1 <1>   0.3000 
 12 C       -0.9050     4.1290     0.3900 C.2   1 <1>  -0.2370 
 13 O       -6.2480    -0.7800    -0.5310 O.3   1 <1>  -0.6800 
 14 C       -4.4770    -3.3370    -1.2340 C.3   1 <1>  -0.0170 
 15 C       -0.0880     5.3800     0.6340 C.3   1 <1>  -0.0150 
 16 C       -3.7260    -4.5060    -0.6050 C.ar  1 <1>  -0.1430 
 17 C        1.1450     5.3180     1.4770 C.3   1 <1>  -0.2000 
 18 C       -0.0860     6.0050     1.9910 C.3   1 <1>  -0.2000 
 19 C       -4.1800    -5.1520     0.5700 C.ar  1 <1>   0.0000 
 20 C       -2.5680    -4.9580    -1.1660 C.ar  1 <1>  -0.1500 
 21 C       -3.3890    -6.2070     1.0860 C.ar  1 <1>   0.3100 
 22 C       -5.3680    -4.8170     1.2600 C.ar  1 <1>  -0.1500 
 23 C       -1.8650    -6.0160    -0.5780 C.ar  1 <1>   0.1600 
 24 N       -2.2380    -6.6260     0.5010 N.ar  1 <1>  -0.6200 
 25 C       -3.8060    -6.8590     2.2580 C.ar  1 <1>  -0.1500 
 26 C       -5.7470    -5.4740     2.3990 C.ar  1 <1>  -0.1500 
 27 C       -4.9570    -6.5070     2.9080 C.ar  1 <1>  -0.1500 
 28 H       -4.5360     0.8600     0.2290 H     1 <1>   0.0800 
 29 H       -4.1090     1.1040    -1.4650 H     1 <1>   0.0800 
 30 H       -2.2640    -1.8850    -1.3770 H     1 <1>   0.0800 
 31 H       -2.2170    -2.0290     0.3730 H     1 <1>   0.0800 
 32 H        0.4690     2.4300     0.3810 H     1 <1>   0.1500 
 33 H       -5.0310    -0.9030    -2.1210 H     1 <1>   0.0800 
 34 H       -4.5070    -2.1570     0.5690 H     1 <1>   0.0800 
 35 H       -2.8300     4.9770     0.2390 H     1 <1>   0.2700 
 36 H       -6.2170    -0.6470     0.4360 H     1 <1>   0.4000 
 37 H       -4.1610    -3.2120    -2.2550 H     1 <1>   0.0800 
 38 H       -5.5320    -3.5490    -1.2600 H     1 <1>   0.0800 
 39 H       -0.0610     6.0350    -0.2210 H     1 <1>   0.1000 
 40 H        1.4300     4.3780     1.9150 H     1 <1>   0.1000 
 41 H        1.9940     5.9150     1.1900 H     1 <1>   0.1000 
 42 H       -0.0850     7.0780     2.0700 H     1 <1>   0.1000 
 43 H       -0.6380     5.5300     2.7840 H     1 <1>   0.1000 
 44 H       -2.1640    -4.5190    -2.0610 H     1 <1>   0.1500 
 45 H       -5.9930    -4.0290     0.8850 H     1 <1>   0.1500 
 46 H       -0.9550    -6.3420    -1.0540 H     1 <1>   0.1500 
 47 H       -3.1830    -7.6510     2.6290 H     1 <1>   0.1500 
 48 H       -6.6540    -5.2080     2.9150 H     1 <1>   0.1500 
 49 H       -5.2640    -7.0150     3.8050 H     1 <1>   0.1500 
@<TRIPOS>BOND
  1   1   2  2   
  2   2   3  am  
  3   2   4  1   
  4   3   5  1   
  5   3   6  1   
  6   4   7  2   
  7   4   8  1   
  8   5   9  1   
  9   5  28  1   
 10   5  29  1   
 11   6  10  1   
 12   6  30  1   
 13   6  31  1   
 14   7  11  1   
 15   8  12  2   
 16   8  32  1   
 17   9  10  1   
 18   9  13  1   
 19   9  33  1   
 20  10  14  1   
 21  10  34  1   
 22  11  12  1   
 23  11  35  1   
 24  12  15  1   
 25  13  36  1   
 26  14  16  1   
 27  14  37  1   
 28  14  38  1   
 29  15  17  1   
 30  15  18  1   
 31  15  39  1   
 32  16  19  ar  
 33  16  20  ar  
 34  17  18  1   
 35  17  40  1   
 36  17  41  1   
 37  18  42  1   
 38  18  43  1   
 39  19  21  ar  
 40  19  22  ar  
 41  20  23  ar  
 42  20  44  1   
 43  21  24  ar  
 44  21  25  ar  
 45  22  26  ar  
 46  22  45  1   
 47  23  24  ar  
 48  23  46  1   
 49  25  27  ar  
 50  25  47  1   
 51  26  27  ar  
 52  26  48  1   
 53  27  49  1   
@<TRIPOS>SUBSTRUCTURE
  1 ****   6 GROUP 4 **** **** 0

# MOE 2024.06 (io_trps.svl 2023.06)
