@<TRIPOS>MOLECULE
NONAME
40 41 1 0 0 
SMALL
USER_CHARGES


@<TRIPOS>ATOM
  1 S       -0.0300    -0.0410     0.6390 S.o2  1 <1>   1.3330 
  2 O        0.2750    -0.9040     1.7570 O.2   1 <1>  -0.6500 
  3 O       -0.7010     1.2180     0.8730 O.2   1 <1>  -0.6500 
  4 N       -0.9600    -0.9380    -0.4620 N.am  1 <1>  -0.8490 
  5 C        1.4570     0.3030    -0.3030 C.3   1 <1>  -0.0550 
  6 C       -2.4000    -0.7740    -0.2370 C.3   1 <1>   0.1160 
  7 C       -0.6200    -2.3650    -0.4830 C.3   1 <1>   0.1160 
  8 C        2.4720     1.1970     0.4390 C.3   1 <1>  -0.0800 
  9 C        3.5930     1.6320    -0.4900 C.3   1 <1>   0.2200 
 10 C        3.2480     0.4160     1.4990 C.3   1 <1>   0.1200 
 11 N        4.1940     2.8830     0.0200 N.am  1 <1>  -0.7300 
 12 C        4.5920     0.4800    -0.3710 C.3   1 <1>   0.1200 
 13 O        4.3010    -0.1950     0.8200 O.3   1 <1>  -0.5600 
 14 C        4.2330     4.0880    -0.6200 C.2   1 <1>   0.7160 
 15 O        3.7180     4.1780    -1.7220 O.2   1 <1>  -0.5700 
 16 C        4.8850     5.2170     0.0250 C.2   1 <1>   0.2030 
 17 N        5.4600     5.1910     1.2150 N.2   1 <1>  -0.7070 
 18 C        4.9890     6.4960    -0.5410 C.2   1 <1>  -0.1500 
 19 N        5.9300     6.4440     1.4000 N.pl3 1 <1>   0.3000 
 20 C        5.6490     7.2590     0.3540 C.2   1 <1>  -0.0680 
 21 N        6.0020     8.6110     0.2550 N.pl3 1 <1>  -0.8840 
 22 H        1.9280    -0.6200    -0.5790 H     1 <1>   0.0800 
 23 H        1.1620     0.8020    -1.2060 H     1 <1>   0.0800 
 24 H       -2.9590    -1.3430    -0.9600 H     1 <1>   0.0800 
 25 H       -2.6740     0.2630    -0.3430 H     1 <1>   0.0800 
 26 H       -2.6630    -1.1010     0.7550 H     1 <1>   0.0800 
 27 H       -1.1720    -2.8660    -1.2610 H     1 <1>   0.0800 
 28 H       -0.8560    -2.8230     0.4640 H     1 <1>   0.0800 
 29 H        0.4310    -2.4950    -0.6750 H     1 <1>   0.0800 
 30 H        1.9580     2.0440     0.8620 H     1 <1>   0.0800 
 31 H        3.2650     1.7670    -1.5080 H     1 <1>   0.0800 
 32 H        2.6700    -0.3380     2.0020 H     1 <1>   0.0800 
 33 H        3.6740     1.0830     2.2290 H     1 <1>   0.0800 
 34 H        4.6620     2.8450     0.9300 H     1 <1>   0.3700 
 35 H        5.6120     0.8230    -0.3470 H     1 <1>   0.0800 
 36 H        4.4630    -0.2200    -1.1770 H     1 <1>   0.0800 
 37 H        4.6050     6.7760    -1.5050 H     1 <1>   0.1500 
 38 H        6.4610     6.7270     2.2300 H     1 <1>   0.2700 
 39 H        5.8020     9.1900     1.0790 H     1 <1>   0.4000 
 40 H        5.6410     9.0780    -0.5860 H     1 <1>   0.4000 
@<TRIPOS>BOND
  1   1   2  2   
  2   1   3  2   
  3   1   4  am  
  4   1   5  1   
  5   4   6  1   
  6   4   7  1   
  7   5   8  1   
  8   5  22  1   
  9   5  23  1   
 10   6  24  1   
 11   6  25  1   
 12   6  26  1   
 13   7  27  1   
 14   7  28  1   
 15   7  29  1   
 16   8   9  1   
 17   8  10  1   
 18   8  30  1   
 19   9  11  1   
 20   9  12  1   
 21   9  31  1   
 22  10  13  1   
 23  10  32  1   
 24  10  33  1   
 25  11  14  am  
 26  11  34  1   
 27  12  13  1   
 28  12  35  1   
 29  12  36  1   
 30  14  15  2   
 31  14  16  1   
 32  16  17  2   
 33  16  18  1   
 34  17  19  1   
 35  18  20  2   
 36  18  37  1   
 37  19  20  1   
 38  19  38  1   
 39  20  21  1   
 40  21  39  1   
 41  21  40  1   
@<TRIPOS>SUBSTRUCTURE
  1 ****   9 GROUP 4 **** **** 0

# MOE 2024.06 (io_trps.svl 2023.06)
