@<TRIPOS>MOLECULE
NONAME
53 55 1 0 0 
SMALL
USER_CHARGES


@<TRIPOS>ATOM
  1 S        0.7510    -0.9150    -0.7970 S.o2  1 <1>   1.5010 
  2 O        1.6590    -2.0390    -0.9170 O.2   1 <1>  -0.6500 
  3 O       -0.0550    -0.5900    -1.9560 O.2   1 <1>  -0.6500 
  4 N       -0.3200    -1.3230     0.4630 N.am  1 <1>  -0.8490 
  5 C        1.6940     0.5450    -0.1870 C.2   1 <1>   0.1640 
  6 C       -0.9210    -2.6630     0.3070 C.3   1 <1>   0.1960 
  7 C       -1.3880    -0.3300     0.7170 C.3   1 <1>   0.1960 
  8 N        1.1680     1.7950    -0.0060 N.2   1 <1>  -0.5650 
  9 C        3.0040     0.5730     0.1740 C.2   1 <1>  -0.3020 
 10 C       -2.1050    -2.6920    -0.6860 C.3   1 <1>   0.3430 
 11 C       -2.6040    -0.4300    -0.2480 C.3   1 <1>   0.2000 
 12 C        2.1470     2.5130     0.4350 C.2   1 <1>   0.0060 
 13 N        3.2960     1.8230     0.5670 N.pl3 1 <1>   0.0330 
 14 O       -3.0680    -1.7560    -0.2860 O.3   1 <1>  -0.5600 
 15 C       -2.7330    -4.0820    -0.7250 C.ar  1 <1>  -0.1430 
 16 C       -3.7910     0.5170     0.1080 C.3   1 <1>   0.0000 
 17 C        2.0290     3.9880     0.7750 C.3   1 <1>   0.0200 
 18 C       -3.7170    -4.4590     0.1790 C.ar  1 <1>  -0.1500 
 19 C       -2.3040    -4.9990    -1.6740 C.ar  1 <1>  -0.1500 
 20 C       -3.3300     1.9860     0.1280 C.3   1 <1>  -0.2400 
 21 C       -4.4180     0.1830     1.4760 C.3   1 <1>  -0.2400 
 22 C       -4.8860     0.3880    -0.9670 C.3   1 <1>  -0.2400 
 23 C        2.8360     4.8530    -0.1980 C.3   1 <1>  -0.2400 
 24 C       -4.2610    -5.7310     0.1370 C.ar  1 <1>  -0.1500 
 25 C       -2.8470    -6.2720    -1.7170 C.ar  1 <1>  -0.1500 
 26 C       -3.8260    -6.6390    -0.8110 C.ar  1 <1>  -0.1500 
 27 H       -0.1770    -3.3750    -0.0040 H     1 <1>   0.0800 
 28 H       -1.2860    -2.9920     1.2640 H     1 <1>   0.0800 
 29 H       -1.7400    -0.4790     1.7210 H     1 <1>   0.0800 
 30 H       -0.9790     0.6620     0.6770 H     1 <1>   0.0800 
 31 H        3.7190    -0.2300     0.1630 H     1 <1>   0.1500 
 32 H       -1.7740    -2.4290    -1.6750 H     1 <1>   0.0800 
 33 H       -2.2870    -0.1730    -1.2420 H     1 <1>   0.0800 
 34 H        4.1970     2.1860     0.8950 H     1 <1>   0.2700 
 35 H        0.9920     4.2730     0.7240 H     1 <1>   0.0800 
 36 H        2.3670     4.1520     1.7830 H     1 <1>   0.0800 
 37 H       -4.0650    -3.7570     0.9180 H     1 <1>   0.1500 
 38 H       -1.5420    -4.7280    -2.3850 H     1 <1>   0.1500 
 39 H       -4.1710     2.6430     0.2640 H     1 <1>   0.0800 
 40 H       -2.8490     2.2420    -0.8010 H     1 <1>   0.0800 
 41 H       -2.6380     2.1700     0.9310 H     1 <1>   0.0800 
 42 H       -5.2750     0.8080     1.6570 H     1 <1>   0.0800 
 43 H       -3.7200     0.3390     2.2770 H     1 <1>   0.0800 
 44 H       -4.7420    -0.8430     1.4990 H     1 <1>   0.0800 
 45 H       -5.7040     1.0570    -0.7650 H     1 <1>   0.0800 
 46 H       -5.2730    -0.6150    -0.9940 H     1 <1>   0.0800 
 47 H       -4.4890     0.6200    -1.9390 H     1 <1>   0.0800 
 48 H        2.4970     4.6820    -1.2050 H     1 <1>   0.0800 
 49 H        3.8830     4.6170    -0.1410 H     1 <1>   0.0800 
 50 H        2.7030     5.8940     0.0370 H     1 <1>   0.0800 
 51 H       -5.0250    -6.0120     0.8410 H     1 <1>   0.1500 
 52 H       -2.5080    -6.9760    -2.4570 H     1 <1>   0.1500 
 53 H       -4.2490    -7.6270    -0.8450 H     1 <1>   0.1500 
@<TRIPOS>BOND
  1   1   2  2   
  2   1   3  2   
  3   1   4  am  
  4   1   5  1   
  5   4   6  1   
  6   4   7  1   
  7   5   8  1   
  8   5   9  2   
  9   6  10  1   
 10   6  27  1   
 11   6  28  1   
 12   7  11  1   
 13   7  29  1   
 14   7  30  1   
 15   8  12  2   
 16   9  13  1   
 17   9  31  1   
 18  10  14  1   
 19  10  15  1   
 20  10  32  1   
 21  11  14  1   
 22  11  16  1   
 23  11  33  1   
 24  12  13  1   
 25  12  17  1   
 26  13  34  1   
 27  15  18  ar  
 28  15  19  ar  
 29  16  20  1   
 30  16  21  1   
 31  16  22  1   
 32  17  23  1   
 33  17  35  1   
 34  17  36  1   
 35  18  24  ar  
 36  18  37  1   
 37  19  25  ar  
 38  19  38  1   
 39  20  39  1   
 40  20  40  1   
 41  20  41  1   
 42  21  42  1   
 43  21  43  1   
 44  21  44  1   
 45  22  45  1   
 46  22  46  1   
 47  22  47  1   
 48  23  48  1   
 49  23  49  1   
 50  23  50  1   
 51  24  26  ar  
 52  24  51  1   
 53  25  26  ar  
 54  25  52  1   
 55  26  53  1   
@<TRIPOS>SUBSTRUCTURE
  1 ****   4 GROUP 4 **** **** 0

# MOE 2024.06 (io_trps.svl 2023.06)
