@<TRIPOS>MOLECULE
NONAME
46 48 1 0 0 
SMALL
USER_CHARGES


@<TRIPOS>ATOM
  1 O       -0.9120     0.8610    -2.0770 O.2   1 <1>  -0.5700 
  2 C       -1.3330     1.2810    -1.0080 C.2   1 <1>   0.6300 
  3 N       -1.3950     0.3930     0.0550 N.am  1 <1>  -0.6600 
  4 C       -1.7920     2.6480    -0.9010 C.2   1 <1>   0.4500 
  5 C       -0.9160    -1.0180    -0.0590 C.3   1 <1>   0.1400 
  6 C       -2.1740     0.6370     1.3000 C.3   1 <1>   0.1400 
  7 N       -1.0160     3.6280    -0.4800 N.2   1 <1>  -0.6210 
  8 C       -3.1740     2.8480    -1.2680 C.2   1 <1>   0.6300 
  9 C       -2.1230    -1.9760    -0.1690 C.3   1 <1>   0.0000 
 10 C       -3.4060    -0.2780     1.3040 C.3   1 <1>  -0.1600 
 11 C       -1.5670     4.8750    -0.4510 C.2   1 <1>   0.0210 
 12 O       -3.9620     1.9600    -1.5650 O.2   1 <1>  -0.5700 
 13 N       -3.6670     4.1240    -1.2350 N.am  1 <1>  -0.5390 
 14 C       -3.0230    -1.7540     1.0870 C.3   1 <1>   0.2000 
 15 C       -2.9540    -1.6330    -1.4370 C.3   1 <1>   0.1200 
 16 C       -1.6580    -3.4560    -0.3370 C.3   1 <1>  -0.0160 
 17 C       -2.8510     5.1450    -0.8170 C.2   1 <1>  -0.0410 
 18 O       -2.3630    -2.1310     2.2460 O.3   1 <1>  -0.6800 
 19 O       -2.1600    -1.6500    -2.5760 O.3   1 <1>  -0.6800 
 20 C       -0.8630    -4.0730     0.8090 C.ar  1 <1>  -0.1440 
 21 C        0.4920    -3.8140     0.9490 C.ar  1 <1>  -0.1500 
 22 C       -1.4880    -4.9160     1.7170 C.ar  1 <1>  -0.1500 
 23 C        1.2070    -4.3670     1.9970 C.ar  1 <1>  -0.1500 
 24 C       -0.7740    -5.4700     2.7660 C.ar  1 <1>  -0.1500 
 25 C        0.5740    -5.1930     2.9080 C.ar  1 <1>  -0.1500 
 26 H       -0.2630    -1.1330    -0.9070 H     1 <1>   0.0800 
 27 H       -0.3400    -1.2500     0.8200 H     1 <1>   0.0800 
 28 H       -1.5520     0.4100     2.1510 H     1 <1>   0.0800 
 29 H       -2.4770     1.6660     1.3800 H     1 <1>   0.0800 
 30 H       -4.0910     0.0470     0.5430 H     1 <1>   0.0800 
 31 H       -3.9210    -0.1810     2.2430 H     1 <1>   0.0800 
 32 H       -0.9150     5.6660    -0.1170 H     1 <1>   0.1500 
 33 H       -4.6410     4.2460    -1.5210 H     1 <1>   0.3700 
 34 H       -3.9110    -2.3600     1.0150 H     1 <1>   0.0800 
 35 H       -3.4010    -0.6570    -1.3840 H     1 <1>   0.0800 
 36 H       -3.7410    -2.3530    -1.5800 H     1 <1>   0.0800 
 37 H       -2.5230    -4.0700    -0.5150 H     1 <1>   0.0800 
 38 H       -1.0530    -3.5340    -1.2240 H     1 <1>   0.0800 
 39 H       -3.2590     6.1430    -0.7890 H     1 <1>   0.1500 
 40 H       -1.8420    -2.9530     2.0900 H     1 <1>   0.4000 
 41 H       -1.6240    -0.8180    -2.6120 H     1 <1>   0.4000 
 42 H        1.0010    -3.1820     0.2430 H     1 <1>   0.1500 
 43 H       -2.5350    -5.1470     1.6180 H     1 <1>   0.1500 
 44 H        2.2580    -4.1570     2.1020 H     1 <1>   0.1500 
 45 H       -1.2660    -6.1170     3.4700 H     1 <1>   0.1500 
 46 H        1.1290    -5.6230     3.7240 H     1 <1>   0.1500 
@<TRIPOS>BOND
  1   1   2  2   
  2   2   3  am  
  3   2   4  1   
  4   3   5  1   
  5   3   6  1   
  6   4   7  2   
  7   4   8  1   
  8   5   9  1   
  9   5  26  1   
 10   5  27  1   
 11   6  10  1   
 12   6  28  1   
 13   6  29  1   
 14   7  11  1   
 15   8  12  2   
 16   8  13  am  
 17   9  14  1   
 18   9  15  1   
 19   9  16  1   
 20  10  14  1   
 21  10  30  1   
 22  10  31  1   
 23  11  17  2   
 24  11  32  1   
 25  13  17  1   
 26  13  33  1   
 27  14  18  1   
 28  14  34  1   
 29  15  19  1   
 30  15  35  1   
 31  15  36  1   
 32  16  20  1   
 33  16  37  1   
 34  16  38  1   
 35  17  39  1   
 36  18  40  1   
 37  19  41  1   
 38  20  21  ar  
 39  20  22  ar  
 40  21  23  ar  
 41  21  42  1   
 42  22  24  ar  
 43  22  43  1   
 44  23  25  ar  
 45  23  44  1   
 46  24  25  ar  
 47  24  45  1   
 48  25  46  1   
@<TRIPOS>SUBSTRUCTURE
  1 ****   5 GROUP 4 **** **** 0

# MOE 2024.06 (io_trps.svl 2023.06)
