@<TRIPOS>MOLECULE
NONAME
24 24 1 0 0 
SMALL
USER_CHARGES


@<TRIPOS>ATOM
  1 CL      -0.7660     0.0810    -2.6080 Cl    1 <1>  -0.1770 
  2 C       -1.8660     0.9590    -1.5760 C.ar  1 <1>   0.1770 
  3 C       -2.8220     0.2610    -0.8640 C.ar  1 <1>  -0.1500 
  4 C       -1.7640     2.3320    -1.4860 C.ar  1 <1>  -0.1500 
  5 C       -3.7060     0.9440    -0.0350 C.ar  1 <1>  -0.1440 
  6 C       -2.6350     3.0320    -0.6630 C.ar  1 <1>  -0.1440 
  7 C       -3.5950     2.3310     0.0550 C.ar  1 <1>  -0.1500 
  8 C       -4.7690     0.1720     0.7610 C.3   1 <1>   1.1640 
  9 C       -2.5430     4.5510    -0.5310 C.3   1 <1>   0.3440 
 10 F       -4.2620    -0.3900     1.8500 F     1 <1>  -0.3400 
 11 F       -5.7780     0.9330     1.1690 F     1 <1>  -0.3400 
 12 F       -5.3130    -0.8130     0.0550 F     1 <1>  -0.3400 
 13 O       -2.3620     5.1080    -1.7780 O.3   1 <1>  -0.6800 
 14 C       -1.3770     4.9760     0.3430 C.3   1 <1>  -0.2660 
 15 C       -1.4310     6.4600     0.5390 C.2   1 <1>   0.9060 
 16 O       -1.5630     6.9000     1.6800 O.co2 1 <1>  -0.9000 
 17 O       -1.3860     7.1800    -0.4660 O.co2 1 <1>  -0.9000 
 18 H       -2.8640    -0.8100    -0.9640 H     1 <1>   0.1500 
 19 H       -1.0150     2.8560    -2.0530 H     1 <1>   0.1500 
 20 H       -4.2620     2.8860     0.6950 H     1 <1>   0.1500 
 21 H       -3.4610     4.9520    -0.1320 H     1 <1>   0.0800 
 22 H       -2.0190     6.0330    -1.6020 H     1 <1>   0.4000 
 23 H       -0.4410     4.7080    -0.1060 H     1 <1>   0.0800 
 24 H       -1.4510     4.5050     1.3030 H     1 <1>   0.0800 
@<TRIPOS>BOND
  1   1   2  1   
  2   2   3  ar  
  3   2   4  ar  
  4   3   5  ar  
  5   3  18  1   
  6   4   6  ar  
  7   4  19  1   
  8   5   7  ar  
  9   5   8  1   
 10   6   7  ar  
 11   6   9  1   
 12   7  20  1   
 13   8  10  1   
 14   8  11  1   
 15   8  12  1   
 16   9  13  1   
 17   9  14  1   
 18   9  21  1   
 19  13  22  1   
 20  14  15  1   
 21  14  23  1   
 22  14  24  1   
 23  15  16  ar  
 24  15  17  ar  
@<TRIPOS>SUBSTRUCTURE
  1 ****   6 GROUP 4 **** **** 0

# MOE 2024.06 (io_trps.svl 2023.06)
