@<TRIPOS>MOLECULE
NONAME
59 62 1 0 0 
SMALL
USER_CHARGES


@<TRIPOS>ATOM
  1 O       -0.1280    -0.1550     0.2880 O.3   1 <1>  -0.1650 
  2 C        1.0240     0.5490     0.1700 C.ar  1 <1>   0.0820 
  3 C       -0.1220    -1.5040     0.4290 C.ar  1 <1>   0.0820 
  4 C        1.0970     1.5450    -0.7890 C.ar  1 <1>  -0.1500 
  5 C        2.1150     0.3010     0.9910 C.ar  1 <1>  -0.1500 
  6 C        0.8410    -2.3070    -0.1720 C.ar  1 <1>  -0.1500 
  7 C       -1.1240    -2.0860     1.1870 C.ar  1 <1>  -0.1500 
  8 C        2.2560     2.2870    -0.9500 C.ar  1 <1>  -0.1430 
  9 C        3.2730     1.0390     0.8340 C.ar  1 <1>  -0.1500 
 10 C        0.8010    -3.6800    -0.0070 C.ar  1 <1>  -0.1500 
 11 C       -1.1650    -3.4590     1.3510 C.ar  1 <1>  -0.1500 
 12 C        3.3540     2.0310    -0.1330 C.ar  1 <1>  -0.1430 
 13 C        2.2960     3.3690    -2.0210 C.3   1 <1>  -0.0970 
 14 C       -0.2070    -4.2640     0.7500 C.ar  1 <1>  -0.1430 
 15 C        4.6490     2.8180    -0.2740 C.3   1 <1>  -0.0970 
 16 C       -0.2690    -5.7700     0.9180 C.3   1 <1>   0.4860 
 17 N       -0.7550    -6.3740    -0.3540 N.4   1 <1>  -0.9590 
 18 C       -2.1790    -5.9930    -0.6210 C.3   1 <1>   0.3430 
 19 C       -0.7270    -7.8660    -0.2580 C.3   1 <1>   0.3430 
 20 C       -3.0250    -7.1240    -0.0310 C.3   1 <1>   0.2000 
 21 C       -2.1780    -8.3590    -0.3390 C.3   1 <1>  -0.0800 
 22 O       -3.1140    -6.9330     1.3470 O.3   1 <1>  -0.6800 
 23 C       -2.4320    -9.5960     0.5450 C.3   1 <1>   0.0210 
 24 C       -1.5600   -10.7610     0.1180 C.2   1 <1>   0.1080 
 25 N       -0.2620   -10.7090     0.1140 N.2   1 <1>  -0.7070 
 26 C       -2.0380   -11.9960    -0.3050 C.2   1 <1>  -0.1500 
 27 N        0.1250   -11.9320    -0.3060 N.pl3 1 <1>   0.3000 
 28 C       -0.9340   -12.7240    -0.5700 C.2   1 <1>  -0.3320 
 29 C       -0.8250   -14.1560    -1.0630 C.3   1 <1>  -0.0600 
 30 H        0.2370     1.7290    -1.4070 H     1 <1>   0.1500 
 31 H        2.0570    -0.4580     1.7500 H     1 <1>   0.1500 
 32 H        1.6180    -1.8590    -0.7680 H     1 <1>   0.1500 
 33 H       -1.8650    -1.4560     1.6480 H     1 <1>   0.1500 
 34 H        4.1130     0.8370     1.4750 H     1 <1>   0.1500 
 35 H        1.5630    -4.2800    -0.4740 H     1 <1>   0.1500 
 36 H       -1.9510    -3.8900     1.9500 H     1 <1>   0.1500 
 37 H        1.3610     3.4250    -2.5470 H     1 <1>   0.0800 
 38 H        3.0720     3.1530    -2.7330 H     1 <1>   0.0800 
 39 H        2.4870     4.3260    -1.5700 H     1 <1>   0.0800 
 40 H        5.3850     2.4810     0.4330 H     1 <1>   0.0800 
 41 H        4.4650     3.8630    -0.0970 H     1 <1>   0.0800 
 42 H        5.0500     2.6940    -1.2630 H     1 <1>   0.0800 
 43 H       -0.9330    -6.0230     1.7280 H     1 <1>   0.0800 
 44 H        0.7140    -6.1430     1.1530 H     1 <1>   0.0800 
 45 H       -0.1520    -6.0320    -1.1110 H     1 <1>   0.4500 
 46 H       -2.4410    -5.0410    -0.1920 H     1 <1>   0.0800 
 47 H       -2.3430    -5.9540    -1.6850 H     1 <1>   0.0800 
 48 H       -0.1430    -8.3020    -1.0530 H     1 <1>   0.0800 
 49 H       -0.2970    -8.1740     0.6820 H     1 <1>   0.0800 
 50 H       -4.0180    -7.1580    -0.4470 H     1 <1>   0.0800 
 51 H       -2.3580    -8.6420    -1.3620 H     1 <1>   0.0800 
 52 H       -3.8110    -7.5010     1.7390 H     1 <1>   0.4000 
 53 H       -3.4650    -9.8870     0.4770 H     1 <1>   0.0800 
 54 H       -2.2120    -9.3800     1.5750 H     1 <1>   0.0800 
 55 H       -3.0690   -12.2900    -0.3910 H     1 <1>   0.1500 
 56 H        1.1130   -12.2020    -0.3960 H     1 <1>   0.2700 
 57 H       -1.8050   -14.5780    -1.1970 H     1 <1>   0.0800 
 58 H       -0.2910   -14.7560    -0.3470 H     1 <1>   0.0800 
 59 H       -0.3070   -14.1890    -2.0050 H     1 <1>   0.0800 
@<TRIPOS>BOND
  1   1   2  1   
  2   1   3  1   
  3   2   4  ar  
  4   2   5  ar  
  5   3   6  ar  
  6   3   7  ar  
  7   4   8  ar  
  8   4  30  1   
  9   5   9  ar  
 10   5  31  1   
 11   6  10  ar  
 12   6  32  1   
 13   7  11  ar  
 14   7  33  1   
 15   8  12  ar  
 16   8  13  1   
 17   9  12  ar  
 18   9  34  1   
 19  10  14  ar  
 20  10  35  1   
 21  11  14  ar  
 22  11  36  1   
 23  12  15  1   
 24  13  37  1   
 25  13  38  1   
 26  13  39  1   
 27  14  16  1   
 28  15  40  1   
 29  15  41  1   
 30  15  42  1   
 31  16  17  1   
 32  16  43  1   
 33  16  44  1   
 34  17  18  1   
 35  17  19  1   
 36  17  45  1   
 37  18  20  1   
 38  18  46  1   
 39  18  47  1   
 40  19  21  1   
 41  19  48  1   
 42  19  49  1   
 43  20  21  1   
 44  20  22  1   
 45  20  50  1   
 46  21  23  1   
 47  21  51  1   
 48  22  52  1   
 49  23  24  1   
 50  23  53  1   
 51  23  54  1   
 52  24  25  2   
 53  24  26  1   
 54  25  27  1   
 55  26  28  2   
 56  26  55  1   
 57  27  28  1   
 58  27  56  1   
 59  28  29  1   
 60  29  57  1   
 61  29  58  1   
 62  29  59  1   
@<TRIPOS>SUBSTRUCTURE
  1 ****  14 GROUP 4 **** **** 0

# MOE 2024.06 (io_trps.svl 2023.06)
