@<TRIPOS>MOLECULE
NONAME
36 37 1 0 0 
SMALL
USER_CHARGES


@<TRIPOS>ATOM
  1 O        3.7360    -1.4610     1.1570 O.2   1 <1>  -0.5770 
  2 C        2.8540    -1.4910     0.3360 C.2   1 <1>   0.8480 
  3 N        2.1690    -0.3560     0.0420 N.pl3 1 <1>  -0.7350 
  4 C        2.4960    -2.7810    -0.4090 C.3   1 <1>   0.2270 
  5 C        2.2410     0.8470     0.5900 C.cat 1 <1>   1.0680 
  6 N        1.0170    -2.7780    -0.5890 N.pl3 1 <1>   0.3050 
  7 C        3.0780    -4.0790     0.1940 C.3   1 <1>  -0.2500 
  8 N        3.1050     1.2290     1.5090 N.pl3 1 <1>  -0.7050 
  9 N        1.4290     1.8560     0.2840 N.pl3 1 <1>  -0.7690 
 10 N        0.5060    -1.9410    -1.5290 N.2   1 <1>  -0.7120 
 11 C        0.0140    -3.3610     0.1170 C.2   1 <1>  -0.3400 
 12 C        2.8520     2.5420     1.8250 C.2   1 <1>   0.1900 
 13 C        1.8100     2.9330     1.0660 C.2   1 <1>   0.1900 
 14 C        0.2970     1.8830    -0.6840 C.3   1 <1>   0.2650 
 15 C       -0.7790    -2.0690    -1.4430 C.2   1 <1>   0.0970 
 16 C       -1.1460    -2.9340    -0.4250 C.2   1 <1>  -0.1600 
 17 C        0.1290    -4.3130     1.2980 C.3   1 <1>  -0.0710 
 18 C       -1.7470    -1.3510    -2.3560 C.3   1 <1>  -0.0700 
 19 H        1.4000    -0.5150    -0.6210 H     1 <1>   0.4420 
 20 H        2.9140    -2.6900    -1.3940 H     1 <1>   0.0690 
 21 H        2.8500    -4.1610     1.2410 H     1 <1>   0.0690 
 22 H        4.1490    -4.0700     0.0980 H     1 <1>   0.0690 
 23 H        2.7020    -4.9390    -0.3320 H     1 <1>   0.0690 
 24 H        3.8120     0.5860     1.8840 H     1 <1>   0.4420 
 25 H        3.4200     3.0960     2.5570 H     1 <1>   0.1400 
 26 H        1.3190     3.8940     1.0300 H     1 <1>   0.1400 
 27 H        0.3700     1.0690    -1.3840 H     1 <1>   0.0690 
 28 H        0.3090     2.8080    -1.2350 H     1 <1>   0.0690 
 29 H       -0.6370     1.8050    -0.1540 H     1 <1>   0.0690 
 30 H       -2.1530    -3.1930    -0.1470 H     1 <1>   0.1400 
 31 H        0.6790    -3.8580     2.1010 H     1 <1>   0.0690 
 32 H        0.6110    -5.2270     1.0020 H     1 <1>   0.0690 
 33 H       -0.8520    -4.5610     1.6640 H     1 <1>   0.0690 
 34 H       -1.4010    -1.4150    -3.3720 H     1 <1>   0.0690 
 35 H       -1.8230    -0.3180    -2.0740 H     1 <1>   0.0690 
 36 H       -2.7190    -1.8040    -2.2940 H     1 <1>   0.0690 
@<TRIPOS>BOND
  1   1   2  2   
  2   2   3  1   
  3   2   4  1   
  4   3   5  ar  
  5   3  19  1   
  6   4   6  1   
  7   4   7  1   
  8   4  20  1   
  9   5   8  ar  
 10   5   9  ar  
 11   6  10  1   
 12   6  11  1   
 13   7  21  1   
 14   7  22  1   
 15   7  23  1   
 16   8  12  1   
 17   8  24  1   
 18   9  13  1   
 19   9  14  1   
 20  10  15  2   
 21  11  16  2   
 22  11  17  1   
 23  12  13  2   
 24  12  25  1   
 25  13  26  1   
 26  14  27  1   
 27  14  28  1   
 28  14  29  1   
 29  15  16  1   
 30  15  18  1   
 31  16  30  1   
 32  17  31  1   
 33  17  32  1   
 34  17  33  1   
 35  18  34  1   
 36  18  35  1   
 37  18  36  1   
@<TRIPOS>SUBSTRUCTURE
  1 ****   3 GROUP 4 **** **** 0

# MOE 2024.06 (io_trps.svl 2023.06)
