@<TRIPOS>MOLECULE
NONAME
47 49 1 0 0 
SMALL
USER_CHARGES


@<TRIPOS>ATOM
  1 O        0.4830     1.6400    -1.0080 O.2   1 <1>  -0.5700 
  2 C        0.0680     2.7720    -0.9290 C.2   1 <1>   0.5690 
  3 N       -0.7630     3.1820     0.0790 N.am  1 <1>  -0.6600 
  4 C        0.4720     3.7670    -2.0150 C.3   1 <1>   0.1810 
  5 C       -1.3040     4.5810     0.1230 C.3   1 <1>   0.3640 
  6 C       -1.1410     2.2930     1.2150 C.3   1 <1>   0.0600 
  7 O        0.4190     5.0980    -1.5670 O.3   1 <1>  -0.5600 
  8 C       -2.8360     4.5730     0.2680 C.ar  1 <1>  -0.1430 
  9 C       -0.8470     5.4900    -1.0500 C.3   1 <1>   0.2610 
 10 C       -3.7130     3.8600    -0.5570 C.ar  1 <1>  -0.1430 
 11 C       -3.3660     5.3390     1.3000 C.ar  1 <1>  -0.1500 
 12 C       -0.7860     6.9420    -0.5650 C.2   1 <1>   0.5690 
 13 C       -5.0790     3.9240    -0.3180 C.ar  1 <1>  -0.1500 
 14 C       -3.2590     2.9890    -1.7240 C.3   1 <1>  -0.0960 
 15 C       -4.7270     5.3970     1.5260 C.ar  1 <1>  -0.1500 
 16 O       -1.8070     7.5670    -0.4100 O.2   1 <1>  -0.5700 
 17 N        0.4290     7.4930    -0.3080 N.am  1 <1>  -0.7300 
 18 C       -5.5870     4.6860     0.7160 C.ar  1 <1>  -0.1500 
 19 C        0.6910     8.8680     0.1430 C.3   1 <1>   0.2200 
 20 C        1.5760     9.5590    -0.8860 C.3   1 <1>  -0.1600 
 21 C        1.5710     8.8150     1.3840 C.3   1 <1>  -0.1600 
 22 C        3.0060     9.0930    -0.5860 C.3   1 <1>  -0.1600 
 23 C        3.0020     8.6120     0.8710 C.3   1 <1>  -0.1600 
 24 H       -0.1740     3.6630    -2.8670 H     1 <1>   0.0800 
 25 H        1.4830     3.5660    -2.3200 H     1 <1>   0.0800 
 26 H       -0.8970     5.0210     1.0170 H     1 <1>   0.0800 
 27 H       -0.9010     2.7710     2.1490 H     1 <1>   0.0800 
 28 H       -0.6110     1.3580     1.1610 H     1 <1>   0.0800 
 29 H       -2.1980     2.0890     1.1860 H     1 <1>   0.0800 
 30 H       -1.5600     5.4430    -1.8510 H     1 <1>   0.0800 
 31 H       -2.7190     5.9120     1.9420 H     1 <1>   0.1500 
 32 H       -5.7650     3.3770    -0.9400 H     1 <1>   0.1500 
 33 H       -4.0920     2.7140    -2.3450 H     1 <1>   0.0800 
 34 H       -2.8100     2.0840    -1.3550 H     1 <1>   0.0800 
 35 H       -2.5540     3.5080    -2.3410 H     1 <1>   0.0800 
 36 H       -5.1160     5.9990     2.3290 H     1 <1>   0.1500 
 37 H        1.2600     6.9470    -0.5500 H     1 <1>   0.3700 
 38 H       -6.6490     4.7270     0.8860 H     1 <1>   0.1500 
 39 H       -0.2330     9.3970     0.3140 H     1 <1>   0.0800 
 40 H        1.2700     9.3450    -1.8950 H     1 <1>   0.0800 
 41 H        1.5140    10.6210    -0.7270 H     1 <1>   0.0800 
 42 H        1.5110     9.7660     1.8830 H     1 <1>   0.0800 
 43 H        1.2620     8.0470     2.0710 H     1 <1>   0.0800 
 44 H        3.2690     8.2760    -1.2360 H     1 <1>   0.0800 
 45 H        3.7090     9.8950    -0.7350 H     1 <1>   0.0800 
 46 H        3.7070     9.1640     1.4700 H     1 <1>   0.0800 
 47 H        3.2590     7.5670     0.9080 H     1 <1>   0.0800 
@<TRIPOS>BOND
  1   1   2  2   
  2   2   3  am  
  3   2   4  1   
  4   3   5  1   
  5   3   6  1   
  6   4   7  1   
  7   4  24  1   
  8   4  25  1   
  9   5   8  1   
 10   5   9  1   
 11   5  26  1   
 12   6  27  1   
 13   6  28  1   
 14   6  29  1   
 15   7   9  1   
 16   8  10  ar  
 17   8  11  ar  
 18   9  12  1   
 19   9  30  1   
 20  10  13  ar  
 21  10  14  1   
 22  11  15  ar  
 23  11  31  1   
 24  12  16  2   
 25  12  17  am  
 26  13  18  ar  
 27  13  32  1   
 28  14  33  1   
 29  14  34  1   
 30  14  35  1   
 31  15  18  ar  
 32  15  36  1   
 33  17  19  1   
 34  17  37  1   
 35  18  38  1   
 36  19  20  1   
 37  19  21  1   
 38  19  39  1   
 39  20  22  1   
 40  20  40  1   
 41  20  41  1   
 42  21  23  1   
 43  21  42  1   
 44  21  43  1   
 45  22  23  1   
 46  22  44  1   
 47  22  45  1   
 48  23  46  1   
 49  23  47  1   
@<TRIPOS>SUBSTRUCTURE
  1 ****   9 GROUP 4 **** **** 0

# MOE 2024.06 (io_trps.svl 2023.06)
