@<TRIPOS>MOLECULE
NONAME
43 45 1 0 0 
SMALL
USER_CHARGES


@<TRIPOS>ATOM
  1 O        1.6910     0.4520    -1.1690 O.co2 1 <1>  -0.9000 
  2 C        1.3900     1.6470    -1.1490 C.2   1 <1>   0.9060 
  3 O        0.8380     2.1980    -2.1160 O.co2 1 <1>  -0.9000 
  4 C        1.7590     2.5300     0.1090 C.3   1 <1>   0.3970 
  5 N        1.8680     4.0120    -0.1540 N.4   1 <1>  -0.9590 
  6 C        0.6150     2.4730     1.1340 C.3   1 <1>  -0.1600 
  7 C        3.0830     2.0880     0.7550 C.3   1 <1>  -0.2400 
  8 C        0.4680     4.4850    -0.2270 C.3   1 <1>   0.3430 
  9 C        2.6020     4.3130    -1.4100 C.3   1 <1>   0.5240 
 10 C       -0.2580     3.7020     0.8580 C.3   1 <1>  -0.1600 
 11 C        2.8730     5.8000    -1.4280 C.2   1 <1>  -0.1810 
 12 C        2.2200     6.7220    -2.2340 C.2   1 <1>   0.1390 
 13 C        3.7420     6.5380    -0.7030 C.2   1 <1>  -0.3020 
 14 N        2.6340     7.9300    -2.0220 N.2   1 <1>  -0.7070 
 15 N        3.6010     7.8370    -1.0730 N.pl3 1 <1>   0.5930 
 16 C        4.3050     8.9570    -0.5420 C.ar  1 <1>  -0.0230 
 17 C        5.6300     8.8410    -0.1260 C.ar  1 <1>  -0.1500 
 18 C        3.6780    10.1940    -0.4210 C.ar  1 <1>  -0.1500 
 19 C        6.3090     9.9240     0.4070 C.ar  1 <1>  -0.1440 
 20 C        4.3500    11.2780     0.1120 C.ar  1 <1>  -0.1500 
 21 C        5.6630    11.1430     0.5270 C.ar  1 <1>  -0.1500 
 22 C        7.7520     9.7820     0.8590 C.3   1 <1>  -0.0970 
 23 H        2.3430     4.4550     0.6310 H     1 <1>   0.4500 
 24 H        0.0570     1.5580     1.0270 H     1 <1>   0.0800 
 25 H        0.9960     2.5140     2.1390 H     1 <1>   0.0800 
 26 H        2.9860     1.0700     1.0910 H     1 <1>   0.0800 
 27 H        3.3410     2.7010     1.5990 H     1 <1>   0.0800 
 28 H        3.8780     2.1070     0.0310 H     1 <1>   0.0800 
 29 H        0.3960     5.5500    -0.0790 H     1 <1>   0.0800 
 30 H        0.0510     4.2230    -1.1890 H     1 <1>   0.0800 
 31 H        3.5340     3.7720    -1.4350 H     1 <1>   0.0800 
 32 H        2.0210     4.0300    -2.2730 H     1 <1>   0.0800 
 33 H       -0.3660     4.3020     1.7440 H     1 <1>   0.0800 
 34 H       -1.2350     3.4170     0.5080 H     1 <1>   0.0800 
 35 H        1.4540     6.4790    -2.9550 H     1 <1>   0.1500 
 36 H        4.4470     6.2380     0.0490 H     1 <1>   0.1500 
 37 H        6.1410     7.9000    -0.2230 H     1 <1>   0.1500 
 38 H        2.6580    10.3090    -0.7480 H     1 <1>   0.1500 
 39 H        3.8530    12.2280     0.2010 H     1 <1>   0.1500 
 40 H        6.1780    11.9920     0.9420 H     1 <1>   0.1500 
 41 H        8.2830    10.7060     0.7120 H     1 <1>   0.0800 
 42 H        8.2510     9.0140     0.2960 H     1 <1>   0.0800 
 43 H        7.7840     9.5260     1.9020 H     1 <1>   0.0800 
@<TRIPOS>BOND
  1   1   2  ar  
  2   2   3  ar  
  3   2   4  1   
  4   4   5  1   
  5   4   6  1   
  6   4   7  1   
  7   5   8  1   
  8   5   9  1   
  9   5  23  1   
 10   6  10  1   
 11   6  24  1   
 12   6  25  1   
 13   7  26  1   
 14   7  27  1   
 15   7  28  1   
 16   8  10  1   
 17   8  29  1   
 18   8  30  1   
 19   9  11  1   
 20   9  31  1   
 21   9  32  1   
 22  10  33  1   
 23  10  34  1   
 24  11  12  1   
 25  11  13  2   
 26  12  14  2   
 27  12  35  1   
 28  13  15  1   
 29  13  36  1   
 30  14  15  1   
 31  15  16  1   
 32  16  17  ar  
 33  16  18  ar  
 34  17  19  ar  
 35  17  37  1   
 36  18  20  ar  
 37  18  38  1   
 38  19  21  ar  
 39  19  22  1   
 40  20  21  ar  
 41  20  39  1   
 42  21  40  1   
 43  22  41  1   
 44  22  42  1   
 45  22  43  1   
@<TRIPOS>SUBSTRUCTURE
  1 ****  13 GROUP 4 **** **** 0

# MOE 2024.06 (io_trps.svl 2023.06)
