@<TRIPOS>MOLECULE
NONAME
39 40 1 0 0 
SMALL
USER_CHARGES


@<TRIPOS>ATOM
  1 CL       3.1580     2.4580    -2.1740 Cl    1 <1>  -0.1770 
  2 C        1.9060     3.3190    -1.3190 C.ar  1 <1>   0.1770 
  3 C        2.0980     3.6470     0.0100 C.ar  1 <1>  -0.1500 
  4 C        0.7450     3.6650    -1.9840 C.ar  1 <1>  -0.1500 
  5 C        1.1080     4.3370     0.6950 C.ar  1 <1>  -0.1440 
  6 C       -0.2440     4.3520    -1.3010 C.ar  1 <1>  -0.1500 
  7 C       -0.0620     4.6840     0.0320 C.ar  1 <1>  -0.1500 
  8 C        1.3110     4.7280     2.1570 C.3   1 <1>   0.0450 
  9 C        1.9390     6.1030     2.3240 C.2   1 <1>   0.5690 
 10 O        2.1490     6.4950     3.4420 O.2   1 <1>  -0.5700 
 11 N        2.2330     6.8240     1.2000 N.am  1 <1>  -0.4940 
 12 C        2.8000     8.0730     1.0760 C.2   1 <1>   0.4420 
 13 S        3.0300     8.6690    -0.5370 S.3   1 <1>  -0.0800 
 14 N        3.2050     8.9110     1.9610 N.2   1 <1>  -0.3380 
 15 C        3.7020    10.0980     0.1690 C.2   1 <1>   0.1980 
 16 N        3.7180    10.0630     1.4370 N.2   1 <1>  -0.3380 
 17 C        4.1860    11.2030    -0.7420 C.3   1 <1>   0.0200 
 18 C        4.7650    12.3330     0.1180 C.3   1 <1>   0.3430 
 19 N        5.3360    13.4600    -0.6940 N.4   1 <1>  -0.9590 
 20 C        6.1160    14.3730     0.2000 C.3   1 <1>   0.2630 
 21 C        4.2800    14.2380    -1.4190 C.3   1 <1>   0.2630 
 22 H        3.0160     3.3580     0.4930 H     1 <1>   0.1500 
 23 H        0.6210     3.3980    -3.0190 H     1 <1>   0.1500 
 24 H       -1.1560     4.6240    -1.8060 H     1 <1>   0.1500 
 25 H       -0.8430     5.2160     0.5500 H     1 <1>   0.1500 
 26 H        1.9430     4.0080     2.6440 H     1 <1>   0.0800 
 27 H        0.3670     4.7240     2.6700 H     1 <1>   0.0800 
 28 H        1.9950     6.3580     0.3250 H     1 <1>   0.3700 
 29 H        3.3530    11.5550    -1.3230 H     1 <1>   0.0800 
 30 H        4.9420    10.8070    -1.3950 H     1 <1>   0.0800 
 31 H        5.5400    11.9130     0.7410 H     1 <1>   0.0800 
 32 H        3.9950    12.7060     0.7740 H     1 <1>   0.0800 
 33 H        5.9930    13.0670    -1.3860 H     1 <1>   0.4500 
 34 H        5.4720    14.8070     0.9480 H     1 <1>   0.0800 
 35 H        6.5630    15.1690    -0.3740 H     1 <1>   0.0800 
 36 H        6.9020    13.8280     0.6990 H     1 <1>   0.0800 
 37 H        3.5700    14.6500    -0.7200 H     1 <1>   0.0800 
 38 H        3.7520    13.6050    -2.1140 H     1 <1>   0.0800 
 39 H        4.7270    15.0490    -1.9720 H     1 <1>   0.0800 
@<TRIPOS>BOND
  1   1   2  1   
  2   2   3  ar  
  3   2   4  ar  
  4   3   5  ar  
  5   3  22  1   
  6   4   6  ar  
  7   4  23  1   
  8   5   7  ar  
  9   5   8  1   
 10   6   7  ar  
 11   6  24  1   
 12   7  25  1   
 13   8   9  1   
 14   8  26  1   
 15   8  27  1   
 16   9  10  2   
 17   9  11  am  
 18  11  12  1   
 19  11  28  1   
 20  12  13  1   
 21  12  14  2   
 22  13  15  1   
 23  14  16  1   
 24  15  16  2   
 25  15  17  1   
 26  17  18  1   
 27  17  29  1   
 28  17  30  1   
 29  18  19  1   
 30  18  31  1   
 31  18  32  1   
 32  19  20  1   
 33  19  21  1   
 34  19  33  1   
 35  20  34  1   
 36  20  35  1   
 37  20  36  1   
 38  21  37  1   
 39  21  38  1   
 40  21  39  1   
@<TRIPOS>SUBSTRUCTURE
  1 ****  12 GROUP 4 **** **** 0

# MOE 2024.06 (io_trps.svl 2023.06)
