@<TRIPOS>MOLECULE
NONAME
48 49 1 0 0 
SMALL
USER_CHARGES


@<TRIPOS>ATOM
  1 O        1.4890     2.4080     1.2980 O.3   1 <1>  -0.0190 
  2 N        1.2040     2.7350     0.0730 N.2   1 <1>  -0.4100 
  3 C        0.3530     2.5510     1.9380 C.2   1 <1>   0.2980 
  4 C       -0.0340     3.0390     0.0470 C.2   1 <1>   0.3350 
  5 N       -0.6230     2.9570     1.2280 N.2   1 <1>  -0.5650 
  6 C        0.2990     2.2320     3.4160 C.3   1 <1>  -0.0600 
  7 C       -0.8000     3.4810    -1.2010 C.3   1 <1>   0.5240 
  8 N        0.0760     4.2310    -2.1830 N.4   1 <1>  -0.9590 
  9 C        0.1940     5.6930    -1.8760 C.3   1 <1>   0.3430 
 10 C       -0.4240     4.0220    -3.5790 C.3   1 <1>   0.2630 
 11 C        1.2160     6.0070    -0.7580 C.3   1 <1>  -0.0800 
 12 C        1.2170     7.5130    -0.4360 C.3   1 <1>  -0.1600 
 13 C        2.6540     5.5800    -1.1180 C.3   1 <1>  -0.1600 
 14 C        2.2310     7.8640     0.6590 C.3   1 <1>   0.3430 
 15 C        3.6450     5.9440    -0.0070 C.3   1 <1>   0.3430 
 16 N        3.5970     7.4110     0.2570 N.4   1 <1>  -0.9590 
 17 C        4.6250     7.7610     1.2980 C.3   1 <1>   0.3430 
 18 C        4.8600     9.2700     1.4360 C.3   1 <1>   0.1200 
 19 O        5.8400     9.4390     2.4010 O.3   1 <1>  -0.5600 
 20 C        6.1960    10.7650     2.6400 C.3   1 <1>   0.0400 
 21 H        0.9850     2.8590     3.9540 H     1 <1>   0.0800 
 22 H        0.5640     1.2030     3.5750 H     1 <1>   0.0800 
 23 H       -0.6950     2.3960     3.7920 H     1 <1>   0.0800 
 24 H       -1.6340     4.0930    -0.9040 H     1 <1>   0.0800 
 25 H       -1.1910     2.5920    -1.6660 H     1 <1>   0.0800 
 26 H        1.0080     3.7940    -2.1010 H     1 <1>   0.4500 
 27 H       -0.7740     6.0810    -1.5980 H     1 <1>   0.0800 
 28 H        0.5060     6.2150    -2.7660 H     1 <1>   0.0800 
 29 H       -1.4130     4.4380    -3.6930 H     1 <1>   0.0800 
 30 H       -0.4660     2.9690    -3.8110 H     1 <1>   0.0800 
 31 H        0.2330     4.4980    -4.2890 H     1 <1>   0.0800 
 32 H        0.9110     5.5020     0.1410 H     1 <1>   0.0800 
 33 H        0.2400     7.8110    -0.0960 H     1 <1>   0.0800 
 34 H        1.4400     8.0900    -1.3180 H     1 <1>   0.0800 
 35 H        2.9690     6.0460    -2.0360 H     1 <1>   0.0800 
 36 H        2.7080     4.5170    -1.2660 H     1 <1>   0.0800 
 37 H        1.9470     7.3810     1.5820 H     1 <1>   0.0800 
 38 H        2.2250     8.9300     0.8230 H     1 <1>   0.0800 
 39 H        4.6420     5.6550    -0.3040 H     1 <1>   0.0800 
 40 H        3.3930     5.4020     0.8920 H     1 <1>   0.0800 
 41 H        3.8610     7.8940    -0.6130 H     1 <1>   0.4500 
 42 H        5.5670     7.3070     1.0370 H     1 <1>   0.0800 
 43 H        4.3200     7.3710     2.2560 H     1 <1>   0.0800 
 44 H        3.9730     9.7790     1.7680 H     1 <1>   0.0800 
 45 H        5.2190     9.6900     0.5110 H     1 <1>   0.0800 
 46 H        6.9580    10.7760     3.4010 H     1 <1>   0.0800 
 47 H        5.3360    11.3120     2.9860 H     1 <1>   0.0800 
 48 H        6.5860    11.2020     1.7370 H     1 <1>   0.0800 
@<TRIPOS>BOND
  1   1   2  1   
  2   1   3  1   
  3   2   4  2   
  4   3   5  2   
  5   3   6  1   
  6   4   5  1   
  7   4   7  1   
  8   6  21  1   
  9   6  22  1   
 10   6  23  1   
 11   7   8  1   
 12   7  24  1   
 13   7  25  1   
 14   8   9  1   
 15   8  10  1   
 16   8  26  1   
 17   9  11  1   
 18   9  27  1   
 19   9  28  1   
 20  10  29  1   
 21  10  30  1   
 22  10  31  1   
 23  11  12  1   
 24  11  13  1   
 25  11  32  1   
 26  12  14  1   
 27  12  33  1   
 28  12  34  1   
 29  13  15  1   
 30  13  35  1   
 31  13  36  1   
 32  14  16  1   
 33  14  37  1   
 34  14  38  1   
 35  15  16  1   
 36  15  39  1   
 37  15  40  1   
 38  16  17  1   
 39  16  41  1   
 40  17  18  1   
 41  17  42  1   
 42  17  43  1   
 43  18  19  1   
 44  18  44  1   
 45  18  45  1   
 46  19  20  1   
 47  20  46  1   
 48  20  47  1   
 49  20  48  1   
@<TRIPOS>SUBSTRUCTURE
  1 ****  11 GROUP 4 **** **** 0

# MOE 2024.06 (io_trps.svl 2023.06)
