@<TRIPOS>MOLECULE
NONAME
29 30 1 0 0 
SMALL
USER_CHARGES


@<TRIPOS>ATOM
  1 O        0.3710     0.2600    -0.9880 O.2   1 <1>  -0.5700 
  2 C        1.3030     0.9600    -0.6450 C.2   1 <1>   0.7060 
  3 O        2.4780     0.3480    -0.4360 O.3   1 <1>  -0.2270 
  4 C        1.2620     2.3830    -0.4850 C.2   1 <1>   0.0290 
  5 C        3.6000     0.9840    -0.1400 C.2   1 <1>  -0.0620 
  6 C        0.0060     3.0470    -0.6600 C.2   1 <1>   0.7060 
  7 C        2.4180     3.0480    -0.1860 C.2   1 <1>  -0.1500 
  8 C        3.6400     2.3420     0.0070 C.2   1 <1>   0.0140 
  9 C        4.8200     0.0900     0.0200 C.3   1 <1>  -0.0220 
 10 O       -0.0930     4.0940    -1.2650 O.2   1 <1>  -0.5700 
 11 O       -1.0790     2.5250    -0.0870 O.3   1 <1>  -0.4300 
 12 C        4.8560     3.0340     0.3590 C.2   1 <1>   0.4950 
 13 C        6.1180     0.8910    -0.1620 C.3   1 <1>  -0.1600 
 14 C       -2.3500     3.1190    -0.2230 C.3   1 <1>   0.1200 
 15 O        4.9400     4.2300     0.4600 O.2   1 <1>  -0.5700 
 16 C        6.0980     2.2030     0.6420 C.3   1 <1>  -0.0990 
 17 C       -3.3560     2.2550     0.5310 C.3   1 <1>  -0.2400 
 18 H        2.4320     4.1220    -0.0830 H     1 <1>   0.1500 
 19 H        4.7890    -0.7000    -0.7110 H     1 <1>   0.0800 
 20 H        4.7960    -0.3610     0.9970 H     1 <1>   0.0800 
 21 H        6.2340     1.1290    -1.2070 H     1 <1>   0.0800 
 22 H        6.9620     0.2910     0.1320 H     1 <1>   0.0800 
 23 H       -2.5930     3.1670    -1.2710 H     1 <1>   0.0800 
 24 H       -2.3090     4.1140     0.1870 H     1 <1>   0.0800 
 25 H        6.1260     1.9870     1.6940 H     1 <1>   0.0800 
 26 H        6.9700     2.7850     0.4010 H     1 <1>   0.0800 
 27 H       -3.3700     1.2610     0.1190 H     1 <1>   0.0800 
 28 H       -4.3390     2.6780     0.4410 H     1 <1>   0.0800 
 29 H       -3.0960     2.2080     1.5740 H     1 <1>   0.0800 
@<TRIPOS>BOND
  1   1   2  2   
  2   2   3  1   
  3   2   4  1   
  4   3   5  1   
  5   4   6  1   
  6   4   7  2   
  7   5   8  2   
  8   5   9  1   
  9   6  10  2   
 10   6  11  1   
 11   7   8  1   
 12   7  18  1   
 13   8  12  1   
 14   9  13  1   
 15   9  19  1   
 16   9  20  1   
 17  11  14  1   
 18  12  15  2   
 19  12  16  1   
 20  13  16  1   
 21  13  21  1   
 22  13  22  1   
 23  14  17  1   
 24  14  23  1   
 25  14  24  1   
 26  16  25  1   
 27  16  26  1   
 28  17  27  1   
 29  17  28  1   
 30  17  29  1   
@<TRIPOS>SUBSTRUCTURE
  1 ****   4 GROUP 4 **** **** 0

# MOE 2024.06 (io_trps.svl 2023.06)
