@<TRIPOS>MOLECULE
NONAME
39 40 1 0 0 
SMALL
USER_CHARGES


@<TRIPOS>ATOM
  1 O       -0.9530     1.6460    -1.2450 O.2   1 <1>  -0.5700 
  2 C       -0.3400     2.4540    -0.5680 C.2   1 <1>   0.7670 
  3 N       -0.9750     3.0520     0.4870 N.2   1 <1>  -0.6610 
  4 C        1.0120     2.7670    -0.8700 C.2   1 <1>  -0.1360 
  5 C       -0.3060     3.8980     1.1790 C.2   1 <1>   0.4400 
  6 C        1.6880     3.6620    -0.1130 C.2   1 <1>  -0.0380 
  7 N        0.9960     4.2310     0.9270 N.pl3 1 <1>  -0.5500 
  8 C        3.1380     4.0680    -0.3470 C.3   1 <1>   0.3470 
  9 N        3.2160     5.5460    -0.3710 N.pl3 1 <1>  -0.8690 
 10 C        4.2420     6.3720    -0.1190 C.ar  1 <1>   0.4100 
 11 N        3.9490     7.6470    -0.2040 N.ar  1 <1>  -0.6200 
 12 C        5.5350     5.9190     0.2020 C.ar  1 <1>  -0.1500 
 13 C        4.9180     8.5280     0.0110 C.ar  1 <1>   0.7710 
 14 C        6.5110     6.8320     0.4290 C.ar  1 <1>   0.2180 
 15 N        6.1660     8.1380     0.3270 N.ar  1 <1>  -0.1790 
 16 N        4.6480     9.8610    -0.0830 N.pl3 1 <1>  -0.8380 
 17 C        7.9470     6.4690     0.7850 C.3   1 <1>  -0.0170 
 18 C        5.6400    10.9840    -0.0700 C.3   1 <1>   0.1290 
 19 C        3.2470    10.3590    -0.2940 C.3   1 <1>   0.1290 
 20 C        8.9430     6.9280    -0.2880 C.3   1 <1>  -0.2400 
 21 H        1.4380     2.2590    -1.7120 H     1 <1>   0.1500 
 22 H       -0.7780     4.3900     2.0120 H     1 <1>   0.0600 
 23 H        1.4460     4.9440     1.5110 H     1 <1>   0.4000 
 24 H        3.4860     3.6730    -1.2870 H     1 <1>   0.0800 
 25 H        3.7500     3.6770     0.4460 H     1 <1>   0.0800 
 26 H        2.3490     5.9890    -0.6960 H     1 <1>   0.4000 
 27 H        5.7230     4.8640     0.2560 H     1 <1>   0.1500 
 28 H        6.8280     8.8840     0.4910 H     1 <1>   0.4570 
 29 H        8.0300     5.4010     0.8950 H     1 <1>   0.0800 
 30 H        8.2080     6.9070     1.7340 H     1 <1>   0.0800 
 31 H        6.6380    10.6440    -0.2780 H     1 <1>   0.0800 
 32 H        5.6220    11.4750     0.8890 H     1 <1>   0.0800 
 33 H        5.3790    11.7070    -0.8260 H     1 <1>   0.0800 
 34 H        2.5160     9.6400     0.0340 H     1 <1>   0.0800 
 35 H        3.0850    10.5620    -1.3390 H     1 <1>   0.0800 
 36 H        3.0860    11.2660     0.2650 H     1 <1>   0.0800 
 37 H        8.6950     6.4960    -1.2430 H     1 <1>   0.0800 
 38 H        9.9360     6.6040    -0.0250 H     1 <1>   0.0800 
 39 H        8.9580     7.9990    -0.3840 H     1 <1>   0.0800 
@<TRIPOS>BOND
  1   1   2  2   
  2   2   3  1   
  3   2   4  1   
  4   3   5  2   
  5   4   6  2   
  6   4  21  1   
  7   5   7  1   
  8   5  22  1   
  9   6   7  1   
 10   6   8  1   
 11   7  23  1   
 12   8   9  1   
 13   8  24  1   
 14   8  25  1   
 15   9  10  1   
 16   9  26  1   
 17  10  11  ar  
 18  10  12  ar  
 19  11  13  ar  
 20  12  14  ar  
 21  12  27  1   
 22  13  15  ar  
 23  13  16  1   
 24  14  15  ar  
 25  14  17  1   
 26  15  28  1   
 27  16  18  1   
 28  16  19  1   
 29  17  20  1   
 30  17  29  1   
 31  17  30  1   
 32  18  31  1   
 33  18  32  1   
 34  18  33  1   
 35  19  34  1   
 36  19  35  1   
 37  19  36  1   
 38  20  37  1   
 39  20  38  1   
 40  20  39  1   
@<TRIPOS>SUBSTRUCTURE
  1 ****   9 GROUP 4 **** **** 0

# MOE 2024.06 (io_trps.svl 2023.06)
