@<TRIPOS>MOLECULE
NONAME
49 50 1 0 0 
SMALL
USER_CHARGES


@<TRIPOS>ATOM
  1 S        0.1250     0.2710    -1.3450 S.o2  1 <1>   1.3330 
  2 O        0.9920     0.4050    -2.4940 O.2   1 <1>  -0.6500 
  3 O       -0.9210    -0.7260    -1.3510 O.2   1 <1>  -0.6500 
  4 N        1.0980    -0.0230     0.0160 N.am  1 <1>  -0.8490 
  5 C       -0.6000     1.8780    -1.0110 C.3   1 <1>  -0.0550 
  6 C        0.3540    -0.5580     1.1620 C.3   1 <1>   0.1160 
  7 C        2.2360    -0.8960    -0.2890 C.3   1 <1>   0.1160 
  8 C        0.4030     3.0540    -1.0100 C.3   1 <1>  -0.0800 
  9 C       -0.2600     4.4320    -0.9320 C.3   1 <1>   0.2000 
 10 C        1.4020     3.0490     0.1570 C.3   1 <1>   0.1400 
 11 O       -1.2540     4.4000     0.0360 O.3   1 <1>  -0.6800 
 12 C        0.8580     5.3440    -0.4330 C.3   1 <1>   0.1400 
 13 N        1.6490     4.4780     0.4800 N.am  1 <1>  -0.6600 
 14 C        2.4580     4.8660     1.5140 C.2   1 <1>   0.5690 
 15 O        2.9840     4.0430     2.2260 O.2   1 <1>  -0.5700 
 16 C        2.7140     6.3330     1.8320 C.3   1 <1>   0.0390 
 17 C        3.8240     6.9380     0.9640 C.2   1 <1>  -0.1240 
 18 C        3.4460     7.7640    -0.1440 C.2   1 <1>   0.7670 
 19 C        5.1470     6.7300     1.1950 C.2   1 <1>  -0.0380 
 20 O        2.2730     7.9970    -0.3990 O.2   1 <1>  -0.5700 
 21 N        4.3850     8.3270    -0.9620 N.2   1 <1>  -0.6610 
 22 N        6.0310     7.3300     0.3420 N.pl3 1 <1>  -0.5500 
 23 C        5.7750     5.8920     2.2980 C.3   1 <1>  -0.1020 
 24 C        5.6140     8.0990    -0.7000 C.2   1 <1>   0.4390 
 25 C        6.6900     8.6970    -1.5720 C.3   1 <1>  -0.1790 
 26 H       -1.3340     2.0740    -1.7690 H     1 <1>   0.0800 
 27 H       -1.1180     1.8440    -0.0730 H     1 <1>   0.0800 
 28 H        1.0010    -0.6330     2.0200 H     1 <1>   0.0800 
 29 H       -0.0390    -1.5350     0.9330 H     1 <1>   0.0800 
 30 H       -0.4650     0.0930     1.4110 H     1 <1>   0.0800 
 31 H        2.8380    -1.0460     0.5900 H     1 <1>   0.0800 
 32 H        2.8550    -0.4430    -1.0460 H     1 <1>   0.0800 
 33 H        1.8890    -1.8500    -0.6510 H     1 <1>   0.0800 
 34 H        0.9740     3.0200    -1.9230 H     1 <1>   0.0800 
 35 H       -0.6920     4.7590    -1.8630 H     1 <1>   0.0800 
 36 H        2.3220     2.5580    -0.1150 H     1 <1>   0.0800 
 37 H        0.9870     2.5620     1.0230 H     1 <1>   0.0800 
 38 H       -0.8270     4.3230     0.9130 H     1 <1>   0.4000 
 39 H        0.4610     6.2160     0.0570 H     1 <1>   0.0800 
 40 H        1.4790     5.6460    -1.2590 H     1 <1>   0.0800 
 41 H        1.7990     6.8850     1.7430 H     1 <1>   0.0800 
 42 H        2.9960     6.4080     2.8650 H     1 <1>   0.0800 
 43 H        7.0360     7.1980     0.4710 H     1 <1>   0.4000 
 44 H        6.4440     6.4970     2.8820 H     1 <1>   0.0800 
 45 H        6.3290     5.0790     1.8660 H     1 <1>   0.0800 
 46 H        5.0440     5.4740     2.9620 H     1 <1>   0.0800 
 47 H        7.3230     9.3370    -0.9860 H     1 <1>   0.0800 
 48 H        6.2440     9.2800    -2.3580 H     1 <1>   0.0800 
 49 H        7.2790     7.9160    -2.0160 H     1 <1>   0.0800 
@<TRIPOS>BOND
  1   1   2  2   
  2   1   3  2   
  3   1   4  am  
  4   1   5  1   
  5   4   6  1   
  6   4   7  1   
  7   5   8  1   
  8   5  26  1   
  9   5  27  1   
 10   6  28  1   
 11   6  29  1   
 12   6  30  1   
 13   7  31  1   
 14   7  32  1   
 15   7  33  1   
 16   8   9  1   
 17   8  10  1   
 18   8  34  1   
 19   9  11  1   
 20   9  12  1   
 21   9  35  1   
 22  10  13  1   
 23  10  36  1   
 24  10  37  1   
 25  11  38  1   
 26  12  13  1   
 27  12  39  1   
 28  12  40  1   
 29  13  14  am  
 30  14  15  2   
 31  14  16  1   
 32  16  17  1   
 33  16  41  1   
 34  16  42  1   
 35  17  18  1   
 36  17  19  2   
 37  18  20  2   
 38  18  21  1   
 39  19  22  1   
 40  19  23  1   
 41  21  24  2   
 42  22  24  1   
 43  22  43  1   
 44  23  44  1   
 45  23  45  1   
 46  23  46  1   
 47  24  25  1   
 48  25  47  1   
 49  25  48  1   
 50  25  49  1   
@<TRIPOS>SUBSTRUCTURE
  1 ****  13 GROUP 4 **** **** 0

# MOE 2024.06 (io_trps.svl 2023.06)
