@<TRIPOS>MOLECULE
NONAME
51 54 1 0 0 
SMALL
USER_CHARGES


@<TRIPOS>ATOM
  1 O       -1.7980     1.8160    -1.0550 O.3   1 <1>  -0.0190 
  2 N       -1.9520     0.5690    -1.3700 N.2   1 <1>  -0.4100 
  3 C       -2.1140     2.0460     0.1890 C.2   1 <1>  -0.0400 
  4 C       -2.3970    -0.0230    -0.3160 C.2   1 <1>   0.1080 
  5 C       -2.5220     0.8870     0.7320 C.2   1 <1>  -0.1500 
  6 C       -1.9720     3.4520     0.7440 C.3   1 <1>   0.5230 
  7 C       -2.7370    -1.5080    -0.2220 C.3   1 <1>   0.1010 
  8 N       -0.5370     3.8900     0.7810 N.4   1 <1>  -0.9590 
  9 C       -1.4800    -2.3730    -0.4200 C.3   1 <1>  -0.1600 
 10 C       -3.8260    -1.8910    -1.2400 C.3   1 <1>  -0.1600 
 11 C        0.0310     4.0620    -0.5910 C.3   1 <1>   0.4860 
 12 C        0.3070     2.9510     1.5900 C.3   1 <1>   0.2630 
 13 C       -1.8100    -3.8710    -0.3510 C.3   1 <1>  -0.1600 
 14 C       -4.1600    -3.3880    -1.1720 C.3   1 <1>  -0.1600 
 15 C        1.3240     4.8420    -0.4730 C.ar  1 <1>  -0.1440 
 16 C       -2.9010    -4.2450    -1.3630 C.3   1 <1>  -0.1600 
 17 C        1.2980     6.2380    -0.2370 C.ar  1 <1>   0.0000 
 18 C        2.5200     4.1780    -0.5820 C.ar  1 <1>  -0.1500 
 19 C        2.5150     6.9190    -0.0550 C.ar  1 <1>   0.0000 
 20 C        0.1400     7.0440    -0.1710 C.ar  1 <1>  -0.1500 
 21 C        3.7280     4.8630    -0.4280 C.ar  1 <1>  -0.1500 
 22 C        2.4720     8.3040     0.2240 C.ar  1 <1>   0.1600 
 23 C        3.7220     6.2030    -0.1630 C.ar  1 <1>  -0.1500 
 24 C        0.2340     8.3800     0.0960 C.ar  1 <1>   0.1600 
 25 N        1.3930     9.0200     0.3090 N.ar  1 <1>  -0.6200 
 26 H       -2.8700     0.6570     1.7240 H     1 <1>   0.1500 
 27 H       -2.3790     3.4710     1.7410 H     1 <1>   0.0800 
 28 H       -2.5490     4.1290     0.1360 H     1 <1>   0.0800 
 29 H       -3.1230    -1.7020     0.7630 H     1 <1>   0.0800 
 30 H       -0.4810     4.8160     1.2250 H     1 <1>   0.4500 
 31 H       -0.7520    -2.1300     0.3340 H     1 <1>   0.0800 
 32 H       -1.0470    -2.1520    -1.3800 H     1 <1>   0.0800 
 33 H       -3.4840    -1.6520    -2.2330 H     1 <1>   0.0800 
 34 H       -4.7150    -1.3150    -1.0520 H     1 <1>   0.0800 
 35 H       -0.6570     4.5990    -1.2240 H     1 <1>   0.0800 
 36 H        0.2210     3.1000    -1.0400 H     1 <1>   0.0800 
 37 H        0.3340     1.9770     1.1280 H     1 <1>   0.0800 
 38 H       -0.0900     2.8500     2.5870 H     1 <1>   0.0800 
 39 H        1.3170     3.3240     1.6620 H     1 <1>   0.0800 
 40 H       -2.1440    -4.1210     0.6420 H     1 <1>   0.0800 
 41 H       -0.9220    -4.4450    -0.5530 H     1 <1>   0.0800 
 42 H       -4.8780    -3.6320    -1.9360 H     1 <1>   0.0800 
 43 H       -4.6040    -3.6150    -0.2180 H     1 <1>   0.0800 
 44 H       -3.1530    -5.2860    -1.2540 H     1 <1>   0.0800 
 45 H       -2.5230    -4.1020    -2.3610 H     1 <1>   0.0800 
 46 H        2.5670     3.1200    -0.7840 H     1 <1>   0.1500 
 47 H       -0.8290     6.6220    -0.3440 H     1 <1>   0.1500 
 48 H        4.6570     4.3240    -0.5190 H     1 <1>   0.1500 
 49 H        3.4140     8.8030     0.3780 H     1 <1>   0.1500 
 50 H        4.6510     6.7340    -0.0380 H     1 <1>   0.1500 
 51 H       -0.6520     8.9930     0.1430 H     1 <1>   0.1500 
@<TRIPOS>BOND
  1   1   2  1   
  2   1   3  1   
  3   2   4  2   
  4   3   5  2   
  5   3   6  1   
  6   4   5  1   
  7   4   7  1   
  8   5  26  1   
  9   6   8  1   
 10   6  27  1   
 11   6  28  1   
 12   7   9  1   
 13   7  10  1   
 14   7  29  1   
 15   8  11  1   
 16   8  12  1   
 17   8  30  1   
 18   9  13  1   
 19   9  31  1   
 20   9  32  1   
 21  10  14  1   
 22  10  33  1   
 23  10  34  1   
 24  11  15  1   
 25  11  35  1   
 26  11  36  1   
 27  12  37  1   
 28  12  38  1   
 29  12  39  1   
 30  13  16  1   
 31  13  40  1   
 32  13  41  1   
 33  14  16  1   
 34  14  42  1   
 35  14  43  1   
 36  15  17  ar  
 37  15  18  ar  
 38  16  44  1   
 39  16  45  1   
 40  17  19  ar  
 41  17  20  ar  
 42  18  21  ar  
 43  18  46  1   
 44  19  22  ar  
 45  19  23  ar  
 46  20  24  ar  
 47  20  47  1   
 48  21  23  ar  
 49  21  48  1   
 50  22  25  ar  
 51  22  49  1   
 52  23  50  1   
 53  24  25  ar  
 54  24  51  1   
@<TRIPOS>SUBSTRUCTURE
  1 ****  11 GROUP 4 **** **** 0

# MOE 2024.06 (io_trps.svl 2023.06)
