@<TRIPOS>MOLECULE
NONAME
51 53 1 0 0 
SMALL
USER_CHARGES


@<TRIPOS>ATOM
  1 F        0.1970     0.9730    -0.2170 F     1 <1>  -0.1900 
  2 C        0.0630     2.2580    -0.0270 C.ar  1 <1>   0.1900 
  3 C        0.3650     3.1200    -1.0630 C.ar  1 <1>  -0.1500 
  4 C       -0.3780     2.7070     1.2030 C.ar  1 <1>  -0.1500 
  5 C        0.2190     4.4810    -0.8530 C.ar  1 <1>  -0.1500 
  6 C       -0.5190     4.0710     1.3990 C.ar  1 <1>  -0.1500 
  7 C       -0.2220     4.9620     0.3740 C.ar  1 <1>  -0.1430 
  8 C       -0.3750     6.4630     0.5920 C.3   1 <1>   0.2540 
  9 N       -1.2240     7.0710    -0.4570 N.3   1 <1>  -0.8100 
 10 C       -1.1810     8.5700    -0.3910 C.3   1 <1>   0.2510 
 11 C       -2.6100     6.5550    -0.3610 C.3   1 <1>   0.1100 
 12 C       -2.3850     9.2990    -1.0480 C.2   1 <1>   0.5690 
 13 C        0.1280     9.0660    -1.0330 C.3   1 <1>  -0.0990 
 14 C       -3.5160     7.1150    -1.4700 C.3   1 <1>   0.1400 
 15 O       -2.3760    10.5030    -1.1600 O.2   1 <1>  -0.5700 
 16 N       -3.4450     8.5940    -1.5080 N.am  1 <1>  -0.7300 
 17 C        0.7000    10.2100    -0.2290 C.2   1 <1>   0.5690 
 18 O        1.6190     9.9700     0.5150 O.2   1 <1>  -0.5700 
 19 N        0.1350    11.4460    -0.3590 N.am  1 <1>  -0.4940 
 20 C        0.4220    12.6630     0.3070 C.2   1 <1>  -0.0880 
 21 N        1.6380    13.1620     0.6760 N.pl3 1 <1>   0.3140 
 22 C       -0.4990    13.5730     0.6970 C.2   1 <1>  -0.1500 
 23 N        1.4970    14.3580     1.3070 N.2   1 <1>  -0.7070 
 24 C        2.9750    12.5740     0.4070 C.3   1 <1>   0.0960 
 25 C        0.2220    14.5870     1.3090 C.2   1 <1>   0.1390 
 26 C        4.0540    13.6340     0.1230 C.3   1 <1>  -0.1600 
 27 C        5.3940    12.9830    -0.2400 C.3   1 <1>  -0.2400 
 28 H        0.7040     2.7340    -2.0070 H     1 <1>   0.1500 
 29 H       -0.6010     2.0030     1.9840 H     1 <1>   0.1500 
 30 H        0.4440     5.1730    -1.6470 H     1 <1>   0.1500 
 31 H       -0.8590     4.4330     2.3540 H     1 <1>   0.1500 
 32 H        0.6080     6.9000     0.5800 H     1 <1>   0.0800 
 33 H       -0.8030     6.6550     1.5620 H     1 <1>   0.0800 
 34 H       -1.1920     8.8540     0.6490 H     1 <1>   0.0800 
 35 H       -3.0290     6.8080     0.5980 H     1 <1>   0.0800 
 36 H       -2.6060     5.4820    -0.4460 H     1 <1>   0.0800 
 37 H       -0.0480     9.3900    -2.0420 H     1 <1>   0.0800 
 38 H        0.8640     8.2860    -1.0750 H     1 <1>   0.0800 
 39 H       -4.5320     6.8080    -1.2900 H     1 <1>   0.0800 
 40 H       -3.2040     6.7170    -2.4210 H     1 <1>   0.0800 
 41 H       -4.1890     9.1060    -1.9870 H     1 <1>   0.3700 
 42 H       -0.7680    11.4410    -0.8570 H     1 <1>   0.3700 
 43 H       -1.5660    13.5370     0.5770 H     1 <1>   0.1500 
 44 H        2.8920    11.9280    -0.4460 H     1 <1>   0.0800 
 45 H        3.2540    11.9810     1.2580 H     1 <1>   0.0800 
 46 H       -0.2180    15.4700     1.7410 H     1 <1>   0.1500 
 47 H        4.1870    14.2510     0.9960 H     1 <1>   0.0800 
 48 H        3.7310    14.2610    -0.6900 H     1 <1>   0.0800 
 49 H        5.7410    12.3630     0.5690 H     1 <1>   0.0800 
 50 H        6.1320    13.7430    -0.4280 H     1 <1>   0.0800 
 51 H        5.2930    12.3770    -1.1230 H     1 <1>   0.0800 
@<TRIPOS>BOND
  1   1   2  1   
  2   2   3  ar  
  3   2   4  ar  
  4   3   5  ar  
  5   3  28  1   
  6   4   6  ar  
  7   4  29  1   
  8   5   7  ar  
  9   5  30  1   
 10   6   7  ar  
 11   6  31  1   
 12   7   8  1   
 13   8   9  1   
 14   8  32  1   
 15   8  33  1   
 16   9  10  1   
 17   9  11  1   
 18  10  12  1   
 19  10  13  1   
 20  10  34  1   
 21  11  14  1   
 22  11  35  1   
 23  11  36  1   
 24  12  15  2   
 25  12  16  am  
 26  13  17  1   
 27  13  37  1   
 28  13  38  1   
 29  14  16  1   
 30  14  39  1   
 31  14  40  1   
 32  16  41  1   
 33  17  18  2   
 34  17  19  am  
 35  19  20  1   
 36  19  42  1   
 37  20  21  1   
 38  20  22  2   
 39  21  23  1   
 40  21  24  1   
 41  22  25  1   
 42  22  43  1   
 43  23  25  2   
 44  24  26  1   
 45  24  44  1   
 46  24  45  1   
 47  25  46  1   
 48  26  27  1   
 49  26  47  1   
 50  26  48  1   
 51  27  49  1   
 52  27  50  1   
 53  27  51  1   
@<TRIPOS>SUBSTRUCTURE
  1 ****  13 GROUP 4 **** **** 0

# MOE 2024.06 (io_trps.svl 2023.06)
