@<TRIPOS>MOLECULE
NONAME
48 50 1 0 0 
SMALL
USER_CHARGES


@<TRIPOS>ATOM
  1 S       -0.2330     0.2770    -0.5200 S.o2  1 <1>   1.3330 
  2 O       -1.6580     0.0880    -0.3850 O.2   1 <1>  -0.6500 
  3 O        0.4150     0.0600    -1.7930 O.2   1 <1>  -0.6500 
  4 N        0.1430     1.8470    -0.0040 N.am  1 <1>  -0.8490 
  5 C        0.5680    -0.7260     0.7120 C.3   1 <1>  -0.1350 
  6 C        1.3830     2.3670    -0.6050 C.3   1 <1>   0.1960 
  7 C       -0.9560     2.7920    -0.2620 C.3   1 <1>   0.1960 
  8 C        1.6970     3.7920    -0.1060 C.3   1 <1>   0.2000 
  9 C       -0.5970     4.2110     0.2180 C.3   1 <1>   0.1200 
 10 O        0.6040     4.6460    -0.3580 O.3   1 <1>  -0.5600 
 11 C        2.9530     4.3660    -0.7860 C.3   1 <1>   0.2090 
 12 N        3.0230     5.8330    -0.5520 N.pl3 1 <1>  -0.8690 
 13 C        4.0720     6.6730    -0.4560 C.ar  1 <1>   0.1000 
 14 C        3.8650     8.0600    -0.1810 C.ar  1 <1>   0.0000 
 15 C        5.3830     6.2290    -0.6260 C.ar  1 <1>  -0.1500 
 16 C        4.9810     8.9120    -0.0890 C.ar  1 <1>   0.3610 
 17 C        2.5940     8.6360     0.0070 C.ar  1 <1>  -0.1500 
 18 C        6.4510     7.0840    -0.5300 C.ar  1 <1>   0.2180 
 19 N        6.2420     8.3870    -0.2670 N.ar  1 <1>  -0.1790 
 20 C        4.8030    10.2780     0.1800 C.ar  1 <1>  -0.1500 
 21 C        2.4400     9.9730     0.2690 C.ar  1 <1>  -0.1500 
 22 C        7.8800     6.6020    -0.7150 C.3   1 <1>  -0.0970 
 23 C        3.5480    10.8250     0.3610 C.ar  1 <1>  -0.1440 
 24 C        3.3230    12.3210     0.6580 C.3   1 <1>   1.1630 
 25 F        2.6790    12.5120     1.7990 F     1 <1>  -0.3400 
 26 F        2.6110    12.9150    -0.2880 F     1 <1>  -0.3400 
 27 F        4.4630    12.9960     0.7510 F     1 <1>  -0.3400 
 28 H        0.3920    -1.7640     0.5080 H     1 <1>   0.0800 
 29 H        0.1780    -0.4950     1.6840 H     1 <1>   0.0800 
 30 H        1.6250    -0.5480     0.7090 H     1 <1>   0.0800 
 31 H        1.2890     2.3890    -1.6790 H     1 <1>   0.0800 
 32 H        2.2020     1.7130    -0.3570 H     1 <1>   0.0800 
 33 H       -1.8420     2.4700     0.2590 H     1 <1>   0.0800 
 34 H       -1.1830     2.8170    -1.3150 H     1 <1>   0.0800 
 35 H        1.8600     3.7680     0.9570 H     1 <1>   0.0800 
 36 H       -0.4920     4.2280     1.2890 H     1 <1>   0.0800 
 37 H       -1.3690     4.9030    -0.0650 H     1 <1>   0.0800 
 38 H        2.8990     4.1850    -1.8460 H     1 <1>   0.0800 
 39 H        3.8270     3.8750    -0.3970 H     1 <1>   0.0800 
 40 H        2.0540     6.1830    -0.4630 H     1 <1>   0.4000 
 41 H        5.5520     5.1910    -0.8420 H     1 <1>   0.1500 
 42 H        1.7180     8.0140    -0.0560 H     1 <1>   0.1500 
 43 H        7.0370     9.0250    -0.1960 H     1 <1>   0.4570 
 44 H        5.6740    10.9080     0.2450 H     1 <1>   0.1500 
 45 H        1.4480    10.3770     0.4070 H     1 <1>   0.1500 
 46 H        7.9010     5.5450    -0.9170 H     1 <1>   0.0800 
 47 H        8.4570     6.7820     0.1760 H     1 <1>   0.0800 
 48 H        8.3450     7.1080    -1.5430 H     1 <1>   0.0800 
@<TRIPOS>BOND
  1   1   2  2   
  2   1   3  2   
  3   1   4  am  
  4   1   5  1   
  5   4   6  1   
  6   4   7  1   
  7   5  28  1   
  8   5  29  1   
  9   5  30  1   
 10   6   8  1   
 11   6  31  1   
 12   6  32  1   
 13   7   9  1   
 14   7  33  1   
 15   7  34  1   
 16   8  10  1   
 17   8  11  1   
 18   8  35  1   
 19   9  10  1   
 20   9  36  1   
 21   9  37  1   
 22  11  12  1   
 23  11  38  1   
 24  11  39  1   
 25  12  13  1   
 26  12  40  1   
 27  13  14  ar  
 28  13  15  ar  
 29  14  16  ar  
 30  14  17  ar  
 31  15  18  ar  
 32  15  41  1   
 33  16  19  ar  
 34  16  20  ar  
 35  17  21  ar  
 36  17  42  1   
 37  18  19  ar  
 38  18  22  1   
 39  19  43  1   
 40  20  23  ar  
 41  20  44  1   
 42  21  23  ar  
 43  21  45  1   
 44  22  46  1   
 45  22  47  1   
 46  22  48  1   
 47  23  24  1   
 48  24  25  1   
 49  24  26  1   
 50  24  27  1   
@<TRIPOS>SUBSTRUCTURE
  1 ****  12 GROUP 4 **** **** 0

# MOE 2024.06 (io_trps.svl 2023.06)
