@<TRIPOS>MOLECULE
NONAME
54 56 1 0 0 
SMALL
USER_CHARGES


@<TRIPOS>ATOM
  1 O       -1.3160     1.3760    -1.4330 O.3   1 <1>  -0.0190 
  2 N       -1.4630     0.1450    -1.8190 N.2   1 <1>  -0.4100 
  3 C       -1.4420     1.3160    -0.1310 C.2   1 <1>   0.2980 
  4 C       -1.6700    -0.5570    -0.7750 C.2   1 <1>   0.3350 
  5 N       -1.6500     0.1550     0.3490 N.2   1 <1>  -0.5650 
  6 C       -1.3230     2.6050     0.6740 C.3   1 <1>   0.2900 
  7 C       -1.8940    -2.0670    -0.7740 C.3   1 <1>   0.3010 
  8 N        0.0390     3.2030     0.6140 N.3   1 <1>  -0.8100 
  9 O       -3.2400    -2.3800    -0.5350 O.3   1 <1>  -0.5600 
 10 C        0.0560     4.5540     1.1930 C.3   1 <1>   0.1100 
 11 C        1.0470     2.3310     1.2360 C.3   1 <1>   0.1100 
 12 C       -3.5110    -3.7430    -0.5050 C.3   1 <1>   0.0400 
 13 C        1.4800     5.1350     1.1860 C.3   1 <1>  -0.1600 
 14 C        2.4520     2.8350     0.8740 C.3   1 <1>  -0.1600 
 15 C        2.4100     4.2670     0.3260 C.3   1 <1>   0.4230 
 16 N        3.7880     4.8210     0.1910 N.4   1 <1>  -0.9590 
 17 C        4.4670     5.1600     1.4920 C.3   1 <1>   0.3430 
 18 C        3.8050     6.0100    -0.7280 C.3   1 <1>   0.3430 
 19 C        5.8870     5.7170     1.2650 C.3   1 <1>   0.1100 
 20 C        5.2310     6.5640    -0.9260 C.3   1 <1>   0.1100 
 21 N        5.8730     6.8890     0.3670 N.3   1 <1>  -0.8100 
 22 C        7.2410     7.4260     0.1900 C.3   1 <1>   0.1100 
 23 C        7.2290     8.8560    -0.3630 C.3   1 <1>   0.1200 
 24 O        8.5330     9.3130    -0.4650 O.3   1 <1>  -0.6800 
 25 H       -1.5870     2.4010     1.6970 H     1 <1>   0.0800 
 26 H       -2.0380     3.3040     0.2770 H     1 <1>   0.0800 
 27 H       -1.2940    -2.5150    -0.0030 H     1 <1>   0.0800 
 28 H       -1.6170    -2.4690    -1.7320 H     1 <1>   0.0800 
 29 H       -0.3250     4.5300     2.2020 H     1 <1>   0.0800 
 30 H       -0.5920     5.1880     0.6080 H     1 <1>   0.0800 
 31 H        0.9400     1.3160     0.8870 H     1 <1>   0.0800 
 32 H        0.9120     2.3300     2.3050 H     1 <1>   0.0800 
 33 H       -4.5630    -3.8690    -0.3170 H     1 <1>   0.0800 
 34 H       -2.9460    -4.2020     0.2880 H     1 <1>   0.0800 
 35 H       -3.2590    -4.1790    -1.4560 H     1 <1>   0.0800 
 36 H        1.8270     5.1670     2.2020 H     1 <1>   0.0800 
 37 H        1.4340     6.1410     0.8120 H     1 <1>   0.0800 
 38 H        2.8590     2.1840     0.1210 H     1 <1>   0.0800 
 39 H        3.0650     2.7620     1.7520 H     1 <1>   0.0800 
 40 H        1.9660     4.2090    -0.6560 H     1 <1>   0.0800 
 41 H        4.3550     4.0970    -0.2640 H     1 <1>   0.4500 
 42 H        4.5280     4.2850     2.1170 H     1 <1>   0.0800 
 43 H        3.8950     5.9060     2.0170 H     1 <1>   0.0800 
 44 H        3.1940     6.7970    -0.3160 H     1 <1>   0.0800 
 45 H        3.3940     5.7390    -1.6870 H     1 <1>   0.0800 
 46 H        6.5190     4.9460     0.8580 H     1 <1>   0.0800 
 47 H        6.2950     6.0090     2.2190 H     1 <1>   0.0800 
 48 H        5.1630     7.4520    -1.5300 H     1 <1>   0.0800 
 49 H        5.8260     5.8460    -1.4650 H     1 <1>   0.0800 
 50 H        7.8050     6.7880    -0.4700 H     1 <1>   0.0800 
 51 H        7.7350     7.4490     1.1470 H     1 <1>   0.0800 
 52 H        6.6870     9.5200     0.2890 H     1 <1>   0.0800 
 53 H        6.8040     8.8860    -1.3500 H     1 <1>   0.0800 
 54 H        8.9070     9.5130     0.4150 H     1 <1>   0.4000 
@<TRIPOS>BOND
  1   1   2  1   
  2   1   3  1   
  3   2   4  2   
  4   3   5  2   
  5   3   6  1   
  6   4   5  1   
  7   4   7  1   
  8   6   8  1   
  9   6  25  1   
 10   6  26  1   
 11   7   9  1   
 12   7  27  1   
 13   7  28  1   
 14   8  10  1   
 15   8  11  1   
 16   9  12  1   
 17  10  13  1   
 18  10  29  1   
 19  10  30  1   
 20  11  14  1   
 21  11  31  1   
 22  11  32  1   
 23  12  33  1   
 24  12  34  1   
 25  12  35  1   
 26  13  15  1   
 27  13  36  1   
 28  13  37  1   
 29  14  15  1   
 30  14  38  1   
 31  14  39  1   
 32  15  16  1   
 33  15  40  1   
 34  16  17  1   
 35  16  18  1   
 36  16  41  1   
 37  17  19  1   
 38  17  42  1   
 39  17  43  1   
 40  18  20  1   
 41  18  44  1   
 42  18  45  1   
 43  19  21  1   
 44  19  46  1   
 45  19  47  1   
 46  20  21  1   
 47  20  48  1   
 48  20  49  1   
 49  21  22  1   
 50  22  23  1   
 51  22  50  1   
 52  22  51  1   
 53  23  24  1   
 54  23  52  1   
 55  23  53  1   
 56  24  54  1   
@<TRIPOS>SUBSTRUCTURE
  1 ****  15 GROUP 4 **** **** 0

# MOE 2024.06 (io_trps.svl 2023.06)
