@<TRIPOS>MOLECULE
NONAME
67 71 1 0 0 
SMALL
USER_CHARGES


@<TRIPOS>ATOM
  1 N        0.5840    -0.0630     0.0830 N.ar  1 <1>  -0.6200 
  2 C       -0.6650     0.3260     0.3510 C.ar  1 <1>   0.7200 
  3 C        1.4470     0.9070    -0.0820 C.ar  1 <1>   0.1660 
  4 N       -1.0890     1.5860     0.4760 N.ar  1 <1>  -0.6200 
  5 N       -1.5940    -0.6740     0.5260 N.pl3 1 <1>  -0.8380 
  6 C        1.1140     2.2220     0.0270 C.ar  1 <1>  -0.1440 
  7 C        2.9280     0.7170    -0.3570 C.3   1 <1>   0.1430 
  8 C       -0.1940     2.5290     0.3080 C.ar  1 <1>   0.1600 
  9 C       -2.8640    -0.4170     1.2600 C.3   1 <1>   0.1290 
 10 C       -1.6100    -1.8760    -0.3490 C.3   1 <1>   0.1290 
 11 C        2.3000     3.1280    -0.1720 C.3   1 <1>  -0.0160 
 12 C        3.5510     0.1860     0.9620 C.3   1 <1>   0.3430 
 13 C        3.2020    -0.2120    -1.5620 C.3   1 <1>  -0.1600 
 14 C        3.3950     2.1660    -0.6690 C.3   1 <1>  -0.1600 
 15 N        4.0010    -1.2690     0.9580 N.4   1 <1>  -0.9590 
 16 C        2.9160    -1.6990    -1.2660 C.3   1 <1>  -0.1600 
 17 C        5.4080    -1.5150     0.4840 C.3   1 <1>   0.4230 
 18 C        2.9550    -2.0630     0.2260 C.3   1 <1>   0.3430 
 19 C        5.7480    -3.0100     0.5830 C.3   1 <1>  -0.1600 
 20 C        6.4150    -0.7080     1.3180 C.3   1 <1>  -0.1600 
 21 C        7.2010    -3.2920     0.2000 C.3   1 <1>   0.3430 
 22 C        7.8620    -1.0230     0.9340 C.3   1 <1>   0.3430 
 23 N        8.1250    -2.4840     1.0470 N.4   1 <1>  -0.9590 
 24 C        9.5820    -2.7640     0.8070 C.3   1 <1>   0.4230 
 25 C        9.9900    -2.6650    -0.6650 C.3   1 <1>  -0.1600 
 26 C        9.9380    -4.1970     1.2000 C.3   1 <1>  -0.1600 
 27 C        9.9120    -4.0770    -1.2590 C.3   1 <1>  -0.1600 
 28 C        9.9060    -5.0500    -0.0750 C.3   1 <1>  -0.1600 
 29 H       -0.5100     3.5550     0.4010 H     1 <1>   0.1500 
 30 H       -2.7010     0.2980     2.0490 H     1 <1>   0.0800 
 31 H       -3.2310    -1.3290     1.6960 H     1 <1>   0.0800 
 32 H       -3.6010    -0.0230     0.5810 H     1 <1>   0.0800 
 33 H       -0.8280    -1.8260    -1.0860 H     1 <1>   0.0800 
 34 H       -2.5530    -1.9400    -0.8640 H     1 <1>   0.0800 
 35 H       -1.4740    -2.7600     0.2490 H     1 <1>   0.0800 
 36 H        2.5750     3.5810     0.7660 H     1 <1>   0.0800 
 37 H        2.0900     3.8970    -0.8970 H     1 <1>   0.0800 
 38 H        2.8010     0.3040     1.7280 H     1 <1>   0.0800 
 39 H        4.3680     0.8250     1.2420 H     1 <1>   0.0800 
 40 H        4.2310    -0.1060    -1.8550 H     1 <1>   0.0800 
 41 H        2.6030     0.1000    -2.4020 H     1 <1>   0.0800 
 42 H        3.4750     2.2960    -1.7350 H     1 <1>   0.0800 
 43 H        4.3510     2.4020    -0.2350 H     1 <1>   0.0800 
 44 H        3.9420    -1.5780     1.9380 H     1 <1>   0.4500 
 45 H        3.5990    -2.3190    -1.8180 H     1 <1>   0.0800 
 46 H        1.9290    -1.9380    -1.6240 H     1 <1>   0.0800 
 47 H        5.4920    -1.2110    -0.5480 H     1 <1>   0.0800 
 48 H        1.9890    -1.8490     0.6580 H     1 <1>   0.0800 
 49 H        3.1210    -3.1220     0.3400 H     1 <1>   0.0800 
 50 H        5.1350    -3.5780    -0.0930 H     1 <1>   0.0800 
 51 H        5.5740    -3.3730     1.5800 H     1 <1>   0.0800 
 52 H        6.2820    -0.9080     2.3670 H     1 <1>   0.0800 
 53 H        6.2760     0.3440     1.1550 H     1 <1>   0.0800 
 54 H        7.3580    -3.0530    -0.8400 H     1 <1>   0.0800 
 55 H        7.4060    -4.3430     0.3340 H     1 <1>   0.0800 
 56 H        8.5320    -0.4800     1.5830 H     1 <1>   0.0800 
 57 H        8.0480    -0.6990    -0.0790 H     1 <1>   0.0800 
 58 H        7.9710    -2.7610     2.0270 H     1 <1>   0.4500 
 59 H       10.1730    -2.0790     1.3960 H     1 <1>   0.0800 
 60 H       11.0220    -2.3580    -0.6940 H     1 <1>   0.0800 
 61 H        9.4210    -1.9500    -1.2310 H     1 <1>   0.0800 
 62 H        9.3100    -4.5960     1.9770 H     1 <1>   0.0800 
 63 H       10.9510    -4.1930     1.5660 H     1 <1>   0.0800 
 64 H       10.7560    -4.2640    -1.9030 H     1 <1>   0.0800 
 65 H        9.0160    -4.1990    -1.8440 H     1 <1>   0.0800 
 66 H        9.0260    -5.6690    -0.1040 H     1 <1>   0.0800 
 67 H       10.7670    -5.6980    -0.1130 H     1 <1>   0.0800 
@<TRIPOS>BOND
  1   1   2  ar  
  2   1   3  ar  
  3   2   4  ar  
  4   2   5  1   
  5   3   6  ar  
  6   3   7  1   
  7   4   8  ar  
  8   5   9  1   
  9   5  10  1   
 10   6   8  ar  
 11   6  11  1   
 12   7  12  1   
 13   7  13  1   
 14   7  14  1   
 15   8  29  1   
 16   9  30  1   
 17   9  31  1   
 18   9  32  1   
 19  10  33  1   
 20  10  34  1   
 21  10  35  1   
 22  11  14  1   
 23  11  36  1   
 24  11  37  1   
 25  12  15  1   
 26  12  38  1   
 27  12  39  1   
 28  13  16  1   
 29  13  40  1   
 30  13  41  1   
 31  14  42  1   
 32  14  43  1   
 33  15  17  1   
 34  15  18  1   
 35  15  44  1   
 36  16  18  1   
 37  16  45  1   
 38  16  46  1   
 39  17  19  1   
 40  17  20  1   
 41  17  47  1   
 42  18  48  1   
 43  18  49  1   
 44  19  21  1   
 45  19  50  1   
 46  19  51  1   
 47  20  22  1   
 48  20  52  1   
 49  20  53  1   
 50  21  23  1   
 51  21  54  1   
 52  21  55  1   
 53  22  23  1   
 54  22  56  1   
 55  22  57  1   
 56  23  24  1   
 57  23  58  1   
 58  24  25  1   
 59  24  26  1   
 60  24  59  1   
 61  25  27  1   
 62  25  60  1   
 63  25  61  1   
 64  26  28  1   
 65  26  62  1   
 66  26  63  1   
 67  27  28  1   
 68  27  64  1   
 69  27  65  1   
 70  28  66  1   
 71  28  67  1   
@<TRIPOS>SUBSTRUCTURE
  1 ****  15 GROUP 4 **** **** 0

# MOE 2024.06 (io_trps.svl 2023.06)
