@<TRIPOS>MOLECULE
NONAME
49 51 1 0 0 
SMALL
USER_CHARGES


@<TRIPOS>ATOM
  1 O       -1.0370    -0.7770    -0.0340 O.3   1 <1>  -0.3630 
  2 C       -1.7680     0.2910     0.4080 C.ar  1 <1>   0.0830 
  3 C        0.3770    -0.7380     0.0030 C.3   1 <1>   0.0400 
  4 C       -1.4250     1.6330     0.1730 C.ar  1 <1>   0.0830 
  5 C       -2.9280    -0.0110     1.1150 C.ar  1 <1>  -0.1440 
  6 O       -0.3250     1.9230    -0.5790 O.3   1 <1>  -0.3620 
  7 C       -2.2340     2.6390     0.6950 C.ar  1 <1>  -0.1500 
  8 C       -3.7240     1.0060     1.6200 C.ar  1 <1>  -0.1500 
  9 C       -3.3360    -1.4550     1.3320 C.3   1 <1>   0.4860 
 10 C        0.0470     3.2490    -0.8920 C.3   1 <1>   0.0400 
 11 C       -3.3730     2.3260     1.4140 C.ar  1 <1>  -0.1500 
 12 N       -3.5390    -2.0860     0.0030 N.4   1 <1>  -0.9590 
 13 C       -4.7180    -1.4910    -0.6980 C.3   1 <1>   0.3430 
 14 C       -3.7800    -3.5530     0.1210 C.3   1 <1>   0.3430 
 15 C       -5.8620    -2.4840    -0.4770 C.3   1 <1>   0.2000 
 16 C       -5.1370    -3.8290    -0.5380 C.3   1 <1>  -0.0800 
 17 O       -6.3780    -2.2810     0.8010 O.3   1 <1>  -0.6800 
 18 C       -5.8720    -5.0330     0.0810 C.3   1 <1>  -0.0170 
 19 C       -4.9740    -6.2590     0.0620 C.ar  1 <1>  -0.1430 
 20 C       -4.6800    -6.9290    -1.1090 C.ar  1 <1>  -0.1500 
 21 C       -4.4010    -6.7630     1.2130 C.ar  1 <1>  -0.1500 
 22 C       -3.8360    -8.0260    -1.0770 C.ar  1 <1>   0.1600 
 23 C       -3.5710    -7.8690     1.1370 C.ar  1 <1>   0.1600 
 24 N       -3.2670    -8.5030     0.0170 N.ar  1 <1>  -0.6200 
 25 H        0.7450    -1.7470     0.0510 H     1 <1>   0.0800 
 26 H        0.6960    -0.1880     0.8720 H     1 <1>   0.0800 
 27 H        0.7380    -0.2660    -0.8940 H     1 <1>   0.0800 
 28 H       -2.0020     3.6770     0.5520 H     1 <1>   0.1500 
 29 H       -4.6200     0.7840     2.1770 H     1 <1>   0.1500 
 30 H       -4.2440    -1.5060     1.9110 H     1 <1>   0.0800 
 31 H       -2.5510    -1.9640     1.8660 H     1 <1>   0.0800 
 32 H        0.9300     3.2130    -1.5040 H     1 <1>   0.0800 
 33 H        0.2590     3.7780     0.0210 H     1 <1>   0.0800 
 34 H       -0.7530     3.7190    -1.4360 H     1 <1>   0.0800 
 35 H       -3.9890     3.1160     1.8130 H     1 <1>   0.1500 
 36 H       -2.6680    -1.8690    -0.5140 H     1 <1>   0.4500 
 37 H       -4.9690    -0.5120    -0.3260 H     1 <1>   0.0800 
 38 H       -4.5080    -1.4230    -1.7530 H     1 <1>   0.0800 
 39 H       -2.9990    -4.1210    -0.3620 H     1 <1>   0.0800 
 40 H       -3.8240    -3.8360     1.1600 H     1 <1>   0.0800 
 41 H       -6.6530    -2.3740    -1.2010 H     1 <1>   0.0800 
 42 H       -4.9440    -4.0530    -1.5720 H     1 <1>   0.0800 
 43 H       -7.2650    -2.6890     0.8930 H     1 <1>   0.4000 
 44 H       -6.7700    -5.2400    -0.4750 H     1 <1>   0.0800 
 45 H       -6.1580    -4.8250     1.0980 H     1 <1>   0.0800 
 46 H       -5.0980    -6.6170    -2.0490 H     1 <1>   0.1500 
 47 H       -4.5910    -6.3170     2.1730 H     1 <1>   0.1500 
 48 H       -3.6150    -8.5390    -1.9980 H     1 <1>   0.1500 
 49 H       -3.1330    -8.2530     2.0430 H     1 <1>   0.1500 
@<TRIPOS>BOND
  1   1   2  1   
  2   1   3  1   
  3   2   4  ar  
  4   2   5  ar  
  5   3  25  1   
  6   3  26  1   
  7   3  27  1   
  8   4   6  1   
  9   4   7  ar  
 10   5   8  ar  
 11   5   9  1   
 12   6  10  1   
 13   7  11  ar  
 14   7  28  1   
 15   8  11  ar  
 16   8  29  1   
 17   9  12  1   
 18   9  30  1   
 19   9  31  1   
 20  10  32  1   
 21  10  33  1   
 22  10  34  1   
 23  11  35  1   
 24  12  13  1   
 25  12  14  1   
 26  12  36  1   
 27  13  15  1   
 28  13  37  1   
 29  13  38  1   
 30  14  16  1   
 31  14  39  1   
 32  14  40  1   
 33  15  16  1   
 34  15  17  1   
 35  15  41  1   
 36  16  18  1   
 37  16  42  1   
 38  17  43  1   
 39  18  19  1   
 40  18  44  1   
 41  18  45  1   
 42  19  20  ar  
 43  19  21  ar  
 44  20  22  ar  
 45  20  46  1   
 46  21  23  ar  
 47  21  47  1   
 48  22  24  ar  
 49  22  48  1   
 50  23  24  ar  
 51  23  49  1   
@<TRIPOS>SUBSTRUCTURE
  1 ****  12 GROUP 4 **** **** 0

# MOE 2024.06 (io_trps.svl 2023.06)
