@<TRIPOS>MOLECULE
NONAME
43 45 1 0 0 
SMALL
USER_CHARGES


@<TRIPOS>ATOM
  1 CL      -2.2130     2.9890     2.0320 Cl    1 <1>  -0.1770 
  2 C       -0.8660     2.9280     0.9180 C.ar  1 <1>   0.1770 
  3 C       -1.0400     2.4250    -0.3640 C.ar  1 <1>  -0.1440 
  4 C        0.3600     3.4010     1.3590 C.ar  1 <1>  -0.1500 
  5 C        0.0780     2.4210    -1.1870 C.ar  1 <1>   0.1900 
  6 C       -2.3970     1.8910    -0.8270 C.3   1 <1>   0.0450 
  7 C        1.4560     3.3810     0.5110 C.ar  1 <1>  -0.1500 
  8 F       -0.0200     1.9690    -2.4090 F     1 <1>  -0.1900 
  9 C        1.3150     2.8860    -0.7750 C.ar  1 <1>  -0.1500 
 10 C       -2.7340     0.5310    -0.2170 C.2   1 <1>   0.5690 
 11 O       -1.8190    -0.2410    -0.0460 O.2   1 <1>  -0.5700 
 12 N       -4.0260     0.1850     0.1180 N.am  1 <1>  -0.6600 
 13 C       -5.2240     0.9830    -0.2830 C.3   1 <1>   0.2200 
 14 C       -4.2540    -1.0510     0.9320 C.3   1 <1>   0.0600 
 15 C       -6.4330     0.1590    -0.7240 C.3   1 <1>  -0.1600 
 16 C       -5.7510     1.8400     0.8610 C.3   1 <1>  -0.1600 
 17 C       -7.6120     1.1350    -0.6110 C.3   1 <1>  -0.0800 
 18 C       -7.1990     2.1680     0.4690 C.3   1 <1>  -0.0800 
 19 C       -8.9620     0.4220    -0.3830 C.3   1 <1>   0.1400 
 20 C       -8.1510     2.2290     1.6790 C.3   1 <1>  -0.0990 
 21 N       -9.9250     1.3560     0.2350 N.am  1 <1>  -0.7300 
 22 C       -9.5920     2.2170     1.2190 C.2   1 <1>   0.5690 
 23 O      -10.4070     2.9460     1.7220 O.2   1 <1>  -0.5700 
 24 H        0.4510     3.7810     2.3610 H     1 <1>   0.1500 
 25 H       -2.4220     1.7880    -1.8950 H     1 <1>   0.0800 
 26 H       -3.1370     2.6170    -0.5560 H     1 <1>   0.0800 
 27 H        2.4110     3.7460     0.8500 H     1 <1>   0.1500 
 28 H        2.1490     2.8580    -1.4530 H     1 <1>   0.1500 
 29 H       -4.9760     1.6280    -1.1080 H     1 <1>   0.0800 
 30 H       -5.0200    -0.8830     1.6670 H     1 <1>   0.0800 
 31 H       -3.3540    -1.3350     1.4510 H     1 <1>   0.0800 
 32 H       -4.5450    -1.8600     0.2870 H     1 <1>   0.0800 
 33 H       -6.3140    -0.2080    -1.7280 H     1 <1>   0.0800 
 34 H       -6.6010    -0.6660    -0.0570 H     1 <1>   0.0800 
 35 H       -5.7330     1.2760     1.7760 H     1 <1>   0.0800 
 36 H       -5.1670     2.7340     0.9880 H     1 <1>   0.0800 
 37 H       -7.6860     1.6650    -1.5460 H     1 <1>   0.0800 
 38 H       -7.2120     3.1380     0.0000 H     1 <1>   0.0800 
 39 H       -8.8360    -0.4170     0.2810 H     1 <1>   0.0800 
 40 H       -9.3510     0.0610    -1.3190 H     1 <1>   0.0800 
 41 H       -7.9650     3.1190     2.2540 H     1 <1>   0.0800 
 42 H       -8.0070     1.3780     2.3180 H     1 <1>   0.0800 
 43 H      -10.9070     1.3190    -0.0480 H     1 <1>   0.3700 
@<TRIPOS>BOND
  1   1   2  1   
  2   2   3  ar  
  3   2   4  ar  
  4   3   5  ar  
  5   3   6  1   
  6   4   7  ar  
  7   4  24  1   
  8   5   8  1   
  9   5   9  ar  
 10   6  10  1   
 11   6  25  1   
 12   6  26  1   
 13   7   9  ar  
 14   7  27  1   
 15   9  28  1   
 16  10  11  2   
 17  10  12  am  
 18  12  13  1   
 19  12  14  1   
 20  13  15  1   
 21  13  16  1   
 22  13  29  1   
 23  14  30  1   
 24  14  31  1   
 25  14  32  1   
 26  15  17  1   
 27  15  33  1   
 28  15  34  1   
 29  16  18  1   
 30  16  35  1   
 31  16  36  1   
 32  17  18  1   
 33  17  19  1   
 34  17  37  1   
 35  18  20  1   
 36  18  38  1   
 37  19  21  1   
 38  19  39  1   
 39  19  40  1   
 40  20  22  1   
 41  20  41  1   
 42  20  42  1   
 43  21  22  am  
 44  21  43  1   
 45  22  23  2   
@<TRIPOS>SUBSTRUCTURE
  1 ****  13 GROUP 4 **** **** 0

# MOE 2024.06 (io_trps.svl 2023.06)
