@<TRIPOS>MOLECULE
NONAME
51 53 1 0 0 
SMALL
USER_CHARGES


@<TRIPOS>ATOM
  1 O       -0.5540    -0.0890    -0.3280 O.2   1 <1>  -0.5700 
  2 C       -1.4560     0.6550     0.0320 C.2   1 <1>   0.7160 
  3 N       -2.6740     0.0800     0.3570 N.am  1 <1>  -0.6600 
  4 C       -1.2070     2.0960     0.1200 C.2   1 <1>   0.2030 
  5 C       -3.0460    -1.3090    -0.0510 C.3   1 <1>   0.1400 
  6 C       -3.7810     0.8030     1.0410 C.3   1 <1>   0.1400 
  7 N       -2.0120     3.0530    -0.3160 N.2   1 <1>  -0.7070 
  8 C       -0.0510     2.6710     0.6830 C.2   1 <1>  -0.1810 
  9 C       -4.2550    -1.2490    -0.9960 C.3   1 <1>   0.2000 
 10 C       -5.0050     0.8630     0.1170 C.3   1 <1>  -0.1600 
 11 N       -1.3880     4.2010    -0.0380 N.pl3 1 <1>   0.3000 
 12 C       -0.2010     4.0070     0.5670 C.2   1 <1>  -0.3320 
 13 C        1.1100     1.8950     1.2860 C.3   1 <1>  -0.0590 
 14 O       -4.5910    -2.5330    -1.3930 O.3   1 <1>  -0.6800 
 15 C       -5.4770    -0.5490    -0.3440 C.3   1 <1>  -0.1060 
 16 C        0.7000     5.1560     0.9870 C.3   1 <1>   0.0200 
 17 C       -5.9740    -1.4050     0.8390 C.2   1 <1>   0.9060 
 18 C       -6.6090    -0.4220    -1.4000 C.3   1 <1>  -0.0170 
 19 C        1.3000     5.8400    -0.2420 C.3   1 <1>  -0.2400 
 20 O       -6.1900    -0.8990     1.9460 O.co2 1 <1>  -0.9000 
 21 O       -6.1420    -2.6220     0.6590 O.co2 1 <1>  -0.9000 
 22 C       -7.6950     0.6010    -1.0720 C.ar  1 <1>  -0.1440 
 23 C       -7.8050     1.7680    -1.8150 C.ar  1 <1>  -0.1500 
 24 C       -8.5820     0.3800    -0.0300 C.ar  1 <1>  -0.1500 
 25 C       -8.7870     2.6990    -1.5220 C.ar  1 <1>  -0.1500 
 26 C       -9.5630     1.3100     0.2670 C.ar  1 <1>  -0.1500 
 27 C       -9.6670     2.4700    -0.4790 C.ar  1 <1>  -0.1500 
 28 H       -2.2280    -1.7890    -0.5580 H     1 <1>   0.0800 
 29 H       -3.2920    -1.8810     0.8270 H     1 <1>   0.0800 
 30 H       -4.0310     0.2790     1.9490 H     1 <1>   0.0800 
 31 H       -3.4870     1.7980     1.3200 H     1 <1>   0.0800 
 32 H       -3.9550    -0.7190    -1.8830 H     1 <1>   0.0800 
 33 H       -5.7990     1.3530     0.6530 H     1 <1>   0.0800 
 34 H       -4.7620     1.4730    -0.7340 H     1 <1>   0.0800 
 35 H       -1.7920     5.1140    -0.2760 H     1 <1>   0.2700 
 36 H        0.7460     1.2240     2.0430 H     1 <1>   0.0800 
 37 H        1.8330     2.5530     1.7270 H     1 <1>   0.0800 
 38 H        1.5950     1.3180     0.5190 H     1 <1>   0.0800 
 39 H       -5.2010    -2.8840    -0.6720 H     1 <1>   0.4000 
 40 H        0.1360     5.8680     1.5650 H     1 <1>   0.0800 
 41 H        1.4970     4.7920     1.6100 H     1 <1>   0.0800 
 42 H       -6.1730    -0.1600    -2.3460 H     1 <1>   0.0800 
 43 H       -7.0750    -1.3830    -1.5360 H     1 <1>   0.0800 
 44 H        0.5270     6.2590    -0.8600 H     1 <1>   0.0800 
 45 H        1.8560     5.1250    -0.8230 H     1 <1>   0.0800 
 46 H        1.9650     6.6280     0.0620 H     1 <1>   0.0800 
 47 H       -7.1210     1.9560    -2.6230 H     1 <1>   0.1500 
 48 H       -8.5050    -0.5180     0.5630 H     1 <1>   0.1500 
 49 H       -8.8640     3.5990    -2.1040 H     1 <1>   0.1500 
 50 H      -10.2370     1.1240     1.0840 H     1 <1>   0.1500 
 51 H      -10.4290     3.1920    -0.2460 H     1 <1>   0.1500 
@<TRIPOS>BOND
  1   1   2  2   
  2   2   3  am  
  3   2   4  1   
  4   3   5  1   
  5   3   6  1   
  6   4   7  2   
  7   4   8  1   
  8   5   9  1   
  9   5  28  1   
 10   5  29  1   
 11   6  10  1   
 12   6  30  1   
 13   6  31  1   
 14   7  11  1   
 15   8  12  2   
 16   8  13  1   
 17   9  14  1   
 18   9  15  1   
 19   9  32  1   
 20  10  15  1   
 21  10  33  1   
 22  10  34  1   
 23  11  12  1   
 24  11  35  1   
 25  12  16  1   
 26  13  36  1   
 27  13  37  1   
 28  13  38  1   
 29  14  39  1   
 30  15  17  1   
 31  15  18  1   
 32  16  19  1   
 33  16  40  1   
 34  16  41  1   
 35  17  20  ar  
 36  17  21  ar  
 37  18  22  1   
 38  18  42  1   
 39  18  43  1   
 40  19  44  1   
 41  19  45  1   
 42  19  46  1   
 43  22  23  ar  
 44  22  24  ar  
 45  23  25  ar  
 46  23  47  1   
 47  24  26  ar  
 48  24  48  1   
 49  25  27  ar  
 50  25  49  1   
 51  26  27  ar  
 52  26  50  1   
 53  27  51  1   
@<TRIPOS>SUBSTRUCTURE
  1 ****  10 GROUP 4 **** **** 0

# MOE 2024.06 (io_trps.svl 2023.06)
