@<TRIPOS>MOLECULE
NONAME
45 46 1 0 0 
SMALL
USER_CHARGES


@<TRIPOS>ATOM
  1 S        1.1710     0.2100    -0.4090 S.o2  1 <1>   1.3330 
  2 O        2.4770    -0.3980    -0.5150 O.2   1 <1>  -0.6500 
  3 O        0.4420     0.5800    -1.5990 O.2   1 <1>  -0.6500 
  4 N        1.3110     1.5800     0.5830 N.am  1 <1>  -0.8490 
  5 C        0.1110    -0.8580     0.5420 C.3   1 <1>  -0.1350 
  6 C        1.7140     2.7710    -0.1930 C.3   1 <1>   0.1960 
  7 C        2.2540     1.3740     1.6960 C.3   1 <1>   0.1160 
  8 C        1.3290     4.0790     0.5150 C.3   1 <1>   0.2090 
  9 N        1.7840     5.2580    -0.2730 N.pl3 1 <1>  -0.8690 
 10 C        3.0760     5.7120    -0.2850 C.ar  1 <1>   0.4100 
 11 N        3.9460     5.1110     0.5180 N.ar  1 <1>  -0.6200 
 12 C        3.4310     6.7610    -1.1290 C.ar  1 <1>  -0.1500 
 13 C        5.1880     5.5640     0.4770 C.ar  1 <1>   0.1600 
 14 C        4.7250     7.2220    -1.1520 C.ar  1 <1>  -0.1500 
 15 C        5.6530     6.6150    -0.3100 C.ar  1 <1>   0.0860 
 16 C        7.0370     7.0210    -0.2420 C.2   1 <1>   0.5440 
 17 O        7.9010     6.1680    -0.1640 O.2   1 <1>  -0.5700 
 18 N        7.4160     8.3480    -0.2470 N.am  1 <1>  -0.6600 
 19 C        8.8330     8.7630    -0.4830 C.3   1 <1>   0.1400 
 20 C        6.5640     9.4570     0.2810 C.3   1 <1>   0.1400 
 21 C        9.3930     9.4990     0.7430 C.3   1 <1>   0.1200 
 22 C        7.2610    10.1660     1.4560 C.3   1 <1>   0.1200 
 23 O        8.5560    10.5630     1.1020 O.3   1 <1>  -0.5600 
 24 H       -0.0890    -1.7560    -0.0090 H     1 <1>   0.0800 
 25 H       -0.8190    -0.3650     0.7450 H     1 <1>   0.0800 
 26 H        0.5760    -1.1230     1.4700 H     1 <1>   0.0800 
 27 H        1.2150     2.7770    -1.1460 H     1 <1>   0.0800 
 28 H        2.7750     2.7490    -0.3770 H     1 <1>   0.0800 
 29 H        1.9800     0.5020     2.2630 H     1 <1>   0.0800 
 30 H        2.2480     2.2180     2.3620 H     1 <1>   0.0800 
 31 H        3.2560     1.2380     1.3210 H     1 <1>   0.0800 
 32 H        1.7780     4.1210     1.4910 H     1 <1>   0.0800 
 33 H        0.2610     4.1220     0.6310 H     1 <1>   0.0800 
 34 H        1.1620     5.5470    -1.0310 H     1 <1>   0.4000 
 35 H        2.6810     7.2000    -1.7580 H     1 <1>   0.1500 
 36 H        5.9030     5.0730     1.1160 H     1 <1>   0.1500 
 37 H        5.0240     8.0250    -1.8030 H     1 <1>   0.1500 
 38 H        8.8710     9.4180    -1.3350 H     1 <1>   0.0800 
 39 H        9.4510     7.9090    -0.6990 H     1 <1>   0.0800 
 40 H        5.6150     9.0820     0.6190 H     1 <1>   0.0800 
 41 H        6.3840    10.1710    -0.5040 H     1 <1>   0.0800 
 42 H       10.3640     9.9040     0.5220 H     1 <1>   0.0800 
 43 H        9.4790     8.8260     1.5790 H     1 <1>   0.0800 
 44 H        7.3240     9.5120     2.3090 H     1 <1>   0.0800 
 45 H        6.7130    11.0470     1.7370 H     1 <1>   0.0800 
@<TRIPOS>BOND
  1   1   2  2   
  2   1   3  2   
  3   1   4  am  
  4   1   5  1   
  5   4   6  1   
  6   4   7  1   
  7   5  24  1   
  8   5  25  1   
  9   5  26  1   
 10   6   8  1   
 11   6  27  1   
 12   6  28  1   
 13   7  29  1   
 14   7  30  1   
 15   7  31  1   
 16   8   9  1   
 17   8  32  1   
 18   8  33  1   
 19   9  10  1   
 20   9  34  1   
 21  10  11  ar  
 22  10  12  ar  
 23  11  13  ar  
 24  12  14  ar  
 25  12  35  1   
 26  13  15  ar  
 27  13  36  1   
 28  14  15  ar  
 29  14  37  1   
 30  15  16  1   
 31  16  17  2   
 32  16  18  am  
 33  18  19  1   
 34  18  20  1   
 35  19  21  1   
 36  19  38  1   
 37  19  39  1   
 38  20  22  1   
 39  20  40  1   
 40  20  41  1   
 41  21  23  1   
 42  21  42  1   
 43  21  43  1   
 44  22  23  1   
 45  22  44  1   
 46  22  45  1   
@<TRIPOS>SUBSTRUCTURE
  1 ****  11 GROUP 4 **** **** 0

# MOE 2024.06 (io_trps.svl 2023.06)
