@<TRIPOS>MOLECULE
NONAME
59 61 1 0 0 
SMALL
USER_CHARGES


@<TRIPOS>ATOM
  1 O       -0.7070     1.0400    -0.6070 O.2   1 <1>  -0.5700 
  2 C       -0.4080     2.1970    -0.4670 C.2   1 <1>   0.5690 
  3 N       -1.1350     3.0040     0.3380 N.am  1 <1>  -0.7300 
  4 C        0.7920     2.7760    -1.2280 C.3   1 <1>   0.1810 
  5 C       -0.8100     4.4270     0.5740 C.3   1 <1>   0.3640 
  6 O        1.2370     4.0140    -0.7080 O.3   1 <1>  -0.5600 
  7 C       -2.0960     5.2440     0.5730 C.ar  1 <1>  -0.1440 
  8 C        0.1980     4.9520    -0.4740 C.3   1 <1>   0.2610 
  9 C       -2.3770     6.0920     1.6360 C.ar  1 <1>  -0.1500 
 10 C       -2.9950     5.1630    -0.4820 C.ar  1 <1>  -0.1500 
 11 C        0.7320     6.3280    -0.0500 C.2   1 <1>   0.5690 
 12 C       -3.5350     6.8500     1.6420 C.ar  1 <1>  -0.1500 
 13 C       -4.1520     5.9230    -0.4770 C.ar  1 <1>  -0.1500 
 14 O        0.3130     7.2840    -0.6650 O.2   1 <1>  -0.5700 
 15 N        1.6400     6.5270     0.9740 N.am  1 <1>  -0.6600 
 16 C       -4.4220     6.7670     0.5850 C.ar  1 <1>  -0.1500 
 17 C        1.9890     7.9190     1.3950 C.3   1 <1>   0.1400 
 18 C        2.3550     5.4420     1.7070 C.3   1 <1>   0.1400 
 19 C        2.7580     8.6520     0.2760 C.3   1 <1>   0.3430 
 20 C        3.7720     5.3000     1.1570 C.3   1 <1>  -0.2400 
 21 N        2.3060    10.0670     0.0690 N.4   1 <1>  -0.9590 
 22 C        0.9260    10.1090    -0.5130 C.3   1 <1>   0.3430 
 23 C        3.2670    10.7910    -0.8100 C.3   1 <1>   0.3430 
 24 C        0.4560    11.5590    -0.6330 C.3   1 <1>  -0.1600 
 25 C        2.8550    12.2590    -0.9300 C.3   1 <1>  -0.1600 
 26 C        1.4260    12.4000    -1.4740 C.3   1 <1>  -0.0800 
 27 C        0.9950    13.8700    -1.4890 C.3   1 <1>  -0.2400 
 28 H       -1.9570     2.6240     0.8110 H     1 <1>   0.3700 
 29 H        0.5240     2.9190    -2.2590 H     1 <1>   0.0800 
 30 H        1.6130     2.0850    -1.1770 H     1 <1>   0.0800 
 31 H       -0.3630     4.5010     1.5490 H     1 <1>   0.0800 
 32 H       -0.3180     5.0860    -1.4080 H     1 <1>   0.0800 
 33 H       -1.7000     6.1710     2.4690 H     1 <1>   0.1500 
 34 H       -2.8050     4.5070    -1.3140 H     1 <1>   0.1500 
 35 H       -3.7490     7.5040     2.4700 H     1 <1>   0.1500 
 36 H       -4.8440     5.8560    -1.2990 H     1 <1>   0.1500 
 37 H       -5.3230     7.3560     0.5890 H     1 <1>   0.1500 
 38 H        1.0740     8.4350     1.6260 H     1 <1>   0.0800 
 39 H        2.5910     7.8950     2.2870 H     1 <1>   0.0800 
 40 H        2.3890     5.6720     2.7590 H     1 <1>   0.0800 
 41 H        1.8440     4.5020     1.6040 H     1 <1>   0.0800 
 42 H        2.6250     8.1060    -0.6440 H     1 <1>   0.0800 
 43 H        3.8070     8.6370     0.5200 H     1 <1>   0.0800 
 44 H        4.3450     6.1930     1.3230 H     1 <1>   0.0800 
 45 H        3.7410     5.0780     0.1040 H     1 <1>   0.0800 
 46 H        4.2680     4.4860     1.6540 H     1 <1>   0.0800 
 47 H        2.2770    10.5590     0.9700 H     1 <1>   0.4500 
 48 H        0.9260     9.6450    -1.4870 H     1 <1>   0.0800 
 49 H        0.2370     9.5610     0.1100 H     1 <1>   0.0800 
 50 H        4.2620    10.7310    -0.4000 H     1 <1>   0.0800 
 51 H        3.2750    10.3390    -1.7890 H     1 <1>   0.0800 
 52 H       -0.5170    11.5670    -1.0930 H     1 <1>   0.0800 
 53 H        0.3500    11.9800     0.3520 H     1 <1>   0.0800 
 54 H        2.9380    12.7320     0.0330 H     1 <1>   0.0800 
 55 H        3.5390    12.7580    -1.5940 H     1 <1>   0.0800 
 56 H        1.4060    12.0340    -2.4880 H     1 <1>   0.0800 
 57 H        0.9970    14.2840    -0.4960 H     1 <1>   0.0800 
 58 H        0.0020    13.9650    -1.8950 H     1 <1>   0.0800 
 59 H        1.6620    14.4510    -2.1020 H     1 <1>   0.0800 
@<TRIPOS>BOND
  1   1   2  2   
  2   2   3  am  
  3   2   4  1   
  4   3   5  1   
  5   3  28  1   
  6   4   6  1   
  7   4  29  1   
  8   4  30  1   
  9   5   7  1   
 10   5   8  1   
 11   5  31  1   
 12   6   8  1   
 13   7   9  ar  
 14   7  10  ar  
 15   8  11  1   
 16   8  32  1   
 17   9  12  ar  
 18   9  33  1   
 19  10  13  ar  
 20  10  34  1   
 21  11  14  2   
 22  11  15  am  
 23  12  16  ar  
 24  12  35  1   
 25  13  16  ar  
 26  13  36  1   
 27  15  17  1   
 28  15  18  1   
 29  16  37  1   
 30  17  19  1   
 31  17  38  1   
 32  17  39  1   
 33  18  20  1   
 34  18  40  1   
 35  18  41  1   
 36  19  21  1   
 37  19  42  1   
 38  19  43  1   
 39  20  44  1   
 40  20  45  1   
 41  20  46  1   
 42  21  22  1   
 43  21  23  1   
 44  21  47  1   
 45  22  24  1   
 46  22  48  1   
 47  22  49  1   
 48  23  25  1   
 49  23  50  1   
 50  23  51  1   
 51  24  26  1   
 52  24  52  1   
 53  24  53  1   
 54  25  26  1   
 55  25  54  1   
 56  25  55  1   
 57  26  27  1   
 58  26  56  1   
 59  27  57  1   
 60  27  58  1   
 61  27  59  1   
@<TRIPOS>SUBSTRUCTURE
  1 ****  14 GROUP 4 **** **** 0

# MOE 2024.06 (io_trps.svl 2023.06)
