@<TRIPOS>MOLECULE
NONAME
52 54 1 0 0 
SMALL
USER_CHARGES


@<TRIPOS>ATOM
  1 O        0.9320     0.5990     0.7050 O.2   1 <1>  -0.5700 
  2 C        1.8280     0.6250    -0.1220 C.2   1 <1>   0.5440 
  3 N        2.6470     1.7230    -0.1570 N.am  1 <1>  -0.7300 
  4 C        2.0300    -0.4670    -1.0480 C.ar  1 <1>   0.0860 
  5 C        2.5350     2.9170     0.7220 C.3   1 <1>   0.0600 
  6 C        1.8620    -1.8110    -0.6540 C.ar  1 <1>   0.4100 
  7 C        2.3950    -0.2260    -2.3670 C.ar  1 <1>  -0.1500 
  8 N        2.0260    -2.8520    -1.4700 N.ar  1 <1>  -0.6200 
  9 N        1.5020    -2.1170     0.6390 N.pl3 1 <1>  -0.8690 
 10 C        2.5760    -1.3020    -3.2040 C.ar  1 <1>  -0.1500 
 11 C        2.3820    -2.5790    -2.7090 C.ar  1 <1>   0.1600 
 12 C        1.1310    -3.4460     1.1640 C.3   1 <1>   0.2090 
 13 C       -0.3870    -3.5120     1.3870 C.3   1 <1>  -0.0800 
 14 C       -0.8180    -4.9340     1.7440 C.3   1 <1>   0.3430 
 15 C       -1.2180    -3.1370     0.1450 C.3   1 <1>  -0.1600 
 16 N       -1.5830    -5.4170     0.5690 N.4   1 <1>  -0.9590 
 17 C       -2.2600    -4.2280     0.0030 C.3   1 <1>   0.3430 
 18 C       -2.5020    -6.5540     0.8420 C.3   1 <1>   0.4860 
 19 C       -3.1550    -6.9690    -0.4640 C.ar  1 <1>  -0.1430 
 20 C       -4.5070    -6.7450    -0.7110 C.ar  1 <1>  -0.1430 
 21 C       -2.3710    -7.5810    -1.4350 C.ar  1 <1>  -0.1500 
 22 C       -5.0450    -7.1220    -1.9320 C.ar  1 <1>  -0.1500 
 23 C       -5.4300    -6.1080     0.3210 C.3   1 <1>  -0.0970 
 24 C       -2.9190    -7.9530    -2.6480 C.ar  1 <1>  -0.1500 
 25 C       -4.2580    -7.7200    -2.8970 C.ar  1 <1>  -0.1500 
 26 H        3.4710     1.7000    -0.7610 H     1 <1>   0.3700 
 27 H        1.6290     2.8750     1.3030 H     1 <1>   0.0800 
 28 H        2.5180     3.8100     0.1220 H     1 <1>   0.0800 
 29 H        3.3750     2.9540     1.3930 H     1 <1>   0.0800 
 30 H        2.5250     0.7790    -2.7290 H     1 <1>   0.1500 
 31 H        1.2070    -1.3010     1.2020 H     1 <1>   0.4000 
 32 H        2.8620    -1.1600    -4.2310 H     1 <1>   0.1500 
 33 H        2.5280    -3.4150    -3.3730 H     1 <1>   0.1500 
 34 H        1.6510    -3.6060     2.0940 H     1 <1>   0.0800 
 35 H        1.4420    -4.2160     0.4780 H     1 <1>   0.0800 
 36 H       -0.6360    -2.8630     2.2090 H     1 <1>   0.0800 
 37 H       -1.4590    -4.9020     2.6110 H     1 <1>   0.0800 
 38 H        0.0290    -5.5690     1.9510 H     1 <1>   0.0800 
 39 H       -0.6130    -3.1340    -0.7440 H     1 <1>   0.0800 
 40 H       -1.6730    -2.1660     0.2430 H     1 <1>   0.0800 
 41 H       -0.9190    -5.7230    -0.1540 H     1 <1>   0.4500 
 42 H       -2.5480    -4.3820    -1.0260 H     1 <1>   0.0800 
 43 H       -3.1300    -3.9820     0.5890 H     1 <1>   0.0800 
 44 H       -3.2510    -6.2630     1.5590 H     1 <1>   0.0800 
 45 H       -1.9510    -7.3880     1.2440 H     1 <1>   0.0800 
 46 H       -1.3280    -7.7820    -1.2630 H     1 <1>   0.1500 
 47 H       -6.0880    -6.9580    -2.1450 H     1 <1>   0.1500 
 48 H       -5.1100    -5.1100     0.5560 H     1 <1>   0.0800 
 49 H       -5.4500    -6.6990     1.2190 H     1 <1>   0.0800 
 50 H       -6.4380    -6.0500    -0.0520 H     1 <1>   0.0800 
 51 H       -2.3090    -8.4260    -3.3990 H     1 <1>   0.1500 
 52 H       -4.6880    -8.0090    -3.8410 H     1 <1>   0.1500 
@<TRIPOS>BOND
  1   1   2  2   
  2   2   3  am  
  3   2   4  1   
  4   3   5  1   
  5   3  26  1   
  6   4   6  ar  
  7   4   7  ar  
  8   5  27  1   
  9   5  28  1   
 10   5  29  1   
 11   6   8  ar  
 12   6   9  1   
 13   7  10  ar  
 14   7  30  1   
 15   8  11  ar  
 16   9  12  1   
 17   9  31  1   
 18  10  11  ar  
 19  10  32  1   
 20  11  33  1   
 21  12  13  1   
 22  12  34  1   
 23  12  35  1   
 24  13  14  1   
 25  13  15  1   
 26  13  36  1   
 27  14  16  1   
 28  14  37  1   
 29  14  38  1   
 30  15  17  1   
 31  15  39  1   
 32  15  40  1   
 33  16  17  1   
 34  16  18  1   
 35  16  41  1   
 36  17  42  1   
 37  17  43  1   
 38  18  19  1   
 39  18  44  1   
 40  18  45  1   
 41  19  20  ar  
 42  19  21  ar  
 43  20  22  ar  
 44  20  23  1   
 45  21  24  ar  
 46  21  46  1   
 47  22  25  ar  
 48  22  47  1   
 49  23  48  1   
 50  23  49  1   
 51  23  50  1   
 52  24  25  ar  
 53  24  51  1   
 54  25  52  1   
@<TRIPOS>SUBSTRUCTURE
  1 ****  15 GROUP 4 **** **** 0

# MOE 2024.06 (io_trps.svl 2023.06)
