@<TRIPOS>MOLECULE
NONAME
47 49 1 0 0 
SMALL
USER_CHARGES


@<TRIPOS>ATOM
  1 O       -0.3680     1.8720    -2.5600 O.co2 1 <1>  -0.9000 
  2 C       -1.4190     2.3180    -2.0930 C.2   1 <1>   0.9060 
  3 O       -2.4600     2.3890    -2.7670 O.co2 1 <1>  -0.9000 
  4 C       -1.4860     2.5830    -0.5620 C.3   1 <1>   0.4600 
  5 N       -2.5840     1.8130     0.1570 N.4   1 <1>  -0.9590 
  6 C       -1.5960     4.0540    -0.1460 C.ar  1 <1>  -0.1430 
  7 C       -2.5490     0.3690    -0.2510 C.3   1 <1>   0.3430 
  8 C       -3.9400     2.3790    -0.1740 C.3   1 <1>   0.3430 
  9 C       -2.1120     5.0250    -0.9680 C.ar  1 <1>  -0.1500 
 10 C       -1.1610     4.4160     1.1400 C.ar  1 <1>  -0.1500 
 11 C       -3.6220    -0.4670     0.5070 C.3   1 <1>   0.2800 
 12 C       -5.0820     1.3630     0.0470 C.3   1 <1>   0.1200 
 13 C       -2.2270     6.3660    -0.5540 C.ar  1 <1>   0.0000 
 14 C       -1.2630     5.7090     1.5690 C.ar  1 <1>  -0.1500 
 15 O       -4.6940     0.3380     0.9270 O.3   1 <1>  -0.5600 
 16 C       -3.0350    -1.0530     1.7920 C.3   1 <1>  -0.2400 
 17 C       -4.1860    -1.5890    -0.3700 C.3   1 <1>  -0.2400 
 18 C       -1.7990     6.7160     0.7430 C.ar  1 <1>   0.0000 
 19 C       -2.7540     7.3730    -1.3870 C.ar  1 <1>  -0.1500 
 20 C       -1.9230     8.0550     1.1580 C.ar  1 <1>  -0.1500 
 21 C       -2.8630     8.6680    -0.9610 C.ar  1 <1>  -0.1500 
 22 C       -2.4410     9.0190     0.3360 C.ar  1 <1>   0.0830 
 23 O       -2.5200    10.2810     0.8230 O.3   1 <1>  -0.3620 
 24 C       -3.0170    11.3490     0.0470 C.3   1 <1>   0.0400 
 25 H       -0.5390     2.2280    -0.1970 H     1 <1>   0.0800 
 26 H       -2.4610     1.8820     1.1690 H     1 <1>   0.4500 
 27 H       -1.5730    -0.0520    -0.0780 H     1 <1>   0.0800 
 28 H       -2.7440     0.2980    -1.3100 H     1 <1>   0.0800 
 29 H       -3.9710     2.6980    -1.2030 H     1 <1>   0.0800 
 30 H       -4.1180     3.2540     0.4290 H     1 <1>   0.0800 
 31 H       -2.4480     4.7890    -1.9650 H     1 <1>   0.1500 
 32 H       -0.7390     3.6690     1.7900 H     1 <1>   0.1500 
 33 H       -5.3740     0.9250    -0.8910 H     1 <1>   0.0800 
 34 H       -5.9400     1.8580     0.4670 H     1 <1>   0.0800 
 35 H       -0.9280     5.9870     2.5530 H     1 <1>   0.1500 
 36 H       -2.6760    -0.2700     2.4350 H     1 <1>   0.0800 
 37 H       -2.2170    -1.7130     1.5660 H     1 <1>   0.0800 
 38 H       -3.7860    -1.6150     2.3190 H     1 <1>   0.0800 
 39 H       -4.5890    -1.1970    -1.2860 H     1 <1>   0.0800 
 40 H       -4.9610    -2.1180     0.1570 H     1 <1>   0.0800 
 41 H       -3.4100    -2.2890    -0.6220 H     1 <1>   0.0800 
 42 H       -3.0710     7.0980    -2.3780 H     1 <1>   0.1500 
 43 H       -1.5990     8.3250     2.1460 H     1 <1>   0.1500 
 44 H       -3.2690     9.4080    -1.6230 H     1 <1>   0.1500 
 45 H       -2.9730    12.2420     0.6430 H     1 <1>   0.0800 
 46 H       -4.0370    11.1390    -0.2230 H     1 <1>   0.0800 
 47 H       -2.4000    11.4610    -0.8270 H     1 <1>   0.0800 
@<TRIPOS>BOND
  1   1   2  ar  
  2   2   3  ar  
  3   2   4  1   
  4   4   5  1   
  5   4   6  1   
  6   4  25  1   
  7   5   7  1   
  8   5   8  1   
  9   5  26  1   
 10   6   9  ar  
 11   6  10  ar  
 12   7  11  1   
 13   7  27  1   
 14   7  28  1   
 15   8  12  1   
 16   8  29  1   
 17   8  30  1   
 18   9  13  ar  
 19   9  31  1   
 20  10  14  ar  
 21  10  32  1   
 22  11  15  1   
 23  11  16  1   
 24  11  17  1   
 25  12  15  1   
 26  12  33  1   
 27  12  34  1   
 28  13  18  ar  
 29  13  19  ar  
 30  14  18  ar  
 31  14  35  1   
 32  16  36  1   
 33  16  37  1   
 34  16  38  1   
 35  17  39  1   
 36  17  40  1   
 37  17  41  1   
 38  18  20  ar  
 39  19  21  ar  
 40  19  42  1   
 41  20  22  ar  
 42  20  43  1   
 43  21  22  ar  
 44  21  44  1   
 45  22  23  1   
 46  23  24  1   
 47  24  45  1   
 48  24  46  1   
 49  24  47  1   
@<TRIPOS>SUBSTRUCTURE
  1 ****   6 GROUP 4 **** **** 0

# MOE 2024.06 (io_trps.svl 2023.06)
