@<TRIPOS>MOLECULE
NONAME
43 46 1 0 0 
SMALL
USER_CHARGES


@<TRIPOS>ATOM
  1 O        0.4110     1.2810    -0.2840 O.2   1 <1>  -0.5700 
  2 C        0.2500     2.4670    -0.1490 C.2   1 <1>   0.5690 
  3 N       -0.8290     2.9520     0.5000 N.am  1 <1>  -0.7300 
  4 C        1.2510     3.4530    -0.7490 C.3   1 <1>   0.1810 
  5 C       -1.1500     4.3970     0.6120 C.3   1 <1>   0.3640 
  6 O        1.2010     4.7130    -0.1180 O.3   1 <1>  -0.5600 
  7 C       -2.5390     4.6100     0.0110 C.ar  1 <1>  -0.1440 
  8 C       -0.0930     5.3110    -0.0730 C.3   1 <1>   0.2610 
  9 C       -2.8800     4.0700    -1.2240 C.ar  1 <1>  -0.1500 
 10 C       -3.4850     5.3570     0.6990 C.ar  1 <1>  -0.1500 
 11 C       -0.0090     6.6680     0.6440 C.2   1 <1>   0.5690 
 12 C       -4.1400     4.2730    -1.7580 C.ar  1 <1>  -0.1500 
 13 C       -4.7460     5.5600     0.1660 C.ar  1 <1>  -0.1500 
 14 O       -1.0140     7.2440     0.9840 O.2   1 <1>  -0.5700 
 15 N        1.2130     7.2050     0.8910 N.am  1 <1>  -0.7300 
 16 C       -5.0750     5.0180    -1.0630 C.ar  1 <1>  -0.1500 
 17 C        1.4650     8.5410     1.4900 C.3   1 <1>   0.3200 
 18 C        2.4680     9.3380     0.6690 C.2   1 <1>   0.2980 
 19 O        2.1190     9.7400    -0.5280 O.3   1 <1>  -0.0190 
 20 N        3.6450     9.6600     1.0350 N.2   1 <1>  -0.5650 
 21 N        3.1650    10.3740    -0.9620 N.2   1 <1>  -0.4100 
 22 C        4.0440    10.3230    -0.0420 C.2   1 <1>   0.4300 
 23 C        5.4340    10.9380    -0.1100 C.3   1 <1>  -0.0140 
 24 C        5.7210    12.2400     0.5750 C.3   1 <1>  -0.2000 
 25 C        5.7140    12.1680    -0.9220 C.3   1 <1>  -0.2000 
 26 H       -1.5310     2.2930     0.8410 H     1 <1>   0.3700 
 27 H        1.0480     3.5850    -1.7960 H     1 <1>   0.0800 
 28 H        2.2470     3.0660    -0.6320 H     1 <1>   0.0800 
 29 H       -1.1830     4.6420     1.6600 H     1 <1>   0.0800 
 30 H       -0.3940     5.4980    -1.0880 H     1 <1>   0.0800 
 31 H       -2.1690     3.4840    -1.7800 H     1 <1>   0.1500 
 32 H       -3.2450     5.7960     1.6520 H     1 <1>   0.1500 
 33 H       -4.3950     3.8490    -2.7140 H     1 <1>   0.1500 
 34 H       -5.4710     6.1430     0.7080 H     1 <1>   0.1500 
 35 H        2.0380     6.6610     0.6160 H     1 <1>   0.3700 
 36 H       -6.0560     5.1760    -1.4770 H     1 <1>   0.1500 
 37 H        0.5460     9.0980     1.5560 H     1 <1>   0.0800 
 38 H        1.8510     8.4110     2.4850 H     1 <1>   0.0800 
 39 H        6.2000    10.1840    -0.0740 H     1 <1>   0.1000 
 40 H        4.9110    12.7450     1.0730 H     1 <1>   0.1000 
 41 H        6.6590    12.3530     1.0900 H     1 <1>   0.1000 
 42 H        6.6480    12.2310    -1.4530 H     1 <1>   0.1000 
 43 H        4.9010    12.6240    -1.4600 H     1 <1>   0.1000 
@<TRIPOS>BOND
  1   1   2  2   
  2   2   3  am  
  3   2   4  1   
  4   3   5  1   
  5   3  26  1   
  6   4   6  1   
  7   4  27  1   
  8   4  28  1   
  9   5   7  1   
 10   5   8  1   
 11   5  29  1   
 12   6   8  1   
 13   7   9  ar  
 14   7  10  ar  
 15   8  11  1   
 16   8  30  1   
 17   9  12  ar  
 18   9  31  1   
 19  10  13  ar  
 20  10  32  1   
 21  11  14  2   
 22  11  15  am  
 23  12  16  ar  
 24  12  33  1   
 25  13  16  ar  
 26  13  34  1   
 27  15  17  1   
 28  15  35  1   
 29  16  36  1   
 30  17  18  1   
 31  17  37  1   
 32  17  38  1   
 33  18  19  1   
 34  18  20  2   
 35  19  21  1   
 36  20  22  1   
 37  21  22  2   
 38  22  23  1   
 39  23  24  1   
 40  23  25  1   
 41  23  39  1   
 42  24  25  1   
 43  24  40  1   
 44  24  41  1   
 45  25  42  1   
 46  25  43  1   
@<TRIPOS>SUBSTRUCTURE
  1 ****  11 GROUP 4 **** **** 0

# MOE 2024.06 (io_trps.svl 2023.06)
