@<TRIPOS>MOLECULE
NONAME
45 47 1 0 0 
SMALL
USER_CHARGES


@<TRIPOS>ATOM
  1 N        0.4400     0.4630     0.3210 N.ar  1 <1>  -0.6200 
  2 C       -0.6490     1.2360     0.3860 C.ar  1 <1>   0.7200 
  3 C        1.3560     0.8780    -0.5140 C.ar  1 <1>   0.1660 
  4 N       -0.8590     2.3610    -0.3040 N.ar  1 <1>  -0.6200 
  5 N       -1.6420     0.8370     1.2550 N.pl3 1 <1>  -0.8380 
  6 C        1.2420     2.0070    -1.2630 C.ar  1 <1>  -0.1440 
  7 C        2.6730     0.1790    -0.7440 C.3   1 <1>   0.1430 
  8 C        0.0890     2.7390    -1.1290 C.ar  1 <1>   0.1600 
  9 C       -2.7330     1.7630     1.6700 C.3   1 <1>   0.1290 
 10 C       -1.8360    -0.5860     1.6470 C.3   1 <1>   0.1290 
 11 C        2.4630     2.2350    -2.1180 C.3   1 <1>  -0.0160 
 12 C        3.2780    -0.1620     0.6300 C.3   1 <1>   0.3430 
 13 C        2.4590    -1.1050    -1.5720 C.3   1 <1>  -0.1600 
 14 C        3.4870     1.2470    -1.5240 C.3   1 <1>  -0.1600 
 15 N        4.5280    -0.9840     0.5050 N.4   1 <1>  -0.9590 
 16 C        3.7230    -1.9830    -1.6110 C.3   1 <1>  -0.1600 
 17 C        4.2660    -2.2690    -0.2080 C.3   1 <1>   0.3430 
 18 C        5.1440    -1.2260     1.8280 C.3   1 <1>   0.4810 
 19 C        6.6080    -1.5880     1.6410 C.2   1 <1>  -0.2880 
 20 C        7.3590    -1.5770     0.5290 C.2   1 <1>  -0.3000 
 21 H       -0.0590     3.6410    -1.6990 H     1 <1>   0.1500 
 22 H       -2.3720     2.7770     1.7080 H     1 <1>   0.0800 
 23 H       -3.0960     1.4960     2.6460 H     1 <1>   0.0800 
 24 H       -3.5420     1.7080     0.9610 H     1 <1>   0.0800 
 25 H       -1.2840    -1.2420     0.9970 H     1 <1>   0.0800 
 26 H       -2.8780    -0.8460     1.5800 H     1 <1>   0.0800 
 27 H       -1.5000    -0.7290     2.6590 H     1 <1>   0.0800 
 28 H        2.8070     3.2540    -2.0590 H     1 <1>   0.0800 
 29 H        2.2370     1.9860    -3.1410 H     1 <1>   0.0800 
 30 H        2.5410    -0.7110     1.1940 H     1 <1>   0.0800 
 31 H        3.4810     0.7540     1.1590 H     1 <1>   0.0800 
 32 H        2.1490    -0.8540    -2.5730 H     1 <1>   0.0800 
 33 H        1.6580    -1.6740    -1.1270 H     1 <1>   0.0800 
 34 H        4.1080     0.8270    -2.2950 H     1 <1>   0.0800 
 35 H        4.1150     1.7950    -0.8420 H     1 <1>   0.0800 
 36 H        5.2230    -0.4540    -0.0320 H     1 <1>   0.4500 
 37 H        4.4900    -1.5140    -2.2020 H     1 <1>   0.0800 
 38 H        3.4850    -2.9190    -2.0870 H     1 <1>   0.0800 
 39 H        3.5440    -2.8500     0.3430 H     1 <1>   0.0800 
 40 H        5.1760    -2.8450    -0.2820 H     1 <1>   0.0800 
 41 H        4.6250    -2.0220     2.3370 H     1 <1>   0.0800 
 42 H        5.0800    -0.3360     2.4350 H     1 <1>   0.0800 
 43 H        7.0430    -1.8790     2.5840 H     1 <1>   0.1500 
 44 H        8.4010    -1.8560     0.5280 H     1 <1>   0.1500 
 45 H        7.0440    -1.3010    -0.4620 H     1 <1>   0.1500 
@<TRIPOS>BOND
  1   1   2  ar  
  2   1   3  ar  
  3   2   4  ar  
  4   2   5  1   
  5   3   6  ar  
  6   3   7  1   
  7   4   8  ar  
  8   5   9  1   
  9   5  10  1   
 10   6   8  ar  
 11   6  11  1   
 12   7  12  1   
 13   7  13  1   
 14   7  14  1   
 15   8  21  1   
 16   9  22  1   
 17   9  23  1   
 18   9  24  1   
 19  10  25  1   
 20  10  26  1   
 21  10  27  1   
 22  11  14  1   
 23  11  28  1   
 24  11  29  1   
 25  12  15  1   
 26  12  30  1   
 27  12  31  1   
 28  13  16  1   
 29  13  32  1   
 30  13  33  1   
 31  14  34  1   
 32  14  35  1   
 33  15  17  1   
 34  15  18  1   
 35  15  36  1   
 36  16  17  1   
 37  16  37  1   
 38  16  38  1   
 39  17  39  1   
 40  17  40  1   
 41  18  19  1   
 42  18  41  1   
 43  18  42  1   
 44  19  20  2   
 45  19  43  1   
 46  20  44  1   
 47  20  45  1   
@<TRIPOS>SUBSTRUCTURE
  1 ****   7 GROUP 4 **** **** 0

# MOE 2024.06 (io_trps.svl 2023.06)
