@<TRIPOS>MOLECULE
NONAME
47 49 1 0 0 
SMALL
USER_CHARGES


@<TRIPOS>ATOM
  1 S       -0.1290    -0.1600     1.5220 S.o2  1 <1>   1.5000 
  2 O        0.1260    -1.5870     1.5440 O.2   1 <1>  -0.6500 
  3 O       -0.4590     0.5130     2.7570 O.2   1 <1>  -0.6500 
  4 N       -1.4420     0.0490     0.4540 N.am  1 <1>  -0.8490 
  5 C        1.2100     0.7210     0.6870 C.2   1 <1>  -0.0220 
  6 C       -1.5620    -0.9920    -0.5780 C.3   1 <1>   0.1960 
  7 C       -2.7300     0.3690     1.0860 C.3   1 <1>   0.1960 
  8 S        2.1270    -0.1430    -0.5470 S.3   1 <1>  -0.0800 
  9 C        1.6720     1.9860     0.7790 C.2   1 <1>  -0.1500 
 10 C       -2.2220    -2.2970    -0.0400 C.3   1 <1>   0.4230 
 11 C       -3.3690    -0.8920     1.6860 C.3   1 <1>  -0.1600 
 12 C        3.1230     1.2610    -0.8840 C.2   1 <1>  -0.1400 
 13 C        2.7550     2.2920    -0.1040 C.2   1 <1>  -0.1500 
 14 N       -2.2460    -3.4490    -1.0370 N.4   1 <1>  -0.9590 
 15 C       -3.5920    -2.0190     0.6390 C.3   1 <1>   0.0000 
 16 C        4.1970     1.1170    -1.9430 C.3   1 <1>  -0.0600 
 17 C       -3.2100    -4.5420    -0.6810 C.3   1 <1>   0.3430 
 18 C       -2.4140    -3.0640    -2.4770 C.3   1 <1>   0.2630 
 19 C       -4.0680    -3.3050     1.3760 C.3   1 <1>  -0.1600 
 20 C       -4.6410    -1.5820    -0.4240 C.3   1 <1>   0.1200 
 21 C       -3.4400    -4.6020     0.8290 C.3   1 <1>  -0.1600 
 22 O       -5.7960    -1.1000     0.1670 O.3   1 <1>  -0.6800 
 23 H       -2.1450    -0.5880    -1.3850 H     1 <1>   0.0800 
 24 H       -0.5830    -1.2200    -0.9640 H     1 <1>   0.0800 
 25 H       -2.6000     1.1180     1.8510 H     1 <1>   0.0800 
 26 H       -3.3910     0.7940     0.3500 H     1 <1>   0.0800 
 27 H        1.2830     2.7330     1.4500 H     1 <1>   0.1500 
 28 H       -1.5920    -2.6320     0.7640 H     1 <1>   0.0800 
 29 H       -2.7330    -1.2410     2.4820 H     1 <1>   0.0800 
 30 H       -4.3010    -0.6150     2.1470 H     1 <1>   0.0800 
 31 H        3.2030     3.2710    -0.1080 H     1 <1>   0.1500 
 32 H       -1.3080    -3.8710    -0.9480 H     1 <1>   0.4500 
 33 H        4.7380     2.0400    -2.0490 H     1 <1>   0.0800 
 34 H        3.7510     0.8650    -2.8880 H     1 <1>   0.0800 
 35 H        4.8860     0.3410    -1.6630 H     1 <1>   0.0800 
 36 H       -4.1570    -4.3640    -1.1630 H     1 <1>   0.0800 
 37 H       -2.8330    -5.4900    -1.0300 H     1 <1>   0.0800 
 38 H       -3.3640    -2.5790    -2.6310 H     1 <1>   0.0800 
 39 H       -2.3720    -3.9410    -3.1040 H     1 <1>   0.0800 
 40 H       -1.6280    -2.3930    -2.7850 H     1 <1>   0.0800 
 41 H       -3.8250    -3.2510     2.4250 H     1 <1>   0.0800 
 42 H       -5.1400    -3.3850     1.3240 H     1 <1>   0.0800 
 43 H       -4.9250    -2.4010    -1.0600 H     1 <1>   0.0800 
 44 H       -4.2670    -0.7870    -1.0430 H     1 <1>   0.0800 
 45 H       -4.0880    -5.4310     1.0570 H     1 <1>   0.0800 
 46 H       -2.5010    -4.7940     1.3200 H     1 <1>   0.0800 
 47 H       -6.2500    -1.7780     0.7070 H     1 <1>   0.4000 
@<TRIPOS>BOND
  1   1   2  2   
  2   1   3  2   
  3   1   4  am  
  4   1   5  1   
  5   4   6  1   
  6   4   7  1   
  7   5   8  1   
  8   5   9  2   
  9   6  10  1   
 10   6  23  1   
 11   6  24  1   
 12   7  11  1   
 13   7  25  1   
 14   7  26  1   
 15   8  12  1   
 16   9  13  1   
 17   9  27  1   
 18  10  14  1   
 19  10  15  1   
 20  10  28  1   
 21  11  15  1   
 22  11  29  1   
 23  11  30  1   
 24  12  13  2   
 25  12  16  1   
 26  13  31  1   
 27  14  17  1   
 28  14  18  1   
 29  14  32  1   
 30  15  19  1   
 31  15  20  1   
 32  16  33  1   
 33  16  34  1   
 34  16  35  1   
 35  17  21  1   
 36  17  36  1   
 37  17  37  1   
 38  18  38  1   
 39  18  39  1   
 40  18  40  1   
 41  19  21  1   
 42  19  41  1   
 43  19  42  1   
 44  20  22  1   
 45  20  43  1   
 46  20  44  1   
 47  21  45  1   
 48  21  46  1   
 49  22  47  1   
@<TRIPOS>SUBSTRUCTURE
  1 ****   6 GROUP 4 **** **** 0

# MOE 2024.06 (io_trps.svl 2023.06)
