@<TRIPOS>MOLECULE
NONAME
58 61 1 0 0 
SMALL
USER_CHARGES


@<TRIPOS>ATOM
  1 O       -0.3700    -0.5940    -0.3920 O.3   1 <1>  -0.5600 
  2 C        0.4690    -1.3410    -1.2200 C.3   1 <1>   0.1200 
  3 C       -1.4530    -1.3150     0.1240 C.3   1 <1>   0.1200 
  4 C        1.0790    -2.5240    -0.4440 C.3   1 <1>   0.2090 
  5 C       -0.9570    -2.4980     0.9730 C.3   1 <1>   0.2090 
  6 N        0.0060    -3.3650     0.1950 N.pl3 1 <1>  -0.8380 
  7 C       -0.1620    -4.7120     0.1000 C.ar  1 <1>   0.7710 
  8 N       -1.2750    -5.2630     0.5590 N.ar  1 <1>  -0.6200 
  9 N        0.8120    -5.4570    -0.4530 N.ar  1 <1>  -0.1790 
 10 C       -1.4220    -6.5710     0.4690 C.ar  1 <1>   0.4100 
 11 C        0.7030    -6.7990    -0.5890 C.ar  1 <1>   0.2180 
 12 N       -2.5630    -7.1150     0.9680 N.pl3 1 <1>  -0.8380 
 13 C       -0.4320    -7.3740    -0.1280 C.ar  1 <1>  -0.1500 
 14 C        1.8390    -7.5740    -1.2460 C.3   1 <1>  -0.0170 
 15 C       -3.8440    -6.3560     1.0510 C.3   1 <1>   0.2090 
 16 C       -2.6660    -8.4790     1.5560 C.3   1 <1>   0.2090 
 17 C        3.1420    -7.4860    -0.4390 C.3   1 <1>  -0.2400 
 18 C       -4.9280    -7.1240     0.2890 C.3   1 <1>  -0.1600 
 19 C       -3.7230    -9.2810     0.7920 C.3   1 <1>  -0.1600 
 20 C       -5.0900    -8.5680     0.7970 C.3   1 <1>  -0.0800 
 21 C       -6.1330    -9.3070    -0.0630 C.3   1 <1>  -0.1600 
 22 C       -6.4820   -10.7040     0.4750 C.3   1 <1>   0.0960 
 23 N       -7.5130   -11.3400    -0.3650 N.pl3 1 <1>   0.3140 
 24 N       -7.1930   -12.1530    -1.3880 N.2   1 <1>  -0.7070 
 25 C       -8.8500   -11.2120    -0.2420 C.2   1 <1>  -0.3020 
 26 C       -8.3320   -12.5200    -1.8910 C.2   1 <1>   0.1390 
 27 C       -9.4100   -11.9630    -1.2140 C.2   1 <1>  -0.1500 
 28 H        1.2450    -0.6840    -1.5720 H     1 <1>   0.0800 
 29 H       -0.1010    -1.6860    -2.0650 H     1 <1>   0.0800 
 30 H       -2.0630    -1.6600    -0.6920 H     1 <1>   0.0800 
 31 H       -2.0350    -0.6430     0.7300 H     1 <1>   0.0800 
 32 H        1.7270    -2.1310     0.3230 H     1 <1>   0.0800 
 33 H        1.6790    -3.0980    -1.1250 H     1 <1>   0.0800 
 34 H       -1.8140    -3.0510     1.3170 H     1 <1>   0.0800 
 35 H       -0.4590    -2.1100     1.8450 H     1 <1>   0.0800 
 36 H        1.6440    -4.9600    -0.7340 H     1 <1>   0.4570 
 37 H       -0.6040    -8.4290    -0.2180 H     1 <1>   0.1500 
 38 H        2.0040    -7.2020    -2.2430 H     1 <1>   0.0800 
 39 H        1.5590    -8.6100    -1.3340 H     1 <1>   0.0800 
 40 H       -3.7430    -5.3750     0.6220 H     1 <1>   0.0800 
 41 H       -4.1250    -6.2430     2.0840 H     1 <1>   0.0800 
 42 H       -2.9600    -8.3910     2.5890 H     1 <1>   0.0800 
 43 H       -1.7210    -8.9900     1.5330 H     1 <1>   0.0800 
 44 H        3.5090    -6.4770    -0.3850 H     1 <1>   0.0800 
 45 H        3.9000    -8.0920    -0.9060 H     1 <1>   0.0800 
 46 H        2.9910    -7.8560     0.5620 H     1 <1>   0.0800 
 47 H       -4.6670    -7.1300    -0.7550 H     1 <1>   0.0800 
 48 H       -5.8600    -6.5970     0.3890 H     1 <1>   0.0800 
 49 H       -3.8060   -10.2490     1.2500 H     1 <1>   0.0800 
 50 H       -3.3860    -9.4220    -0.2200 H     1 <1>   0.0800 
 51 H       -5.4490    -8.5240     1.8120 H     1 <1>   0.0800 
 52 H       -5.7640    -9.4040    -1.0700 H     1 <1>   0.0800 
 53 H       -7.0350    -8.7210    -0.0960 H     1 <1>   0.0800 
 54 H       -6.8530   -10.6390     1.4800 H     1 <1>   0.0800 
 55 H       -5.6170   -11.3410     0.4640 H     1 <1>   0.0800 
 56 H       -9.3180   -10.6070     0.5120 H     1 <1>   0.1500 
 57 H       -8.4200   -13.1830    -2.7360 H     1 <1>   0.1500 
 58 H      -10.4500   -12.1160    -1.4410 H     1 <1>   0.1500 
@<TRIPOS>BOND
  1   1   2  1   
  2   1   3  1   
  3   2   4  1   
  4   2  28  1   
  5   2  29  1   
  6   3   5  1   
  7   3  30  1   
  8   3  31  1   
  9   4   6  1   
 10   4  32  1   
 11   4  33  1   
 12   5   6  1   
 13   5  34  1   
 14   5  35  1   
 15   6   7  1   
 16   7   8  ar  
 17   7   9  ar  
 18   8  10  ar  
 19   9  11  ar  
 20   9  36  1   
 21  10  12  1   
 22  10  13  ar  
 23  11  13  ar  
 24  11  14  1   
 25  12  15  1   
 26  12  16  1   
 27  13  37  1   
 28  14  17  1   
 29  14  38  1   
 30  14  39  1   
 31  15  18  1   
 32  15  40  1   
 33  15  41  1   
 34  16  19  1   
 35  16  42  1   
 36  16  43  1   
 37  17  44  1   
 38  17  45  1   
 39  17  46  1   
 40  18  20  1   
 41  18  47  1   
 42  18  48  1   
 43  19  20  1   
 44  19  49  1   
 45  19  50  1   
 46  20  21  1   
 47  20  51  1   
 48  21  22  1   
 49  21  52  1   
 50  21  53  1   
 51  22  23  1   
 52  22  54  1   
 53  22  55  1   
 54  23  24  1   
 55  23  25  1   
 56  24  26  2   
 57  25  27  2   
 58  25  56  1   
 59  26  27  1   
 60  26  57  1   
 61  27  58  1   
@<TRIPOS>SUBSTRUCTURE
  1 ****  12 GROUP 4 **** **** 0

# MOE 2024.06 (io_trps.svl 2023.06)
