@<TRIPOS>MOLECULE
NONAME
39 40 1 0 0 
SMALL
USER_CHARGES


@<TRIPOS>ATOM
  1 F        0.4290     1.4100    -0.3750 F     1 <1>  -0.1900 
  2 C       -0.7410     1.4850    -0.9520 C.ar  1 <1>   0.1900 
  3 C       -1.6320     2.4590    -0.5330 C.ar  1 <1>  -0.1440 
  4 C       -1.0330     0.5930    -1.9660 C.ar  1 <1>  -0.1500 
  5 C       -2.8680     2.5280    -1.1620 C.ar  1 <1>  -0.1500 
  6 C       -1.2620     3.4130     0.5850 C.3   1 <1>   0.4870 
  7 C       -2.2680     0.6770    -2.5850 C.ar  1 <1>  -0.1500 
  8 C       -3.1800     1.6410    -2.1820 C.ar  1 <1>  -0.1500 
  9 N       -0.9560     4.7410     0.0040 N.4   1 <1>  -0.9590 
 10 C        0.3660     4.6780    -0.6910 C.3   1 <1>   0.5240 
 11 C       -0.9670     5.8380     1.0240 C.3   1 <1>   0.3430 
 12 C        0.5800     5.9260    -1.5290 C.2   1 <1>  -0.1810 
 13 C       -2.3280     5.9690     1.7130 C.3   1 <1>  -0.1600 
 14 C        1.1750     7.1020    -1.0400 C.2   1 <1>   0.0560 
 15 C        0.2900     6.1610    -2.8250 C.2   1 <1>  -0.3020 
 16 C       -2.3720     7.2560     2.5430 C.3   1 <1>  -0.2400 
 17 N        1.2320     8.0030    -2.0090 N.2   1 <1>  -0.7070 
 18 C        1.5870     7.2000     0.3700 C.2   1 <1>   1.0330 
 19 N        0.6970     7.4180    -3.0870 N.pl3 1 <1>   0.3000 
 20 O        2.1590     6.2280     0.9060 O.co2 1 <1>  -0.9000 
 21 O        1.1120     8.0620     1.1310 O.co2 1 <1>  -0.9000 
 22 H       -0.3120    -0.1490    -2.2620 H     1 <1>   0.1500 
 23 H       -3.6000     3.2610    -0.8660 H     1 <1>   0.1500 
 24 H       -0.4120     3.0450     1.1380 H     1 <1>   0.0800 
 25 H       -2.0970     3.4830     1.2610 H     1 <1>   0.0800 
 26 H       -2.5210    -0.0080    -3.3780 H     1 <1>   0.1500 
 27 H       -4.1410     1.6970    -2.6680 H     1 <1>   0.1500 
 28 H       -1.6410     4.9720    -0.7190 H     1 <1>   0.4500 
 29 H        0.3890     3.8290    -1.3520 H     1 <1>   0.0800 
 30 H        1.1640     4.5540     0.0220 H     1 <1>   0.0800 
 31 H       -0.7690     6.7770     0.5330 H     1 <1>   0.0800 
 32 H       -0.1860     5.6880     1.7550 H     1 <1>   0.0800 
 33 H       -2.5000     5.1400     2.3750 H     1 <1>   0.0800 
 34 H       -3.1100     6.0110     0.9760 H     1 <1>   0.0800 
 35 H       -0.1620     5.5310    -3.5690 H     1 <1>   0.1500 
 36 H       -1.6020     7.2470     3.2970 H     1 <1>   0.0800 
 37 H       -3.3270     7.3610     3.0290 H     1 <1>   0.0800 
 38 H       -2.2110     8.1170     1.9150 H     1 <1>   0.0800 
 39 H        0.6290     7.9070    -3.9880 H     1 <1>   0.2700 
@<TRIPOS>BOND
  1   1   2  1   
  2   2   3  ar  
  3   2   4  ar  
  4   3   5  ar  
  5   3   6  1   
  6   4   7  ar  
  7   4  22  1   
  8   5   8  ar  
  9   5  23  1   
 10   6   9  1   
 11   6  24  1   
 12   6  25  1   
 13   7   8  ar  
 14   7  26  1   
 15   8  27  1   
 16   9  10  1   
 17   9  11  1   
 18   9  28  1   
 19  10  12  1   
 20  10  29  1   
 21  10  30  1   
 22  11  13  1   
 23  11  31  1   
 24  11  32  1   
 25  12  14  1   
 26  12  15  2   
 27  13  16  1   
 28  13  33  1   
 29  13  34  1   
 30  14  17  2   
 31  14  18  1   
 32  15  19  1   
 33  15  35  1   
 34  16  36  1   
 35  16  37  1   
 36  16  38  1   
 37  17  19  1   
 38  18  20  ar  
 39  18  21  ar  
 40  19  39  1   
@<TRIPOS>SUBSTRUCTURE
  1 ****   9 GROUP 4 **** **** 0

# MOE 2024.06 (io_trps.svl 2023.06)
