@<TRIPOS>MOLECULE
NONAME
49 50 1 0 0 
SMALL
USER_CHARGES


@<TRIPOS>ATOM
  1 O       -0.6720     1.5870     1.9070 O.2   1 <1>  -0.5700 
  2 C       -0.6110     2.6290     1.3060 C.2   1 <1>   0.5690 
  3 N       -1.4150     3.6630     1.6300 N.am  1 <1>  -0.7300 
  4 C        0.3570     2.7900     0.1360 C.3   1 <1>   0.1810 
  5 C       -1.4620     4.9440     0.8830 C.3   1 <1>   0.3640 
  6 O        0.6720     4.1430    -0.1110 O.3   1 <1>  -0.5600 
  7 C       -2.8940     5.1520     0.3940 C.ar  1 <1>  -0.1440 
  8 C       -0.4560     4.9950    -0.3050 C.3   1 <1>   0.2610 
  9 C       -3.5140     6.3810     0.5700 C.ar  1 <1>  -0.1500 
 10 C       -3.5960     4.1300    -0.2350 C.ar  1 <1>  -0.1500 
 11 C        0.0390     6.4300    -0.5390 C.2   1 <1>   0.5690 
 12 C       -4.8090     6.5870     0.1260 C.ar  1 <1>  -0.1500 
 13 C       -4.8910     4.3350    -0.6790 C.ar  1 <1>  -0.1500 
 14 O       -0.6890     7.3800    -0.3700 O.2   1 <1>  -0.5700 
 15 N        1.3340     6.6210    -0.9130 N.am  1 <1>  -0.7300 
 16 C       -5.4990     5.5640    -0.4980 C.ar  1 <1>  -0.1500 
 17 C        1.9530     7.9460    -1.2040 C.3   1 <1>   0.1400 
 18 C        2.7620     8.5640    -0.0180 C.3   1 <1>   0.5030 
 19 N        3.1590     9.9820    -0.3480 N.4   1 <1>  -0.9590 
 20 C        1.8940     8.6120     1.2490 C.3   1 <1>  -0.2400 
 21 C        4.0110     7.7130     0.2580 C.3   1 <1>  -0.2400 
 22 C        3.8880    10.1350    -1.6510 C.3   1 <1>   0.2630 
 23 C        3.9440    10.6880     0.7210 C.3   1 <1>   0.2630 
 24 H       -2.1100     3.5310     2.3670 H     1 <1>   0.3700 
 25 H       -0.0750     2.3680    -0.7520 H     1 <1>   0.0800 
 26 H        1.2730     2.2730     0.3600 H     1 <1>   0.0800 
 27 H       -1.2130     5.7300     1.5760 H     1 <1>   0.0800 
 28 H       -0.9530     4.6700    -1.2010 H     1 <1>   0.0800 
 29 H       -2.9930     7.1930     1.0480 H     1 <1>   0.1500 
 30 H       -3.1440     3.1650    -0.3820 H     1 <1>   0.1500 
 31 H       -5.2780     7.5460     0.2660 H     1 <1>   0.1500 
 32 H       -5.4270     3.5380    -1.1630 H     1 <1>   0.1500 
 33 H        1.9200     5.7780    -0.9710 H     1 <1>   0.3700 
 34 H       -6.5050     5.7250    -0.8430 H     1 <1>   0.1500 
 35 H        2.5930     7.8210    -2.0580 H     1 <1>   0.0800 
 36 H        1.1670     8.6290    -1.4770 H     1 <1>   0.0800 
 37 H        2.2650    10.4890    -0.4350 H     1 <1>   0.4500 
 38 H        1.5750     7.6210     1.5180 H     1 <1>   0.0800 
 39 H        1.0090     9.2010     1.0840 H     1 <1>   0.0800 
 40 H        2.4280     8.9930     2.0990 H     1 <1>   0.0800 
 41 H        3.7150     6.7070     0.5010 H     1 <1>   0.0800 
 42 H        4.5700     8.0830     1.0970 H     1 <1>   0.0800 
 43 H        4.6510     7.6610    -0.6030 H     1 <1>   0.0800 
 44 H        4.8210     9.5970    -1.6260 H     1 <1>   0.0800 
 45 H        4.1000    11.1750    -1.8390 H     1 <1>   0.0800 
 46 H        3.2930     9.7620    -2.4690 H     1 <1>   0.0800 
 47 H        4.8830    10.1880     0.8920 H     1 <1>   0.0800 
 48 H        3.3930    10.7150     1.6470 H     1 <1>   0.0800 
 49 H        4.1480    11.7040     0.4240 H     1 <1>   0.0800 
@<TRIPOS>BOND
  1   1   2  2   
  2   2   3  am  
  3   2   4  1   
  4   3   5  1   
  5   3  24  1   
  6   4   6  1   
  7   4  25  1   
  8   4  26  1   
  9   5   7  1   
 10   5   8  1   
 11   5  27  1   
 12   6   8  1   
 13   7   9  ar  
 14   7  10  ar  
 15   8  11  1   
 16   8  28  1   
 17   9  12  ar  
 18   9  29  1   
 19  10  13  ar  
 20  10  30  1   
 21  11  14  2   
 22  11  15  am  
 23  12  16  ar  
 24  12  31  1   
 25  13  16  ar  
 26  13  32  1   
 27  15  17  1   
 28  15  33  1   
 29  16  34  1   
 30  17  18  1   
 31  17  35  1   
 32  17  36  1   
 33  18  19  1   
 34  18  20  1   
 35  18  21  1   
 36  19  22  1   
 37  19  23  1   
 38  19  37  1   
 39  20  38  1   
 40  20  39  1   
 41  20  40  1   
 42  21  41  1   
 43  21  42  1   
 44  21  43  1   
 45  22  44  1   
 46  22  45  1   
 47  22  46  1   
 48  23  47  1   
 49  23  48  1   
 50  23  49  1   
@<TRIPOS>SUBSTRUCTURE
  1 ****  11 GROUP 4 **** **** 0

# MOE 2024.06 (io_trps.svl 2023.06)
