@<TRIPOS>MOLECULE
NONAME
51 53 1 0 0 
SMALL
USER_CHARGES


@<TRIPOS>ATOM
  1 O        0.8540     0.3370    -0.2190 O.co2 1 <1>  -0.9000 
  2 C        2.0790     0.5360    -0.0930 C.2   1 <1>   1.0320 
  3 O        2.8160    -0.4410     0.1400 O.co2 1 <1>  -0.9000 
  4 C        2.6020     1.8900    -0.2140 C.2   1 <1>  -0.0920 
  5 O        3.8990     2.1820    -0.0960 O.3   1 <1>  -0.2800 
  6 C        1.9310     3.0500    -0.4530 C.2   1 <1>  -0.1500 
  7 C        4.0660     3.4770    -0.2460 C.2   1 <1>  -0.0400 
  8 C        2.8760     4.0760    -0.4740 C.2   1 <1>  -0.1500 
  9 C        5.4770     4.0180    -0.1360 C.3   1 <1>   0.3200 
 10 N        5.4360     5.4550     0.2380 N.am  1 <1>  -0.7300 
 11 C        6.3030     6.3920    -0.2250 C.2   1 <1>   0.5690 
 12 O        7.2180     6.1060    -0.9600 O.2   1 <1>  -0.5700 
 13 C        6.1650     7.8720     0.1830 C.3   1 <1>   0.4040 
 14 N        7.4200     8.6810    -0.0760 N.4   1 <1>  -0.9590 
 15 C        8.5210     8.2920     0.8550 C.3   1 <1>   0.3430 
 16 C        7.1610    10.1480    -0.1060 C.3   1 <1>   0.3430 
 17 C        9.8080     9.0060     0.4530 C.3   1 <1>  -0.1600 
 18 C        8.4330    10.8840    -0.5210 C.3   1 <1>  -0.1600 
 19 C        9.6150    10.5300     0.3960 C.3   1 <1>   0.1000 
 20 C       10.8870    11.2320    -0.0550 C.2   1 <1>   0.2980 
 21 O       11.3800    10.9640    -1.2380 O.3   1 <1>  -0.0190 
 22 N       11.5350    12.0810     0.6320 N.2   1 <1>  -0.5650 
 23 N       12.4350    11.7120    -1.3110 N.2   1 <1>  -0.4100 
 24 C       12.5200    12.3590    -0.2150 C.2   1 <1>   0.3350 
 25 C       13.6070    13.3720     0.1520 C.3   1 <1>   0.1010 
 26 C       13.1430    14.8010    -0.1630 C.3   1 <1>  -0.2400 
 27 C       14.9410    13.0840    -0.5550 C.3   1 <1>  -0.2400 
 28 H        0.8690     3.1460    -0.5970 H     1 <1>   0.1500 
 29 H        2.6520     5.1110    -0.6480 H     1 <1>   0.1500 
 30 H        5.9930     3.8740    -1.0710 H     1 <1>   0.0800 
 31 H        5.9990     3.4690     0.6290 H     1 <1>   0.0800 
 32 H        4.6470     5.6600     0.8560 H     1 <1>   0.3700 
 33 H        5.9040     7.9250     1.2250 H     1 <1>   0.0800 
 34 H        5.3510     8.2870    -0.3880 H     1 <1>   0.0800 
 35 H        7.7340     8.3740    -1.0140 H     1 <1>   0.4500 
 36 H        8.6800     7.2240     0.8120 H     1 <1>   0.0800 
 37 H        8.2590     8.5580     1.8660 H     1 <1>   0.0800 
 38 H        6.8520    10.4850     0.8700 H     1 <1>   0.0800 
 39 H        6.3740    10.3720    -0.8090 H     1 <1>   0.0800 
 40 H       10.1360     8.6350    -0.5030 H     1 <1>   0.0800 
 41 H       10.5790     8.7730     1.1680 H     1 <1>   0.0800 
 42 H        8.2570    11.9450    -0.4750 H     1 <1>   0.0800 
 43 H        8.6690    10.6420    -1.5430 H     1 <1>   0.0800 
 44 H        9.3920    10.8820     1.3900 H     1 <1>   0.0800 
 45 H       13.7730    13.2960     1.2130 H     1 <1>   0.0800 
 46 H       12.9590    14.9080    -1.2170 H     1 <1>   0.0800 
 47 H       13.8910    15.5140     0.1350 H     1 <1>   0.0800 
 48 H       12.2330    15.0160     0.3680 H     1 <1>   0.0800 
 49 H       14.8290    13.1740    -1.6220 H     1 <1>   0.0800 
 50 H       15.2680    12.0850    -0.3290 H     1 <1>   0.0800 
 51 H       15.6970    13.7750    -0.2270 H     1 <1>   0.0800 
@<TRIPOS>BOND
  1   1   2  ar  
  2   2   3  ar  
  3   2   4  1   
  4   4   5  1   
  5   4   6  2   
  6   5   7  1   
  7   6   8  1   
  8   6  28  1   
  9   7   8  2   
 10   7   9  1   
 11   8  29  1   
 12   9  10  1   
 13   9  30  1   
 14   9  31  1   
 15  10  11  am  
 16  10  32  1   
 17  11  12  2   
 18  11  13  1   
 19  13  14  1   
 20  13  33  1   
 21  13  34  1   
 22  14  15  1   
 23  14  16  1   
 24  14  35  1   
 25  15  17  1   
 26  15  36  1   
 27  15  37  1   
 28  16  18  1   
 29  16  38  1   
 30  16  39  1   
 31  17  19  1   
 32  17  40  1   
 33  17  41  1   
 34  18  19  1   
 35  18  42  1   
 36  18  43  1   
 37  19  20  1   
 38  19  44  1   
 39  20  21  1   
 40  20  22  2   
 41  21  23  1   
 42  22  24  1   
 43  23  24  2   
 44  24  25  1   
 45  25  26  1   
 46  25  27  1   
 47  25  45  1   
 48  26  46  1   
 49  26  47  1   
 50  26  48  1   
 51  27  49  1   
 52  27  50  1   
 53  27  51  1   
@<TRIPOS>SUBSTRUCTURE
  1 ****  14 GROUP 4 **** **** 0

# MOE 2024.06 (io_trps.svl 2023.06)
