@<TRIPOS>MOLECULE
NONAME
55 58 1 0 0 
SMALL
USER_CHARGES


@<TRIPOS>ATOM
  1 O       -1.2530    -1.7900    -3.0320 O.2   1 <1>  -0.5700 
  2 C       -1.6530    -1.8890    -1.8800 C.2   1 <1>   0.7160 
  3 N       -1.3080    -3.0480    -1.1980 N.am  1 <1>  -0.6600 
  4 C       -2.4440    -0.7880    -1.3220 C.2   1 <1>   0.2030 
  5 C       -1.3770    -3.1710     0.2930 C.3   1 <1>   0.2200 
  6 C       -0.7950    -4.2190    -1.9540 C.3   1 <1>   0.1400 
  7 N       -3.2040    -0.7840    -0.2360 N.2   1 <1>  -0.7070 
  8 C       -2.5020     0.4740    -1.9300 C.2   1 <1>  -0.1500 
  9 C       -0.0770    -3.7540     0.9020 C.3   1 <1>   0.1200 
 10 C       -2.6990    -3.8480     0.7330 C.3   1 <1>   0.1100 
 11 C       -1.0280    -5.5650    -1.2600 C.3   1 <1>  -0.0800 
 12 N       -3.7340     0.4450    -0.1530 N.pl3 1 <1>   0.3140 
 13 C       -3.3190     1.2240    -1.1690 C.2   1 <1>  -0.3020 
 14 O       -0.0270    -5.1490     0.9780 O.3   1 <1>  -0.5600 
 15 N       -2.8140    -5.3100     0.5290 N.3   1 <1>  -0.8100 
 16 C        0.0590    -5.8780    -0.2070 C.3   1 <1>   0.1200 
 17 C       -2.4960    -5.7760    -0.8310 C.3   1 <1>   0.1100 
 18 C       -4.6620     0.8300     0.9480 C.3   1 <1>   0.1760 
 19 C       -4.1310    -5.8050     0.9740 C.3   1 <1>   0.2900 
 20 C       -6.0410     1.2110     0.3900 C.3   1 <1>  -0.2400 
 21 C       -4.0710     1.9750     1.7840 C.3   1 <1>  -0.2400 
 22 C       -4.0860    -7.2860     1.3170 C.2   1 <1>  -0.0400 
 23 O       -5.2200    -7.9560     1.3980 O.3   1 <1>  -0.2800 
 24 C       -3.0400    -8.0990     1.5790 C.2   1 <1>  -0.1500 
 25 C       -4.9270    -9.2030     1.7060 C.2   1 <1>  -0.0400 
 26 C       -3.5920    -9.3600     1.8330 C.2   1 <1>  -0.1500 
 27 C       -6.0570   -10.1950     1.8610 C.3   1 <1>  -0.0600 
 28 H       -1.4120    -2.1720     0.6820 H     1 <1>   0.0800 
 29 H       -1.2890    -4.2480    -2.9110 H     1 <1>   0.0800 
 30 H        0.2550    -4.0780    -2.1400 H     1 <1>   0.0800 
 31 H       -1.9810     0.7470    -2.8320 H     1 <1>   0.1500 
 32 H       -0.0020    -3.4070     1.9170 H     1 <1>   0.0800 
 33 H        0.7860    -3.4020     0.3660 H     1 <1>   0.0800 
 34 H       -3.5130    -3.3570     0.2290 H     1 <1>   0.0800 
 35 H       -2.8130    -3.6570     1.7850 H     1 <1>   0.0800 
 36 H       -0.8610    -6.2880    -2.0380 H     1 <1>   0.0800 
 37 H       -3.6250     2.2460    -1.2920 H     1 <1>   0.1500 
 38 H        1.0380    -5.7140    -0.6200 H     1 <1>   0.0800 
 39 H       -0.0160    -6.9140     0.0720 H     1 <1>   0.0800 
 40 H       -2.6910    -6.8340    -0.8780 H     1 <1>   0.0800 
 41 H       -3.1540    -5.2980    -1.5380 H     1 <1>   0.0800 
 42 H       -4.7760    -0.0320     1.5810 H     1 <1>   0.0800 
 43 H       -4.4430    -5.2750     1.8570 H     1 <1>   0.0800 
 44 H       -4.8620    -5.6330     0.2040 H     1 <1>   0.0800 
 45 H       -5.9740     2.0820    -0.2360 H     1 <1>   0.0800 
 46 H       -6.7190     1.4220     1.1980 H     1 <1>   0.0800 
 47 H       -6.4420     0.3930    -0.1820 H     1 <1>   0.0800 
 48 H       -3.9580     2.8640     1.1900 H     1 <1>   0.0800 
 49 H       -3.1110     1.6860     2.1740 H     1 <1>   0.0800 
 50 H       -4.7190     2.1970     2.6120 H     1 <1>   0.0800 
 51 H       -1.9960    -7.8390     1.5970 H     1 <1>   0.1500 
 52 H       -3.0330   -10.2450     2.0770 H     1 <1>   0.1500 
 53 H       -5.6690   -11.1650     2.1120 H     1 <1>   0.0800 
 54 H       -6.6070   -10.2630     0.9400 H     1 <1>   0.0800 
 55 H       -6.7200    -9.8690     2.6410 H     1 <1>   0.0800 
@<TRIPOS>BOND
  1   1   2  2   
  2   2   3  am  
  3   2   4  1   
  4   3   5  1   
  5   3   6  1   
  6   4   7  2   
  7   4   8  1   
  8   5   9  1   
  9   5  10  1   
 10   5  28  1   
 11   6  11  1   
 12   6  29  1   
 13   6  30  1   
 14   7  12  1   
 15   8  13  2   
 16   8  31  1   
 17   9  14  1   
 18   9  32  1   
 19   9  33  1   
 20  10  15  1   
 21  10  34  1   
 22  10  35  1   
 23  11  16  1   
 24  11  17  1   
 25  11  36  1   
 26  12  13  1   
 27  12  18  1   
 28  13  37  1   
 29  14  16  1   
 30  15  17  1   
 31  15  19  1   
 32  16  38  1   
 33  16  39  1   
 34  17  40  1   
 35  17  41  1   
 36  18  20  1   
 37  18  21  1   
 38  18  42  1   
 39  19  22  1   
 40  19  43  1   
 41  19  44  1   
 42  20  45  1   
 43  20  46  1   
 44  20  47  1   
 45  21  48  1   
 46  21  49  1   
 47  21  50  1   
 48  22  23  1   
 49  22  24  2   
 50  23  25  1   
 51  24  26  1   
 52  24  51  1   
 53  25  26  2   
 54  25  27  1   
 55  26  52  1   
 56  27  53  1   
 57  27  54  1   
 58  27  55  1   
@<TRIPOS>SUBSTRUCTURE
  1 ****  10 GROUP 4 **** **** 0

# MOE 2024.06 (io_trps.svl 2023.06)
