@<TRIPOS>MOLECULE
NONAME
54 56 1 0 0 
SMALL
USER_CHARGES


@<TRIPOS>ATOM
  1 O        1.9200    -1.4030    -1.0060 O.co2 1 <1>  -0.9000 
  2 C        1.5110    -0.7100    -0.0630 C.2   1 <1>   0.9060 
  3 O        0.7980    -1.1870     0.8280 O.co2 1 <1>  -0.9000 
  4 C        1.9460     0.7720    -0.0440 C.3   1 <1>  -0.1060 
  5 C        3.2620     0.2930     0.7590 C.3   1 <1>   0.2000 
  6 C        2.4310     2.3200    -0.0950 C.3   1 <1>  -0.1600 
  7 C        0.5860     1.1550    -0.8110 C.3   1 <1>  -0.0160 
  8 O        3.5020     0.9720     1.9580 O.3   1 <1>  -0.6800 
  9 C        4.5300     0.3990    -0.1010 C.3   1 <1>   0.1400 
 10 C        3.6910     2.5470    -0.9440 C.3   1 <1>   0.1400 
 11 C       -0.3880     2.0330    -0.0100 C.ar  1 <1>  -0.1440 
 12 N        4.8500     1.8300    -0.3690 N.am  1 <1>  -0.6600 
 13 C       -1.0310     3.1020    -0.6180 C.ar  1 <1>  -0.1500 
 14 C       -0.6400     1.7680     1.3270 C.ar  1 <1>  -0.1500 
 15 C        6.0970     2.3540    -0.1390 C.2   1 <1>   0.5690 
 16 C       -1.9030     3.9010     0.1020 C.ar  1 <1>  -0.1500 
 17 C       -1.5100     2.5650     2.0500 C.ar  1 <1>  -0.1500 
 18 O        6.9860     1.6890     0.3370 O.2   1 <1>  -0.5700 
 19 C        6.3810     3.8140    -0.4820 C.3   1 <1>  -0.0990 
 20 C       -2.1410     3.6340     1.4390 C.ar  1 <1>  -0.1500 
 21 C        7.8400     4.2560    -0.2530 C.3   1 <1>  -0.1600 
 22 C        8.0880     5.7140    -0.6740 C.3   1 <1>  -0.0800 
 23 C        9.5410     6.1370    -0.4790 C.3   1 <1>  -0.1600 
 24 C        7.3070     6.7440     0.1420 C.3   1 <1>  -0.1600 
 25 C        9.5030     7.6640    -0.4590 C.3   1 <1>  -0.1600 
 26 C        8.0930     8.0510     0.0010 C.3   1 <1>  -0.1600 
 27 H        3.2620    -0.7390     1.0890 H     1 <1>   0.0800 
 28 H        2.5470     2.7550     0.8790 H     1 <1>   0.0800 
 29 H        1.7610     3.0380    -0.5320 H     1 <1>   0.0800 
 30 H        0.8240     1.6200    -1.7530 H     1 <1>   0.0800 
 31 H       -0.0420     0.3370    -1.1430 H     1 <1>   0.0800 
 32 H        4.0320     1.7590     1.7300 H     1 <1>   0.4000 
 33 H        4.3670    -0.1160    -1.0320 H     1 <1>   0.0800 
 34 H        5.3430    -0.0900     0.4080 H     1 <1>   0.0800 
 35 H        3.8840     3.6020    -1.0080 H     1 <1>   0.0800 
 36 H        3.5170     2.1780    -1.9410 H     1 <1>   0.0800 
 37 H       -0.8550     3.3130    -1.6570 H     1 <1>   0.1500 
 38 H       -0.1550     0.9320     1.8080 H     1 <1>   0.1500 
 39 H       -2.3960     4.7270    -0.3770 H     1 <1>   0.1500 
 40 H       -1.6920     2.3440     3.0870 H     1 <1>   0.1500 
 41 H        6.1340     3.9670    -1.5160 H     1 <1>   0.0800 
 42 H        5.7320     4.4220     0.1190 H     1 <1>   0.0800 
 43 H       -2.8170     4.2520     2.0020 H     1 <1>   0.1500 
 44 H        8.4900     3.6140    -0.8230 H     1 <1>   0.0800 
 45 H        8.0900     4.1280     0.7860 H     1 <1>   0.0800 
 46 H        7.8390     5.8370    -1.7150 H     1 <1>   0.0800 
 47 H        9.8990     5.7800     0.4720 H     1 <1>   0.0800 
 48 H       10.1790     5.7590    -1.2590 H     1 <1>   0.0800 
 49 H        6.2940     6.8510    -0.2050 H     1 <1>   0.0800 
 50 H        7.2960     6.4520     1.1780 H     1 <1>   0.0800 
 51 H       10.2580     8.0620     0.1970 H     1 <1>   0.0800 
 52 H        9.6710     8.0420    -1.4530 H     1 <1>   0.0800 
 53 H        7.6320     8.6830    -0.7390 H     1 <1>   0.0800 
 54 H        8.1200     8.5780     0.9390 H     1 <1>   0.0800 
@<TRIPOS>BOND
  1   1   2  ar  
  2   2   3  ar  
  3   2   4  1   
  4   4   5  1   
  5   4   6  1   
  6   4   7  1   
  7   5   8  1   
  8   5   9  1   
  9   5  27  1   
 10   6  10  1   
 11   6  28  1   
 12   6  29  1   
 13   7  11  1   
 14   7  30  1   
 15   7  31  1   
 16   8  32  1   
 17   9  12  1   
 18   9  33  1   
 19   9  34  1   
 20  10  12  1   
 21  10  35  1   
 22  10  36  1   
 23  11  13  ar  
 24  11  14  ar  
 25  12  15  am  
 26  13  16  ar  
 27  13  37  1   
 28  14  17  ar  
 29  14  38  1   
 30  15  18  2   
 31  15  19  1   
 32  16  20  ar  
 33  16  39  1   
 34  17  20  ar  
 35  17  40  1   
 36  19  21  1   
 37  19  41  1   
 38  19  42  1   
 39  20  43  1   
 40  21  22  1   
 41  21  44  1   
 42  21  45  1   
 43  22  23  1   
 44  22  24  1   
 45  22  46  1   
 46  23  25  1   
 47  23  47  1   
 48  23  48  1   
 49  24  26  1   
 50  24  49  1   
 51  24  50  1   
 52  25  26  1   
 53  25  51  1   
 54  25  52  1   
 55  26  53  1   
 56  26  54  1   
@<TRIPOS>SUBSTRUCTURE
  1 ****  10 GROUP 4 **** **** 0

# MOE 2024.06 (io_trps.svl 2023.06)
