@<TRIPOS>MOLECULE
NONAME
57 60 1 0 0 
SMALL
USER_CHARGES


@<TRIPOS>ATOM
  1 O       -1.0960    -1.9600     1.9450 O.2   1 <1>  -0.5700 
  2 C       -0.2480    -2.6320     1.4110 C.2   1 <1>   0.5690 
  3 N       -0.4880    -3.4240     0.3210 N.am  1 <1>  -0.6600 
  4 C        1.1610    -2.6140     1.9670 C.3   1 <1>  -0.0990 
  5 C        0.6070    -4.2280    -0.2780 C.3   1 <1>   0.1400 
  6 C       -1.8370    -3.5620    -0.2890 C.3   1 <1>   0.0600 
  7 C        2.1830    -2.4710     0.8260 C.3   1 <1>  -0.0800 
  8 C        1.8880    -3.3790    -0.3920 C.3   1 <1>  -0.0800 
  9 C        3.6210    -2.7770     1.2620 C.3   1 <1>  -0.1600 
 10 C        3.1510    -4.2260    -0.6000 C.3   1 <1>  -0.1600 
 11 C        4.2660    -3.3890     0.0250 C.3   1 <1>   0.2200 
 12 N        5.5200    -4.1350     0.3540 N.am  1 <1>  -0.6600 
 13 C        6.7740    -3.6020     0.1640 C.2   1 <1>   0.5690 
 14 C        5.3840    -5.5060     0.9380 C.3   1 <1>   0.0600 
 15 O        7.7750    -4.2570     0.3460 O.2   1 <1>  -0.5700 
 16 C        6.9370    -2.1550    -0.2810 C.3   1 <1>  -0.0990 
 17 C        8.3800    -1.6200    -0.1910 C.3   1 <1>  -0.0170 
 18 C        8.5310    -0.1490    -0.5880 C.ar  1 <1>   0.1670 
 19 N        7.4640     0.5270    -0.9010 N.ar  1 <1>  -0.6200 
 20 C        9.8420     0.4150    -0.5910 C.ar  1 <1>   0.3920 
 21 C        7.6950     1.8230    -1.2370 C.ar  1 <1>   0.3100 
 22 O       10.8700    -0.3900    -0.2420 O.3   1 <1>  -0.3630 
 23 N       10.0970     1.6530    -0.9090 N.ar  1 <1>  -0.6200 
 24 C        8.9990     2.3760    -1.2400 C.ar  1 <1>   0.3100 
 25 C        6.6120     2.6410    -1.5910 C.ar  1 <1>  -0.1500 
 26 C       12.2040     0.0790    -0.2180 C.3   1 <1>   0.0400 
 27 C        9.1550     3.7240    -1.6000 C.ar  1 <1>  -0.1500 
 28 C        6.7930     3.9550    -1.9380 C.ar  1 <1>  -0.1500 
 29 C        8.0790     4.5020    -1.9430 C.ar  1 <1>  -0.1500 
 30 H        1.2650    -1.7990     2.6600 H     1 <1>   0.0800 
 31 H        1.3130    -3.5330     2.5010 H     1 <1>   0.0800 
 32 H        0.7800    -5.0820     0.3550 H     1 <1>   0.0800 
 33 H        0.3190    -4.5830    -1.2530 H     1 <1>   0.0800 
 34 H       -1.8080    -3.2370    -1.3140 H     1 <1>   0.0800 
 35 H       -2.5550    -2.9600     0.2420 H     1 <1>   0.0800 
 36 H       -2.1530    -4.5890    -0.2470 H     1 <1>   0.0800 
 37 H        2.1440    -1.4510     0.4790 H     1 <1>   0.0800 
 38 H        1.7730    -2.7390    -1.2520 H     1 <1>   0.0800 
 39 H        3.6230    -3.4930     2.0650 H     1 <1>   0.0800 
 40 H        4.1350    -1.8860     1.5770 H     1 <1>   0.0800 
 41 H        3.3380    -4.4130    -1.6430 H     1 <1>   0.0800 
 42 H        3.0340    -5.1590    -0.0810 H     1 <1>   0.0800 
 43 H        4.4790    -2.5940    -0.6680 H     1 <1>   0.0800 
 44 H        4.5940    -5.5280     1.6670 H     1 <1>   0.0800 
 45 H        6.2950    -5.8050     1.4270 H     1 <1>   0.0800 
 46 H        5.1710    -6.2120     0.1560 H     1 <1>   0.0800 
 47 H        6.6030    -2.0720    -1.2980 H     1 <1>   0.0800 
 48 H        6.3130    -1.5390     0.3390 H     1 <1>   0.0800 
 49 H        9.0100    -2.2140    -0.8290 H     1 <1>   0.0800 
 50 H        8.7330    -1.7390     0.8180 H     1 <1>   0.0800 
 51 H        5.6310     2.2020    -1.5820 H     1 <1>   0.1500 
 52 H       12.8420    -0.7310     0.0850 H     1 <1>   0.0800 
 53 H       12.2740     0.8910     0.4840 H     1 <1>   0.0800 
 54 H       12.4720     0.4130    -1.2050 H     1 <1>   0.0800 
 55 H       10.1510     4.1290    -1.5980 H     1 <1>   0.1500 
 56 H        5.9560     4.5760    -2.2090 H     1 <1>   0.1500 
 57 H        8.2110     5.5350    -2.2170 H     1 <1>   0.1500 
@<TRIPOS>BOND
  1   1   2  2   
  2   2   3  am  
  3   2   4  1   
  4   3   5  1   
  5   3   6  1   
  6   4   7  1   
  7   4  30  1   
  8   4  31  1   
  9   5   8  1   
 10   5  32  1   
 11   5  33  1   
 12   6  34  1   
 13   6  35  1   
 14   6  36  1   
 15   7   8  1   
 16   7   9  1   
 17   7  37  1   
 18   8  10  1   
 19   8  38  1   
 20   9  11  1   
 21   9  39  1   
 22   9  40  1   
 23  10  11  1   
 24  10  41  1   
 25  10  42  1   
 26  11  12  1   
 27  11  43  1   
 28  12  13  am  
 29  12  14  1   
 30  13  15  2   
 31  13  16  1   
 32  14  44  1   
 33  14  45  1   
 34  14  46  1   
 35  16  17  1   
 36  16  47  1   
 37  16  48  1   
 38  17  18  1   
 39  17  49  1   
 40  17  50  1   
 41  18  19  ar  
 42  18  20  ar  
 43  19  21  ar  
 44  20  22  1   
 45  20  23  ar  
 46  21  24  ar  
 47  21  25  ar  
 48  22  26  1   
 49  23  24  ar  
 50  24  27  ar  
 51  25  28  ar  
 52  25  51  1   
 53  26  52  1   
 54  26  53  1   
 55  26  54  1   
 56  27  29  ar  
 57  27  55  1   
 58  28  29  ar  
 59  28  56  1   
 60  29  57  1   
@<TRIPOS>SUBSTRUCTURE
  1 ****  16 GROUP 4 **** **** 0

# MOE 2024.06 (io_trps.svl 2023.06)
