@<TRIPOS>MOLECULE
NONAME
52 55 1 0 0 
SMALL
USER_CHARGES


@<TRIPOS>ATOM
  1 O       -0.3100    -1.0410     1.6110 O.2   1 <1>  -0.5700 
  2 C       -0.1820    -0.3040     0.6620 C.2   1 <1>   0.5690 
  3 N       -1.1190    -0.3170    -0.3510 N.am  1 <1>  -0.6600 
  4 C        1.0290     0.6360     0.6620 C.3   1 <1>   0.1810 
  5 C       -1.2070     0.6320    -1.5090 C.3   1 <1>   0.1400 
  6 C       -2.3560    -1.1410    -0.2100 C.3   1 <1>   0.1400 
  7 O        0.8680     1.7210     1.5680 O.3   1 <1>  -0.3620 
  8 C       -2.5630     1.3910    -1.5510 C.3   1 <1>   0.4230 
  9 C       -3.5660    -0.2410     0.1120 C.3   1 <1>   0.3430 
 10 C       -0.2750     2.4370     1.5470 C.ar  1 <1>   0.0830 
 11 N       -3.3680     1.2080    -0.2810 N.4   1 <1>  -0.9590 
 12 C       -3.4070     1.0070    -2.7860 C.3   1 <1>   0.1200 
 13 C       -0.6090     3.2250     0.4590 C.ar  1 <1>  -0.1500 
 14 C       -1.1060     2.3880     2.6540 C.ar  1 <1>  -0.1500 
 15 C       -4.6420     1.9860    -0.3820 C.3   1 <1>   0.5180 
 16 O       -4.5950     1.7460    -2.8100 O.3   1 <1>  -0.5600 
 17 C       -1.7960     3.9380     0.4660 C.ar  1 <1>   0.0830 
 18 C       -2.2770     3.1270     2.6760 C.ar  1 <1>  -0.1500 
 19 C       -5.4570     1.8020     0.9150 C.3   1 <1>  -0.1950 
 20 C       -5.4120     1.6150    -1.6760 C.3   1 <1>   0.1200 
 21 O       -2.1200     4.6210    -0.6530 O.3   1 <1>  -0.3630 
 22 C       -2.6240     3.9050     1.5840 C.ar  1 <1>  -0.1500 
 23 C       -6.4500     0.7030     1.1590 C.3   1 <1>  -0.2000 
 24 C       -6.9170     2.1240     1.0130 C.3   1 <1>  -0.2000 
 25 C       -2.7100     5.9000    -0.5310 C.3   1 <1>   0.0400 
 26 H        1.2420     1.0310    -0.3110 H     1 <1>   0.0800 
 27 H        1.8890     0.0820     0.9910 H     1 <1>   0.0800 
 28 H       -0.4180     1.3560    -1.4750 H     1 <1>   0.0800 
 29 H       -1.0700     0.0790    -2.4220 H     1 <1>   0.0800 
 30 H       -2.5340    -1.6680    -1.1310 H     1 <1>   0.0800 
 31 H       -2.2510    -1.8880     0.5600 H     1 <1>   0.0800 
 32 H       -2.3320     2.4380    -1.6640 H     1 <1>   0.0800 
 33 H       -3.7550    -0.2920     1.1720 H     1 <1>   0.0800 
 34 H       -4.4320    -0.6450    -0.3840 H     1 <1>   0.0800 
 35 H       -2.8020     1.6350     0.4690 H     1 <1>   0.4500 
 36 H       -3.6500    -0.0410    -2.7910 H     1 <1>   0.0800 
 37 H       -2.8690     1.2380    -3.6890 H     1 <1>   0.0800 
 38 H        0.0560     3.3010    -0.3800 H     1 <1>   0.1500 
 39 H       -0.8230     1.7790     3.4970 H     1 <1>   0.1500 
 40 H       -4.3930     3.0320    -0.4590 H     1 <1>   0.0800 
 41 H       -2.9080     3.1000     3.5490 H     1 <1>   0.1500 
 42 H       -4.8790     2.1200     1.7660 H     1 <1>   0.1000 
 43 H       -6.2480     2.2780    -1.8090 H     1 <1>   0.0800 
 44 H       -5.7810     0.6070    -1.6390 H     1 <1>   0.0800 
 45 H       -3.5330     4.4770     1.6160 H     1 <1>   0.1500 
 46 H       -6.7420     0.0130     0.3860 H     1 <1>   0.1000 
 47 H       -6.5080     0.2560     2.1380 H     1 <1>   0.1000 
 48 H       -7.2820     2.6310     1.8920 H     1 <1>   0.1000 
 49 H       -7.4990     2.3720     0.1410 H     1 <1>   0.1000 
 50 H       -2.6740     6.3800    -1.4930 H     1 <1>   0.0800 
 51 H       -2.1500     6.4780     0.1840 H     1 <1>   0.0800 
 52 H       -3.7330     5.7950    -0.2170 H     1 <1>   0.0800 
@<TRIPOS>BOND
  1   1   2  2   
  2   2   3  am  
  3   2   4  1   
  4   3   5  1   
  5   3   6  1   
  6   4   7  1   
  7   4  26  1   
  8   4  27  1   
  9   5   8  1   
 10   5  28  1   
 11   5  29  1   
 12   6   9  1   
 13   6  30  1   
 14   6  31  1   
 15   7  10  1   
 16   8  11  1   
 17   8  12  1   
 18   8  32  1   
 19   9  11  1   
 20   9  33  1   
 21   9  34  1   
 22  10  13  ar  
 23  10  14  ar  
 24  11  15  1   
 25  11  35  1   
 26  12  16  1   
 27  12  36  1   
 28  12  37  1   
 29  13  17  ar  
 30  13  38  1   
 31  14  18  ar  
 32  14  39  1   
 33  15  19  1   
 34  15  20  1   
 35  15  40  1   
 36  16  20  1   
 37  17  21  1   
 38  17  22  ar  
 39  18  22  ar  
 40  18  41  1   
 41  19  23  1   
 42  19  24  1   
 43  19  42  1   
 44  20  43  1   
 45  20  44  1   
 46  21  25  1   
 47  22  45  1   
 48  23  24  1   
 49  23  46  1   
 50  23  47  1   
 51  24  48  1   
 52  24  49  1   
 53  25  50  1   
 54  25  51  1   
 55  25  52  1   
@<TRIPOS>SUBSTRUCTURE
  1 ****  11 GROUP 4 **** **** 0

# MOE 2024.06 (io_trps.svl 2023.06)
