@<TRIPOS>MOLECULE
NONAME
22 21 1 0 0 
SMALL
USER_CHARGES


@<TRIPOS>ATOM
  1 O        7.8460     1.1390     0.0890 O.2   1 <1>  -0.5700 
  2 C        7.4340     0.1290    -0.4480 C.2   1 <1>   0.6160 
  3 N        8.3610    -0.7230    -0.9720 N.am  1 <1>  -0.7300 
  4 C        6.0200    -0.1930    -0.5120 C.2   1 <1>  -0.1240 
  5 C        9.7760    -0.3980    -1.3240 C.3   1 <1>   0.1400 
  6 C        5.4850    -1.3360    -0.9830 C.2   1 <1>  -0.3000 
  7 C        5.0770     0.8880     0.0110 C.3   1 <1>  -0.1020 
  8 C       10.7150    -0.4480    -0.1010 C.3   1 <1>   0.3430 
  9 N       10.3640     0.5980     0.8950 N.4   1 <1>  -0.8530 
 10 H        7.9730    -1.5400    -1.4550 H     1 <1>   0.3700 
 11 H        9.8180     0.5780    -1.7790 H     1 <1>   0.0800 
 12 H       10.1180    -1.1110    -2.0550 H     1 <1>   0.0800 
 13 H        4.4270    -1.5330    -1.0140 H     1 <1>   0.1500 
 14 H        6.0430    -2.1680    -1.3740 H     1 <1>   0.1500 
 15 H        5.2160     1.7990    -0.5440 H     1 <1>   0.0800 
 16 H        5.2780     1.0860     1.0490 H     1 <1>   0.0800 
 17 H        4.0470     0.5900    -0.0830 H     1 <1>   0.0800 
 18 H       11.7360    -0.3150    -0.4220 H     1 <1>   0.0800 
 19 H       10.6320    -1.4240     0.3500 H     1 <1>   0.0800 
 20 H       10.7390     1.5180     0.6450 H     1 <1>   0.4500 
 21 H       10.6380     0.3600     1.8530 H     1 <1>   0.4500 
 22 H        9.3310     0.7210     0.8730 H     1 <1>   0.4500 
@<TRIPOS>BOND
  1   1   2  2   
  2   2   3  am  
  3   2   4  1   
  4   3   5  1   
  5   3  10  1   
  6   4   6  2   
  7   4   7  1   
  8   5   8  1   
  9   5  11  1   
 10   5  12  1   
 11   6  13  1   
 12   6  14  1   
 13   7  15  1   
 14   7  16  1   
 15   7  17  1   
 16   8   9  1   
 17   8  18  1   
 18   8  19  1   
 19   9  20  1   
 20   9  21  1   
 21   9  22  1   
@<TRIPOS>SUBSTRUCTURE
  1 ****   2 GROUP 4 **** **** 0

# MOE 2024.06 (io_trps.svl 2023.06)
