@<TRIPOS>MOLECULE
NONAME
48 49 1 0 0 
SMALL
USER_CHARGES


@<TRIPOS>ATOM
  1 S       -0.3120    -0.1350     0.3540 S.o2  1 <1>   1.3330 
  2 O       -0.1610    -0.7120     1.6710 O.2   1 <1>  -0.6500 
  3 O       -1.0990     1.0650     0.1880 O.2   1 <1>  -0.6500 
  4 N       -0.9450    -1.3340    -0.6680 N.am  1 <1>  -0.8490 
  5 C        1.3030     0.1750    -0.3630 C.3   1 <1>  -0.0550 
  6 C       -0.5260    -2.6920    -0.3020 C.3   1 <1>   0.1160 
  7 C       -2.4070    -1.2720    -0.7600 C.3   1 <1>   0.1160 
  8 C        2.0770     1.3150     0.3290 C.3   1 <1>  -0.0800 
  9 C        3.3230     1.6900    -0.4550 C.3   1 <1>   0.2200 
 10 C        2.6640     0.8770     1.6770 C.3   1 <1>   0.1200 
 11 N        3.7150     3.0760    -0.1100 N.am  1 <1>  -0.7300 
 12 C        4.3500     0.7160     0.1090 C.3   1 <1>   0.1200 
 13 O        3.9900     0.5040     1.4420 O.3   1 <1>  -0.5600 
 14 C        3.9010     4.0930    -1.0040 C.2   1 <1>   0.5440 
 15 O        3.7450     3.8510    -2.1850 O.2   1 <1>  -0.5700 
 16 C        4.2860     5.4140    -0.5620 C.ar  1 <1>   0.0860 
 17 C        4.8840     6.3140    -1.4430 C.ar  1 <1>   0.1600 
 18 C        4.0920     5.8620     0.7430 C.ar  1 <1>  -0.1500 
 19 N        5.2900     7.5380    -1.1540 N.ar  1 <1>  -0.6200 
 20 C        4.5060     7.1330     1.0600 C.ar  1 <1>  -0.1500 
 21 C        5.0970     7.9470     0.0950 C.ar  1 <1>   0.4100 
 22 N        5.5030     9.2260     0.4170 N.pl3 1 <1>  -0.8380 
 23 C        4.5660    10.1700     1.0800 C.3   1 <1>   0.1290 
 24 C        6.5990     9.8740    -0.3560 C.3   1 <1>   0.1290 
 25 H        1.8850    -0.7250    -0.3370 H     1 <1>   0.0800 
 26 H        1.1570     0.4390    -1.3930 H     1 <1>   0.0800 
 27 H       -0.8780    -3.3980    -1.0350 H     1 <1>   0.0800 
 28 H       -0.9230    -2.9610     0.6630 H     1 <1>   0.0800 
 29 H        0.5480    -2.7520    -0.2610 H     1 <1>   0.0800 
 30 H       -2.7720    -2.0340    -1.4260 H     1 <1>   0.0800 
 31 H       -2.7110    -0.3140    -1.1480 H     1 <1>   0.0800 
 32 H       -2.8500    -1.4070     0.2130 H     1 <1>   0.0800 
 33 H        1.4210     2.1620     0.4410 H     1 <1>   0.0800 
 34 H        3.2040     1.5800    -1.5210 H     1 <1>   0.0800 
 35 H        2.1470     0.0460     2.1240 H     1 <1>   0.0800 
 36 H        2.6770     1.6980     2.3720 H     1 <1>   0.0800 
 37 H        4.0120     3.1920     0.8600 H     1 <1>   0.3700 
 38 H        5.3540     1.0980     0.0590 H     1 <1>   0.0800 
 39 H        4.2950    -0.2310    -0.3990 H     1 <1>   0.0800 
 40 H        5.0360     5.9900    -2.4590 H     1 <1>   0.1500 
 41 H        3.6270     5.2370     1.4830 H     1 <1>   0.1500 
 42 H        4.3880     7.5170     2.0540 H     1 <1>   0.1500 
 43 H        5.0090    10.5420     1.9870 H     1 <1>   0.0800 
 44 H        3.6370     9.6800     1.3160 H     1 <1>   0.0800 
 45 H        4.3550    10.9970     0.4240 H     1 <1>   0.0800 
 46 H        7.0920    10.6120     0.2510 H     1 <1>   0.0800 
 47 H        6.1940    10.3420    -1.2360 H     1 <1>   0.0800 
 48 H        7.3230     9.1360    -0.6570 H     1 <1>   0.0800 
@<TRIPOS>BOND
  1   1   2  2   
  2   1   3  2   
  3   1   4  am  
  4   1   5  1   
  5   4   6  1   
  6   4   7  1   
  7   5   8  1   
  8   5  25  1   
  9   5  26  1   
 10   6  27  1   
 11   6  28  1   
 12   6  29  1   
 13   7  30  1   
 14   7  31  1   
 15   7  32  1   
 16   8   9  1   
 17   8  10  1   
 18   8  33  1   
 19   9  11  1   
 20   9  12  1   
 21   9  34  1   
 22  10  13  1   
 23  10  35  1   
 24  10  36  1   
 25  11  14  am  
 26  11  37  1   
 27  12  13  1   
 28  12  38  1   
 29  12  39  1   
 30  14  15  2   
 31  14  16  1   
 32  16  17  ar  
 33  16  18  ar  
 34  17  19  ar  
 35  17  40  1   
 36  18  20  ar  
 37  18  41  1   
 38  19  21  ar  
 39  20  21  ar  
 40  20  42  1   
 41  21  22  1   
 42  22  23  1   
 43  22  24  1   
 44  23  43  1   
 45  23  44  1   
 46  23  45  1   
 47  24  46  1   
 48  24  47  1   
 49  24  48  1   
@<TRIPOS>SUBSTRUCTURE
  1 ****  11 GROUP 4 **** **** 0

# MOE 2024.06 (io_trps.svl 2023.06)
