@<TRIPOS>MOLECULE
NONAME
53 56 1 0 0 
SMALL
USER_CHARGES


@<TRIPOS>ATOM
  1 O       -1.2050     0.4640     1.2460 O.2   1 <1>  -0.5700 
  2 C       -1.6240     1.3510     0.5270 C.2   1 <1>   0.5440 
  3 N       -2.8370     1.1730    -0.1070 N.am  1 <1>  -0.6600 
  4 C       -0.8350     2.5550     0.3830 C.ar  1 <1>   0.0860 
  5 C       -3.4540    -0.1900    -0.1510 C.3   1 <1>   0.1400 
  6 C       -3.6500     2.3050    -0.6470 C.3   1 <1>   0.1400 
  7 C       -0.3190     3.1900     1.5080 C.ar  1 <1>   0.1600 
  8 C       -0.5390     3.1250    -0.8480 C.ar  1 <1>  -0.1500 
  9 C       -4.2510    -0.4810     1.1290 C.3   1 <1>   0.1400 
 10 C       -5.1240     2.2850    -0.2150 C.3   1 <1>  -0.1600 
 11 N        0.4030     4.2990     1.5090 N.ar  1 <1>  -0.6200 
 12 C        0.2200     4.2750    -0.8660 C.ar  1 <1>  -0.1500 
 13 N       -5.5370     0.2860     1.1670 N.am  1 <1>  -0.6600 
 14 C       -5.3750     1.7660     1.2050 C.3   1 <1>   0.1400 
 15 C        0.6760     4.8420     0.3200 C.ar  1 <1>   0.3830 
 16 C       -6.7930    -0.2740     1.1560 C.2   1 <1>   0.5690 
 17 C        1.4650     6.0470     0.2630 C.1   1 <1>   0.4840 
 18 O       -7.7850     0.4100     1.2490 O.2   1 <1>  -0.5700 
 19 C       -6.9660    -1.7820     1.0320 C.3   1 <1>  -0.0990 
 20 N        2.0810     7.0030     0.1580 N.1   1 <1>  -0.5570 
 21 C       -8.3930    -2.2340     0.6700 C.3   1 <1>   0.0630 
 22 C       -8.5000    -3.7400     0.5400 C.ar  1 <1>  -0.1440 
 23 C       -8.8510    -1.7310    -0.7170 C.3   1 <1>  -0.1600 
 24 C       -9.1790    -4.0930    -0.6000 C.ar  1 <1>  -0.1440 
 25 C       -8.0230    -4.7150     1.4000 C.ar  1 <1>  -0.1500 
 26 C       -9.6300    -2.8810    -1.3740 C.3   1 <1>  -0.0170 
 27 C       -9.3890    -5.4220    -0.9200 C.ar  1 <1>  -0.1500 
 28 C       -8.2270    -6.0500     1.0890 C.ar  1 <1>  -0.1500 
 29 C       -8.9060    -6.4030    -0.0680 C.ar  1 <1>  -0.1500 
 30 H       -2.6680    -0.9210    -0.2370 H     1 <1>   0.0800 
 31 H       -4.0870    -0.2900    -1.0140 H     1 <1>   0.0800 
 32 H       -3.5950     2.2950    -1.7220 H     1 <1>   0.0800 
 33 H       -3.2280     3.2350    -0.3080 H     1 <1>   0.0800 
 34 H       -0.5240     2.7420     2.4680 H     1 <1>   0.1500 
 35 H       -0.8910     2.6700    -1.7580 H     1 <1>   0.1500 
 36 H       -3.6550    -0.2220     1.9870 H     1 <1>   0.0800 
 37 H       -4.4340    -1.5360     1.1860 H     1 <1>   0.0800 
 38 H       -5.7060     1.7110    -0.9150 H     1 <1>   0.0800 
 39 H       -5.4900     3.2940    -0.2740 H     1 <1>   0.0800 
 40 H        0.4670     4.7400    -1.8050 H     1 <1>   0.1500 
 41 H       -6.2720     2.2180     1.5930 H     1 <1>   0.0800 
 42 H       -4.5670     2.0360     1.8630 H     1 <1>   0.0800 
 43 H       -6.6880    -2.2190     1.9710 H     1 <1>   0.0800 
 44 H       -6.3040    -2.1560     0.2740 H     1 <1>   0.0800 
 45 H       -9.0900    -1.9070     1.4230 H     1 <1>   0.0800 
 46 H       -7.9930    -1.5100    -1.3270 H     1 <1>   0.0800 
 47 H       -9.4510    -0.8420    -0.6320 H     1 <1>   0.0800 
 48 H       -7.5020    -4.4460     2.3010 H     1 <1>   0.1500 
 49 H       -9.3970    -2.9700    -2.4210 H     1 <1>   0.0800 
 50 H      -10.6890    -2.7460    -1.2420 H     1 <1>   0.0800 
 51 H       -9.9210    -5.6900    -1.8150 H     1 <1>   0.1500 
 52 H       -7.8600    -6.8160     1.7480 H     1 <1>   0.1500 
 53 H       -9.0610    -7.4400    -0.3040 H     1 <1>   0.1500 
@<TRIPOS>BOND
  1   1   2  2   
  2   2   3  am  
  3   2   4  1   
  4   3   5  1   
  5   3   6  1   
  6   4   7  ar  
  7   4   8  ar  
  8   5   9  1   
  9   5  30  1   
 10   5  31  1   
 11   6  10  1   
 12   6  32  1   
 13   6  33  1   
 14   7  11  ar  
 15   7  34  1   
 16   8  12  ar  
 17   8  35  1   
 18   9  13  1   
 19   9  36  1   
 20   9  37  1   
 21  10  14  1   
 22  10  38  1   
 23  10  39  1   
 24  11  15  ar  
 25  12  15  ar  
 26  12  40  1   
 27  13  14  1   
 28  13  16  am  
 29  14  41  1   
 30  14  42  1   
 31  15  17  1   
 32  16  18  2   
 33  16  19  1   
 34  17  20  3   
 35  19  21  1   
 36  19  43  1   
 37  19  44  1   
 38  21  22  1   
 39  21  23  1   
 40  21  45  1   
 41  22  24  ar  
 42  22  25  ar  
 43  23  26  1   
 44  23  46  1   
 45  23  47  1   
 46  24  26  1   
 47  24  27  ar  
 48  25  28  ar  
 49  25  48  1   
 50  26  49  1   
 51  26  50  1   
 52  27  29  ar  
 53  27  51  1   
 54  28  29  ar  
 55  28  52  1   
 56  29  53  1   
@<TRIPOS>SUBSTRUCTURE
  1 ****   9 GROUP 4 **** **** 0

# MOE 2024.06 (io_trps.svl 2023.06)
