@<TRIPOS>MOLECULE
NONAME
46 47 1 0 0 
SMALL
USER_CHARGES


@<TRIPOS>ATOM
  1 O        4.1080     2.9790     1.2330 O.co2 1 <1>  -0.9000 
  2 C        3.5900     1.8510     1.2140 C.2   1 <1>   0.9060 
  3 O        3.5440     1.1650     2.2450 O.co2 1 <1>  -0.9000 
  4 C        3.0060     1.2660    -0.0930 C.3   1 <1>  -0.1060 
  5 C        3.6590    -0.1300    -0.2420 C.3   1 <1>   0.2000 
  6 C        3.3790     2.1260    -1.3500 C.3   1 <1>  -0.1600 
  7 C        1.4610     1.1340     0.0320 C.3   1 <1>  -0.1600 
  8 O        3.2170    -0.7310    -1.4200 O.3   1 <1>  -0.6800 
  9 C        5.2000    -0.0140    -0.3060 C.3   1 <1>   0.1100 
 10 C        4.7950     1.8830    -1.9100 C.3   1 <1>   0.1100 
 11 C        0.7330     2.4730     0.2410 C.3   1 <1>  -0.1600 
 12 N        5.6380     1.2750    -0.8840 N.3   1 <1>  -0.8100 
 13 C       -0.7750     2.2610     0.3910 C.3   1 <1>  -0.2400 
 14 C        7.0810     1.5810    -0.8710 C.3   1 <1>   0.1710 
 15 C        7.4190     3.0630    -0.6640 C.2   1 <1>   0.5690 
 16 O        8.4540     3.4620    -1.1520 O.2   1 <1>  -0.5700 
 17 N        6.5650     3.8580     0.0590 N.am  1 <1>  -0.5470 
 18 C        6.6390     5.2170     0.4080 C.ar  1 <1>   0.1170 
 19 C        5.8750     5.6740     1.4760 C.ar  1 <1>  -0.1500 
 20 C        7.4320     6.1400    -0.2690 C.ar  1 <1>  -0.1500 
 21 C        5.9030     7.0010     1.8630 C.ar  1 <1>  -0.1500 
 22 C        7.4660     7.4700     0.1140 C.ar  1 <1>  -0.1500 
 23 C        6.7020     7.9040     1.1830 C.ar  1 <1>  -0.1500 
 24 H        3.3790    -0.7750     0.5740 H     1 <1>   0.0800 
 25 H        3.2890     3.1690    -1.1030 H     1 <1>   0.0800 
 26 H        2.6770     1.9440    -2.1420 H     1 <1>   0.0800 
 27 H        1.0660     0.6520    -0.8450 H     1 <1>   0.0800 
 28 H        1.2490     0.4950     0.8730 H     1 <1>   0.0800 
 29 H        3.3970    -0.1000    -2.1380 H     1 <1>   0.4000 
 30 H        5.6120    -0.8390    -0.8590 H     1 <1>   0.0800 
 31 H        5.5720    -0.0640     0.7030 H     1 <1>   0.0800 
 32 H        5.2120     2.8230    -2.2280 H     1 <1>   0.0800 
 33 H        4.7570     1.2270    -2.7620 H     1 <1>   0.0800 
 34 H        1.1110     2.9540     1.1280 H     1 <1>   0.0800 
 35 H        0.9160     3.1290    -0.5920 H     1 <1>   0.0800 
 36 H       -0.9780     1.6310     1.2390 H     1 <1>   0.0800 
 37 H       -1.1790     1.7970    -0.4920 H     1 <1>   0.0800 
 38 H       -1.2650     3.2060     0.5400 H     1 <1>   0.0800 
 39 H        7.5460     1.0380    -0.0690 H     1 <1>   0.0800 
 40 H        7.5190     1.2500    -1.7940 H     1 <1>   0.0800 
 41 H        5.7180     3.3680     0.4320 H     1 <1>   0.3700 
 42 H        5.2510     4.9750     2.0070 H     1 <1>   0.1500 
 43 H        8.0250     5.8230    -1.1050 H     1 <1>   0.1500 
 44 H        5.3010     7.3240     2.6930 H     1 <1>   0.1500 
 45 H        8.0880     8.1640    -0.4220 H     1 <1>   0.1500 
 46 H        6.7260     8.9360     1.4820 H     1 <1>   0.1500 
@<TRIPOS>BOND
  1   1   2  ar  
  2   2   3  ar  
  3   2   4  1   
  4   4   5  1   
  5   4   6  1   
  6   4   7  1   
  7   5   8  1   
  8   5   9  1   
  9   5  24  1   
 10   6  10  1   
 11   6  25  1   
 12   6  26  1   
 13   7  11  1   
 14   7  27  1   
 15   7  28  1   
 16   8  29  1   
 17   9  12  1   
 18   9  30  1   
 19   9  31  1   
 20  10  12  1   
 21  10  32  1   
 22  10  33  1   
 23  11  13  1   
 24  11  34  1   
 25  11  35  1   
 26  12  14  1   
 27  13  36  1   
 28  13  37  1   
 29  13  38  1   
 30  14  15  1   
 31  14  39  1   
 32  14  40  1   
 33  15  16  2   
 34  15  17  am  
 35  17  18  1   
 36  17  41  1   
 37  18  19  ar  
 38  18  20  ar  
 39  19  21  ar  
 40  19  42  1   
 41  20  22  ar  
 42  20  43  1   
 43  21  23  ar  
 44  21  44  1   
 45  22  23  ar  
 46  22  45  1   
 47  23  46  1   
@<TRIPOS>SUBSTRUCTURE
  1 ****   1 GROUP 4 **** **** 0

# MOE 2024.06 (io_trps.svl 2023.06)
