@<TRIPOS>MOLECULE
NONAME
49 53 1 0 0 
SMALL
USER_CHARGES


@<TRIPOS>ATOM
  1 O       -1.0040     1.0050     1.4890 O.2   1 <1>  -0.5700 
  2 C       -2.0120     1.3360     0.8800 C.2   1 <1>   0.7160 
  3 N       -3.1800     0.6170     1.1150 N.am  1 <1>  -0.6600 
  4 C       -1.9590     2.4650    -0.0600 C.2   1 <1>   0.4300 
  5 C       -4.4650     0.8690     0.4100 C.3   1 <1>   0.1400 
  6 C       -3.2200    -0.5750     2.0070 C.3   1 <1>   0.1400 
  7 N       -2.6170     3.6010     0.1080 N.2   1 <1>  -0.7070 
  8 N       -1.2220     2.4090    -1.1950 N.2   1 <1>  -0.5650 
  9 C       -4.8070    -0.3450    -0.4570 C.3   1 <1>  -0.1600 
 10 C       -3.5460    -1.8170     1.1720 C.3   1 <1>  -0.1600 
 11 N       -2.2580     4.3040    -0.9470 N.pl3 1 <1>   0.6010 
 12 C       -1.4220     3.5660    -1.7250 C.2   1 <1>   0.3120 
 13 C       -4.8470    -1.6510     0.3650 C.3   1 <1>   0.4240 
 14 C       -2.6100     5.5830    -1.3260 C.2   1 <1>  -0.1810 
 15 N       -0.8910     4.0260    -2.9090 N.2   1 <1>  -0.5760 
 16 O       -5.8360    -1.4740     1.3580 O.3   1 <1>  -0.5600 
 17 C       -5.1360    -2.9020    -0.5160 C.ar  1 <1>  -0.1430 
 18 C       -2.0910     6.0550    -2.4900 C.2   1 <1>  -0.1360 
 19 C       -1.2230     5.2250    -3.2570 C.2   1 <1>   0.3760 
 20 C       -7.1570    -1.7400     1.0170 C.3   1 <1>   0.1200 
 21 C       -4.2650    -3.3140    -1.5340 C.ar  1 <1>   0.0830 
 22 C       -6.2940    -3.6490    -0.3040 C.ar  1 <1>  -0.1430 
 23 C       -7.2860    -3.2330     0.7630 C.3   1 <1>  -0.0170 
 24 O       -3.1430    -2.5850    -1.7720 O.3   1 <1>  -0.3630 
 25 C       -4.5530    -4.4490    -2.2900 C.ar  1 <1>  -0.1500 
 26 C       -6.5700    -4.7760    -1.0600 C.ar  1 <1>  -0.1500 
 27 C       -2.2100    -2.9080    -2.7790 C.3   1 <1>   0.0400 
 28 C       -5.7000    -5.1780    -2.0520 C.ar  1 <1>  -0.1500 
 29 H       -4.4090     1.7450    -0.2100 H     1 <1>   0.0800 
 30 H       -5.2390     1.0300     1.1410 H     1 <1>   0.0800 
 31 H       -3.9760    -0.4260     2.7590 H     1 <1>   0.0800 
 32 H       -2.2780    -0.7160     2.5090 H     1 <1>   0.0800 
 33 H       -4.0610    -0.4110    -1.2240 H     1 <1>   0.0800 
 34 H       -5.7460    -0.1940    -0.9520 H     1 <1>   0.0800 
 35 H       -3.6390    -2.6730     1.8130 H     1 <1>   0.0800 
 36 H       -2.7110    -1.9960     0.5250 H     1 <1>   0.0800 
 37 H       -3.2710     6.1170    -0.6700 H     1 <1>   0.1500 
 38 H       -2.3090     7.0400    -2.8620 H     1 <1>   0.1500 
 39 H       -0.8300     5.6290    -4.1740 H     1 <1>   0.0600 
 40 H       -7.4240    -1.1700     0.1450 H     1 <1>   0.0800 
 41 H       -7.7780    -1.4410     1.8430 H     1 <1>   0.0800 
 42 H       -8.2900    -3.4520     0.4470 H     1 <1>   0.0800 
 43 H       -7.0900    -3.7720     1.6730 H     1 <1>   0.0800 
 44 H       -3.8980    -4.7840    -3.0700 H     1 <1>   0.1500 
 45 H       -7.4650    -5.3460    -0.8800 H     1 <1>   0.1500 
 46 H       -1.4270    -2.1720    -2.7550 H     1 <1>   0.0800 
 47 H       -2.7040    -2.8840    -3.7340 H     1 <1>   0.0800 
 48 H       -1.8010    -3.8820    -2.5770 H     1 <1>   0.0800 
 49 H       -5.9170    -6.0540    -2.6370 H     1 <1>   0.1500 
@<TRIPOS>BOND
  1   1   2  2   
  2   2   3  am  
  3   2   4  1   
  4   3   5  1   
  5   3   6  1   
  6   4   7  2   
  7   4   8  1   
  8   5   9  1   
  9   5  29  1   
 10   5  30  1   
 11   6  10  1   
 12   6  31  1   
 13   6  32  1   
 14   7  11  1   
 15   8  12  2   
 16   9  13  1   
 17   9  33  1   
 18   9  34  1   
 19  10  13  1   
 20  10  35  1   
 21  10  36  1   
 22  11  12  1   
 23  11  14  1   
 24  12  15  1   
 25  13  16  1   
 26  13  17  1   
 27  14  18  2   
 28  14  37  1   
 29  15  19  2   
 30  16  20  1   
 31  17  21  ar  
 32  17  22  ar  
 33  18  19  1   
 34  18  38  1   
 35  19  39  1   
 36  20  23  1   
 37  20  40  1   
 38  20  41  1   
 39  21  24  1   
 40  21  25  ar  
 41  22  23  1   
 42  22  26  ar  
 43  23  42  1   
 44  23  43  1   
 45  24  27  1   
 46  25  28  ar  
 47  25  44  1   
 48  26  28  ar  
 49  26  45  1   
 50  27  46  1   
 51  27  47  1   
 52  27  48  1   
 53  28  49  1   
@<TRIPOS>SUBSTRUCTURE
  1 ****   9 GROUP 4 **** **** 0

# MOE 2024.06 (io_trps.svl 2023.06)
