@<TRIPOS>MOLECULE
NONAME
47 49 1 0 0 
SMALL
USER_CHARGES


@<TRIPOS>ATOM
  1 O        0.9020     0.5690     0.9530 O.2   1 <1>  -0.5700 
  2 C        1.7430    -0.1300     0.4150 C.2   1 <1>   0.7160 
  3 N        2.0630     0.1500    -0.9060 N.am  1 <1>  -0.6600 
  4 C        2.4360    -1.1700     1.1730 C.2   1 <1>   0.1410 
  5 C        2.7440    -0.8300    -1.8110 C.3   1 <1>   0.1400 
  6 C        1.8550     1.5060    -1.4730 C.3   1 <1>   0.1400 
  7 N        3.7700    -1.4570     1.0070 N.2   1 <1>  -0.5650 
  8 C        1.9400    -1.9840     2.1560 C.2   1 <1>  -0.3320 
  9 C        4.2630    -0.5780    -1.9420 C.3   1 <1>   0.3430 
 10 C        3.0540     2.3950    -1.1210 C.3   1 <1>  -0.1600 
 11 C        4.0180    -2.3900     1.8650 C.2   1 <1>   0.0360 
 12 N        2.9450    -2.7530     2.5930 N.pl3 1 <1>   0.0330 
 13 C        0.5360    -2.0800     2.7350 C.3   1 <1>  -0.0600 
 14 N        4.7240     0.5480    -1.0740 N.4   1 <1>  -0.9590 
 15 C        4.4100     1.8940    -1.6300 C.3   1 <1>   0.3430 
 16 C        6.1420     0.4030    -0.6170 C.3   1 <1>   0.3430 
 17 C        6.3630     0.9750     0.7990 C.3   1 <1>   0.2000 
 18 O        5.8880     2.2950     0.8620 O.3   1 <1>  -0.5600 
 19 C        7.8510     0.9440     1.1940 C.3   1 <1>   0.1200 
 20 C        6.0550     2.8810     2.1250 C.3   1 <1>   0.1200 
 21 O        8.0160     1.5170     2.4560 O.3   1 <1>  -0.5600 
 22 C        7.5350     2.8270     2.5480 C.3   1 <1>   0.1200 
 23 H        2.2890    -0.7920    -2.7860 H     1 <1>   0.0800 
 24 H        2.5900    -1.8290    -1.4400 H     1 <1>   0.0800 
 25 H        0.9550     1.9390    -1.0650 H     1 <1>   0.0800 
 26 H        1.7290     1.4450    -2.5400 H     1 <1>   0.0800 
 27 H        4.5150    -0.3830    -2.9710 H     1 <1>   0.0800 
 28 H        4.7670    -1.4840    -1.6490 H     1 <1>   0.0800 
 29 H        3.1010     2.5260    -0.0530 H     1 <1>   0.0800 
 30 H        2.8800     3.3690    -1.5410 H     1 <1>   0.0800 
 31 H        4.9790    -2.8550     2.0120 H     1 <1>   0.1500 
 32 H        2.9120    -3.4640     3.3320 H     1 <1>   0.2700 
 33 H       -0.1430    -1.4310     2.2100 H     1 <1>   0.0800 
 34 H        0.5420    -1.7900     3.7710 H     1 <1>   0.0800 
 35 H        0.1660    -3.0860     2.6560 H     1 <1>   0.0800 
 36 H        4.1460     0.4530    -0.2170 H     1 <1>   0.4500 
 37 H        5.1650     2.5980    -1.3190 H     1 <1>   0.0800 
 38 H        4.4120     1.8600    -2.7070 H     1 <1>   0.0800 
 39 H        6.8050     0.8920    -1.3100 H     1 <1>   0.0800 
 40 H        6.4020    -0.6420    -0.5900 H     1 <1>   0.0800 
 41 H        5.8040     0.3820     1.5030 H     1 <1>   0.0800 
 42 H        8.4530     1.4910     0.4890 H     1 <1>   0.0800 
 43 H        8.2100    -0.0690     1.2500 H     1 <1>   0.0800 
 44 H        5.4420     2.3550     2.8370 H     1 <1>   0.0800 
 45 H        5.7200     3.9020     2.0680 H     1 <1>   0.0800 
 46 H        7.6460     3.1500     3.5680 H     1 <1>   0.0800 
 47 H        8.1340     3.4620     1.9180 H     1 <1>   0.0800 
@<TRIPOS>BOND
  1   1   2  2   
  2   2   3  am  
  3   2   4  1   
  4   3   5  1   
  5   3   6  1   
  6   4   7  1   
  7   4   8  2   
  8   5   9  1   
  9   5  23  1   
 10   5  24  1   
 11   6  10  1   
 12   6  25  1   
 13   6  26  1   
 14   7  11  2   
 15   8  12  1   
 16   8  13  1   
 17   9  14  1   
 18   9  27  1   
 19   9  28  1   
 20  10  15  1   
 21  10  29  1   
 22  10  30  1   
 23  11  12  1   
 24  11  31  1   
 25  12  32  1   
 26  13  33  1   
 27  13  34  1   
 28  13  35  1   
 29  14  15  1   
 30  14  16  1   
 31  14  36  1   
 32  15  37  1   
 33  15  38  1   
 34  16  17  1   
 35  16  39  1   
 36  16  40  1   
 37  17  18  1   
 38  17  19  1   
 39  17  41  1   
 40  18  20  1   
 41  19  21  1   
 42  19  42  1   
 43  19  43  1   
 44  20  22  1   
 45  20  44  1   
 46  20  45  1   
 47  21  22  1   
 48  22  46  1   
 49  22  47  1   
@<TRIPOS>SUBSTRUCTURE
  1 ****  14 GROUP 4 **** **** 0

# MOE 2024.06 (io_trps.svl 2023.06)
