@<TRIPOS>MOLECULE
NONAME
50 52 1 0 0 
SMALL
USER_CHARGES


@<TRIPOS>ATOM
  1 O       -0.8780    -0.0130    -0.4690 O.2   1 <1>  -0.5700 
  2 C       -1.7220     0.5720     0.1660 C.2   1 <1>   0.5690 
  3 N       -2.6280    -0.1050     0.9480 N.am  1 <1>  -0.6600 
  4 C       -1.7530     2.0920     0.0750 C.3   1 <1>  -0.0990 
  5 C       -2.4870    -1.5840     1.0860 C.3   1 <1>   0.3200 
  6 C       -3.5820     0.5460     1.9110 C.3   1 <1>   0.1400 
  7 C       -0.4640     2.7090    -0.5010 C.3   1 <1>  -0.0170 
  8 C       -3.3480    -2.3070     0.0700 C.2   1 <1>  -0.3320 
  9 C       -4.7430     1.2890     1.2290 C.3   1 <1>   0.1200 
 10 C       -0.4610     4.2390    -0.5460 C.ar  1 <1>   0.1660 
 11 N       -4.6910    -2.2570     0.0150 N.pl3 1 <1>   0.0330 
 12 C       -2.9640    -3.1250    -0.9350 C.2   1 <1>   0.0770 
 13 O       -5.3020     0.4950     0.2440 O.3   1 <1>  -0.6800 
 14 N       -1.5180     4.8780    -0.1390 N.ar  1 <1>  -0.6200 
 15 C        0.7100     4.8930    -1.0340 C.ar  1 <1>   0.3930 
 16 C       -5.0380    -3.0490    -1.0210 C.2   1 <1>   0.0060 
 17 N       -4.0290    -3.5950    -1.6130 N.2   1 <1>  -0.5650 
 18 C       -1.4240     6.2320    -0.2190 C.ar  1 <1>   0.3100 
 19 O        1.7430     4.1160    -1.4260 O.3   1 <1>  -0.3630 
 20 N        0.8330     6.1880    -1.1210 N.ar  1 <1>  -0.6200 
 21 C       -6.4760    -3.2530    -1.4440 C.3   1 <1>  -0.0600 
 22 C       -0.2590     6.8760    -0.7040 C.ar  1 <1>   0.3100 
 23 C       -2.5110     7.0180     0.1900 C.ar  1 <1>  -0.1500 
 24 C        2.9430     4.6750    -1.9260 C.3   1 <1>   0.0400 
 25 C       -0.2390     8.2780    -0.7540 C.ar  1 <1>  -0.1500 
 26 C       -2.4640     8.3880     0.1290 C.ar  1 <1>  -0.1500 
 27 C       -1.3160     9.0240    -0.3470 C.ar  1 <1>  -0.1500 
 28 H       -1.9080     2.5020     1.0540 H     1 <1>   0.0800 
 29 H       -2.5770     2.3730    -0.5530 H     1 <1>   0.0800 
 30 H       -2.7580    -1.8950     2.0790 H     1 <1>   0.0800 
 31 H       -1.4580    -1.8690     0.9390 H     1 <1>   0.0800 
 32 H       -3.0420     1.2330     2.5390 H     1 <1>   0.0800 
 33 H       -4.0050    -0.1990     2.5610 H     1 <1>   0.0800 
 34 H       -0.3170     2.3400    -1.5020 H     1 <1>   0.0800 
 35 H        0.3720     2.3820     0.0920 H     1 <1>   0.0800 
 36 H       -4.4090     2.2050     0.7750 H     1 <1>   0.0800 
 37 H       -5.5110     1.5260     1.9440 H     1 <1>   0.0800 
 38 H       -5.3200    -1.6730     0.5800 H     1 <1>   0.2700 
 39 H       -1.9610    -3.4020    -1.2120 H     1 <1>   0.1500 
 40 H       -4.5870     0.2010    -0.3670 H     1 <1>   0.4000 
 41 H       -6.9240    -2.3080    -1.6920 H     1 <1>   0.0800 
 42 H       -7.0320    -3.7150    -0.6500 H     1 <1>   0.0800 
 43 H       -6.5120    -3.8900    -2.3090 H     1 <1>   0.0800 
 44 H       -3.3860     6.5120     0.5530 H     1 <1>   0.1500 
 45 H        3.6140     3.8720    -2.1720 H     1 <1>   0.0800 
 46 H        3.3770     5.3010    -1.1670 H     1 <1>   0.0800 
 47 H        2.7170     5.2520    -2.8050 H     1 <1>   0.0800 
 48 H        0.6520     8.7520    -1.1240 H     1 <1>   0.1500 
 49 H       -3.3040     8.9840     0.4460 H     1 <1>   0.1500 
 50 H       -1.2880    10.1000    -0.3910 H     1 <1>   0.1500 
@<TRIPOS>BOND
  1   1   2  2   
  2   2   3  am  
  3   2   4  1   
  4   3   5  1   
  5   3   6  1   
  6   4   7  1   
  7   4  28  1   
  8   4  29  1   
  9   5   8  1   
 10   5  30  1   
 11   5  31  1   
 12   6   9  1   
 13   6  32  1   
 14   6  33  1   
 15   7  10  1   
 16   7  34  1   
 17   7  35  1   
 18   8  11  1   
 19   8  12  2   
 20   9  13  1   
 21   9  36  1   
 22   9  37  1   
 23  10  14  ar  
 24  10  15  ar  
 25  11  16  1   
 26  11  38  1   
 27  12  17  1   
 28  12  39  1   
 29  13  40  1   
 30  14  18  ar  
 31  15  19  1   
 32  15  20  ar  
 33  16  17  2   
 34  16  21  1   
 35  18  22  ar  
 36  18  23  ar  
 37  19  24  1   
 38  20  22  ar  
 39  21  41  1   
 40  21  42  1   
 41  21  43  1   
 42  22  25  ar  
 43  23  26  ar  
 44  23  44  1   
 45  24  45  1   
 46  24  46  1   
 47  24  47  1   
 48  25  27  ar  
 49  25  48  1   
 50  26  27  ar  
 51  26  49  1   
 52  27  50  1   
@<TRIPOS>SUBSTRUCTURE
  1 ****   4 GROUP 4 **** **** 0

# MOE 2024.06 (io_trps.svl 2023.06)
