@<TRIPOS>MOLECULE
NONAME
48 51 1 0 0 
SMALL
USER_CHARGES


@<TRIPOS>ATOM
  1 S        0.0120     0.3160     1.4920 S.o2  1 <1>   1.4470 
  2 O        0.7760    -0.1680     2.6210 O.2   1 <1>  -0.6500 
  3 O       -0.9520     1.3760     1.6900 O.2   1 <1>  -0.6500 
  4 N       -0.8170    -1.0060     0.8290 N.am  1 <1>  -0.8490 
  5 C        1.1560     0.7740     0.1780 C.ar  1 <1>  -0.0090 
  6 C       -1.7620    -0.5960    -0.2160 C.3   1 <1>   0.1960 
  7 C       -1.5090    -1.7790     1.8660 C.3   1 <1>   0.1960 
  8 C        1.2890     2.1050    -0.1830 C.ar  1 <1>   0.1600 
  9 C        1.9250    -0.1590    -0.4950 C.ar  1 <1>  -0.1500 
 10 C       -2.3390    -1.8300    -0.9090 C.3   1 <1>  -0.1600 
 11 C       -2.0940    -3.0590     1.2650 C.3   1 <1>  -0.1600 
 12 N        2.0910     2.5680    -1.1330 N.ar  1 <1>  -0.6200 
 13 C        2.7700     0.2990    -1.4840 C.ar  1 <1>  -0.1500 
 14 C       -3.0430    -2.7560     0.0970 C.3   1 <1>   0.4240 
 15 C        2.8130     1.6540    -1.7600 C.ar  1 <1>   0.1600 
 16 O       -4.0730    -1.9970     0.6940 O.3   1 <1>  -0.5600 
 17 C       -3.5930    -4.0560    -0.5580 C.ar  1 <1>  -0.1430 
 18 C       -5.2940    -1.9220     0.0350 C.3   1 <1>   0.1200 
 19 C       -2.7540    -5.0030    -1.1620 C.ar  1 <1>   0.0830 
 20 C       -4.9660    -4.3050    -0.5550 C.ar  1 <1>  -0.1430 
 21 C       -5.9250    -3.3050     0.0570 C.3   1 <1>  -0.0170 
 22 O       -1.4140    -4.7700    -1.1960 O.3   1 <1>  -0.3630 
 23 C       -3.2910    -6.1610    -1.7220 C.ar  1 <1>  -0.1500 
 24 C       -5.4870    -5.4600    -1.1130 C.ar  1 <1>  -0.1500 
 25 C       -0.4870    -5.7160    -1.6830 C.3   1 <1>   0.0400 
 26 C       -4.6510    -6.3890    -1.6950 C.ar  1 <1>  -0.1500 
 27 H       -1.2570     0.0090    -0.9500 H     1 <1>   0.0800 
 28 H       -2.5570    -0.0060     0.2140 H     1 <1>   0.0800 
 29 H       -2.2900    -1.1820     2.3120 H     1 <1>   0.0800 
 30 H       -0.8160    -2.0550     2.6430 H     1 <1>   0.0800 
 31 H        0.6970     2.8380     0.3420 H     1 <1>   0.1500 
 32 H        1.8600    -1.2060    -0.2490 H     1 <1>   0.1500 
 33 H       -1.5290    -2.3430    -1.3880 H     1 <1>   0.0800 
 34 H       -3.0230    -1.5370    -1.6820 H     1 <1>   0.0800 
 35 H       -2.6300    -3.6060     2.0180 H     1 <1>   0.0800 
 36 H       -1.2750    -3.6720     0.9480 H     1 <1>   0.0800 
 37 H        3.3890    -0.3850    -2.0370 H     1 <1>   0.1500 
 38 H        3.4750     2.0050    -2.5340 H     1 <1>   0.1500 
 39 H       -5.1380    -1.5790    -0.9730 H     1 <1>   0.0800 
 40 H       -5.9110    -1.2150     0.5600 H     1 <1>   0.0800 
 41 H       -6.8460    -3.2800    -0.4980 H     1 <1>   0.0800 
 42 H       -6.1450    -3.5840     1.0710 H     1 <1>   0.0800 
 43 H       -2.6700    -6.9010    -2.1880 H     1 <1>   0.1500 
 44 H       -6.5470    -5.6410    -1.0960 H     1 <1>   0.1500 
 45 H        0.5000    -5.3120    -1.5520 H     1 <1>   0.0800 
 46 H       -0.6770    -5.8850    -2.7280 H     1 <1>   0.0800 
 47 H       -0.5870    -6.6250    -1.1170 H     1 <1>   0.0800 
 48 H       -5.0590    -7.2860    -2.1270 H     1 <1>   0.1500 
@<TRIPOS>BOND
  1   1   2  2   
  2   1   3  2   
  3   1   4  am  
  4   1   5  1   
  5   4   6  1   
  6   4   7  1   
  7   5   8  ar  
  8   5   9  ar  
  9   6  10  1   
 10   6  27  1   
 11   6  28  1   
 12   7  11  1   
 13   7  29  1   
 14   7  30  1   
 15   8  12  ar  
 16   8  31  1   
 17   9  13  ar  
 18   9  32  1   
 19  10  14  1   
 20  10  33  1   
 21  10  34  1   
 22  11  14  1   
 23  11  35  1   
 24  11  36  1   
 25  12  15  ar  
 26  13  15  ar  
 27  13  37  1   
 28  14  16  1   
 29  14  17  1   
 30  15  38  1   
 31  16  18  1   
 32  17  19  ar  
 33  17  20  ar  
 34  18  21  1   
 35  18  39  1   
 36  18  40  1   
 37  19  22  1   
 38  19  23  ar  
 39  20  21  1   
 40  20  24  ar  
 41  21  41  1   
 42  21  42  1   
 43  22  25  1   
 44  23  26  ar  
 45  23  43  1   
 46  24  26  ar  
 47  24  44  1   
 48  25  45  1   
 49  25  46  1   
 50  25  47  1   
 51  26  48  1   
@<TRIPOS>SUBSTRUCTURE
  1 ****  10 GROUP 4 **** **** 0

# MOE 2024.06 (io_trps.svl 2023.06)
