@<TRIPOS>MOLECULE
NONAME
48 49 1 0 0 
SMALL
USER_CHARGES


@<TRIPOS>ATOM
  1 O        1.1800     0.1700     2.0930 O.co2 1 <1>  -0.9020 
  2 C        1.7180    -0.9250     1.8620 C.2   1 <1>   0.9770 
  3 O        1.1560    -1.9730     2.2120 O.co2 1 <1>  -0.9020 
  4 C        3.0030    -0.9640     1.1820 C.ar  1 <1>  -0.1860 
  5 C        3.6420     0.2150     0.8120 C.ar  1 <1>  -0.1170 
  6 C        3.6390    -2.1840     0.8780 C.ar  1 <1>  -0.1580 
  7 C        4.8640     0.1590     0.1670 C.ar  1 <1>   0.3020 
  8 C        4.8580    -2.2370     0.2350 C.ar  1 <1>  -0.1170 
  9 N        5.6990     1.1470    -0.3050 N.pl3 1 <1>  -0.7040 
 10 C        5.4750    -1.0430    -0.1210 C.ar  1 <1>   0.3020 
 11 C        6.7670     0.5890    -0.8650 C.cat 1 <1>   1.0690 
 12 N        6.6810    -0.7530    -0.7550 N.pl3 1 <1>  -0.7670 
 13 N        7.7630     1.3030    -1.4430 N.pl3 1 <1>  -0.5960 
 14 C        7.7120    -1.7970    -0.9890 C.3   1 <1>   0.2670 
 15 C        7.9390     2.7790    -1.2010 C.3   1 <1>   0.1600 
 16 C        8.6500     0.7520    -2.5140 C.3   1 <1>   0.0800 
 17 C        8.8500     3.1330     0.0100 C.3   1 <1>  -0.0090 
 18 C       10.2570     2.5000    -0.1480 C.3   1 <1>   0.1120 
 19 C        9.0160     4.6800     0.0620 C.3   1 <1>  -0.1680 
 20 C        8.2110     2.5890     1.3210 C.3   1 <1>  -0.1680 
 21 O       10.8670     2.8730    -1.3400 O.3   1 <1>  -0.6840 
 22 C        7.7360     5.4970     0.3130 C.3   1 <1>  -0.2470 
 23 C        8.9200     2.9710     2.6310 C.3   1 <1>  -0.2470 
 24 H        3.1790     1.1640     1.0300 H     1 <1>   0.1420 
 25 H        3.1370    -3.0960     1.1670 H     1 <1>   0.1420 
 26 H        5.3160    -3.1830     0.0140 H     1 <1>   0.1420 
 27 H        5.5090     2.1410    -0.2350 H     1 <1>   0.4440 
 28 H        7.6080    -2.5890    -0.2670 H     1 <1>   0.0720 
 29 H        8.7000    -1.3830    -0.8840 H     1 <1>   0.0720 
 30 H        7.5980    -2.2100    -1.9770 H     1 <1>   0.0720 
 31 H        6.9750     3.2280    -1.0520 H     1 <1>   0.0720 
 32 H        8.3410     3.2400    -2.0870 H     1 <1>   0.0720 
 33 H        8.1930    -0.1000    -2.9850 H     1 <1>   0.0720 
 34 H        9.6000     0.4620    -2.1000 H     1 <1>   0.0720 
 35 H        8.8170     1.4900    -3.2800 H     1 <1>   0.0720 
 36 H       10.2030     1.4260    -0.1240 H     1 <1>   0.0720 
 37 H       10.9090     2.8190     0.6460 H     1 <1>   0.0720 
 38 H        9.4430     5.0220    -0.8660 H     1 <1>   0.0720 
 39 H        9.7310     4.9350     0.8250 H     1 <1>   0.0720 
 40 H        8.1880     1.5140     1.2860 H     1 <1>   0.0720 
 41 H        7.1920     2.9250     1.3940 H     1 <1>   0.0720 
 42 H       10.2850     2.7300    -2.1060 H     1 <1>   0.3940 
 43 H        7.0170     5.3620    -0.4730 H     1 <1>   0.0720 
 44 H        7.9880     6.5420     0.3480 H     1 <1>   0.0720 
 45 H        7.2860     5.2400     1.2550 H     1 <1>   0.0720 
 46 H        9.9370     2.6230     2.6460 H     1 <1>   0.0720 
 47 H        8.4060     2.5210     3.4630 H     1 <1>   0.0720 
 48 H        8.9150     4.0350     2.7830 H     1 <1>   0.0720 
@<TRIPOS>BOND
  1   1   2  ar  
  2   2   3  ar  
  3   2   4  1   
  4   4   5  ar  
  5   4   6  ar  
  6   5   7  ar  
  7   5  24  1   
  8   6   8  ar  
  9   6  25  1   
 10   7   9  1   
 11   7  10  ar  
 12   8  10  ar  
 13   8  26  1   
 14   9  11  ar  
 15   9  27  1   
 16  10  12  1   
 17  11  12  ar  
 18  11  13  ar  
 19  12  14  1   
 20  13  15  1   
 21  13  16  1   
 22  14  28  1   
 23  14  29  1   
 24  14  30  1   
 25  15  17  1   
 26  15  31  1   
 27  15  32  1   
 28  16  33  1   
 29  16  34  1   
 30  16  35  1   
 31  17  18  1   
 32  17  19  1   
 33  17  20  1   
 34  18  21  1   
 35  18  36  1   
 36  18  37  1   
 37  19  22  1   
 38  19  38  1   
 39  19  39  1   
 40  20  23  1   
 41  20  40  1   
 42  20  41  1   
 43  21  42  1   
 44  22  43  1   
 45  22  44  1   
 46  22  45  1   
 47  23  46  1   
 48  23  47  1   
 49  23  48  1   
@<TRIPOS>SUBSTRUCTURE
  1 ****   9 GROUP 4 **** **** 0

# MOE 2024.06 (io_trps.svl 2023.06)
