@<TRIPOS>MOLECULE
NONAME
50 54 1 0 0 
SMALL
USER_CHARGES


@<TRIPOS>ATOM
  1 N       -0.0360     0.4410     0.2410 N.ar  1 <1>  -0.1790 
  2 C       -0.6390     1.6370     0.3340 C.ar  1 <1>   0.4610 
  3 C        1.3230     0.2600     0.2760 C.ar  1 <1>   0.5280 
  4 N       -2.0000     1.6650     0.3060 N.pl3 1 <1>  -0.8380 
  5 C        0.2540     2.7330     0.4630 C.ar  1 <1>   0.0000 
  6 N        2.1550     1.2310     0.3980 N.ar  1 <1>  -0.5670 
  7 C        1.8460    -1.1580     0.1700 C.3   1 <1>  -0.0970 
  8 C       -2.8380     2.8650     0.6700 C.3   1 <1>   0.2090 
  9 C       -2.8770     0.4870    -0.0610 C.3   1 <1>   0.2090 
 10 C        1.6080     2.4790     0.4890 C.ar  1 <1>   0.1050 
 11 C        0.2070     4.1370     0.5590 C.2   1 <1>   0.1390 
 12 C       -3.6620     3.3800    -0.5360 C.3   1 <1>   0.1430 
 13 C       -4.2600     0.9030    -0.5960 C.3   1 <1>  -0.1600 
 14 N        2.2470     3.6650     0.6040 N.pl3 1 <1>   0.3140 
 15 N        1.3710     4.6860     0.6420 N.2   1 <1>  -0.7070 
 16 C       -4.7830     4.2330     0.0310 C.ar  1 <1>   0.1670 
 17 C       -4.1880     2.2070    -1.4030 C.3   1 <1>  -0.1600 
 18 C       -2.8900     4.4030    -1.4100 C.3   1 <1>  -0.1600 
 19 C        3.6970     3.9050     0.6710 C.3   1 <1>   0.0160 
 20 N       -5.8390     3.7740     0.6660 N.ar  1 <1>  -0.6200 
 21 C       -4.5590     5.5610    -0.1720 C.ar  1 <1>  -0.1430 
 22 C       -3.2660     5.8090    -0.9060 C.3   1 <1>  -0.0170 
 23 C       -6.6810     4.7130     1.0770 C.ar  1 <1>   0.4770 
 24 C       -5.4950     6.4480     0.3010 C.ar  1 <1>   0.1600 
 25 N       -6.5700     6.0270     0.9340 N.ar  1 <1>  -0.6200 
 26 C       -7.9120     4.2280     1.8020 C.3   1 <1>  -0.0970 
 27 H       -0.6360    -0.3700     0.1730 H     1 <1>   0.4570 
 28 H        1.5450    -1.6000    -0.7630 H     1 <1>   0.0800 
 29 H        1.4810    -1.7560     0.9860 H     1 <1>   0.0800 
 30 H        2.9220    -1.1580     0.2090 H     1 <1>   0.0800 
 31 H       -2.2640     3.6540     1.1070 H     1 <1>   0.0800 
 32 H       -3.5270     2.5570     1.4400 H     1 <1>   0.0800 
 33 H       -3.0170    -0.1450     0.8000 H     1 <1>   0.0800 
 34 H       -2.3970    -0.0870    -0.8350 H     1 <1>   0.0800 
 35 H       -0.6850     4.7340     0.5590 H     1 <1>   0.1500 
 36 H       -4.9410     1.0320     0.2290 H     1 <1>   0.0800 
 37 H       -4.6580     0.1150    -1.2100 H     1 <1>   0.0800 
 38 H       -3.5270     2.0440    -2.2360 H     1 <1>   0.0800 
 39 H       -5.1590     2.4510    -1.8000 H     1 <1>   0.0800 
 40 H       -3.2360     4.3310    -2.4270 H     1 <1>   0.0800 
 41 H       -1.8290     4.2350    -1.4130 H     1 <1>   0.0800 
 42 H        4.2230     2.9690     0.7070 H     1 <1>   0.0800 
 43 H        3.9160     4.4780     1.5520 H     1 <1>   0.0800 
 44 H        4.0000     4.4580    -0.1990 H     1 <1>   0.0800 
 45 H       -3.3980     6.4990    -1.7210 H     1 <1>   0.0800 
 46 H       -2.5260     6.1890    -0.2230 H     1 <1>   0.0800 
 47 H       -5.3650     7.5080     0.1640 H     1 <1>   0.1500 
 48 H       -8.1820     3.2460     1.4610 H     1 <1>   0.0800 
 49 H       -8.7330     4.8960     1.6200 H     1 <1>   0.0800 
 50 H       -7.7130     4.1940     2.8560 H     1 <1>   0.0800 
@<TRIPOS>BOND
  1   1   2  ar  
  2   1   3  ar  
  3   1  27  1   
  4   2   4  1   
  5   2   5  ar  
  6   3   6  ar  
  7   3   7  1   
  8   4   8  1   
  9   4   9  1   
 10   5  10  ar  
 11   5  11  1   
 12   6  10  ar  
 13   7  28  1   
 14   7  29  1   
 15   7  30  1   
 16   8  12  1   
 17   8  31  1   
 18   8  32  1   
 19   9  13  1   
 20   9  33  1   
 21   9  34  1   
 22  10  14  1   
 23  11  15  2   
 24  11  35  1   
 25  12  16  1   
 26  12  17  1   
 27  12  18  1   
 28  13  17  1   
 29  13  36  1   
 30  13  37  1   
 31  14  15  1   
 32  14  19  1   
 33  16  20  ar  
 34  16  21  ar  
 35  17  38  1   
 36  17  39  1   
 37  18  22  1   
 38  18  40  1   
 39  18  41  1   
 40  19  42  1   
 41  19  43  1   
 42  19  44  1   
 43  20  23  ar  
 44  21  22  1   
 45  21  24  ar  
 46  22  45  1   
 47  22  46  1   
 48  23  25  ar  
 49  23  26  1   
 50  24  25  ar  
 51  24  47  1   
 52  26  48  1   
 53  26  49  1   
 54  26  50  1   
@<TRIPOS>SUBSTRUCTURE
  1 ****   8 GROUP 4 **** **** 0

# MOE 2024.06 (io_trps.svl 2023.06)
