@<TRIPOS>MOLECULE
NONAME
51 54 1 0 0 
SMALL
USER_CHARGES


@<TRIPOS>ATOM
  1 O       -3.5010    -1.5110     1.2460 O.co2 1 <1>  -0.9000 
  2 C       -2.6170    -0.6420     1.1350 C.2   1 <1>   0.9790 
  3 O       -1.4250    -0.9960     1.1210 O.co2 1 <1>  -0.9000 
  4 C       -2.9800     0.7630     1.0020 C.ar  1 <1>  -0.1790 
  5 C       -4.2990     1.1870     1.1550 C.ar  1 <1>  -0.1500 
  6 C       -2.0300     1.7410     0.7070 C.ar  1 <1>  -0.1500 
  7 C       -4.6990     2.5110     0.9880 C.ar  1 <1>   0.0860 
  8 C       -2.3860     3.0680     0.5610 C.ar  1 <1>  -0.1500 
  9 C       -6.0910     2.9160     1.1070 C.2   1 <1>   0.5440 
 10 C       -3.7080     3.4470     0.7010 C.ar  1 <1>  -0.1500 
 11 O       -6.3630     3.9520     1.6880 O.2   1 <1>  -0.5700 
 12 N       -7.1250     2.1820     0.5570 N.am  1 <1>  -0.6600 
 13 C       -8.5490     2.4040     0.9620 C.3   1 <1>   0.1400 
 14 C       -6.9540     1.1980    -0.5510 C.3   1 <1>   0.1400 
 15 C       -9.3960     2.8810    -0.2320 C.3   1 <1>   0.1430 
 16 C       -7.7890     1.6270    -1.7650 C.3   1 <1>  -0.1600 
 17 C      -10.8300     3.0490     0.2340 C.ar  1 <1>   0.1670 
 18 C       -9.2630     1.8750    -1.3960 C.3   1 <1>  -0.1600 
 19 C       -9.0170     4.3250    -0.6560 C.3   1 <1>  -0.1600 
 20 N      -11.6770     2.0770     0.4650 N.ar  1 <1>  -0.6200 
 21 C      -11.1460     4.3630     0.4060 C.ar  1 <1>  -0.1430 
 22 C       -9.9830     5.2680     0.0800 C.3   1 <1>  -0.0170 
 23 C      -12.8870     2.4610     0.8790 C.ar  1 <1>   0.7200 
 24 C      -12.4130     4.6640     0.8350 C.ar  1 <1>   0.1600 
 25 N      -13.2920     3.7200     1.0750 N.ar  1 <1>  -0.6200 
 26 N      -13.8060     1.4600     1.1310 N.pl3 1 <1>  -0.8380 
 27 C      -15.0660     1.7170     1.8820 C.3   1 <1>   0.1290 
 28 C      -13.6100     0.0650     0.6500 C.3   1 <1>   0.1290 
 29 H       -5.0390     0.4460     1.4100 H     1 <1>   0.1500 
 30 H       -1.0010     1.4380     0.5930 H     1 <1>   0.1500 
 31 H       -1.6310     3.8010     0.3400 H     1 <1>   0.1500 
 32 H       -3.9850     4.4800     0.5880 H     1 <1>   0.1500 
 33 H       -8.6100     3.1210     1.7620 H     1 <1>   0.0800 
 34 H       -8.9500     1.4760     1.3310 H     1 <1>   0.0800 
 35 H       -7.2700     0.2280    -0.2080 H     1 <1>   0.0800 
 36 H       -5.9230     1.1270    -0.8490 H     1 <1>   0.0800 
 37 H       -7.7320     0.8610    -2.5170 H     1 <1>   0.0800 
 38 H       -7.3590     2.5220    -2.1800 H     1 <1>   0.0800 
 39 H       -9.8090     2.2280    -2.2530 H     1 <1>   0.0800 
 40 H       -9.7050     0.9400    -1.0960 H     1 <1>   0.0800 
 41 H       -9.1780     4.4410    -1.7130 H     1 <1>   0.0800 
 42 H       -7.9900     4.5650    -0.4420 H     1 <1>   0.0800 
 43 H      -10.2770     6.0970    -0.5380 H     1 <1>   0.0800 
 44 H       -9.5360     5.6260     0.9920 H     1 <1>   0.0800 
 45 H      -12.7080     5.6880     0.9850 H     1 <1>   0.1500 
 46 H      -14.9300     2.5240     2.5810 H     1 <1>   0.0800 
 47 H      -15.3550     0.8390     2.4320 H     1 <1>   0.0800 
 48 H      -15.8480     1.9800     1.1910 H     1 <1>   0.0800 
 49 H      -13.0080     0.0550    -0.2430 H     1 <1>   0.0800 
 50 H      -14.5600    -0.3850     0.4210 H     1 <1>   0.0800 
 51 H      -13.1160    -0.5110     1.4120 H     1 <1>   0.0800 
@<TRIPOS>BOND
  1   1   2  ar  
  2   2   3  ar  
  3   2   4  1   
  4   4   5  ar  
  5   4   6  ar  
  6   5   7  ar  
  7   5  29  1   
  8   6   8  ar  
  9   6  30  1   
 10   7   9  1   
 11   7  10  ar  
 12   8  10  ar  
 13   8  31  1   
 14   9  11  2   
 15   9  12  am  
 16  10  32  1   
 17  12  13  1   
 18  12  14  1   
 19  13  15  1   
 20  13  33  1   
 21  13  34  1   
 22  14  16  1   
 23  14  35  1   
 24  14  36  1   
 25  15  17  1   
 26  15  18  1   
 27  15  19  1   
 28  16  18  1   
 29  16  37  1   
 30  16  38  1   
 31  17  20  ar  
 32  17  21  ar  
 33  18  39  1   
 34  18  40  1   
 35  19  22  1   
 36  19  41  1   
 37  19  42  1   
 38  20  23  ar  
 39  21  22  1   
 40  21  24  ar  
 41  22  43  1   
 42  22  44  1   
 43  23  25  ar  
 44  23  26  1   
 45  24  25  ar  
 46  24  45  1   
 47  26  27  1   
 48  26  28  1   
 49  27  46  1   
 50  27  47  1   
 51  27  48  1   
 52  28  49  1   
 53  28  50  1   
 54  28  51  1   
@<TRIPOS>SUBSTRUCTURE
  1 ****  13 GROUP 4 **** **** 0

# MOE 2024.06 (io_trps.svl 2023.06)
