@<TRIPOS>MOLECULE
NONAME
55 57 1 0 0 
SMALL
USER_CHARGES


@<TRIPOS>ATOM
  1 O       -0.8810    -1.9140    -0.8460 O.2   1 <1>  -0.5700 
  2 C        0.1530    -2.5300    -0.8570 C.2   1 <1>   0.5690 
  3 N        0.4880    -3.3300    -1.8900 N.am  1 <1>  -0.7300 
  4 C        1.1210    -2.4400     0.3020 C.3   1 <1>  -0.0990 
  5 C        1.7390    -4.1150    -1.9310 C.3   1 <1>   0.1400 
  6 C        2.5680    -2.3180    -0.2130 C.3   1 <1>  -0.0800 
  7 C        2.9080    -3.2660    -1.3910 C.3   1 <1>  -0.0800 
  8 C        3.6160    -2.5780     0.8780 C.3   1 <1>  -0.1600 
  9 C        4.0920    -4.1170    -0.9130 C.3   1 <1>  -0.1600 
 10 C        4.7720    -3.2500     0.1430 C.3   1 <1>   0.2200 
 11 N        5.6860    -4.0040     1.0530 N.am  1 <1>  -0.6600 
 12 C        7.0090    -3.6400     1.2010 C.2   1 <1>   0.7150 
 13 C        5.2000    -5.2790     1.6650 C.3   1 <1>   0.0600 
 14 O        7.8120    -4.4750     1.5750 O.2   1 <1>  -0.5700 
 15 C        7.4550    -2.3110     0.8990 C.2   1 <1>  -0.2370 
 16 N        8.5290    -2.0160     0.1250 N.pl3 1 <1>   0.3140 
 17 C        6.9340    -1.1080     1.2650 C.2   1 <1>  -0.1500 
 18 N        8.6730    -0.6910    -0.0500 N.2   1 <1>  -0.7070 
 19 C        9.4720    -2.9630    -0.5140 C.3   1 <1>   0.0960 
 20 C        7.7140    -0.1540     0.6400 C.2   1 <1>   0.1080 
 21 C       10.7000    -3.2040     0.3720 C.3   1 <1>  -0.2400 
 22 C        7.5100     1.3490     0.7220 C.3   1 <1>   0.0210 
 23 C        6.0490     1.7830     0.4830 C.3   1 <1>  -0.0800 
 24 C        5.5440     1.3470    -0.9010 C.3   1 <1>  -0.2400 
 25 C        5.9160     3.3040     0.6240 C.3   1 <1>  -0.2400 
 26 H       -0.1830    -3.4210    -2.6560 H     1 <1>   0.3700 
 27 H        0.8710    -1.5920     0.9140 H     1 <1>   0.0800 
 28 H        1.0030    -3.3290     0.8910 H     1 <1>   0.0800 
 29 H        1.6030    -4.9950    -1.3250 H     1 <1>   0.0800 
 30 H        1.9450    -4.4250    -2.9420 H     1 <1>   0.0800 
 31 H        2.6990    -1.3100    -0.5720 H     1 <1>   0.0800 
 32 H        3.2570    -2.6500    -2.2030 H     1 <1>   0.0800 
 33 H        3.2170    -3.2400     1.6240 H     1 <1>   0.0800 
 34 H        3.9250    -1.6620     1.3460 H     1 <1>   0.0800 
 35 H        4.7640    -4.3520    -1.7200 H     1 <1>   0.0800 
 36 H        3.7210    -5.0250    -0.4760 H     1 <1>   0.0800 
 37 H        5.3190    -2.4870    -0.3840 H     1 <1>   0.0800 
 38 H        4.1610    -5.2060     1.9300 H     1 <1>   0.0800 
 39 H        5.7620    -5.4980     2.5570 H     1 <1>   0.0800 
 40 H        5.3350    -6.0880     0.9690 H     1 <1>   0.0800 
 41 H        6.0910    -0.9220     1.9020 H     1 <1>   0.1500 
 42 H        8.9650    -3.8900    -0.7070 H     1 <1>   0.0800 
 43 H        9.7800    -2.5420    -1.4540 H     1 <1>   0.0800 
 44 H       10.4030    -3.6370     1.3110 H     1 <1>   0.0800 
 45 H       11.2110    -2.2750     0.5540 H     1 <1>   0.0800 
 46 H       11.3770    -3.8800    -0.1170 H     1 <1>   0.0800 
 47 H        7.8320     1.6760     1.6930 H     1 <1>   0.0800 
 48 H        8.1470     1.8190    -0.0070 H     1 <1>   0.0800 
 49 H        5.4270     1.3240     1.2320 H     1 <1>   0.0800 
 50 H        6.1550     1.7740    -1.6770 H     1 <1>   0.0800 
 51 H        4.5280     1.6680    -1.0480 H     1 <1>   0.0800 
 52 H        5.5740     0.2760    -0.9980 H     1 <1>   0.0800 
 53 H        6.5180     3.8080    -0.1130 H     1 <1>   0.0800 
 54 H        6.2350     3.6200     1.6020 H     1 <1>   0.0800 
 55 H        4.8910     3.6030     0.4920 H     1 <1>   0.0800 
@<TRIPOS>BOND
  1   1   2  2   
  2   2   3  am  
  3   2   4  1   
  4   3   5  1   
  5   3  26  1   
  6   4   6  1   
  7   4  27  1   
  8   4  28  1   
  9   5   7  1   
 10   5  29  1   
 11   5  30  1   
 12   6   7  1   
 13   6   8  1   
 14   6  31  1   
 15   7   9  1   
 16   7  32  1   
 17   8  10  1   
 18   8  33  1   
 19   8  34  1   
 20   9  10  1   
 21   9  35  1   
 22   9  36  1   
 23  10  11  1   
 24  10  37  1   
 25  11  12  am  
 26  11  13  1   
 27  12  14  2   
 28  12  15  1   
 29  13  38  1   
 30  13  39  1   
 31  13  40  1   
 32  15  16  1   
 33  15  17  2   
 34  16  18  1   
 35  16  19  1   
 36  17  20  1   
 37  17  41  1   
 38  18  20  2   
 39  19  21  1   
 40  19  42  1   
 41  19  43  1   
 42  20  22  1   
 43  21  44  1   
 44  21  45  1   
 45  21  46  1   
 46  22  23  1   
 47  22  47  1   
 48  22  48  1   
 49  23  24  1   
 50  23  25  1   
 51  23  49  1   
 52  24  50  1   
 53  24  51  1   
 54  24  52  1   
 55  25  53  1   
 56  25  54  1   
 57  25  55  1   
@<TRIPOS>SUBSTRUCTURE
  1 ****  10 GROUP 4 **** **** 0

# MOE 2024.06 (io_trps.svl 2023.06)
