@<TRIPOS>MOLECULE
NONAME
52 54 1 0 0 
SMALL
USER_CHARGES


@<TRIPOS>ATOM
  1 S        0.3270    -0.1260     1.6240 S.o2  1 <1>   1.5760 
  2 O       -0.1690    -1.3830     2.1370 O.2   1 <1>  -0.6500 
  3 O        0.7570     0.9120     2.5330 O.2   1 <1>  -0.6500 
  4 N       -0.8110     0.5330     0.5700 N.am  1 <1>  -0.8490 
  5 N        1.5840    -0.4700     0.5560 N.am  1 <1>  -0.8490 
  6 C       -2.1240     0.6300     1.2190 C.3   1 <1>   0.1960 
  7 C       -0.3820     1.8340     0.0550 C.3   1 <1>   0.1960 
  8 C        2.7620    -0.8600     1.3280 C.3   1 <1>   0.3390 
  9 C        1.2140    -1.5100    -0.4150 C.3   1 <1>   0.1160 
 10 C       -3.2290     1.0970     0.2400 C.3   1 <1>   0.0000 
 11 C       -1.3820     2.3450    -0.9850 C.3   1 <1>  -0.1600 
 12 C        3.9700    -1.0870     0.4260 C.ar  1 <1>  -0.1430 
 13 C       -4.5660     1.1860     1.0040 C.3   1 <1>   0.2000 
 14 C       -2.7990     2.4370    -0.4010 C.3   1 <1>  -0.1600 
 15 C       -3.5110     0.0090    -0.8130 C.3   1 <1>  -0.1600 
 16 C        4.4600    -0.0510    -0.3550 C.ar  1 <1>  -0.1500 
 17 C        4.5920    -2.3260     0.3770 C.ar  1 <1>  -0.1500 
 18 O       -5.4700     1.9720     0.2800 O.3   1 <1>  -0.5600 
 19 C       -5.0990    -0.2520     1.0430 C.3   1 <1>  -0.1600 
 20 C       -4.4750    -0.9830    -0.1540 C.3   1 <1>  -0.1600 
 21 C        5.5570    -0.2480    -1.1750 C.ar  1 <1>  -0.1500 
 22 C        5.6890    -2.5260    -0.4430 C.ar  1 <1>  -0.1500 
 23 C       -6.4840     2.5550     1.0360 C.3   1 <1>   0.0400 
 24 C        6.1720    -1.4870    -1.2190 C.ar  1 <1>  -0.1500 
 25 H       -2.3910    -0.3340     1.6170 H     1 <1>   0.0800 
 26 H       -2.0600     1.3190     2.0450 H     1 <1>   0.0800 
 27 H       -0.3020     2.5440     0.8630 H     1 <1>   0.0800 
 28 H        0.5870     1.7420    -0.4070 H     1 <1>   0.0800 
 29 H        3.0110    -0.0780     2.0250 H     1 <1>   0.0800 
 30 H        2.5490    -1.7520     1.8940 H     1 <1>   0.0800 
 31 H        2.0010    -1.6490    -1.1360 H     1 <1>   0.0800 
 32 H        0.3270    -1.2190    -0.9500 H     1 <1>   0.0800 
 33 H        1.0230    -2.4460     0.0830 H     1 <1>   0.0800 
 34 H       -1.0720     3.3160    -1.3290 H     1 <1>   0.0800 
 35 H       -1.3740     1.6810    -1.8310 H     1 <1>   0.0800 
 36 H       -4.4370     1.6110     1.9850 H     1 <1>   0.0800 
 37 H       -3.4900     2.7210    -1.1760 H     1 <1>   0.0800 
 38 H       -2.8210     3.2070     0.3500 H     1 <1>   0.0800 
 39 H       -4.0090     0.4550    -1.6570 H     1 <1>   0.0800 
 40 H       -2.6150    -0.4740    -1.1620 H     1 <1>   0.0800 
 41 H        3.9790     0.9120    -0.3260 H     1 <1>   0.1500 
 42 H        4.2260    -3.1420     0.9750 H     1 <1>   0.1500 
 43 H       -4.7700    -0.7250     1.9510 H     1 <1>   0.0800 
 44 H       -6.1730    -0.2870     1.0100 H     1 <1>   0.0800 
 45 H       -3.9390    -1.8540     0.1850 H     1 <1>   0.0800 
 46 H       -5.2320    -1.2910    -0.8550 H     1 <1>   0.0800 
 47 H        5.9300     0.5610    -1.7780 H     1 <1>   0.1500 
 48 H        6.1670    -3.4890    -0.4770 H     1 <1>   0.1500 
 49 H       -7.1240     3.1020     0.3670 H     1 <1>   0.0800 
 50 H       -6.0480     3.2290     1.7520 H     1 <1>   0.0800 
 51 H       -7.0510     1.7870     1.5330 H     1 <1>   0.0800 
 52 H        7.0250    -1.6420    -1.8560 H     1 <1>   0.1500 
@<TRIPOS>BOND
  1   1   2  2   
  2   1   3  2   
  3   1   4  am  
  4   1   5  am  
  5   4   6  1   
  6   4   7  1   
  7   5   8  1   
  8   5   9  1   
  9   6  10  1   
 10   6  25  1   
 11   6  26  1   
 12   7  11  1   
 13   7  27  1   
 14   7  28  1   
 15   8  12  1   
 16   8  29  1   
 17   8  30  1   
 18   9  31  1   
 19   9  32  1   
 20   9  33  1   
 21  10  13  1   
 22  10  14  1   
 23  10  15  1   
 24  11  14  1   
 25  11  34  1   
 26  11  35  1   
 27  12  16  ar  
 28  12  17  ar  
 29  13  18  1   
 30  13  19  1   
 31  13  36  1   
 32  14  37  1   
 33  14  38  1   
 34  15  20  1   
 35  15  39  1   
 36  15  40  1   
 37  16  21  ar  
 38  16  41  1   
 39  17  22  ar  
 40  17  42  1   
 41  18  23  1   
 42  19  20  1   
 43  19  43  1   
 44  19  44  1   
 45  20  45  1   
 46  20  46  1   
 47  21  24  ar  
 48  21  47  1   
 49  22  24  ar  
 50  22  48  1   
 51  23  49  1   
 52  23  50  1   
 53  23  51  1   
 54  24  52  1   
@<TRIPOS>SUBSTRUCTURE
  1 ****   4 GROUP 4 **** **** 0

# MOE 2024.06 (io_trps.svl 2023.06)
