@<TRIPOS>MOLECULE
NONAME
44 45 1 0 0 
SMALL
USER_CHARGES


@<TRIPOS>ATOM
  1 S        0.1420     0.0100    -0.8170 S.3   1 <1>  -0.4600 
  2 C        0.3860    -0.4890    -2.5410 C.3   1 <1>   1.2500 
  3 C        0.7220     1.7300    -0.8120 C.3   1 <1>   0.0700 
  4 F        1.6690    -0.4040    -2.8600 F     1 <1>  -0.3400 
  5 F       -0.0180    -1.7380    -2.7090 F     1 <1>  -0.3400 
  6 F       -0.3170     0.3020    -3.3390 F     1 <1>  -0.3400 
  7 C        0.6820     2.2450     0.6270 C.3   1 <1>   0.1400 
  8 N        1.0550     3.6770     0.6660 N.am  1 <1>  -0.7300 
  9 C        2.3060     4.1960     0.5340 C.2   1 <1>   0.7160 
 10 O        3.2110     3.4290     0.2690 O.2   1 <1>  -0.5700 
 11 C        2.5290     5.6030     0.6940 C.2   1 <1>  -0.0860 
 12 C        1.5500     6.5720     0.9570 C.2   1 <1>   0.3720 
 13 C        3.6730     6.3400     0.6160 C.2   1 <1>   0.0870 
 14 N        2.0600     7.7510     1.0170 N.2   1 <1>  -0.4100 
 15 N        0.1780     6.3340     1.1350 N.pl3 1 <1>  -0.8210 
 16 O        3.3370     7.5900     0.8060 O.3   1 <1>  -0.0190 
 17 C        5.0580     6.0150     0.3810 C.ar  1 <1>   0.0530 
 18 C       -0.6510     6.9520     0.0620 C.3   1 <1>   0.1290 
 19 C       -0.3060     6.7450     2.4840 C.3   1 <1>   0.1290 
 20 C        5.8240     6.7870    -0.4940 C.ar  1 <1>  -0.1500 
 21 C        5.6820     4.9430     1.0210 C.ar  1 <1>  -0.1500 
 22 C        7.1590     6.5170    -0.7480 C.ar  1 <1>   0.0830 
 23 C        7.0110     4.6440     0.7890 C.ar  1 <1>  -0.1500 
 24 O        7.7680     7.3600    -1.6300 O.3   1 <1>  -0.3630 
 25 C        7.7380     5.4260    -0.0870 C.ar  1 <1>   0.1900 
 26 C        9.1110     7.2130    -2.0340 C.3   1 <1>   0.0400 
 27 F        8.9910     5.0940    -0.2620 F     1 <1>  -0.1900 
 28 H        0.0650     2.2950    -1.4490 H     1 <1>   0.0800 
 29 H        1.7270     1.7380    -1.1970 H     1 <1>   0.0800 
 30 H        1.3750     1.6810     1.2290 H     1 <1>   0.0800 
 31 H       -0.3070     2.1240     1.0340 H     1 <1>   0.0800 
 32 H        0.3210     4.3680     0.8890 H     1 <1>   0.3700 
 33 H       -0.2710     6.6650    -0.9040 H     1 <1>   0.0800 
 34 H       -0.6200     8.0260     0.1400 H     1 <1>   0.0800 
 35 H       -1.6710     6.6190     0.1450 H     1 <1>   0.0800 
 36 H        0.3320     6.3270     3.2440 H     1 <1>   0.0800 
 37 H       -1.3100     6.3910     2.6410 H     1 <1>   0.0800 
 38 H       -0.2900     7.8190     2.5740 H     1 <1>   0.0800 
 39 H        5.3670     7.6220    -0.9940 H     1 <1>   0.1500 
 40 H        5.1170     4.3350     1.7060 H     1 <1>   0.1500 
 41 H        7.4810     3.8120     1.2820 H     1 <1>   0.1500 
 42 H        9.3340     7.9890    -2.7430 H     1 <1>   0.0800 
 43 H        9.2350     6.2500    -2.4970 H     1 <1>   0.0800 
 44 H        9.7490     7.3130    -1.1730 H     1 <1>   0.0800 
@<TRIPOS>BOND
  1   1   2  1   
  2   1   3  1   
  3   2   4  1   
  4   2   5  1   
  5   2   6  1   
  6   3   7  1   
  7   3  28  1   
  8   3  29  1   
  9   7   8  1   
 10   7  30  1   
 11   7  31  1   
 12   8   9  am  
 13   8  32  1   
 14   9  10  2   
 15   9  11  1   
 16  11  12  1   
 17  11  13  2   
 18  12  14  2   
 19  12  15  1   
 20  13  16  1   
 21  13  17  1   
 22  14  16  1   
 23  15  18  1   
 24  15  19  1   
 25  17  20  ar  
 26  17  21  ar  
 27  18  33  1   
 28  18  34  1   
 29  18  35  1   
 30  19  36  1   
 31  19  37  1   
 32  19  38  1   
 33  20  22  ar  
 34  20  39  1   
 35  21  23  ar  
 36  21  40  1   
 37  22  24  1   
 38  22  25  ar  
 39  23  25  ar  
 40  23  41  1   
 41  24  26  1   
 42  25  27  1   
 43  26  42  1   
 44  26  43  1   
 45  26  44  1   
@<TRIPOS>SUBSTRUCTURE
  1 ****  10 GROUP 4 **** **** 0

# MOE 2024.06 (io_trps.svl 2023.06)
