@<TRIPOS>MOLECULE
NONAME
42 43 1 0 0 
SMALL
USER_CHARGES


@<TRIPOS>ATOM
  1 S        0.1910    -0.1300     0.4080 S.o2  1 <1>   1.3330 
  2 O       -0.5390     1.0760     0.7230 O.2   1 <1>  -0.6500 
  3 O        0.6250    -0.9990     1.4790 O.2   1 <1>  -0.6500 
  4 N       -0.7500    -1.0580    -0.6580 N.am  1 <1>  -0.8490 
  5 C        1.5930     0.3280    -0.6130 C.3   1 <1>  -0.0550 
  6 C       -0.3370    -2.4640    -0.7260 C.3   1 <1>   0.1160 
  7 C       -2.1810    -0.9720    -0.3550 C.3   1 <1>   0.1160 
  8 C        2.5950     1.2600     0.0950 C.3   1 <1>  -0.0800 
  9 C        3.6260     1.7930    -0.8830 C.3   1 <1>   0.2200 
 10 C        3.4760     0.5080     1.0980 C.3   1 <1>   0.1200 
 11 N        4.2040     3.0430    -0.3450 N.am  1 <1>  -0.7300 
 12 C        4.6840     0.6940    -0.8630 C.3   1 <1>   0.1200 
 13 O        4.6230     0.1110     0.4060 O.3   1 <1>  -0.5600 
 14 C        3.9860     4.2880    -0.8590 C.2   1 <1>   0.5440 
 15 O        3.1530     4.4200    -1.7310 O.2   1 <1>  -0.5700 
 16 C        4.7210     5.4350    -0.3700 C.ar  1 <1>   0.0860 
 17 C        6.1210     5.4880    -0.3830 C.ar  1 <1>   0.0730 
 18 C        4.0190     6.5340     0.1260 C.ar  1 <1>  -0.1500 
 19 C        6.9000     4.4010    -0.9020 C.1   1 <1>   0.4840 
 20 C        6.7690     6.6150     0.1130 C.ar  1 <1>  -0.1500 
 21 C        4.6730     7.6480     0.6140 C.ar  1 <1>  -0.1500 
 22 N        7.5080     3.5160    -1.2870 N.1   1 <1>  -0.5570 
 23 C        6.0540     7.6880     0.6100 C.ar  1 <1>  -0.1500 
 24 H        2.0980    -0.5580    -0.9460 H     1 <1>   0.0800 
 25 H        1.2130     0.8330    -1.4800 H     1 <1>   0.0800 
 26 H       -0.9030    -2.9790    -1.4840 H     1 <1>   0.0800 
 27 H       -0.4970    -2.9500     0.2220 H     1 <1>   0.0800 
 28 H        0.7080    -2.5330    -0.9770 H     1 <1>   0.0800 
 29 H       -2.7480    -1.5590    -1.0580 H     1 <1>   0.0800 
 30 H       -2.5130     0.0500    -0.4280 H     1 <1>   0.0800 
 31 H       -2.3750    -1.3280     0.6430 H     1 <1>   0.0800 
 32 H        2.0540     2.0640     0.5650 H     1 <1>   0.0800 
 33 H        3.2330     1.9570    -1.8730 H     1 <1>   0.0800 
 34 H        3.0080    -0.3620     1.5220 H     1 <1>   0.0800 
 35 H        3.7880     1.1640     1.8920 H     1 <1>   0.0800 
 36 H        4.8770     2.8940     0.4100 H     1 <1>   0.3700 
 37 H        5.6770     1.0700    -1.0430 H     1 <1>   0.0800 
 38 H        4.4510    -0.0700    -1.5830 H     1 <1>   0.0800 
 39 H        2.9420     6.5050     0.1220 H     1 <1>   0.1500 
 40 H        7.8460     6.6580     0.1090 H     1 <1>   0.1500 
 41 H        4.1080     8.4830     0.9940 H     1 <1>   0.1500 
 42 H        6.5690     8.5550     0.9910 H     1 <1>   0.1500 
@<TRIPOS>BOND
  1   1   2  2   
  2   1   3  2   
  3   1   4  am  
  4   1   5  1   
  5   4   6  1   
  6   4   7  1   
  7   5   8  1   
  8   5  24  1   
  9   5  25  1   
 10   6  26  1   
 11   6  27  1   
 12   6  28  1   
 13   7  29  1   
 14   7  30  1   
 15   7  31  1   
 16   8   9  1   
 17   8  10  1   
 18   8  32  1   
 19   9  11  1   
 20   9  12  1   
 21   9  33  1   
 22  10  13  1   
 23  10  34  1   
 24  10  35  1   
 25  11  14  am  
 26  11  36  1   
 27  12  13  1   
 28  12  37  1   
 29  12  38  1   
 30  14  15  2   
 31  14  16  1   
 32  16  17  ar  
 33  16  18  ar  
 34  17  19  1   
 35  17  20  ar  
 36  18  21  ar  
 37  18  39  1   
 38  19  22  3   
 39  20  23  ar  
 40  20  40  1   
 41  21  23  ar  
 42  21  41  1   
 43  23  42  1   
@<TRIPOS>SUBSTRUCTURE
  1 ****  11 GROUP 4 **** **** 0

# MOE 2024.06 (io_trps.svl 2023.06)
