@<TRIPOS>MOLECULE
NONAME
50 53 1 0 0 
SMALL
USER_CHARGES


@<TRIPOS>ATOM
  1 O        1.7860    -0.8810     2.0890 O.2   1 <1>  -0.5700 
  2 C        2.1310    -1.2650     0.9880 C.2   1 <1>   0.5440 
  3 N        3.0120    -0.4920     0.2550 N.am  1 <1>  -0.6600 
  4 C        1.5740    -2.5080     0.4910 C.ar  1 <1>   0.0860 
  5 C        3.5490     0.8130     0.8340 C.3   1 <1>   0.2200 
  6 C        3.3790    -0.8590    -1.1580 C.3   1 <1>   0.1400 
  7 C        0.2000    -2.6630     0.1980 C.ar  1 <1>   0.0170 
  8 C        2.4260    -3.5980     0.3160 C.ar  1 <1>  -0.1500 
  9 C        3.1170     2.0330     0.0050 C.3   1 <1>   0.1200 
 10 C        5.0790     0.7970     1.0650 C.3   1 <1>   0.3430 
 11 C        4.4260     0.0370    -1.8480 C.3   1 <1>  -0.0800 
 12 C       -0.7790    -1.6110     0.3900 C.cat 1 <1>   0.7830 
 13 C       -0.2320    -3.9000    -0.2920 C.ar  1 <1>  -0.1500 
 14 C        1.9730    -4.8060    -0.1700 C.ar  1 <1>  -0.1500 
 15 O        3.9890     2.2730    -1.0540 O.3   1 <1>  -0.5600 
 16 N        5.7840    -0.2710     0.2790 N.4   1 <1>  -0.9590 
 17 C        3.8870     1.4410    -2.1570 C.3   1 <1>   0.1200 
 18 C        5.8130     0.0800    -1.1750 C.3   1 <1>   0.3430 
 19 N       -0.8090    -0.6990     1.3590 N.pl3 1 <1>  -0.7000 
 20 N       -1.8470    -1.3970    -0.3840 N.pl3 1 <1>  -0.7000 
 21 C        0.6370    -4.9550    -0.4800 C.ar  1 <1>  -0.1500 
 22 C        7.2200    -0.3620     0.7820 C.3   1 <1>   0.2370 
 23 C       -1.9110     0.0970     1.2130 C.2   1 <1>   0.2000 
 24 C       -2.5640    -0.3400     0.1180 C.2   1 <1>   0.2000 
 25 C        8.0330     0.9260     0.6230 C.2   1 <1>   0.9060 
 26 O        8.6230     1.1010    -0.4460 O.co2 1 <1>  -0.9000 
 27 O        7.9390     1.7760     1.5110 O.co2 1 <1>  -0.9000 
 28 H        3.1140     0.9750     1.8030 H     1 <1>   0.0800 
 29 H        3.7580    -1.8660    -1.1680 H     1 <1>   0.0800 
 30 H        2.4810    -0.8530    -1.7540 H     1 <1>   0.0800 
 31 H        3.4680    -3.5030     0.5740 H     1 <1>   0.1500 
 32 H        3.1590     2.9090     0.6290 H     1 <1>   0.0800 
 33 H        2.1120     1.9300    -0.3650 H     1 <1>   0.0800 
 34 H        5.2600     0.6370     2.1140 H     1 <1>   0.0800 
 35 H        5.4930     1.7640     0.8240 H     1 <1>   0.0800 
 36 H        4.5910    -0.4040    -2.8140 H     1 <1>   0.0800 
 37 H       -1.2720    -4.0640    -0.5210 H     1 <1>   0.1500 
 38 H        2.6500    -5.6360    -0.3020 H     1 <1>   0.1500 
 39 H        5.2830    -1.1490     0.4280 H     1 <1>   0.4500 
 40 H        2.8640     1.4200    -2.4910 H     1 <1>   0.0800 
 41 H        4.4840     1.8920    -2.9320 H     1 <1>   0.0800 
 42 H        6.2440     1.0630    -1.3010 H     1 <1>   0.0800 
 43 H        6.4640    -0.6130    -1.6810 H     1 <1>   0.0800 
 44 H       -0.0650    -0.6260     2.0790 H     1 <1>   0.4500 
 45 H       -2.0910    -1.9420    -1.2160 H     1 <1>   0.4500 
 46 H        0.2780    -5.9000    -0.8580 H     1 <1>   0.1500 
 47 H        7.2260    -0.6090     1.8280 H     1 <1>   0.0800 
 48 H        7.7460    -1.1330     0.2490 H     1 <1>   0.0800 
 49 H       -2.1570     0.9090     1.8820 H     1 <1>   0.1500 
 50 H       -3.4780     0.0300    -0.3240 H     1 <1>   0.1500 
@<TRIPOS>BOND
  1   1   2  2   
  2   2   3  am  
  3   2   4  1   
  4   3   5  1   
  5   3   6  1   
  6   4   7  ar  
  7   4   8  ar  
  8   5   9  1   
  9   5  10  1   
 10   5  28  1   
 11   6  11  1   
 12   6  29  1   
 13   6  30  1   
 14   7  12  1   
 15   7  13  ar  
 16   8  14  ar  
 17   8  31  1   
 18   9  15  1   
 19   9  32  1   
 20   9  33  1   
 21  10  16  1   
 22  10  34  1   
 23  10  35  1   
 24  11  17  1   
 25  11  18  1   
 26  11  36  1   
 27  12  19  ar  
 28  12  20  ar  
 29  13  21  ar  
 30  13  37  1   
 31  14  21  ar  
 32  14  38  1   
 33  15  17  1   
 34  16  18  1   
 35  16  22  1   
 36  16  39  1   
 37  17  40  1   
 38  17  41  1   
 39  18  42  1   
 40  18  43  1   
 41  19  23  1   
 42  19  44  1   
 43  20  24  1   
 44  20  45  1   
 45  21  46  1   
 46  22  25  1   
 47  22  47  1   
 48  22  48  1   
 49  23  24  2   
 50  23  49  1   
 51  24  50  1   
 52  25  26  ar  
 53  25  27  ar  
@<TRIPOS>SUBSTRUCTURE
  1 ****   3 GROUP 4 **** **** 0

# MOE 2024.06 (io_trps.svl 2023.06)
