@<TRIPOS>MOLECULE
NONAME
44 46 1 0 0 
SMALL
USER_CHARGES


@<TRIPOS>ATOM
  1 F       -0.8230    -0.7690     0.5610 F     1 <1>  -0.1900 
  2 C       -1.9610    -1.2410     0.1010 C.ar  1 <1>   0.1900 
  3 C       -3.1890    -0.6270     0.3150 C.ar  1 <1>   0.3920 
  4 C       -1.9320    -2.4010    -0.6250 C.ar  1 <1>   0.1600 
  5 O       -3.3940     0.5170     1.0100 O.3   1 <1>  -0.3630 
  6 N       -4.2900    -1.1530    -0.1730 N.ar  1 <1>  -0.6200 
  7 N       -3.0290    -2.9350    -1.1150 N.ar  1 <1>  -0.6200 
  8 C       -2.3720     1.2990     1.5870 C.3   1 <1>   0.0400 
  9 C       -4.1640    -2.2790    -0.8720 C.ar  1 <1>   0.7200 
 10 N       -5.3180    -2.8270    -1.3910 N.pl3 1 <1>  -0.8380 
 11 C       -5.4820    -4.3120    -1.4950 C.3   1 <1>   0.2090 
 12 C       -6.6390    -2.1290    -1.2800 C.3   1 <1>   0.2090 
 13 C       -6.2850    -4.8670    -0.2990 C.3   1 <1>   0.2090 
 14 C       -7.4280    -2.6540    -0.0660 C.3   1 <1>   0.2090 
 15 N       -7.5990    -4.1520    -0.1160 N.pl3 1 <1>  -0.8380 
 16 C       -8.7920    -4.7900     0.0180 C.ar  1 <1>   0.1000 
 17 C       -9.9760    -4.2660    -0.5160 C.ar  1 <1>  -0.1500 
 18 C       -8.8980    -6.0070     0.7030 C.ar  1 <1>  -0.1500 
 19 C      -11.1740    -4.9180    -0.3690 C.ar  1 <1>   0.2180 
 20 C      -10.1040    -6.6450     0.8390 C.ar  1 <1>   0.2180 
 21 N      -11.2210    -6.0930     0.3040 N.ar  1 <1>  -0.1790 
 22 C      -12.4660    -4.3640    -0.9440 C.3   1 <1>  -0.0970 
 23 C      -10.2360    -7.9640     1.5820 C.3   1 <1>  -0.0970 
 24 H       -0.9950    -2.8970    -0.8050 H     1 <1>   0.1500 
 25 H       -2.8300     2.1570     2.0470 H     1 <1>   0.0800 
 26 H       -1.6950     1.6190     0.8150 H     1 <1>   0.0800 
 27 H       -1.8620     0.7170     2.3330 H     1 <1>   0.0800 
 28 H       -4.5300    -4.8080    -1.5420 H     1 <1>   0.0800 
 29 H       -6.0060    -4.5410    -2.4060 H     1 <1>   0.0800 
 30 H       -7.2070    -2.3110    -2.1750 H     1 <1>   0.0800 
 31 H       -6.5070    -1.0650    -1.1970 H     1 <1>   0.0800 
 32 H       -5.6940    -4.7550     0.5930 H     1 <1>   0.0800 
 33 H       -6.4520    -5.9160    -0.4620 H     1 <1>   0.0800 
 34 H       -8.3810    -2.1620    -0.0170 H     1 <1>   0.0800 
 35 H       -6.8860    -2.3940     0.8270 H     1 <1>   0.0800 
 36 H       -9.9250    -3.3410    -1.0600 H     1 <1>   0.1500 
 37 H       -8.0090    -6.4270     1.1360 H     1 <1>   0.1500 
 38 H      -12.1180    -6.5740     0.4100 H     1 <1>   0.4570 
 39 H      -12.2860    -3.4320    -1.4510 H     1 <1>   0.0800 
 40 H      -13.1800    -4.1850    -0.1600 H     1 <1>   0.0800 
 41 H      -12.8880    -5.0540    -1.6540 H     1 <1>   0.0800 
 42 H       -9.2790    -8.2850     1.9540 H     1 <1>   0.0800 
 43 H      -10.6140    -8.7290     0.9270 H     1 <1>   0.0800 
 44 H      -10.9010    -7.8570     2.4210 H     1 <1>   0.0800 
@<TRIPOS>BOND
  1   1   2  1   
  2   2   3  ar  
  3   2   4  ar  
  4   3   5  1   
  5   3   6  ar  
  6   4   7  ar  
  7   4  24  1   
  8   5   8  1   
  9   6   9  ar  
 10   7   9  ar  
 11   8  25  1   
 12   8  26  1   
 13   8  27  1   
 14   9  10  1   
 15  10  11  1   
 16  10  12  1   
 17  11  13  1   
 18  11  28  1   
 19  11  29  1   
 20  12  14  1   
 21  12  30  1   
 22  12  31  1   
 23  13  15  1   
 24  13  32  1   
 25  13  33  1   
 26  14  15  1   
 27  14  34  1   
 28  14  35  1   
 29  15  16  1   
 30  16  17  ar  
 31  16  18  ar  
 32  17  19  ar  
 33  17  36  1   
 34  18  20  ar  
 35  18  37  1   
 36  19  21  ar  
 37  19  22  1   
 38  20  21  ar  
 39  20  23  1   
 40  21  38  1   
 41  22  39  1   
 42  22  40  1   
 43  22  41  1   
 44  23  42  1   
 45  23  43  1   
 46  23  44  1   
@<TRIPOS>SUBSTRUCTURE
  1 ****  14 GROUP 4 **** **** 0

# MOE 2024.06 (io_trps.svl 2023.06)
