@<TRIPOS>MOLECULE
NONAME
45 47 1 0 0 
SMALL
USER_CHARGES


@<TRIPOS>ATOM
  1 O       -0.7820     0.1400    -2.5200 O.2   1 <1>  -0.5700 
  2 C       -1.3700     0.8410    -1.7290 C.2   1 <1>   0.5690 
  3 N       -2.3200     0.3200    -0.8880 N.am  1 <1>  -0.6600 
  4 C       -1.0510     2.3340    -1.7310 C.3   1 <1>   0.1810 
  5 C       -3.0500     1.0580     0.1740 C.3   1 <1>   0.1400 
  6 C       -2.6490    -1.1240    -0.8440 C.3   1 <1>   0.1400 
  7 O       -0.6200     2.7790    -0.4530 O.3   1 <1>  -0.3620 
  8 C       -3.9080     0.0020     0.8720 C.3   1 <1>   0.2000 
  9 C       -3.2660    -1.3430     0.5380 C.3   1 <1>  -0.0800 
 10 C       -0.4000     4.0950    -0.1960 C.ar  1 <1>   0.0820 
 11 O       -3.9280     0.1860     2.2450 O.3   1 <1>  -0.6800 
 12 C       -4.2670    -2.5100     0.6070 C.3   1 <1>  -0.0170 
 13 C       -0.1210     4.4560     1.1200 C.ar  1 <1>  -0.1440 
 14 C       -0.4460     5.0760    -1.1850 C.ar  1 <1>  -0.1500 
 15 C       -3.6020    -3.8430     0.3040 C.ar  1 <1>   0.1670 
 16 C        0.0990     5.7880     1.4330 C.ar  1 <1>  -0.1500 
 17 C       -0.0540     3.4050     2.2190 C.3   1 <1>  -0.0970 
 18 C       -0.2240     6.4020    -0.8600 C.ar  1 <1>  -0.1500 
 19 N       -3.4560    -4.1530    -0.9740 N.ar  1 <1>  -0.6200 
 20 C       -3.1800    -4.6650     1.3480 C.ar  1 <1>   0.1600 
 21 C        0.0470     6.7580     0.4480 C.ar  1 <1>  -0.1500 
 22 C       -2.8610    -5.3230    -1.1370 C.ar  1 <1>   0.1600 
 23 N       -2.5860    -5.8360     1.1880 N.ar  1 <1>  -0.6200 
 24 C       -2.4410    -6.1370    -0.0920 C.ar  1 <1>   0.1600 
 25 H       -1.9330     2.8820    -2.0040 H     1 <1>   0.0800 
 26 H       -0.2630     2.5290    -2.4350 H     1 <1>   0.0800 
 27 H       -2.3430     1.4880     0.8620 H     1 <1>   0.0800 
 28 H       -3.6650     1.8280    -0.2580 H     1 <1>   0.0800 
 29 H       -3.3580    -1.3460    -1.6240 H     1 <1>   0.0800 
 30 H       -1.7680    -1.7290    -0.9860 H     1 <1>   0.0800 
 31 H       -4.9200     0.0560     0.5070 H     1 <1>   0.0800 
 32 H       -2.4530    -1.5300     1.2180 H     1 <1>   0.0800 
 33 H       -3.0190     0.1610     2.6030 H     1 <1>   0.4000 
 34 H       -5.0660    -2.3510    -0.0950 H     1 <1>   0.0800 
 35 H       -4.7030    -2.5420     1.5900 H     1 <1>   0.0800 
 36 H       -0.6470     4.8320    -2.2100 H     1 <1>   0.1500 
 37 H        0.3120     6.0790     2.4460 H     1 <1>   0.1500 
 38 H        0.3130     3.8270     3.1370 H     1 <1>   0.0800 
 39 H        0.6040     2.6070     1.9240 H     1 <1>   0.0800 
 40 H       -1.0340     3.0000     2.3940 H     1 <1>   0.0800 
 41 H       -0.2600     7.1580    -1.6250 H     1 <1>   0.1500 
 42 H       -3.3390    -4.3390     2.3610 H     1 <1>   0.1500 
 43 H        0.2190     7.7900     0.7010 H     1 <1>   0.1500 
 44 H       -2.6990    -5.6550    -2.1470 H     1 <1>   0.1500 
 45 H       -1.9660    -7.0730    -0.3250 H     1 <1>   0.1500 
@<TRIPOS>BOND
  1   1   2  2   
  2   2   3  am  
  3   2   4  1   
  4   3   5  1   
  5   3   6  1   
  6   4   7  1   
  7   4  25  1   
  8   4  26  1   
  9   5   8  1   
 10   5  27  1   
 11   5  28  1   
 12   6   9  1   
 13   6  29  1   
 14   6  30  1   
 15   7  10  1   
 16   8   9  1   
 17   8  11  1   
 18   8  31  1   
 19   9  12  1   
 20   9  32  1   
 21  10  13  ar  
 22  10  14  ar  
 23  11  33  1   
 24  12  15  1   
 25  12  34  1   
 26  12  35  1   
 27  13  16  ar  
 28  13  17  1   
 29  14  18  ar  
 30  14  36  1   
 31  15  19  ar  
 32  15  20  ar  
 33  16  21  ar  
 34  16  37  1   
 35  17  38  1   
 36  17  39  1   
 37  17  40  1   
 38  18  21  ar  
 39  18  41  1   
 40  19  22  ar  
 41  20  23  ar  
 42  20  42  1   
 43  21  43  1   
 44  22  24  ar  
 45  22  44  1   
 46  23  24  ar  
 47  24  45  1   
@<TRIPOS>SUBSTRUCTURE
  1 ****   3 GROUP 4 **** **** 0

# MOE 2024.06 (io_trps.svl 2023.06)
