@<TRIPOS>MOLECULE
NONAME
60 62 1 0 0 
SMALL
USER_CHARGES


@<TRIPOS>ATOM
  1 O        0.2010    -0.2080    -1.1450 O.3   1 <1>  -0.5600 
  2 C        1.4870    -0.7650    -1.2720 C.3   1 <1>   0.2000 
  3 C        0.1330     1.1820    -1.2570 C.3   1 <1>   0.1200 
  4 C        2.4690    -0.1400    -0.2420 C.3   1 <1>   0.5660 
  5 C        1.3850    -2.2850    -1.0610 C.3   1 <1>   0.1200 
  6 C        0.9680     1.8390    -0.1440 C.3   1 <1>   0.3430 
  7 N        2.3900     1.3560    -0.1620 N.4   1 <1>  -0.9590 
  8 C        3.9150    -0.4880    -0.5670 C.ar  1 <1>  -0.1440 
  9 O        1.2200    -2.5710     0.2920 O.3   1 <1>  -0.6800 
 10 C        3.1860     1.8710     0.9870 C.3   1 <1>   0.4870 
 11 C        4.6500    -1.2230     0.3520 C.ar  1 <1>  -0.1500 
 12 C        4.5240    -0.0730    -1.7470 C.ar  1 <1>  -0.1500 
 13 C        3.5500     3.3030     0.6940 C.ar  1 <1>  -0.1440 
 14 C        5.9780    -1.5300     0.1150 C.ar  1 <1>   0.0820 
 15 C        5.8550    -0.3700    -1.9860 C.ar  1 <1>  -0.1500 
 16 C        2.8350     4.3600     1.2090 C.ar  1 <1>   0.1600 
 17 C        4.6180     3.6080    -0.1190 C.ar  1 <1>   0.1600 
 18 O        6.6150    -2.2640     1.0580 O.3   1 <1>  -0.3620 
 19 C        6.5950    -1.0790    -1.0560 C.ar  1 <1>   0.0820 
 20 N        3.1220     5.6010     0.9150 N.ar  1 <1>  -0.6200 
 21 N        4.9250     4.8410    -0.4270 N.ar  1 <1>  -0.6200 
 22 C        7.0630    -3.5460     0.6700 C.3   1 <1>   0.0400 
 23 O        7.9000    -1.3010    -1.3430 O.3   1 <1>  -0.3630 
 24 C        4.1550     5.7840     0.1050 C.ar  1 <1>   0.7200 
 25 C        8.8560    -0.7060    -0.4910 C.3   1 <1>   0.0400 
 26 N        4.4100     7.0760    -0.1870 N.pl3 1 <1>  -0.8690 
 27 C        5.6460     7.6100    -0.7610 C.3   1 <1>   0.2890 
 28 C        6.4800     8.1930     0.3720 C.3   1 <1>  -0.2400 
 29 C        5.2620     8.6800    -1.7750 C.3   1 <1>  -0.2400 
 30 H        1.8200    -0.5770    -2.2770 H     1 <1>   0.0800 
 31 H        0.4760     1.4750    -2.2340 H     1 <1>   0.0800 
 32 H       -0.9020     1.4650    -1.1590 H     1 <1>   0.0800 
 33 H        2.2240    -0.5520     0.7230 H     1 <1>   0.0800 
 34 H        2.2840    -2.7760    -1.3940 H     1 <1>   0.0800 
 35 H        0.5440    -2.6790    -1.6070 H     1 <1>   0.0800 
 36 H        0.5100     1.6010     0.8030 H     1 <1>   0.0800 
 37 H        0.9400     2.9100    -0.2670 H     1 <1>   0.0800 
 38 H        2.8370     1.7060    -1.0150 H     1 <1>   0.4500 
 39 H        0.9150    -3.4960     0.4140 H     1 <1>   0.4000 
 40 H        2.6220     1.7990     1.9030 H     1 <1>   0.0800 
 41 H        4.0950     1.3010     1.1030 H     1 <1>   0.0800 
 42 H        4.2050    -1.5790     1.2670 H     1 <1>   0.1500 
 43 H        3.9870     0.4810    -2.4990 H     1 <1>   0.1500 
 44 H        6.3350    -0.0520    -2.8960 H     1 <1>   0.1500 
 45 H        2.0040     4.1960     1.8740 H     1 <1>   0.1500 
 46 H        5.2380     2.8300    -0.5350 H     1 <1>   0.1500 
 47 H        7.4460    -4.0460     1.5420 H     1 <1>   0.0800 
 48 H        7.8410    -3.4490    -0.0650 H     1 <1>   0.0800 
 49 H        6.2340    -4.0980     0.2650 H     1 <1>   0.0800 
 50 H        9.8320    -0.8970    -0.8980 H     1 <1>   0.0800 
 51 H        8.7810    -1.1380     0.4910 H     1 <1>   0.0800 
 52 H        8.6750     0.3530    -0.4500 H     1 <1>   0.0800 
 53 H        3.8520     7.7340     0.3510 H     1 <1>   0.4000 
 54 H        6.2010     6.8300    -1.2580 H     1 <1>   0.0800 
 55 H        5.9440     8.9760     0.8770 H     1 <1>   0.0800 
 56 H        7.3950     8.5990    -0.0200 H     1 <1>   0.0800 
 57 H        6.7290     7.4200     1.0760 H     1 <1>   0.0800 
 58 H        4.7090     9.4720    -1.3030 H     1 <1>   0.0800 
 59 H        4.6640     8.2440    -2.5540 H     1 <1>   0.0800 
 60 H        6.1470     9.0960    -2.2210 H     1 <1>   0.0800 
@<TRIPOS>BOND
  1   1   2  1   
  2   1   3  1   
  3   2   4  1   
  4   2   5  1   
  5   2  30  1   
  6   3   6  1   
  7   3  31  1   
  8   3  32  1   
  9   4   7  1   
 10   4   8  1   
 11   4  33  1   
 12   5   9  1   
 13   5  34  1   
 14   5  35  1   
 15   6   7  1   
 16   6  36  1   
 17   6  37  1   
 18   7  10  1   
 19   7  38  1   
 20   8  11  ar  
 21   8  12  ar  
 22   9  39  1   
 23  10  13  1   
 24  10  40  1   
 25  10  41  1   
 26  11  14  ar  
 27  11  42  1   
 28  12  15  ar  
 29  12  43  1   
 30  13  16  ar  
 31  13  17  ar  
 32  14  18  1   
 33  14  19  ar  
 34  15  19  ar  
 35  15  44  1   
 36  16  20  ar  
 37  16  45  1   
 38  17  21  ar  
 39  17  46  1   
 40  18  22  1   
 41  19  23  1   
 42  20  24  ar  
 43  21  24  ar  
 44  22  47  1   
 45  22  48  1   
 46  22  49  1   
 47  23  25  1   
 48  24  26  1   
 49  25  50  1   
 50  25  51  1   
 51  25  52  1   
 52  26  27  1   
 53  26  53  1   
 54  27  28  1   
 55  27  29  1   
 56  27  54  1   
 57  28  55  1   
 58  28  56  1   
 59  28  57  1   
 60  29  58  1   
 61  29  59  1   
 62  29  60  1   
@<TRIPOS>SUBSTRUCTURE
  1 ****  10 GROUP 4 **** **** 0

# MOE 2024.06 (io_trps.svl 2023.06)
