@<TRIPOS>MOLECULE
NONAME
45 47 1 0 0 
SMALL
USER_CHARGES


@<TRIPOS>ATOM
  1 F        0.5130    -0.4040    -1.4700 F     1 <1>  -0.3400 
  2 C       -0.0830    -0.2940    -0.2880 C.3   1 <1>   1.1640 
  3 F        0.8630     0.0310     0.5810 F     1 <1>  -0.3400 
  4 F       -0.8900     0.7570    -0.3760 F     1 <1>  -0.3400 
  5 C       -0.8240    -1.5790     0.1240 C.ar  1 <1>  -0.1440 
  6 C       -1.9460    -1.5220     0.9430 C.ar  1 <1>  -0.1500 
  7 C       -0.3800    -2.8270    -0.3020 C.ar  1 <1>  -0.1500 
  8 C       -2.6120    -2.6760     1.3160 C.ar  1 <1>  -0.1500 
  9 C       -1.0450    -3.9820     0.0710 C.ar  1 <1>  -0.1500 
 10 C       -2.1730    -3.9140     0.8750 C.ar  1 <1>  -0.1430 
 11 C       -2.9180    -5.1750     1.2720 C.3   1 <1>   0.4870 
 12 N       -3.4410    -5.8170     0.0350 N.4   1 <1>  -0.9590 
 13 C       -4.8910    -5.5380    -0.1650 C.3   1 <1>   0.4230 
 14 C       -3.1470    -7.2830     0.0500 C.3   1 <1>   0.2630 
 15 C       -5.4390    -6.1990    -1.4230 C.3   1 <1>  -0.1600 
 16 C       -5.1750    -4.0550    -0.3950 C.3   1 <1>  -0.1600 
 17 C       -6.7070    -5.4080    -1.7580 C.3   1 <1>  -0.0800 
 18 C       -6.4780    -3.9890    -1.2100 C.3   1 <1>  -0.0800 
 19 C       -7.9600    -5.9520    -1.0420 C.3   1 <1>  -0.1600 
 20 C       -7.7120    -3.6610    -0.3540 C.3   1 <1>  -0.1600 
 21 C       -8.2740    -4.9990     0.1060 C.3   1 <1>   0.2000 
 22 O       -7.5780    -5.4050     1.2320 O.3   1 <1>  -0.6800 
 23 H       -2.3090    -0.5700     1.2990 H     1 <1>   0.1500 
 24 H        0.4960    -2.9050    -0.9270 H     1 <1>   0.1500 
 25 H       -3.4760    -2.5900     1.9550 H     1 <1>   0.1500 
 26 H       -0.6630    -4.9290    -0.2720 H     1 <1>   0.1500 
 27 H       -3.7260    -4.9400     1.9460 H     1 <1>   0.0800 
 28 H       -2.2340    -5.8360     1.7780 H     1 <1>   0.0800 
 29 H       -2.9430    -5.3680    -0.7450 H     1 <1>   0.4500 
 30 H       -5.4580    -5.8850     0.6830 H     1 <1>   0.0800 
 31 H       -3.6960    -7.7670     0.8420 H     1 <1>   0.0800 
 32 H       -2.0940    -7.4540     0.2040 H     1 <1>   0.0800 
 33 H       -3.4300    -7.7340    -0.8880 H     1 <1>   0.0800 
 34 H       -4.7420    -6.0810    -2.2340 H     1 <1>   0.0800 
 35 H       -5.6530    -7.2420    -1.2770 H     1 <1>   0.0800 
 36 H       -5.2670    -3.5250     0.5340 H     1 <1>   0.0800 
 37 H       -4.3880    -3.6140    -0.9830 H     1 <1>   0.0800 
 38 H       -6.8740    -5.3970    -2.8230 H     1 <1>   0.0800 
 39 H       -6.3770    -3.2700    -2.0060 H     1 <1>   0.0800 
 40 H       -7.8660    -6.9690    -0.7040 H     1 <1>   0.0800 
 41 H       -8.7820    -5.9110    -1.7350 H     1 <1>   0.0800 
 42 H       -8.4460    -3.1980    -0.9910 H     1 <1>   0.0800 
 43 H       -7.5110    -2.9890     0.4610 H     1 <1>   0.0800 
 44 H       -9.3250    -4.9660     0.3400 H     1 <1>   0.0800 
 45 H       -7.9480    -4.9560     2.0180 H     1 <1>   0.4000 
@<TRIPOS>BOND
  1   1   2  1   
  2   2   3  1   
  3   2   4  1   
  4   2   5  1   
  5   5   6  ar  
  6   5   7  ar  
  7   6   8  ar  
  8   6  23  1   
  9   7   9  ar  
 10   7  24  1   
 11   8  10  ar  
 12   8  25  1   
 13   9  10  ar  
 14   9  26  1   
 15  10  11  1   
 16  11  12  1   
 17  11  27  1   
 18  11  28  1   
 19  12  13  1   
 20  12  14  1   
 21  12  29  1   
 22  13  15  1   
 23  13  16  1   
 24  13  30  1   
 25  14  31  1   
 26  14  32  1   
 27  14  33  1   
 28  15  17  1   
 29  15  34  1   
 30  15  35  1   
 31  16  18  1   
 32  16  36  1   
 33  16  37  1   
 34  17  18  1   
 35  17  19  1   
 36  17  38  1   
 37  18  20  1   
 38  18  39  1   
 39  19  21  1   
 40  19  40  1   
 41  19  41  1   
 42  20  21  1   
 43  20  42  1   
 44  20  43  1   
 45  21  22  1   
 46  21  44  1   
 47  22  45  1   
@<TRIPOS>SUBSTRUCTURE
  1 ****  16 GROUP 4 **** **** 0

# MOE 2024.06 (io_trps.svl 2023.06)
