@<TRIPOS>MOLECULE
NONAME
48 49 1 0 0 
SMALL
USER_CHARGES


@<TRIPOS>ATOM
  1 S        0.4070     0.1030    -1.1270 S.o2  1 <1>   1.3330 
  2 O        0.1960    -1.0870    -0.3340 O.2   1 <1>  -0.6500 
  3 O       -0.2450     0.2280    -2.4110 O.2   1 <1>  -0.6500 
  4 N       -0.0630     1.4360    -0.1870 N.am  1 <1>  -0.8490 
  5 C        2.1740     0.3160    -1.3460 C.3   1 <1>  -0.0550 
  6 C        0.0240     2.7150    -0.9040 C.3   1 <1>   0.1160 
  7 C       -1.4090     1.2610     0.3610 C.3   1 <1>   0.1160 
  8 C        2.9560     0.4700    -0.0300 C.3   1 <1>  -0.0800 
  9 C        4.4060     0.8700    -0.2850 C.3   1 <1>   0.2200 
 10 C        3.0620    -0.8150     0.7940 C.3   1 <1>   0.1200 
 11 N        4.6720     2.1710     0.3670 N.am  1 <1>  -0.7300 
 12 C        5.2090    -0.2550     0.3630 C.3   1 <1>   0.1200 
 13 O        4.3580    -0.8240     1.3020 O.3   1 <1>  -0.5600 
 14 C        4.3100     3.3790    -0.1560 C.2   1 <1>   0.5440 
 15 O        3.7730     3.3940    -1.2480 O.2   1 <1>  -0.5700 
 16 C        4.5510     4.6090     0.5780 C.ar  1 <1>   0.0860 
 17 C        4.8460     5.7950    -0.0910 C.ar  1 <1>  -0.1500 
 18 C        4.4990     4.6550     1.9730 C.ar  1 <1>  -0.1500 
 19 C        5.0940     6.9750     0.5870 C.ar  1 <1>   0.0820 
 20 C        4.7430     5.8280     2.6650 C.ar  1 <1>  -0.1500 
 21 O        5.3800     8.0640    -0.1680 O.3   1 <1>  -0.3620 
 22 C        5.0420     6.9900     1.9770 C.ar  1 <1>  -0.1500 
 23 C        5.6520     9.3170     0.4170 C.3   1 <1>   0.1200 
 24 C        5.9310    10.3110    -0.7060 C.3   1 <1>  -0.2400 
 25 H        2.5640    -0.5170    -1.8990 H     1 <1>   0.0800 
 26 H        2.3370     1.1950    -1.9390 H     1 <1>   0.0800 
 27 H       -0.2580     3.5240    -0.2510 H     1 <1>   0.0800 
 28 H       -0.6290     2.7140    -1.7620 H     1 <1>   0.0800 
 29 H        1.0330     2.8940    -1.2350 H     1 <1>   0.0800 
 30 H       -1.6710     2.1000     0.9820 H     1 <1>   0.0800 
 31 H       -1.4470     0.3690     0.9640 H     1 <1>   0.0800 
 32 H       -2.1290     1.1690    -0.4360 H     1 <1>   0.0800 
 33 H        2.4720     1.2150     0.5780 H     1 <1>   0.0800 
 34 H        4.6420     0.9420    -1.3340 H     1 <1>   0.0800 
 35 H        2.9380    -1.6950     0.1850 H     1 <1>   0.0800 
 36 H        2.3610    -0.8380     1.6110 H     1 <1>   0.0800 
 37 H        5.0340     2.1110     1.3200 H     1 <1>   0.3700 
 38 H        6.1050     0.0910     0.8480 H     1 <1>   0.0800 
 39 H        5.4520    -1.0130    -0.3600 H     1 <1>   0.0800 
 40 H        4.8840     5.7960    -1.1660 H     1 <1>   0.1500 
 41 H        4.2560     3.7660     2.5270 H     1 <1>   0.1500 
 42 H        4.6990     5.8400     3.7410 H     1 <1>   0.1500 
 43 H        5.2290     7.8880     2.5350 H     1 <1>   0.1500 
 44 H        4.7910     9.6200     0.9880 H     1 <1>   0.0800 
 45 H        6.5110     9.2150     1.0570 H     1 <1>   0.0800 
 46 H        5.0730    10.3910    -1.3500 H     1 <1>   0.0800 
 47 H        6.7810     9.9890    -1.2810 H     1 <1>   0.0800 
 48 H        6.1420    11.2800    -0.2920 H     1 <1>   0.0800 
@<TRIPOS>BOND
  1   1   2  2   
  2   1   3  2   
  3   1   4  am  
  4   1   5  1   
  5   4   6  1   
  6   4   7  1   
  7   5   8  1   
  8   5  25  1   
  9   5  26  1   
 10   6  27  1   
 11   6  28  1   
 12   6  29  1   
 13   7  30  1   
 14   7  31  1   
 15   7  32  1   
 16   8   9  1   
 17   8  10  1   
 18   8  33  1   
 19   9  11  1   
 20   9  12  1   
 21   9  34  1   
 22  10  13  1   
 23  10  35  1   
 24  10  36  1   
 25  11  14  am  
 26  11  37  1   
 27  12  13  1   
 28  12  38  1   
 29  12  39  1   
 30  14  15  2   
 31  14  16  1   
 32  16  17  ar  
 33  16  18  ar  
 34  17  19  ar  
 35  17  40  1   
 36  18  20  ar  
 37  18  41  1   
 38  19  21  1   
 39  19  22  ar  
 40  20  22  ar  
 41  20  42  1   
 42  21  23  1   
 43  22  43  1   
 44  23  24  1   
 45  23  44  1   
 46  23  45  1   
 47  24  46  1   
 48  24  47  1   
 49  24  48  1   
@<TRIPOS>SUBSTRUCTURE
  1 ****  14 GROUP 4 **** **** 0

# MOE 2024.06 (io_trps.svl 2023.06)
