@<TRIPOS>MOLECULE
NONAME
44 45 1 0 0 
SMALL
USER_CHARGES


@<TRIPOS>ATOM
  1 CL      -0.8830    -7.2390     3.4560 Cl    1 <1>  -0.1770 
  2 C       -1.9280    -6.3050     2.4180 C.ar  1 <1>   0.1770 
  3 C       -1.5760    -6.1190     1.0940 C.ar  1 <1>  -0.1500 
  4 C       -3.0990    -5.7820     2.9340 C.ar  1 <1>  -0.1500 
  5 C       -2.4160    -5.3960     0.2600 C.ar  1 <1>  -0.1440 
  6 C       -3.9360    -5.0600     2.1030 C.ar  1 <1>  -0.1500 
  7 C       -3.5920    -4.8660     0.7750 C.ar  1 <1>  -0.1500 
  8 C       -2.0900    -5.2020    -1.2170 C.3   1 <1>   0.0450 
  9 C       -3.0630    -5.9980    -2.0650 C.2   1 <1>   0.5690 
 10 O       -3.8980    -5.4180    -2.7150 O.2   1 <1>  -0.5700 
 11 N       -3.0110    -7.3530    -2.0170 N.am  1 <1>  -0.7300 
 12 C       -4.0670    -8.2600    -2.5200 C.3   1 <1>   0.2200 
 13 C       -4.8860    -8.8100    -1.3570 C.3   1 <1>  -0.0800 
 14 C       -3.4170    -9.5330    -3.0400 C.3   1 <1>   0.1200 
 15 C       -4.0690   -10.0280    -0.9050 C.3   1 <1>   0.1200 
 16 C       -5.1880    -7.7860    -0.2380 C.3   1 <1>  -0.0550 
 17 O       -3.1130   -10.2680    -1.8960 O.3   1 <1>  -0.5600 
 18 S       -6.3370    -8.3510     1.0180 S.o2  1 <1>   1.3330 
 19 O       -6.5480    -7.2930     1.9810 O.2   1 <1>  -0.6500 
 20 O       -7.4720    -8.9440     0.3470 O.2   1 <1>  -0.6500 
 21 N       -5.5010    -9.5960     1.8160 N.am  1 <1>  -0.8490 
 22 C       -4.4950    -9.1060     2.7660 C.3   1 <1>   0.1160 
 23 C       -6.4140   -10.5170     2.4980 C.3   1 <1>   0.1160 
 24 H       -0.6560    -6.5430     0.7320 H     1 <1>   0.1500 
 25 H       -3.3520    -5.9390     3.9670 H     1 <1>   0.1500 
 26 H       -4.8580    -4.6530     2.4860 H     1 <1>   0.1500 
 27 H       -4.2550    -4.3020     0.1370 H     1 <1>   0.1500 
 28 H       -1.0890    -5.5210    -1.4350 H     1 <1>   0.0800 
 29 H       -2.1710    -4.1610    -1.4710 H     1 <1>   0.0800 
 30 H       -2.3000    -7.8300    -1.4570 H     1 <1>   0.3700 
 31 H       -4.6710    -7.7710    -3.2670 H     1 <1>   0.0800 
 32 H       -5.8200    -9.1720    -1.7520 H     1 <1>   0.0800 
 33 H       -2.5200    -9.3450    -3.6040 H     1 <1>   0.0800 
 34 H       -4.1110   -10.1060    -3.6290 H     1 <1>   0.0800 
 35 H       -4.6870   -10.9040    -0.7960 H     1 <1>   0.0800 
 36 H       -3.5390    -9.8440     0.0140 H     1 <1>   0.0800 
 37 H       -5.6010    -6.9080    -0.6960 H     1 <1>   0.0800 
 38 H       -4.2750    -7.4960     0.2390 H     1 <1>   0.0800 
 39 H       -3.9560    -9.9340     3.1950 H     1 <1>   0.0800 
 40 H       -4.9620    -8.5440     3.5570 H     1 <1>   0.0800 
 41 H       -3.7880    -8.4710     2.2620 H     1 <1>   0.0800 
 42 H       -5.8600   -11.3050     2.9790 H     1 <1>   0.0800 
 43 H       -7.0850   -10.9670     1.7840 H     1 <1>   0.0800 
 44 H       -6.9970    -9.9900     3.2350 H     1 <1>   0.0800 
@<TRIPOS>BOND
  1   1   2  1   
  2   2   3  ar  
  3   2   4  ar  
  4   3   5  ar  
  5   3  24  1   
  6   4   6  ar  
  7   4  25  1   
  8   5   7  ar  
  9   5   8  1   
 10   6   7  ar  
 11   6  26  1   
 12   7  27  1   
 13   8   9  1   
 14   8  28  1   
 15   8  29  1   
 16   9  10  2   
 17   9  11  am  
 18  11  12  1   
 19  11  30  1   
 20  12  13  1   
 21  12  14  1   
 22  12  31  1   
 23  13  15  1   
 24  13  16  1   
 25  13  32  1   
 26  14  17  1   
 27  14  33  1   
 28  14  34  1   
 29  15  17  1   
 30  15  35  1   
 31  15  36  1   
 32  16  18  1   
 33  16  37  1   
 34  16  38  1   
 35  18  19  2   
 36  18  20  2   
 37  18  21  am  
 38  21  22  1   
 39  21  23  1   
 40  22  39  1   
 41  22  40  1   
 42  22  41  1   
 43  23  42  1   
 44  23  43  1   
 45  23  44  1   
@<TRIPOS>SUBSTRUCTURE
  1 ****  16 GROUP 4 **** **** 0

# MOE 2024.06 (io_trps.svl 2023.06)
