@<TRIPOS>MOLECULE
NONAME
39 41 1 0 0 
SMALL
USER_CHARGES


@<TRIPOS>ATOM
  1 O       -1.1870    -0.7730    -0.7220 O.co2 1 <1>  -0.9000 
  2 C       -0.5160    -1.3810     0.1290 C.2   1 <1>   1.0330 
  3 O       -0.7950    -1.2250     1.3300 O.co2 1 <1>  -0.9000 
  4 C        0.5390    -2.2580    -0.2570 C.2   1 <1>  -0.2330 
  5 C        0.4440    -3.6120    -0.6010 C.2   1 <1>   0.3720 
  6 C        1.8650    -1.9850    -0.3610 C.2   1 <1>   0.0870 
  7 N        1.6100    -4.0880    -0.8790 N.2   1 <1>  -0.4100 
  8 N       -0.6930    -4.4390    -0.6640 N.pl3 1 <1>  -0.8210 
  9 O        2.4490    -3.0980    -0.7340 O.3   1 <1>  -0.0190 
 10 C        2.6560    -0.7950    -0.1470 C.ar  1 <1>   0.0530 
 11 C       -2.0490    -3.8210    -0.5280 C.3   1 <1>   0.2090 
 12 C       -0.6020    -5.6840     0.1480 C.3   1 <1>   0.2090 
 13 C        2.2520     0.2230     0.7180 C.ar  1 <1>  -0.1500 
 14 C        3.8760    -0.6240    -0.8030 C.ar  1 <1>  -0.1500 
 15 C       -3.1660    -4.8540    -0.7920 C.3   1 <1>   0.2000 
 16 C       -1.7740    -6.6380    -0.1700 C.3   1 <1>   0.2000 
 17 C        3.0220     1.3540     0.9150 C.ar  1 <1>  -0.1500 
 18 C        4.6540     0.5040    -0.6100 C.ar  1 <1>  -0.1500 
 19 O       -3.0030    -5.9950     0.0060 O.3   1 <1>  -0.5600 
 20 C       -4.5500    -4.2890    -0.4810 C.3   1 <1>  -0.2400 
 21 C       -1.7810    -7.8650     0.7390 C.3   1 <1>  -0.2400 
 22 C        4.2270     1.4980     0.2510 C.ar  1 <1>  -0.1500 
 23 H       -2.1680    -3.4140     0.4620 H     1 <1>   0.0800 
 24 H       -2.1480    -3.0190    -1.2390 H     1 <1>   0.0800 
 25 H        0.3260    -6.1850    -0.0630 H     1 <1>   0.0800 
 26 H       -0.6160    -5.4280     1.1930 H     1 <1>   0.0800 
 27 H        1.3210     0.1300     1.2510 H     1 <1>   0.1500 
 28 H        4.2160    -1.3880    -1.4790 H     1 <1>   0.1500 
 29 H       -3.1260    -5.1590    -1.8230 H     1 <1>   0.0800 
 30 H       -1.7040    -6.9520    -1.1980 H     1 <1>   0.0800 
 31 H        2.6770     2.1200     1.5870 H     1 <1>   0.1500 
 32 H        5.5890     0.6080    -1.1310 H     1 <1>   0.1500 
 33 H       -4.6090    -4.0050     0.5540 H     1 <1>   0.0800 
 34 H       -5.3040    -5.0250    -0.6960 H     1 <1>   0.0800 
 35 H       -4.7330    -3.4190    -1.0860 H     1 <1>   0.0800 
 36 H       -1.8800    -7.5630     1.7670 H     1 <1>   0.0800 
 37 H       -0.8650    -8.4140     0.6250 H     1 <1>   0.0800 
 38 H       -2.6020    -8.5070     0.4760 H     1 <1>   0.0800 
 39 H        4.8260     2.3780     0.4040 H     1 <1>   0.1500 
@<TRIPOS>BOND
  1   1   2  ar  
  2   2   3  ar  
  3   2   4  1   
  4   4   5  1   
  5   4   6  2   
  6   5   7  2   
  7   5   8  1   
  8   6   9  1   
  9   6  10  1   
 10   7   9  1   
 11   8  11  1   
 12   8  12  1   
 13  10  13  ar  
 14  10  14  ar  
 15  11  15  1   
 16  11  23  1   
 17  11  24  1   
 18  12  16  1   
 19  12  25  1   
 20  12  26  1   
 21  13  17  ar  
 22  13  27  1   
 23  14  18  ar  
 24  14  28  1   
 25  15  19  1   
 26  15  20  1   
 27  15  29  1   
 28  16  19  1   
 29  16  21  1   
 30  16  30  1   
 31  17  22  ar  
 32  17  31  1   
 33  18  22  ar  
 34  18  32  1   
 35  20  33  1   
 36  20  34  1   
 37  20  35  1   
 38  21  36  1   
 39  21  37  1   
 40  21  38  1   
 41  22  39  1   
@<TRIPOS>SUBSTRUCTURE
  1 ****   4 GROUP 4 **** **** 0

# MOE 2024.06 (io_trps.svl 2023.06)
