@<TRIPOS>MOLECULE
NONAME
51 53 1 0 0 
SMALL
USER_CHARGES


@<TRIPOS>ATOM
  1 F       -1.6150     0.9940     0.3920 F     1 <1>  -0.1900 
  2 C       -1.0160     2.1470     0.2410 C.ar  1 <1>   0.1900 
  3 C       -1.4900     3.0230    -0.7220 C.ar  1 <1>  -0.1440 
  4 C        0.0550     2.4490     1.0590 C.ar  1 <1>  -0.1500 
  5 C       -0.8530     4.2460    -0.8590 C.ar  1 <1>  -0.1500 
  6 C       -2.6730     2.6490    -1.5900 C.3   1 <1>   0.4870 
  7 C        0.6790     3.6760     0.9140 C.ar  1 <1>  -0.1500 
  8 C        0.2220     4.5790    -0.0460 C.ar  1 <1>   0.0830 
  9 N       -3.9030     2.6470    -0.7560 N.4   1 <1>  -0.9590 
 10 O        0.7680     5.8010    -0.2510 O.3   1 <1>  -0.3630 
 11 C       -5.0640     2.1030    -1.5130 C.3   1 <1>   0.3430 
 12 C       -4.1980     4.0030    -0.2040 C.3   1 <1>   0.3430 
 13 C        1.9100     6.2270     0.4620 C.3   1 <1>   0.0400 
 14 C       -6.2740     2.0100    -0.5930 C.3   1 <1>  -0.1600 
 15 C       -5.4120     3.9370     0.7190 C.3   1 <1>  -0.1600 
 16 C       -6.6440     3.3910    -0.0210 C.3   1 <1>   0.2800 
 17 O       -6.8660     4.2170    -1.1410 O.3   1 <1>  -0.5600 
 18 C       -7.8920     3.3720     0.9130 C.3   1 <1>   0.2000 
 19 C       -7.6520     5.3610    -0.9450 C.3   1 <1>   0.1200 
 20 O       -7.9690     2.1980     1.6640 O.3   1 <1>  -0.6800 
 21 C       -9.2200     3.6530     0.1610 C.3   1 <1>   0.2800 
 22 C       -9.1060     4.9690    -0.6330 C.3   1 <1>  -0.1600 
 23 O      -10.2050     3.8130     1.1180 O.3   1 <1>  -0.6800 
 24 C       -9.7120     2.5140    -0.7440 C.3   1 <1>  -0.2400 
 25 H        0.3920     1.7380     1.7950 H     1 <1>   0.1500 
 26 H       -1.1700     4.9660    -1.5950 H     1 <1>   0.1500 
 27 H       -2.5090     1.6680    -2.0070 H     1 <1>   0.0800 
 28 H       -2.7740     3.3530    -2.4000 H     1 <1>   0.0800 
 29 H        1.5110     3.9120     1.5520 H     1 <1>   0.1500 
 30 H       -3.7130     2.0190     0.0370 H     1 <1>   0.4500 
 31 H       -5.3000     2.7520    -2.3420 H     1 <1>   0.0800 
 32 H       -4.8310     1.1230    -1.8990 H     1 <1>   0.0800 
 33 H       -3.3490     4.3730     0.3490 H     1 <1>   0.0800 
 34 H       -4.4060     4.6870    -1.0110 H     1 <1>   0.0800 
 35 H        2.1750     7.2090     0.1130 H     1 <1>   0.0800 
 36 H        2.7180     5.5430     0.2710 H     1 <1>   0.0800 
 37 H        1.6750     6.2640     1.5110 H     1 <1>   0.0800 
 38 H       -6.0580     1.3190     0.2030 H     1 <1>   0.0800 
 39 H       -7.0980     1.6010    -1.1430 H     1 <1>   0.0800 
 40 H       -5.6140     4.9190     1.1050 H     1 <1>   0.0800 
 41 H       -5.1890     3.3080     1.5630 H     1 <1>   0.0800 
 42 H       -7.7740     4.1660     1.6290 H     1 <1>   0.0800 
 43 H       -7.2320     5.9390    -0.1400 H     1 <1>   0.0800 
 44 H       -7.6110     5.9520    -1.8450 H     1 <1>   0.0800 
 45 H       -8.8380     2.2020     2.1230 H     1 <1>   0.4000 
 46 H       -9.6410     4.8900    -1.5630 H     1 <1>   0.0800 
 47 H       -9.5490     5.7810    -0.0830 H     1 <1>   0.0800 
 48 H      -11.0710     3.9300     0.6820 H     1 <1>   0.4000 
 49 H       -9.0820     2.4260    -1.6080 H     1 <1>   0.0800 
 50 H      -10.7090     2.7080    -1.0940 H     1 <1>   0.0800 
 51 H       -9.7040     1.5760    -0.2180 H     1 <1>   0.0800 
@<TRIPOS>BOND
  1   1   2  1   
  2   2   3  ar  
  3   2   4  ar  
  4   3   5  ar  
  5   3   6  1   
  6   4   7  ar  
  7   4  25  1   
  8   5   8  ar  
  9   5  26  1   
 10   6   9  1   
 11   6  27  1   
 12   6  28  1   
 13   7   8  ar  
 14   7  29  1   
 15   8  10  1   
 16   9  11  1   
 17   9  12  1   
 18   9  30  1   
 19  10  13  1   
 20  11  14  1   
 21  11  31  1   
 22  11  32  1   
 23  12  15  1   
 24  12  33  1   
 25  12  34  1   
 26  13  35  1   
 27  13  36  1   
 28  13  37  1   
 29  14  16  1   
 30  14  38  1   
 31  14  39  1   
 32  15  16  1   
 33  15  40  1   
 34  15  41  1   
 35  16  17  1   
 36  16  18  1   
 37  17  19  1   
 38  18  20  1   
 39  18  21  1   
 40  18  42  1   
 41  19  22  1   
 42  19  43  1   
 43  19  44  1   
 44  20  45  1   
 45  21  22  1   
 46  21  23  1   
 47  21  24  1   
 48  22  46  1   
 49  22  47  1   
 50  23  48  1   
 51  24  49  1   
 52  24  50  1   
 53  24  51  1   
@<TRIPOS>SUBSTRUCTURE
  1 ****  12 GROUP 4 **** **** 0

# MOE 2024.06 (io_trps.svl 2023.06)
