@<TRIPOS>MOLECULE
NONAME
54 55 1 0 0 
SMALL
USER_CHARGES


@<TRIPOS>ATOM
  1 O        1.3000    -0.7030     1.3260 O.2   1 <1>  -0.5700 
  2 C        1.5670    -0.7940     0.1500 C.2   1 <1>   0.5690 
  3 N        2.0180     0.2600    -0.6080 N.am  1 <1>  -0.5470 
  4 C        1.3300    -2.1790    -0.5090 C.3   1 <1>   0.4840 
  5 C        2.2360     1.6040    -0.2560 C.ar  1 <1>   0.1170 
  6 N        0.1040    -2.8640     0.0840 N.4   1 <1>  -0.9590 
  7 C        2.5800    -3.0770    -0.3590 C.3   1 <1>  -0.1600 
  8 C        3.1190     2.3540    -1.0250 C.ar  1 <1>  -0.1500 
  9 C        1.5980     2.2280     0.8130 C.ar  1 <1>  -0.1500 
 10 C       -0.1150    -4.2820    -0.3650 C.3   1 <1>   0.3430 
 11 C       -1.1210    -2.0160    -0.1130 C.3   1 <1>   0.2630 
 12 C        3.8810    -2.4350    -0.8710 C.3   1 <1>  -0.2400 
 13 C        3.3630     3.6860    -0.7410 C.ar  1 <1>  -0.1500 
 14 C        1.8400     3.5580     1.1010 C.ar  1 <1>  -0.1500 
 15 C       -1.2030    -5.0010     0.4330 C.3   1 <1>   0.0210 
 16 C        2.7200     4.2980     0.3300 C.ar  1 <1>   0.0830 
 17 C       -1.1780    -6.4580     0.0260 C.2   1 <1>  -0.1810 
 18 O        2.8980     5.5980     0.6820 O.3   1 <1>  -0.3620 
 19 C       -0.3540    -7.4500     0.5570 C.2   1 <1>   0.1080 
 20 C       -1.9100    -7.0870    -0.9200 C.2   1 <1>  -0.3320 
 21 C        3.7950     6.4270    -0.0240 C.3   1 <1>   0.0400 
 22 N       -0.5410    -8.5930    -0.0130 N.2   1 <1>  -0.7070 
 23 C        0.6580    -7.2840     1.6710 C.3   1 <1>  -0.0590 
 24 N       -1.5080    -8.3760    -0.9190 N.pl3 1 <1>   0.3000 
 25 C       -2.9930    -6.5760    -1.8580 C.3   1 <1>  -0.0600 
 26 H        2.3280     0.0500    -1.5570 H     1 <1>   0.3700 
 27 H        1.1590    -2.0150    -1.5590 H     1 <1>   0.0800 
 28 H        0.2970    -2.8580     1.1010 H     1 <1>   0.4500 
 29 H        2.4500    -3.9840    -0.9190 H     1 <1>   0.0800 
 30 H        2.7160    -3.3290     0.6790 H     1 <1>   0.0800 
 31 H        3.6290     1.9010    -1.8550 H     1 <1>   0.1500 
 32 H        0.9060     1.6880     1.4310 H     1 <1>   0.1500 
 33 H        0.7920    -4.8480    -0.2390 H     1 <1>   0.0800 
 34 H       -0.3720    -4.3060    -1.4120 H     1 <1>   0.0800 
 35 H       -1.3630    -1.9390    -1.1610 H     1 <1>   0.0800 
 36 H       -0.9610    -1.0240     0.2810 H     1 <1>   0.0800 
 37 H       -1.9630    -2.4450     0.4050 H     1 <1>   0.0800 
 38 H        3.7890    -2.1330    -1.8990 H     1 <1>   0.0800 
 39 H        4.6850    -3.1510    -0.8080 H     1 <1>   0.0800 
 40 H        4.1630    -1.5840    -0.2740 H     1 <1>   0.0800 
 41 H        4.0530     4.2300    -1.3590 H     1 <1>   0.1500 
 42 H        1.3460     4.0350     1.9290 H     1 <1>   0.1500 
 43 H       -2.1730    -4.5930     0.2190 H     1 <1>   0.0800 
 44 H       -1.0160    -4.9240     1.4880 H     1 <1>   0.0800 
 45 H        3.7800     7.4000     0.4340 H     1 <1>   0.0800 
 46 H        3.4720     6.5000    -1.0470 H     1 <1>   0.0800 
 47 H        4.7830     6.0080     0.0410 H     1 <1>   0.0800 
 48 H        1.4230    -6.5900     1.3790 H     1 <1>   0.0800 
 49 H        1.1180    -8.2320     1.8840 H     1 <1>   0.0800 
 50 H        0.1700    -6.9360     2.5610 H     1 <1>   0.0800 
 51 H       -1.8710    -9.1300    -1.5160 H     1 <1>   0.2700 
 52 H       -3.1670    -5.5260    -1.7150 H     1 <1>   0.0800 
 53 H       -3.9150    -7.1000    -1.6730 H     1 <1>   0.0800 
 54 H       -2.7050    -6.7390    -2.8810 H     1 <1>   0.0800 
@<TRIPOS>BOND
  1   1   2  2   
  2   2   3  am  
  3   2   4  1   
  4   3   5  1   
  5   3  26  1   
  6   4   6  1   
  7   4   7  1   
  8   4  27  1   
  9   5   8  ar  
 10   5   9  ar  
 11   6  10  1   
 12   6  11  1   
 13   6  28  1   
 14   7  12  1   
 15   7  29  1   
 16   7  30  1   
 17   8  13  ar  
 18   8  31  1   
 19   9  14  ar  
 20   9  32  1   
 21  10  15  1   
 22  10  33  1   
 23  10  34  1   
 24  11  35  1   
 25  11  36  1   
 26  11  37  1   
 27  12  38  1   
 28  12  39  1   
 29  12  40  1   
 30  13  16  ar  
 31  13  41  1   
 32  14  16  ar  
 33  14  42  1   
 34  15  17  1   
 35  15  43  1   
 36  15  44  1   
 37  16  18  1   
 38  17  19  1   
 39  17  20  2   
 40  18  21  1   
 41  19  22  2   
 42  19  23  1   
 43  20  24  1   
 44  20  25  1   
 45  21  45  1   
 46  21  46  1   
 47  21  47  1   
 48  22  24  1   
 49  23  48  1   
 50  23  49  1   
 51  23  50  1   
 52  24  51  1   
 53  25  52  1   
 54  25  53  1   
 55  25  54  1   
@<TRIPOS>SUBSTRUCTURE
  1 ****   4 GROUP 4 **** **** 0

# MOE 2024.06 (io_trps.svl 2023.06)
