@<TRIPOS>MOLECULE
NONAME
50 52 1 0 0 
SMALL
USER_CHARGES


@<TRIPOS>ATOM
  1 O       -1.1340    -0.5710     0.5240 O.2   1 <1>  -0.5700 
  2 C       -2.3240    -0.4230     0.3700 C.2   1 <1>   0.6900 
  3 N       -3.2040    -0.7900     1.3300 N.am  1 <1>  -0.4900 
  4 N       -2.8210     0.1220    -0.7760 N.am  1 <1>  -0.5390 
  5 C       -4.5470    -0.6260     1.1970 C.2   1 <1>   0.6160 
  6 C       -4.1750     0.3000    -1.0020 C.2   1 <1>  -0.0290 
  7 O       -5.2450    -0.9530     2.1360 O.2   1 <1>  -0.5700 
  8 C       -5.0530    -0.0650    -0.0270 C.2   1 <1>  -0.1240 
  9 C       -4.5050     0.8880    -2.3660 C.3   1 <1>  -0.1020 
 10 C       -6.5750     0.0780    -0.1520 C.3   1 <1>   0.0390 
 11 C       -7.1970    -1.1190    -0.8620 C.2   1 <1>   0.5690 
 12 O       -7.0460    -1.1700    -2.0610 O.2   1 <1>  -0.5700 
 13 N       -7.9170    -2.0860    -0.2030 N.am  1 <1>  -0.6600 
 14 C       -8.4400    -3.2820    -0.9400 C.3   1 <1>   0.1400 
 15 C       -8.3110    -2.0580     1.2350 C.3   1 <1>   0.1400 
 16 C       -9.9370    -3.1630    -1.2710 C.3   1 <1>   0.1400 
 17 C       -9.5990    -1.2520     1.4540 C.3   1 <1>  -0.1600 
 18 N      -10.7660    -2.8500    -0.0620 N.am  1 <1>  -0.6600 
 19 C      -10.6770    -1.4310     0.3770 C.3   1 <1>   0.1400 
 20 C      -11.5780    -3.7470     0.5950 C.2   1 <1>   0.5690 
 21 O      -12.2440    -3.3870     1.5440 O.2   1 <1>  -0.5700 
 22 C      -11.6310    -5.2360     0.1640 C.3   1 <1>   0.2610 
 23 O      -12.2450    -5.3850    -1.0880 O.3   1 <1>  -0.5600 
 24 C      -12.4580    -6.1590     1.0620 C.3   1 <1>  -0.1600 
 25 C      -13.6250    -5.4700    -0.9250 C.3   1 <1>   0.1200 
 26 C      -13.8490    -6.0970     0.4490 C.3   1 <1>  -0.1600 
 27 H       -2.8430    -1.1880     2.1880 H     1 <1>   0.3700 
 28 H       -2.1170     0.3650    -1.4740 H     1 <1>   0.3700 
 29 H       -4.0650     1.8640    -2.4610 H     1 <1>   0.0800 
 30 H       -5.5600     0.9770    -2.5330 H     1 <1>   0.0800 
 31 H       -4.1080     0.2520    -3.1370 H     1 <1>   0.0800 
 32 H       -6.8110     0.9550    -0.7220 H     1 <1>   0.0800 
 33 H       -7.0200     0.2330     0.8100 H     1 <1>   0.0800 
 34 H       -8.2770    -4.1660    -0.3490 H     1 <1>   0.0800 
 35 H       -7.8950    -3.4150    -1.8580 H     1 <1>   0.0800 
 36 H       -7.5210    -1.6580     1.8420 H     1 <1>   0.0800 
 37 H       -8.4760    -3.0670     1.5720 H     1 <1>   0.0800 
 38 H      -10.2640    -4.0760    -1.7320 H     1 <1>   0.0800 
 39 H      -10.0680    -2.3840    -2.0020 H     1 <1>   0.0800 
 40 H       -9.3590    -0.2080     1.5250 H     1 <1>   0.0800 
 41 H      -10.0170    -1.5380     2.4030 H     1 <1>   0.0800 
 42 H      -10.4420    -0.8120    -0.4720 H     1 <1>   0.0800 
 43 H      -11.6290    -1.1060     0.7600 H     1 <1>   0.0800 
 44 H      -10.6250    -5.6040     0.0870 H     1 <1>   0.0800 
 45 H      -12.4420    -5.8580     2.0950 H     1 <1>   0.0800 
 46 H      -12.0670    -7.1580     0.9850 H     1 <1>   0.0800 
 47 H      -14.0320    -6.0680    -1.7210 H     1 <1>   0.0800 
 48 H      -14.0290    -4.4720    -0.9660 H     1 <1>   0.0800 
 49 H      -14.5000    -5.4670     1.0310 H     1 <1>   0.0800 
 50 H      -14.2890    -7.0750     0.3640 H     1 <1>   0.0800 
@<TRIPOS>BOND
  1   1   2  2   
  2   2   3  am  
  3   2   4  am  
  4   3   5  am  
  5   3  27  1   
  6   4   6  1   
  7   4  28  1   
  8   5   7  2   
  9   5   8  1   
 10   6   8  2   
 11   6   9  1   
 12   8  10  1   
 13   9  29  1   
 14   9  30  1   
 15   9  31  1   
 16  10  11  1   
 17  10  32  1   
 18  10  33  1   
 19  11  12  2   
 20  11  13  am  
 21  13  14  1   
 22  13  15  1   
 23  14  16  1   
 24  14  34  1   
 25  14  35  1   
 26  15  17  1   
 27  15  36  1   
 28  15  37  1   
 29  16  18  1   
 30  16  38  1   
 31  16  39  1   
 32  17  19  1   
 33  17  40  1   
 34  17  41  1   
 35  18  19  1   
 36  18  20  am  
 37  19  42  1   
 38  19  43  1   
 39  20  21  2   
 40  20  22  1   
 41  22  23  1   
 42  22  24  1   
 43  22  44  1   
 44  23  25  1   
 45  24  26  1   
 46  24  45  1   
 47  24  46  1   
 48  25  26  1   
 49  25  47  1   
 50  25  48  1   
 51  26  49  1   
 52  26  50  1   
@<TRIPOS>SUBSTRUCTURE
  1 ****  13 GROUP 4 **** **** 0

# MOE 2024.06 (io_trps.svl 2023.06)
