@<TRIPOS>MOLECULE
NONAME
57 58 1 0 0 
SMALL
USER_CHARGES


@<TRIPOS>ATOM
  1 O       -2.4920     0.9750     0.1590 O.co2 1 <1>  -0.9000 
  2 C       -1.5840     1.3310    -0.6100 C.2   1 <1>   0.9060 
  3 O       -1.5040     0.8550    -1.7480 O.co2 1 <1>  -0.9000 
  4 C       -0.5350     2.3730    -0.1670 C.3   1 <1>  -0.1060 
  5 C       -0.9790     3.1580     1.1000 C.3   1 <1>   0.2000 
  6 C       -0.4010     3.3590    -1.3630 C.3   1 <1>   0.1400 
  7 C        0.8000     1.6160     0.0970 C.3   1 <1>  -0.1600 
  8 O       -1.4840     2.3210     2.0710 O.3   1 <1>  -0.6800 
  9 C       -2.0390     4.2010     0.7580 C.3   1 <1>  -0.1600 
 10 N       -0.2810     4.7990    -0.9450 N.am  1 <1>  -0.6600 
 11 C        2.0330     2.4850     0.4060 C.3   1 <1>  -0.1600 
 12 C       -1.4160     5.3030    -0.1060 C.3   1 <1>   0.1400 
 13 C        0.7470     5.5890    -1.3930 C.2   1 <1>   0.5690 
 14 C        3.2770     1.6120     0.5940 C.3   1 <1>  -0.2400 
 15 O        1.6520     5.1550    -2.0690 O.2   1 <1>  -0.5700 
 16 C        0.7840     7.0690    -1.0320 C.3   1 <1>  -0.0990 
 17 C        1.7210     7.9060    -1.9240 C.3   1 <1>  -0.0990 
 18 C        1.7460     9.3540    -1.4840 C.2   1 <1>   0.5690 
 19 O        0.7350    10.0010    -1.6010 O.2   1 <1>  -0.5700 
 20 N        2.9100     9.8330    -0.9510 N.am  1 <1>  -0.5470 
 21 C        3.2440    11.0960    -0.4300 C.ar  1 <1>   0.1170 
 22 C        4.2600    11.2100     0.5280 C.ar  1 <1>  -0.1430 
 23 C        2.5950    12.2470    -0.8680 C.ar  1 <1>  -0.1500 
 24 C        4.5930    12.4700     1.0130 C.ar  1 <1>  -0.1500 
 25 C        4.9780     9.9450     1.0210 C.3   1 <1>  -0.0170 
 26 C        2.9330    13.4910    -0.3750 C.ar  1 <1>  -0.1500 
 27 C        3.9350    13.6030     0.5680 C.ar  1 <1>  -0.1500 
 28 C        5.9620    10.1360     2.1810 C.3   1 <1>  -0.2400 
 29 H       -0.1450     3.6700     1.5410 H     1 <1>   0.0800 
 30 H       -1.2790     3.2900    -1.9840 H     1 <1>   0.0800 
 31 H        0.4270     3.0650    -1.9840 H     1 <1>   0.0800 
 32 H        0.6400     0.9320     0.9140 H     1 <1>   0.0800 
 33 H        1.0170     1.0150    -0.7700 H     1 <1>   0.0800 
 34 H       -2.0410     1.6500     1.5670 H     1 <1>   0.4000 
 35 H       -2.8480     3.7350     0.2230 H     1 <1>   0.0800 
 36 H       -2.4360     4.6360     1.6570 H     1 <1>   0.0800 
 37 H        2.2110     3.1700    -0.4030 H     1 <1>   0.0800 
 38 H        1.8770     3.0550     1.3030 H     1 <1>   0.0800 
 39 H       -1.0530     6.0720     0.5520 H     1 <1>   0.0800 
 40 H       -2.1710     5.7300    -0.7440 H     1 <1>   0.0800 
 41 H        3.4750     1.0480    -0.3010 H     1 <1>   0.0800 
 42 H        3.1330     0.9270     1.4110 H     1 <1>   0.0800 
 43 H        4.1310     2.2290     0.8070 H     1 <1>   0.0800 
 44 H       -0.2060     7.4760    -1.1200 H     1 <1>   0.0800 
 45 H        1.0960     7.1540    -0.0080 H     1 <1>   0.0800 
 46 H        1.3750     7.8640    -2.9420 H     1 <1>   0.0800 
 47 H        2.7150     7.4980    -1.8970 H     1 <1>   0.0800 
 48 H        3.6550     9.1480    -0.8710 H     1 <1>   0.3700 
 49 H        1.8190    12.1770    -1.6080 H     1 <1>   0.1500 
 50 H        5.3660    12.6020     1.7460 H     1 <1>   0.1500 
 51 H        4.2340     9.2350     1.3410 H     1 <1>   0.0800 
 52 H        5.5140     9.5120     0.1940 H     1 <1>   0.0800 
 53 H        2.4180    14.3690    -0.7250 H     1 <1>   0.1500 
 54 H        4.2040    14.5700     0.9560 H     1 <1>   0.1500 
 55 H        5.4620    10.5660     3.0300 H     1 <1>   0.0800 
 56 H        6.7750    10.7750     1.8850 H     1 <1>   0.0800 
 57 H        6.3710     9.1850     2.4740 H     1 <1>   0.0800 
@<TRIPOS>BOND
  1   1   2  ar  
  2   2   3  ar  
  3   2   4  1   
  4   4   5  1   
  5   4   6  1   
  6   4   7  1   
  7   5   8  1   
  8   5   9  1   
  9   5  29  1   
 10   6  10  1   
 11   6  30  1   
 12   6  31  1   
 13   7  11  1   
 14   7  32  1   
 15   7  33  1   
 16   8  34  1   
 17   9  12  1   
 18   9  35  1   
 19   9  36  1   
 20  10  12  1   
 21  10  13  am  
 22  11  14  1   
 23  11  37  1   
 24  11  38  1   
 25  12  39  1   
 26  12  40  1   
 27  13  15  2   
 28  13  16  1   
 29  14  41  1   
 30  14  42  1   
 31  14  43  1   
 32  16  17  1   
 33  16  44  1   
 34  16  45  1   
 35  17  18  1   
 36  17  46  1   
 37  17  47  1   
 38  18  19  2   
 39  18  20  am  
 40  20  21  1   
 41  20  48  1   
 42  21  22  ar  
 43  21  23  ar  
 44  22  24  ar  
 45  22  25  1   
 46  23  26  ar  
 47  23  49  1   
 48  24  27  ar  
 49  24  50  1   
 50  25  28  1   
 51  25  51  1   
 52  25  52  1   
 53  26  27  ar  
 54  26  53  1   
 55  27  54  1   
 56  28  55  1   
 57  28  56  1   
 58  28  57  1   
@<TRIPOS>SUBSTRUCTURE
  1 ****  16 GROUP 4 **** **** 0

# MOE 2024.06 (io_trps.svl 2023.06)
