@<TRIPOS>MOLECULE
NONAME
51 54 1 0 0 
SMALL
USER_CHARGES


@<TRIPOS>ATOM
  1 O        0.2230     1.8140    -2.6360 O.2   1 <1>  -0.5700 
  2 C        1.0050     1.6500    -1.7300 C.2   1 <1>   0.5690 
  3 N        0.8110     2.1730    -0.4660 N.am  1 <1>  -0.6600 
  4 C        2.2490     0.8390    -2.0780 C.3   1 <1>   0.0440 
  5 C       -0.4830     2.7420     0.0670 C.3   1 <1>   0.2200 
  6 C        1.8540     2.1360     0.6060 C.3   1 <1>   0.1400 
  7 C        2.4170    -0.4130    -1.2220 C.ar  1 <1>  -0.1440 
  8 C       -0.3530     4.1900     0.6390 C.3   1 <1>   0.1380 
  9 C       -1.7560     2.5800    -0.7760 C.3   1 <1>  -0.1600 
 10 C        2.0390     3.5210     1.2440 C.3   1 <1>  -0.1600 
 11 C        3.6410    -0.7180    -0.6420 C.ar  1 <1>   0.1600 
 12 C        1.3520    -1.2650    -1.0050 C.ar  1 <1>  -0.1500 
 13 C        0.0470     5.3460    -0.3250 C.2   1 <1>  -0.2760 
 14 C       -1.7330     4.5750     1.2560 C.3   1 <1>   0.1200 
 15 C        0.7140     4.1180     1.7540 C.3   1 <1>  -0.1600 
 16 C       -2.9940     3.0410     0.0120 C.3   1 <1>   0.1200 
 17 N        3.8770    -1.7660     0.1290 N.ar  1 <1>  -0.6200 
 18 C        1.5800    -2.3660    -0.2090 C.ar  1 <1>  -0.1500 
 19 C       -0.0900     6.6400     0.0030 C.2   1 <1>  -0.2880 
 20 C        0.6180     5.0230    -1.7080 C.3   1 <1>  -0.0220 
 21 O       -2.6330     3.5010     1.2830 O.3   1 <1>  -0.5600 
 22 C        2.8410    -2.5660     0.3260 C.ar  1 <1>   0.1600 
 23 C        0.2330     7.8030    -0.9250 C.3   1 <1>   0.2580 
 24 C        1.1950     6.2650    -2.4030 C.3   1 <1>   0.1200 
 25 O        0.3410     7.3530    -2.2410 O.3   1 <1>  -0.5600 
 26 H        2.1820     0.5340    -3.1070 H     1 <1>   0.0800 
 27 H        3.1070     1.4790    -1.9960 H     1 <1>   0.0800 
 28 H       -0.6870     2.1240     0.9260 H     1 <1>   0.0800 
 29 H        1.5510     1.4280     1.3590 H     1 <1>   0.0800 
 30 H        2.8040     1.8170     0.2220 H     1 <1>   0.0800 
 31 H       -1.8840     1.5490    -1.0500 H     1 <1>   0.0800 
 32 H       -1.6980     3.1580    -1.6780 H     1 <1>   0.0800 
 33 H        2.7270     3.4360     2.0670 H     1 <1>   0.0800 
 34 H        2.4830     4.1850     0.5240 H     1 <1>   0.0800 
 35 H        4.4770    -0.0630    -0.8180 H     1 <1>   0.1500 
 36 H        0.3810    -1.0800    -1.4340 H     1 <1>   0.1500 
 37 H       -2.2040     5.3580     0.6860 H     1 <1>   0.0800 
 38 H       -1.6160     4.9260     2.2660 H     1 <1>   0.0800 
 39 H        0.8950     5.0990     2.1570 H     1 <1>   0.0800 
 40 H        0.3460     3.5010     2.5560 H     1 <1>   0.0800 
 41 H       -3.6780     2.2220     0.1480 H     1 <1>   0.0800 
 42 H       -3.5050     3.8360    -0.5060 H     1 <1>   0.0800 
 43 H        0.7900    -3.0640    -0.0030 H     1 <1>   0.1500 
 44 H       -0.4490     6.9810     0.9570 H     1 <1>   0.1500 
 45 H       -0.1400     4.5990    -2.3380 H     1 <1>   0.0800 
 46 H        1.4240     4.3240    -1.6330 H     1 <1>   0.0800 
 47 H        3.0070    -3.4300     0.9470 H     1 <1>   0.1500 
 48 H        1.1580     8.2780    -0.6440 H     1 <1>   0.0800 
 49 H       -0.5590     8.5310    -0.9030 H     1 <1>   0.0800 
 50 H        1.3080     6.0850    -3.4580 H     1 <1>   0.0800 
 51 H        2.1540     6.5230    -1.9870 H     1 <1>   0.0800 
@<TRIPOS>BOND
  1   1   2  2   
  2   2   3  am  
  3   2   4  1   
  4   3   5  1   
  5   3   6  1   
  6   4   7  1   
  7   4  26  1   
  8   4  27  1   
  9   5   8  1   
 10   5   9  1   
 11   5  28  1   
 12   6  10  1   
 13   6  29  1   
 14   6  30  1   
 15   7  11  ar  
 16   7  12  ar  
 17   8  13  1   
 18   8  14  1   
 19   8  15  1   
 20   9  16  1   
 21   9  31  1   
 22   9  32  1   
 23  10  15  1   
 24  10  33  1   
 25  10  34  1   
 26  11  17  ar  
 27  11  35  1   
 28  12  18  ar  
 29  12  36  1   
 30  13  19  2   
 31  13  20  1   
 32  14  21  1   
 33  14  37  1   
 34  14  38  1   
 35  15  39  1   
 36  15  40  1   
 37  16  21  1   
 38  16  41  1   
 39  16  42  1   
 40  17  22  ar  
 41  18  22  ar  
 42  18  43  1   
 43  19  23  1   
 44  19  44  1   
 45  20  24  1   
 46  20  45  1   
 47  20  46  1   
 48  22  47  1   
 49  23  25  1   
 50  23  48  1   
 51  23  49  1   
 52  24  25  1   
 53  24  50  1   
 54  24  51  1   
@<TRIPOS>SUBSTRUCTURE
  1 ****   3 GROUP 4 **** **** 0

# MOE 2024.06 (io_trps.svl 2023.06)
