@<TRIPOS>MOLECULE
NONAME
49 52 1 0 0 
SMALL
USER_CHARGES


@<TRIPOS>ATOM
  1 O       -0.2120    -2.5980     2.6200 O.2   1 <1>  -0.5700 
  2 C       -0.5740    -3.2230     1.6490 C.2   1 <1>   0.5690 
  3 N       -1.0550    -2.5960     0.5230 N.am  1 <1>  -0.6600 
  4 C       -0.4830    -4.7530     1.7210 C.3   1 <1>   0.2010 
  5 C       -1.5000    -3.3640    -0.6750 C.3   1 <1>   0.1400 
  6 C       -1.1120    -1.1160     0.4160 C.3   1 <1>   0.1400 
  7 N       -0.9290    -5.5000     0.4890 N.am  1 <1>  -0.6600 
  8 C       -1.9580    -4.7860    -0.3230 C.3   1 <1>   0.1400 
  9 C        0.0470    -0.6180    -0.4440 C.3   1 <1>  -0.2400 
 10 C       -0.4850    -6.7820     0.2740 C.2   1 <1>   0.5690 
 11 O        0.3120    -7.2960     1.0230 O.2   1 <1>  -0.5700 
 12 C       -0.9610    -7.6180    -0.9110 C.3   1 <1>   0.0440 
 13 C       -2.4710    -7.8450    -0.9620 C.ar  1 <1>  -0.1440 
 14 C       -3.2080    -8.0060     0.1960 C.ar  1 <1>  -0.1500 
 15 C       -3.1170    -7.8840    -2.2020 C.ar  1 <1>  -0.1500 
 16 C       -4.5880    -8.1810     0.1230 C.ar  1 <1>   0.0000 
 17 C       -4.4820    -8.0620    -2.2860 C.ar  1 <1>  -0.1500 
 18 C       -5.2210    -8.2050    -1.1120 C.ar  1 <1>  -0.1520 
 19 C       -5.5930    -8.3580     1.1140 C.ar  1 <1>   0.0000 
 20 N       -6.5760    -8.3840    -0.9100 N.pl3 1 <1>   0.0480 
 21 C       -6.8070    -8.4820     0.4490 C.ar  1 <1>  -0.1520 
 22 C       -5.5520    -8.4220     2.5070 C.ar  1 <1>  -0.1500 
 23 C       -7.5980    -8.4970    -1.9660 C.3   1 <1>   0.0160 
 24 C       -7.9900    -8.6720     1.1640 C.ar  1 <1>  -0.1500 
 25 C       -6.7220    -8.6080     3.2120 C.ar  1 <1>  -0.1500 
 26 C       -7.9400    -8.7330     2.5400 C.ar  1 <1>  -0.1500 
 27 H       -1.0800    -5.0790     2.5520 H     1 <1>   0.0800 
 28 H        0.5400    -5.0050     1.9380 H     1 <1>   0.0800 
 29 H       -0.6860    -3.4180    -1.3760 H     1 <1>   0.0800 
 30 H       -2.3160    -2.8470    -1.1490 H     1 <1>   0.0800 
 31 H       -1.0440    -0.6730     1.3970 H     1 <1>   0.0800 
 32 H       -2.0530    -0.8180    -0.0140 H     1 <1>   0.0800 
 33 H       -2.1610    -5.3100    -1.2390 H     1 <1>   0.0800 
 34 H       -2.8770    -4.7390     0.2370 H     1 <1>   0.0800 
 35 H        0.9820    -0.9250    -0.0100 H     1 <1>   0.0800 
 36 H        0.0290     0.4560    -0.4850 H     1 <1>   0.0800 
 37 H       -0.0280    -0.9990    -1.4450 H     1 <1>   0.0800 
 38 H       -0.4770    -8.5770    -0.8690 H     1 <1>   0.0800 
 39 H       -0.6290    -7.1320    -1.8090 H     1 <1>   0.0800 
 40 H       -2.7420    -7.9970     1.1660 H     1 <1>   0.1500 
 41 H       -2.5440    -7.7750    -3.1060 H     1 <1>   0.1500 
 42 H       -4.9710    -8.0940    -3.2420 H     1 <1>   0.1500 
 43 H       -4.6090    -8.3260     3.0110 H     1 <1>   0.1500 
 44 H       -7.3000    -7.9170    -2.8190 H     1 <1>   0.0800 
 45 H       -8.5370    -8.1270    -1.5990 H     1 <1>   0.0800 
 46 H       -7.7000    -9.5290    -2.2460 H     1 <1>   0.0800 
 47 H       -8.9280    -8.7710     0.6480 H     1 <1>   0.1500 
 48 H       -6.7050    -8.6600     4.2860 H     1 <1>   0.1500 
 49 H       -8.8420    -8.8790     3.1080 H     1 <1>   0.1500 
@<TRIPOS>BOND
  1   1   2  2   
  2   2   3  am  
  3   2   4  1   
  4   3   5  1   
  5   3   6  1   
  6   4   7  1   
  7   4  27  1   
  8   4  28  1   
  9   5   8  1   
 10   5  29  1   
 11   5  30  1   
 12   6   9  1   
 13   6  31  1   
 14   6  32  1   
 15   7   8  1   
 16   7  10  am  
 17   8  33  1   
 18   8  34  1   
 19   9  35  1   
 20   9  36  1   
 21   9  37  1   
 22  10  11  2   
 23  10  12  1   
 24  12  13  1   
 25  12  38  1   
 26  12  39  1   
 27  13  14  ar  
 28  13  15  ar  
 29  14  16  ar  
 30  14  40  1   
 31  15  17  ar  
 32  15  41  1   
 33  16  18  ar  
 34  16  19  1   
 35  17  18  ar  
 36  17  42  1   
 37  18  20  1   
 38  19  21  ar  
 39  19  22  ar  
 40  20  21  1   
 41  20  23  1   
 42  21  24  ar  
 43  22  25  ar  
 44  22  43  1   
 45  23  44  1   
 46  23  45  1   
 47  23  46  1   
 48  24  26  ar  
 49  24  47  1   
 50  25  26  ar  
 51  25  48  1   
 52  26  49  1   
@<TRIPOS>SUBSTRUCTURE
  1 ****  14 GROUP 4 **** **** 0

# MOE 2024.06 (io_trps.svl 2023.06)
