@<TRIPOS>MOLECULE
NONAME
57 60 1 0 0 
SMALL
USER_CHARGES


@<TRIPOS>ATOM
  1 O       -0.3250     0.4920     0.8740 O.2   1 <1>  -0.5700 
  2 C        0.6390     1.0710     0.4110 C.2   1 <1>   0.6900 
  3 N        1.0850     2.2580     0.9110 N.am  1 <1>  -0.6600 
  4 N        1.3230     0.5330    -0.6190 N.am  1 <1>  -0.7300 
  5 C        0.2120     3.4070     1.3310 C.3   1 <1>   0.2200 
  6 C        2.5010     2.3900     1.3490 C.3   1 <1>   0.1400 
  7 C        1.2570    -0.8750    -1.0300 C.3   1 <1>   0.2840 
  8 C        0.7530     4.7690     0.7830 C.3   1 <1>   0.1380 
  9 C       -1.3000     3.2250     1.0850 C.3   1 <1>  -0.1600 
 10 C        3.0830     3.7370     0.9060 C.3   1 <1>  -0.1600 
 11 C        2.6770    -1.4050    -1.0830 C.ar  1 <1>  -0.1440 
 12 C        0.8110     4.8890    -0.7720 C.2   1 <1>  -0.2760 
 13 C       -0.1480     5.9080     1.3510 C.3   1 <1>   0.1200 
 14 C        2.1890     4.9120     1.3460 C.3   1 <1>  -0.1600 
 15 C       -2.0490     4.5570     1.1740 C.3   1 <1>   0.1200 
 16 C        3.3040    -1.8180     0.0820 C.ar  1 <1>  -0.1500 
 17 C        3.3670    -1.4710    -2.2840 C.ar  1 <1>  -0.1500 
 18 C        0.3960     3.9770    -1.6620 C.2   1 <1>  -0.2880 
 19 C        1.4400     6.1720    -1.3330 C.3   1 <1>  -0.0220 
 20 O       -1.3160     5.4380     1.9650 O.3   1 <1>  -0.5600 
 21 C        4.6020    -2.2960     0.0470 C.ar  1 <1>  -0.1500 
 22 C        4.6660    -1.9480    -2.3180 C.ar  1 <1>  -0.1500 
 23 C        0.5030     4.1260    -3.1740 C.3   1 <1>   0.2580 
 24 C        1.0810     6.3690    -2.8120 C.3   1 <1>   0.1200 
 25 C        5.2900    -2.3650    -1.1530 C.ar  1 <1>  -0.1430 
 26 O        1.3390     5.1930    -3.5110 O.3   1 <1>  -0.5600 
 27 C        6.7140    -2.8870    -1.1920 C.3   1 <1>  -0.0970 
 28 H        2.1390     1.0450    -0.9440 H     1 <1>   0.3700 
 29 H        0.3030     3.4670     2.4020 H     1 <1>   0.0800 
 30 H        2.5320     2.3210     2.4230 H     1 <1>   0.0800 
 31 H        3.0970     1.5850     0.9510 H     1 <1>   0.0800 
 32 H        0.6730    -1.4450    -0.3280 H     1 <1>   0.0800 
 33 H        0.7900    -0.9430    -1.9970 H     1 <1>   0.0800 
 34 H       -1.6890     2.5630     1.8370 H     1 <1>   0.0800 
 35 H       -1.5090     2.7830     0.1310 H     1 <1>   0.0800 
 36 H        4.0640     3.8520     1.3320 H     1 <1>   0.0800 
 37 H        3.1930     3.7350    -0.1640 H     1 <1>   0.0800 
 38 H       -0.4580     6.5820     0.5740 H     1 <1>   0.0800 
 39 H        0.3820     6.4780     2.0930 H     1 <1>   0.0800 
 40 H        2.6340     5.8410     1.0410 H     1 <1>   0.0800 
 41 H        2.1480     4.9240     2.4220 H     1 <1>   0.0800 
 42 H       -3.0160     4.4210     1.6260 H     1 <1>   0.0800 
 43 H       -2.1750     4.9970     0.1980 H     1 <1>   0.0800 
 44 H        2.7800    -1.7640     1.0210 H     1 <1>   0.1500 
 45 H        2.8980    -1.1500    -3.1970 H     1 <1>   0.1500 
 46 H       -0.0460     3.0350    -1.4060 H     1 <1>   0.1500 
 47 H        2.5110     6.1120    -1.2530 H     1 <1>   0.0800 
 48 H        1.1210     7.0450    -0.7970 H     1 <1>   0.0800 
 49 H        5.0750    -2.6130     0.9600 H     1 <1>   0.1500 
 50 H        5.1890    -1.9930    -3.2560 H     1 <1>   0.1500 
 51 H       -0.4660     4.2980    -3.6090 H     1 <1>   0.0800 
 52 H        0.9300     3.2380    -3.6060 H     1 <1>   0.0800 
 53 H        1.6800     7.1510    -3.2450 H     1 <1>   0.0800 
 54 H        0.0390     6.6160    -2.9260 H     1 <1>   0.0800 
 55 H        6.8760    -3.5970    -0.4010 H     1 <1>   0.0800 
 56 H        7.4040    -2.0710    -1.0740 H     1 <1>   0.0800 
 57 H        6.9090    -3.3760    -2.1300 H     1 <1>   0.0800 
@<TRIPOS>BOND
  1   1   2  2   
  2   2   3  am  
  3   2   4  am  
  4   3   5  1   
  5   3   6  1   
  6   4   7  1   
  7   4  28  1   
  8   5   8  1   
  9   5   9  1   
 10   5  29  1   
 11   6  10  1   
 12   6  30  1   
 13   6  31  1   
 14   7  11  1   
 15   7  32  1   
 16   7  33  1   
 17   8  12  1   
 18   8  13  1   
 19   8  14  1   
 20   9  15  1   
 21   9  34  1   
 22   9  35  1   
 23  10  14  1   
 24  10  36  1   
 25  10  37  1   
 26  11  16  ar  
 27  11  17  ar  
 28  12  18  2   
 29  12  19  1   
 30  13  20  1   
 31  13  38  1   
 32  13  39  1   
 33  14  40  1   
 34  14  41  1   
 35  15  20  1   
 36  15  42  1   
 37  15  43  1   
 38  16  21  ar  
 39  16  44  1   
 40  17  22  ar  
 41  17  45  1   
 42  18  23  1   
 43  18  46  1   
 44  19  24  1   
 45  19  47  1   
 46  19  48  1   
 47  21  25  ar  
 48  21  49  1   
 49  22  25  ar  
 50  22  50  1   
 51  23  26  1   
 52  23  51  1   
 53  23  52  1   
 54  24  26  1   
 55  24  53  1   
 56  24  54  1   
 57  25  27  1   
 58  27  55  1   
 59  27  56  1   
 60  27  57  1   
@<TRIPOS>SUBSTRUCTURE
  1 ****   3 GROUP 4 **** **** 0

# MOE 2024.06 (io_trps.svl 2023.06)
