@<TRIPOS>MOLECULE
NONAME
33 35 1 0 0 
SMALL
USER_CHARGES


@<TRIPOS>ATOM
  1 S        0.0650    -0.6140     0.1540 S.3   1 <1>  -0.4600 
  2 C       -1.3550     0.4880     0.4500 C.3   1 <1>   0.2510 
  3 C       -0.8360    -2.1710    -0.1010 C.3   1 <1>   0.2510 
  4 C       -2.5410    -0.4370     0.3100 C.2   1 <1>   0.1080 
  5 C       -2.2850    -1.7640     0.0330 C.2   1 <1>  -0.1810 
  6 N       -3.8030    -0.1730     0.4100 N.2   1 <1>  -0.7070 
  7 C       -3.4990    -2.3600    -0.0360 C.2   1 <1>  -0.0880 
  8 N       -4.4120    -1.3670     0.2000 N.pl3 1 <1>   0.3140 
  9 N       -3.7390    -3.7290    -0.3180 N.am  1 <1>  -0.4940 
 10 C       -5.8790    -1.4280     0.1630 C.3   1 <1>   0.0160 
 11 C       -4.7130    -4.5730     0.1370 C.2   1 <1>   0.5690 
 12 O       -5.6000    -4.2330     0.8800 O.2   1 <1>  -0.5700 
 13 C       -4.6590    -6.0160    -0.3220 C.3   1 <1>  -0.0990 
 14 C       -5.6470    -6.9070     0.4470 C.3   1 <1>   0.0960 
 15 N       -5.5370    -8.3030    -0.0110 N.pl3 1 <1>   0.0480 
 16 C       -6.1580    -8.8980    -1.0310 C.2   1 <1>   0.0370 
 17 C       -4.7700    -9.2810     0.4720 C.2   1 <1>   0.0360 
 18 N       -5.7960   -10.1260    -1.1620 N.2   1 <1>  -0.3380 
 19 N       -4.9060   -10.3720    -0.1980 N.2   1 <1>  -0.3380 
 20 H       -1.3530     1.2590    -0.2980 H     1 <1>   0.0800 
 21 H       -1.2740     0.8930     1.4420 H     1 <1>   0.0800 
 22 H       -0.5320    -2.8610     0.6660 H     1 <1>   0.0800 
 23 H       -0.5990    -2.5360    -1.0840 H     1 <1>   0.0800 
 24 H       -3.0200    -4.1650    -0.8940 H     1 <1>   0.3700 
 25 H       -6.2670    -0.4500    -0.0560 H     1 <1>   0.0800 
 26 H       -6.2390    -1.7500     1.1210 H     1 <1>   0.0800 
 27 H       -6.1910    -2.1170    -0.5980 H     1 <1>   0.0800 
 28 H       -3.6600    -6.3860    -0.1750 H     1 <1>   0.0800 
 29 H       -4.8920    -6.0450    -1.3710 H     1 <1>   0.0800 
 30 H       -6.6560    -6.5670     0.2900 H     1 <1>   0.0800 
 31 H       -5.4390    -6.8680     1.5020 H     1 <1>   0.0800 
 32 H       -6.8710    -8.4000    -1.6620 H     1 <1>   0.1500 
 33 H       -4.1190    -9.1610     1.3190 H     1 <1>   0.1500 
@<TRIPOS>BOND
  1   1   2  1   
  2   1   3  1   
  3   2   4  1   
  4   2  20  1   
  5   2  21  1   
  6   3   5  1   
  7   3  22  1   
  8   3  23  1   
  9   4   5  1   
 10   4   6  2   
 11   5   7  2   
 12   6   8  1   
 13   7   8  1   
 14   7   9  1   
 15   8  10  1   
 16   9  11  am  
 17   9  24  1   
 18  10  25  1   
 19  10  26  1   
 20  10  27  1   
 21  11  12  2   
 22  11  13  1   
 23  13  14  1   
 24  13  28  1   
 25  13  29  1   
 26  14  15  1   
 27  14  30  1   
 28  14  31  1   
 29  15  16  1   
 30  15  17  1   
 31  16  18  2   
 32  16  32  1   
 33  17  19  2   
 34  17  33  1   
 35  18  19  1   
@<TRIPOS>SUBSTRUCTURE
  1 ****   9 GROUP 4 **** **** 0

# MOE 2024.06 (io_trps.svl 2023.06)
