@<TRIPOS>MOLECULE
NONAME
44 47 1 0 0 
SMALL
USER_CHARGES


@<TRIPOS>ATOM
  1 CL      -1.1440    -0.4850    -0.1940 Cl    1 <1>  -0.1770 
  2 C       -2.5350     0.5620    -0.1300 C.ar  1 <1>   0.1770 
  3 C       -3.7080     0.1070     0.4170 C.ar  1 <1>  -0.1500 
  4 C       -2.4260     1.8520    -0.6400 C.ar  1 <1>  -0.1500 
  5 C       -4.8290     0.9460     0.4700 C.ar  1 <1>   0.0000 
  6 C       -3.5180     2.6900    -0.5950 C.ar  1 <1>  -0.1500 
  7 C       -4.7290     2.2520    -0.0430 C.ar  1 <1>   0.3610 
  8 C       -6.0740     0.5440     1.0200 C.ar  1 <1>  -0.1500 
  9 N       -5.8440     3.0720     0.0150 N.ar  1 <1>  -0.1790 
 10 C       -7.1270     1.4050     1.0430 C.ar  1 <1>  -0.1500 
 11 C       -7.0310     2.7280     0.5270 C.ar  1 <1>   0.4610 
 12 N       -8.0430     3.6280     0.5180 N.pl3 1 <1>  -0.8380 
 13 C       -9.4230     3.3660     1.0770 C.3   1 <1>   0.2090 
 14 C       -8.0130     5.0070    -0.0740 C.3   1 <1>   0.2090 
 15 C      -10.4890     3.3750    -0.0490 C.3   1 <1>   0.0000 
 16 C       -9.0040     5.0780    -1.2400 C.3   1 <1>  -0.1600 
 17 C      -11.8980     3.0970     0.5080 C.3   1 <1>   0.2000 
 18 C      -10.4330     4.7290    -0.7900 C.3   1 <1>  -0.1600 
 19 C      -10.2930     2.1830    -1.0030 C.3   1 <1>  -0.1600 
 20 O      -12.0940     3.6810     1.7480 O.3   1 <1>  -0.6800 
 21 C      -12.0300     1.5780     0.6180 C.3   1 <1>  -0.1600 
 22 C      -10.9660     0.9890    -0.3190 C.3   1 <1>  -0.1600 
 23 H       -3.7630    -0.8960     0.8040 H     1 <1>   0.1500 
 24 H       -1.4850     2.1680    -1.0600 H     1 <1>   0.1500 
 25 H       -3.4310     3.6870    -0.9910 H     1 <1>   0.1500 
 26 H       -6.1600    -0.4570     1.4140 H     1 <1>   0.1500 
 27 H       -5.7730     4.0110    -0.3550 H     1 <1>   0.4570 
 28 H       -8.0540     1.0680     1.4600 H     1 <1>   0.1500 
 29 H       -9.4820     2.4470     1.6240 H     1 <1>   0.0800 
 30 H       -9.6520     4.1480     1.7820 H     1 <1>   0.0800 
 31 H       -8.3000     5.7220     0.6810 H     1 <1>   0.0800 
 32 H       -7.0350     5.2810    -0.4230 H     1 <1>   0.0800 
 33 H       -9.0000     6.0740    -1.6490 H     1 <1>   0.0800 
 34 H       -8.6910     4.4060    -2.0190 H     1 <1>   0.0800 
 35 H      -12.6430     3.4790    -0.1700 H     1 <1>   0.0800 
 36 H      -11.0910     4.7190    -1.6420 H     1 <1>   0.0800 
 37 H      -10.7830     5.5000    -0.1230 H     1 <1>   0.0800 
 38 H      -10.8090     2.3760    -1.9290 H     1 <1>   0.0800 
 39 H       -9.2620     1.9840    -1.2310 H     1 <1>   0.0800 
 40 H      -13.0020     3.5030     2.0630 H     1 <1>   0.4000 
 41 H      -11.8470     1.2440     1.6250 H     1 <1>   0.0800 
 42 H      -13.0140     1.2680     0.3120 H     1 <1>   0.0800 
 43 H      -10.2430     0.4390     0.2580 H     1 <1>   0.0800 
 44 H      -11.4040     0.3250    -1.0450 H     1 <1>   0.0800 
@<TRIPOS>BOND
  1   1   2  1   
  2   2   3  ar  
  3   2   4  ar  
  4   3   5  ar  
  5   3  23  1   
  6   4   6  ar  
  7   4  24  1   
  8   5   7  ar  
  9   5   8  ar  
 10   6   7  ar  
 11   6  25  1   
 12   7   9  ar  
 13   8  10  ar  
 14   8  26  1   
 15   9  11  ar  
 16   9  27  1   
 17  10  11  ar  
 18  10  28  1   
 19  11  12  1   
 20  12  13  1   
 21  12  14  1   
 22  13  15  1   
 23  13  29  1   
 24  13  30  1   
 25  14  16  1   
 26  14  31  1   
 27  14  32  1   
 28  15  17  1   
 29  15  18  1   
 30  15  19  1   
 31  16  18  1   
 32  16  33  1   
 33  16  34  1   
 34  17  20  1   
 35  17  21  1   
 36  17  35  1   
 37  18  36  1   
 38  18  37  1   
 39  19  22  1   
 40  19  38  1   
 41  19  39  1   
 42  20  40  1   
 43  21  22  1   
 44  21  41  1   
 45  21  42  1   
 46  22  43  1   
 47  22  44  1   
@<TRIPOS>SUBSTRUCTURE
  1 ****  11 GROUP 4 **** **** 0

# MOE 2024.06 (io_trps.svl 2023.06)
