@<TRIPOS>MOLECULE
NONAME
41 42 1 0 0 
SMALL
USER_CHARGES


@<TRIPOS>ATOM
  1 CL       1.6760    -1.1420     2.1800 Cl    1 <1>  -0.1770 
  2 C        1.1890    -2.0540     0.7610 C.ar  1 <1>   0.1770 
  3 C        0.5990    -3.3060     0.8810 C.ar  1 <1>   0.4100 
  4 C        1.3830    -1.5450    -0.4920 C.ar  1 <1>   0.1600 
  5 N        0.2340    -3.9820    -0.1970 N.ar  1 <1>  -0.6200 
  6 N        0.3670    -3.8830     2.1110 N.pl3 1 <1>  -0.8690 
  7 N        1.0260    -2.2130    -1.5760 N.ar  1 <1>  -0.6200 
  8 C        0.4730    -3.3950    -1.3580 C.ar  1 <1>   0.4770 
  9 C       -0.0160    -5.2980     2.3170 C.3   1 <1>   0.2090 
 10 C        0.0600    -4.1680    -2.5870 C.3   1 <1>  -0.0970 
 11 C       -1.5360    -5.4020     2.3310 C.3   1 <1>  -0.0990 
 12 C       -1.9250    -6.8500     2.1930 C.2   1 <1>   0.5690 
 13 O       -2.0260    -7.5110     3.1960 O.2   1 <1>  -0.5700 
 14 N       -2.1010    -7.3260     0.9250 N.am  1 <1>  -0.5470 
 15 C       -2.4120    -8.6050     0.4330 C.ar  1 <1>   0.1170 
 16 C       -2.1160    -8.9250    -0.8960 C.ar  1 <1>  -0.1430 
 17 C       -3.0280    -9.5660     1.2300 C.ar  1 <1>  -0.1500 
 18 C       -2.4370   -10.1800    -1.3900 C.ar  1 <1>  -0.1500 
 19 C       -1.4430    -7.9330    -1.8410 C.3   1 <1>  -0.0170 
 20 C       -3.3410   -10.8160     0.7300 C.ar  1 <1>  -0.1500 
 21 C       -3.0450   -11.1250    -0.5840 C.ar  1 <1>  -0.1500 
 22 C       -2.4810    -7.0060    -2.4790 C.3   1 <1>  -0.2400 
 23 H        1.8370    -0.5770    -0.6160 H     1 <1>   0.1500 
 24 H        0.6920    -3.3790     2.9430 H     1 <1>   0.4000 
 25 H        0.3890    -5.6590     3.2480 H     1 <1>   0.0800 
 26 H        0.3910    -5.8990     1.5210 H     1 <1>   0.0800 
 27 H        0.3180    -5.2030    -2.4700 H     1 <1>   0.0800 
 28 H        0.5600    -3.7830    -3.4570 H     1 <1>   0.0800 
 29 H       -1.0000    -4.0750    -2.7230 H     1 <1>   0.0800 
 30 H       -1.9540    -4.8410     1.5160 H     1 <1>   0.0800 
 31 H       -1.9210    -5.0140     3.2550 H     1 <1>   0.0800 
 32 H       -1.9130    -6.6460     0.1900 H     1 <1>   0.3700 
 33 H       -3.2740    -9.3430     2.2510 H     1 <1>   0.1500 
 34 H       -2.2150   -10.4330    -2.4110 H     1 <1>   0.1500 
 35 H       -0.9290    -8.4710    -2.6180 H     1 <1>   0.0800 
 36 H       -0.6980    -7.3580    -1.3180 H     1 <1>   0.0800 
 37 H       -3.8140   -11.5440     1.3640 H     1 <1>   0.1500 
 38 H       -3.2880   -12.0970    -0.9770 H     1 <1>   0.1500 
 39 H       -3.2240    -7.5880    -2.9960 H     1 <1>   0.0800 
 40 H       -2.0090    -6.3500    -3.1880 H     1 <1>   0.0800 
 41 H       -2.9740    -6.4130    -1.7300 H     1 <1>   0.0800 
@<TRIPOS>BOND
  1   1   2  1   
  2   2   3  ar  
  3   2   4  ar  
  4   3   5  ar  
  5   3   6  1   
  6   4   7  ar  
  7   4  23  1   
  8   5   8  ar  
  9   6   9  1   
 10   6  24  1   
 11   7   8  ar  
 12   8  10  1   
 13   9  11  1   
 14   9  25  1   
 15   9  26  1   
 16  10  27  1   
 17  10  28  1   
 18  10  29  1   
 19  11  12  1   
 20  11  30  1   
 21  11  31  1   
 22  12  13  2   
 23  12  14  am  
 24  14  15  1   
 25  14  32  1   
 26  15  16  ar  
 27  15  17  ar  
 28  16  18  ar  
 29  16  19  1   
 30  17  20  ar  
 31  17  33  1   
 32  18  21  ar  
 33  18  34  1   
 34  19  22  1   
 35  19  35  1   
 36  19  36  1   
 37  20  21  ar  
 38  20  37  1   
 39  21  38  1   
 40  22  39  1   
 41  22  40  1   
 42  22  41  1   
@<TRIPOS>SUBSTRUCTURE
  1 ****  14 GROUP 4 **** **** 0

# MOE 2024.06 (io_trps.svl 2023.06)
