@<TRIPOS>MOLECULE
NONAME
47 49 1 0 0 
SMALL
USER_CHARGES


@<TRIPOS>ATOM
  1 F       -1.9680     0.0040    -1.4130 F     1 <1>  -0.1900 
  2 C       -2.7990     0.9410    -1.0480 C.ar  1 <1>   0.1900 
  3 C       -2.9250     2.0640    -1.8400 C.ar  1 <1>  -0.1500 
  4 C       -3.5220     0.7640     0.1200 C.ar  1 <1>  -0.1500 
  5 C       -3.8170     3.0260    -1.4140 C.ar  1 <1>   0.1900 
  6 C       -4.4190     1.7480     0.5240 C.ar  1 <1>  -0.1440 
  7 F       -3.9700     4.1050    -2.1310 F     1 <1>  -0.1900 
  8 C       -4.5620     2.8930    -0.2530 C.ar  1 <1>  -0.1500 
  9 C       -5.2360     1.5700     1.7920 C.3   1 <1>   0.4870 
 10 N       -6.6610     1.3900     1.4170 N.4   1 <1>  -0.9590 
 11 C       -7.6020     1.4940     2.5640 C.3   1 <1>   0.3430 
 12 C       -6.9300     0.1870     0.5940 C.3   1 <1>   0.3430 
 13 C       -9.0490     1.2710     2.1010 C.3   1 <1>  -0.1600 
 14 C       -8.3010     0.3350    -0.0720 C.3   1 <1>  -0.1600 
 15 C       -9.2340     1.3950     0.5690 C.3   1 <1>   0.2800 
 16 O       -8.7320     2.6470     0.1400 O.3   1 <1>  -0.5600 
 17 C      -10.7070     1.2120     0.0670 C.3   1 <1>   0.2000 
 18 C       -9.4670     3.7960     0.4790 C.3   1 <1>   0.1200 
 19 O      -10.6900     0.9580    -1.3110 O.3   1 <1>  -0.6800 
 20 C      -11.6070     2.4500     0.3410 C.3   1 <1>   0.2800 
 21 C      -10.8820     3.7250    -0.1020 C.3   1 <1>  -0.1600 
 22 O      -11.8390     2.5560     1.6980 O.3   1 <1>  -0.6800 
 23 C      -12.9980     2.3450    -0.2950 C.3   1 <1>  -0.2400 
 24 H       -2.3560     2.1840    -2.7430 H     1 <1>   0.1500 
 25 H       -3.3700    -0.1370     0.6890 H     1 <1>   0.1500 
 26 H       -5.2370     3.6870     0.0190 H     1 <1>   0.1500 
 27 H       -5.1250     2.4460     2.4110 H     1 <1>   0.0800 
 28 H       -4.8850     0.7140     2.3440 H     1 <1>   0.0800 
 29 H       -6.9280     2.1730     0.7900 H     1 <1>   0.4500 
 30 H       -7.3520     0.7720     3.3250 H     1 <1>   0.0800 
 31 H       -7.5240     2.4790     2.9950 H     1 <1>   0.0800 
 32 H       -6.1770     0.0710    -0.1700 H     1 <1>   0.0800 
 33 H       -6.9190    -0.6910     1.2200 H     1 <1>   0.0800 
 34 H       -9.6790     1.9460     2.6440 H     1 <1>   0.0800 
 35 H       -9.3530     0.2840     2.4020 H     1 <1>   0.0800 
 36 H       -8.7820    -0.6270    -0.0420 H     1 <1>   0.0800 
 37 H       -8.1530     0.5670    -1.1120 H     1 <1>   0.0800 
 38 H      -11.1480     0.3460     0.5270 H     1 <1>   0.0800 
 39 H       -9.4970     3.8970     1.5500 H     1 <1>   0.0800 
 40 H       -8.9480     4.6470     0.0730 H     1 <1>   0.0800 
 41 H      -10.2550     1.7040    -1.7720 H     1 <1>   0.4000 
 42 H      -10.8120     3.7500    -1.1740 H     1 <1>   0.0800 
 43 H      -11.4420     4.5920     0.1980 H     1 <1>   0.0800 
 44 H      -12.6040     3.1450     1.8480 H     1 <1>   0.4000 
 45 H      -12.9180     2.3030    -1.3670 H     1 <1>   0.0800 
 46 H      -13.6050     3.1970    -0.0450 H     1 <1>   0.0800 
 47 H      -13.4900     1.4470     0.0320 H     1 <1>   0.0800 
@<TRIPOS>BOND
  1   1   2  1   
  2   2   3  ar  
  3   2   4  ar  
  4   3   5  ar  
  5   3  24  1   
  6   4   6  ar  
  7   4  25  1   
  8   5   7  1   
  9   5   8  ar  
 10   6   8  ar  
 11   6   9  1   
 12   8  26  1   
 13   9  10  1   
 14   9  27  1   
 15   9  28  1   
 16  10  11  1   
 17  10  12  1   
 18  10  29  1   
 19  11  13  1   
 20  11  30  1   
 21  11  31  1   
 22  12  14  1   
 23  12  32  1   
 24  12  33  1   
 25  13  15  1   
 26  13  34  1   
 27  13  35  1   
 28  14  15  1   
 29  14  36  1   
 30  14  37  1   
 31  15  16  1   
 32  15  17  1   
 33  16  18  1   
 34  17  19  1   
 35  17  20  1   
 36  17  38  1   
 37  18  21  1   
 38  18  39  1   
 39  18  40  1   
 40  19  41  1   
 41  20  21  1   
 42  20  22  1   
 43  20  23  1   
 44  21  42  1   
 45  21  43  1   
 46  22  44  1   
 47  23  45  1   
 48  23  46  1   
 49  23  47  1   
@<TRIPOS>SUBSTRUCTURE
  1 ****  10 GROUP 4 **** **** 0

# MOE 2024.06 (io_trps.svl 2023.06)
