@<TRIPOS>MOLECULE
NONAME
45 47 1 0 0 
SMALL
USER_CHARGES


@<TRIPOS>ATOM
  1 S        0.0330     0.4800    -1.7680 S.3   1 <1>  -0.0800 
  2 C       -1.1630     1.0680    -0.6040 C.2   1 <1>  -0.0450 
  3 C       -0.4090    -1.1880    -1.4960 C.2   1 <1>  -0.1100 
  4 C       -1.8280    -0.0030    -0.0890 C.2   1 <1>  -0.1810 
  5 C       -1.2830     2.4940    -0.3980 C.2   1 <1>   0.7150 
  6 C       -1.3990    -1.2680    -0.5900 C.2   1 <1>  -0.1500 
  7 C       -2.9490     0.0540     0.9340 C.3   1 <1>  -0.0590 
  8 O       -2.3930     2.9960    -0.3370 O.2   1 <1>  -0.5700 
  9 N       -0.1830     3.3170    -0.2370 N.am  1 <1>  -0.6600 
 10 C        1.1100     2.7640     0.2860 C.3   1 <1>   0.1400 
 11 C       -0.3430     4.7930    -0.4030 C.3   1 <1>   0.1400 
 12 C        1.8530     3.6980     1.2480 C.3   1 <1>   0.1400 
 13 C        0.8740     5.4680    -1.0420 C.3   1 <1>  -0.1600 
 14 N        2.6780     4.6930     0.5010 N.am  1 <1>  -0.6600 
 15 C        1.9530     5.8750    -0.0340 C.3   1 <1>   0.1400 
 16 C        4.0050     4.4190     0.2250 C.2   1 <1>   0.6160 
 17 O        4.3660     3.2560     0.2610 O.2   1 <1>  -0.5700 
 18 C        4.9850     5.4340    -0.1130 C.2   1 <1>   0.0910 
 19 O        4.8410     6.6400     0.4770 O.3   1 <1>  -0.1530 
 20 C        6.0420     5.2370    -0.9500 C.2   1 <1>  -0.1360 
 21 C        5.6920     7.6490     0.2630 C.2   1 <1>  -0.0620 
 22 C        6.9770     6.2630    -1.2280 C.2   1 <1>   0.5410 
 23 C        6.7490     7.4990    -0.5670 C.2   1 <1>  -0.1360 
 24 C        5.3550     8.9160     1.0220 C.3   1 <1>  -0.1020 
 25 O        7.9150     6.1020    -1.9890 O.2   1 <1>  -0.5700 
 26 H        0.1210    -1.9420    -2.0500 H     1 <1>   0.1500 
 27 H       -1.8510    -2.1830    -0.2510 H     1 <1>   0.1500 
 28 H       -3.1270     1.0640     1.2590 H     1 <1>   0.0800 
 29 H       -2.6950    -0.5400     1.7930 H     1 <1>   0.0800 
 30 H       -3.8560    -0.3270     0.5010 H     1 <1>   0.0800 
 31 H        1.7590     2.5190    -0.5380 H     1 <1>   0.0800 
 32 H        0.9040     1.8510     0.8180 H     1 <1>   0.0800 
 33 H       -0.5640     5.2380     0.5520 H     1 <1>   0.0800 
 34 H       -1.1910     4.9750    -1.0420 H     1 <1>   0.0800 
 35 H        2.5060     3.1010     1.8610 H     1 <1>   0.0800 
 36 H        1.1610     4.1930     1.9060 H     1 <1>   0.0800 
 37 H        0.5250     6.3730    -1.5060 H     1 <1>   0.0800 
 38 H        1.2870     4.8520    -1.8220 H     1 <1>   0.0800 
 39 H        1.5150     6.4230     0.7830 H     1 <1>   0.0800 
 40 H        2.6380     6.5320    -0.5380 H     1 <1>   0.0800 
 41 H        6.2110     4.2910    -1.4310 H     1 <1>   0.1500 
 42 H        7.4570     8.2810    -0.7670 H     1 <1>   0.1500 
 43 H        5.3540     8.7200     2.0790 H     1 <1>   0.0800 
 44 H        4.3810     9.2700     0.7340 H     1 <1>   0.0800 
 45 H        6.0770     9.6870     0.8160 H     1 <1>   0.0800 
@<TRIPOS>BOND
  1   1   2  1   
  2   1   3  1   
  3   2   4  2   
  4   2   5  1   
  5   3   6  2   
  6   3  26  1   
  7   4   6  1   
  8   4   7  1   
  9   5   8  2   
 10   5   9  am  
 11   6  27  1   
 12   7  28  1   
 13   7  29  1   
 14   7  30  1   
 15   9  10  1   
 16   9  11  1   
 17  10  12  1   
 18  10  31  1   
 19  10  32  1   
 20  11  13  1   
 21  11  33  1   
 22  11  34  1   
 23  12  14  1   
 24  12  35  1   
 25  12  36  1   
 26  13  15  1   
 27  13  37  1   
 28  13  38  1   
 29  14  15  1   
 30  14  16  am  
 31  15  39  1   
 32  15  40  1   
 33  16  17  2   
 34  16  18  1   
 35  18  19  1   
 36  18  20  2   
 37  19  21  1   
 38  20  22  1   
 39  20  41  1   
 40  21  23  2   
 41  21  24  1   
 42  22  23  1   
 43  22  25  2   
 44  23  42  1   
 45  24  43  1   
 46  24  44  1   
 47  24  45  1   
@<TRIPOS>SUBSTRUCTURE
  1 ****  14 GROUP 4 **** **** 0

# MOE 2024.06 (io_trps.svl 2023.06)
