@<TRIPOS>MOLECULE
NONAME
49 51 1 0 0 
SMALL
USER_CHARGES


@<TRIPOS>ATOM
  1 O        0.9940     0.4070     0.5140 O.2   1 <1>  -0.5700 
  2 C        1.8180    -0.4110     0.1480 C.2   1 <1>   0.7160 
  3 N        3.0120     0.0350    -0.3800 N.am  1 <1>  -0.6600 
  4 C        1.5250    -1.8190     0.2750 C.2   1 <1>  -0.0860 
  5 C        3.9790    -0.8380    -1.1190 C.3   1 <1>   0.1400 
  6 C        3.3570     1.4820    -0.4130 C.3   1 <1>   0.1400 
  7 C        0.4510    -2.5200    -0.1810 C.2   1 <1>  -0.0400 
  8 C        2.3130    -2.7900     0.9300 C.2   1 <1>  -0.1500 
  9 C        5.3040    -1.0310    -0.3620 C.3   1 <1>   0.1400 
 10 C        4.1630     1.8820     0.8300 C.3   1 <1>  -0.1600 
 11 O        0.5500    -3.7910     0.1240 O.3   1 <1>  -0.2800 
 12 C       -0.7700    -2.0570    -0.9480 C.3   1 <1>  -0.0600 
 13 C        1.6650    -3.9640     0.7970 C.2   1 <1>  -0.0400 
 14 N        5.9200     0.2660     0.0650 N.am  1 <1>  -0.6600 
 15 C        5.2600     0.8910     1.2470 C.3   1 <1>   0.1400 
 16 C        2.0080    -5.3540     1.2840 C.3   1 <1>  -0.0600 
 17 C        6.9680     0.8080    -0.6320 C.2   1 <1>   0.5690 
 18 O        7.3840     0.2910    -1.6420 O.2   1 <1>  -0.5700 
 19 C        7.6260     2.0920    -0.1460 C.3   1 <1>  -0.0990 
 20 C        8.8160     2.5410    -1.0050 C.3   1 <1>   0.0210 
 21 C        9.4140     3.8180    -0.4460 C.2   1 <1>  -0.1810 
 22 C        8.8890     5.1020    -0.5560 C.2   1 <1>   0.1390 
 23 C       10.5540     3.9750     0.2600 C.2   1 <1>  -0.3020 
 24 N        9.6290     5.9900     0.0350 N.2   1 <1>  -0.7070 
 25 N       10.6630     5.2890     0.5370 N.pl3 1 <1>   0.3000 
 26 H        4.1950    -0.3940    -2.0760 H     1 <1>   0.0800 
 27 H        3.5430    -1.8010    -1.3150 H     1 <1>   0.0800 
 28 H        2.4620     2.0790    -0.4710 H     1 <1>   0.0800 
 29 H        3.9380     1.6890    -1.2960 H     1 <1>   0.0800 
 30 H        3.2380    -2.5910     1.4370 H     1 <1>   0.1500 
 31 H        5.9870    -1.5680    -0.9980 H     1 <1>   0.0800 
 32 H        5.1360    -1.6460     0.5030 H     1 <1>   0.0800 
 33 H        3.4820     2.0020     1.6540 H     1 <1>   0.0800 
 34 H        4.6030     2.8450     0.6520 H     1 <1>   0.0800 
 35 H       -0.7240    -0.9990    -1.1300 H     1 <1>   0.0800 
 36 H       -1.6550    -2.2730    -0.3790 H     1 <1>   0.0800 
 37 H       -0.8250    -2.5730    -1.8890 H     1 <1>   0.0800 
 38 H        4.8120     0.1150     1.8450 H     1 <1>   0.0800 
 39 H        5.9850     1.3870     1.8670 H     1 <1>   0.0800 
 40 H        2.9390    -5.3430     1.8190 H     1 <1>   0.0800 
 41 H        2.0910    -6.0210     0.4450 H     1 <1>   0.0800 
 42 H        1.2310    -5.7090     1.9360 H     1 <1>   0.0800 
 43 H        7.9730     1.9390     0.8590 H     1 <1>   0.0800 
 44 H        6.8900     2.8720    -0.1380 H     1 <1>   0.0800 
 45 H        8.4970     2.7090    -2.0190 H     1 <1>   0.0800 
 46 H        9.5660     1.7690    -1.0160 H     1 <1>   0.0800 
 47 H        7.9740     5.3450    -1.0700 H     1 <1>   0.1500 
 48 H       11.2760     3.2440     0.5740 H     1 <1>   0.1500 
 49 H       11.4240     5.7390     1.0610 H     1 <1>   0.2700 
@<TRIPOS>BOND
  1   1   2  2   
  2   2   3  am  
  3   2   4  1   
  4   3   5  1   
  5   3   6  1   
  6   4   7  2   
  7   4   8  1   
  8   5   9  1   
  9   5  26  1   
 10   5  27  1   
 11   6  10  1   
 12   6  28  1   
 13   6  29  1   
 14   7  11  1   
 15   7  12  1   
 16   8  13  2   
 17   8  30  1   
 18   9  14  1   
 19   9  31  1   
 20   9  32  1   
 21  10  15  1   
 22  10  33  1   
 23  10  34  1   
 24  11  13  1   
 25  12  35  1   
 26  12  36  1   
 27  12  37  1   
 28  13  16  1   
 29  14  15  1   
 30  14  17  am  
 31  15  38  1   
 32  15  39  1   
 33  16  40  1   
 34  16  41  1   
 35  16  42  1   
 36  17  18  2   
 37  17  19  1   
 38  19  20  1   
 39  19  43  1   
 40  19  44  1   
 41  20  21  1   
 42  20  45  1   
 43  20  46  1   
 44  21  22  1   
 45  21  23  2   
 46  22  24  2   
 47  22  47  1   
 48  23  25  1   
 49  23  48  1   
 50  24  25  1   
 51  25  49  1   
@<TRIPOS>SUBSTRUCTURE
  1 ****  14 GROUP 4 **** **** 0

# MOE 2024.06 (io_trps.svl 2023.06)
