@<TRIPOS>MOLECULE
NONAME
54 56 1 0 0 
SMALL
USER_CHARGES


@<TRIPOS>ATOM
  1 O       -2.7900     2.0170     2.0050 O.2   1 <1>  -0.5700 
  2 C       -2.6850     1.7410     0.8270 C.2   1 <1>   0.5690 
  3 N       -3.7180     1.0290     0.2270 N.am  1 <1>  -0.6600 
  4 C       -1.3760     2.1990     0.0760 C.3   1 <1>   0.3410 
  5 C       -3.6980     0.2840    -1.0650 C.3   1 <1>   0.1400 
  6 C       -5.0040     0.8140     0.9550 C.3   1 <1>   0.1400 
  7 O       -0.6560     3.0880     0.9150 O.3   1 <1>  -0.5600 
  8 C       -0.4570     0.9900    -0.2020 C.3   1 <1>  -0.2400 
  9 C       -1.7070     3.0000    -1.2030 C.3   1 <1>  -0.2400 
 10 C       -3.8080    -1.2140    -0.7730 C.3   1 <1>  -0.1600 
 11 C       -5.1440    -0.6710     1.2920 C.3   1 <1>  -0.1600 
 12 C        0.6000     3.5850     0.5660 C.3   1 <1>   0.1200 
 13 C       -5.0740    -1.5490     0.0310 C.3   1 <1>   0.4240 
 14 C        1.0150     4.5570     1.6630 C.3   1 <1>  -0.2400 
 15 O       -6.1430    -1.1900    -0.8130 O.3   1 <1>  -0.5600 
 16 C       -5.1020    -3.0510     0.3870 C.ar  1 <1>  -0.1430 
 17 C       -7.3810    -1.7830    -0.5690 C.3   1 <1>   0.1200 
 18 C       -6.1420    -3.8720    -0.0360 C.ar  1 <1>  -0.1430 
 19 C       -4.0830    -3.6120     1.1500 C.ar  1 <1>  -0.1500 
 20 C       -7.2740    -3.2780    -0.8500 C.3   1 <1>  -0.0170 
 21 C       -6.1540    -5.2210     0.2830 C.ar  1 <1>  -0.1500 
 22 C       -4.0960    -4.9570     1.4720 C.ar  1 <1>  -0.1500 
 23 C       -5.1260    -5.7720     1.0400 C.ar  1 <1>   0.0830 
 24 O       -5.0620    -7.0800     1.3950 O.3   1 <1>  -0.3630 
 25 C       -6.0510    -7.9990     0.9880 C.3   1 <1>   0.0400 
 26 H       -2.8060     0.4660    -1.6270 H     1 <1>   0.0800 
 27 H       -4.5330     0.6020    -1.6670 H     1 <1>   0.0800 
 28 H       -5.8210     1.1290     0.3300 H     1 <1>   0.0800 
 29 H       -5.0430     1.3960     1.8600 H     1 <1>   0.0800 
 30 H       -0.0810     0.6110     0.7310 H     1 <1>   0.0800 
 31 H        0.3650     1.2610    -0.8370 H     1 <1>   0.0800 
 32 H       -0.9810     0.1910    -0.6830 H     1 <1>   0.0800 
 33 H       -2.1560     3.9370    -0.9250 H     1 <1>   0.0800 
 34 H       -2.4010     2.4910    -1.8350 H     1 <1>   0.0800 
 35 H       -0.8260     3.1870    -1.7860 H     1 <1>   0.0800 
 36 H       -2.9340    -1.5170    -0.2290 H     1 <1>   0.0800 
 37 H       -3.8240    -1.7680    -1.6940 H     1 <1>   0.0800 
 38 H       -6.0640    -0.8460     1.8150 H     1 <1>   0.0800 
 39 H       -4.3470    -0.9330     1.9630 H     1 <1>   0.0800 
 40 H        0.5430     4.0990    -0.3760 H     1 <1>   0.0800 
 41 H        1.3050     2.7750     0.5110 H     1 <1>   0.0800 
 42 H        0.3040     5.3610     1.7280 H     1 <1>   0.0800 
 43 H        1.9830     4.9670     1.4440 H     1 <1>   0.0800 
 44 H        1.0610     4.0450     2.6080 H     1 <1>   0.0800 
 45 H       -8.1010    -1.3260    -1.2250 H     1 <1>   0.0800 
 46 H       -7.6680    -1.5990     0.4520 H     1 <1>   0.0800 
 47 H       -3.2680    -3.0070     1.5040 H     1 <1>   0.1500 
 48 H       -7.0880    -3.4330    -1.8980 H     1 <1>   0.0800 
 49 H       -8.2050    -3.7520    -0.5970 H     1 <1>   0.0800 
 50 H       -6.9670    -5.8290    -0.0630 H     1 <1>   0.1500 
 51 H       -3.3040    -5.3840     2.0600 H     1 <1>   0.1500 
 52 H       -5.7860    -8.9660     1.3760 H     1 <1>   0.0800 
 53 H       -6.0770    -8.0310    -0.0860 H     1 <1>   0.0800 
 54 H       -7.0000    -7.6910     1.3900 H     1 <1>   0.0800 
@<TRIPOS>BOND
  1   1   2  2   
  2   2   3  am  
  3   2   4  1   
  4   3   5  1   
  5   3   6  1   
  6   4   7  1   
  7   4   8  1   
  8   4   9  1   
  9   5  10  1   
 10   5  26  1   
 11   5  27  1   
 12   6  11  1   
 13   6  28  1   
 14   6  29  1   
 15   7  12  1   
 16   8  30  1   
 17   8  31  1   
 18   8  32  1   
 19   9  33  1   
 20   9  34  1   
 21   9  35  1   
 22  10  13  1   
 23  10  36  1   
 24  10  37  1   
 25  11  13  1   
 26  11  38  1   
 27  11  39  1   
 28  12  14  1   
 29  12  40  1   
 30  12  41  1   
 31  13  15  1   
 32  13  16  1   
 33  14  42  1   
 34  14  43  1   
 35  14  44  1   
 36  15  17  1   
 37  16  18  ar  
 38  16  19  ar  
 39  17  20  1   
 40  17  45  1   
 41  17  46  1   
 42  18  20  1   
 43  18  21  ar  
 44  19  22  ar  
 45  19  47  1   
 46  20  48  1   
 47  20  49  1   
 48  21  23  ar  
 49  21  50  1   
 50  22  23  ar  
 51  22  51  1   
 52  23  24  1   
 53  24  25  1   
 54  25  52  1   
 55  25  53  1   
 56  25  54  1   
@<TRIPOS>SUBSTRUCTURE
  1 ****  10 GROUP 4 **** **** 0

# MOE 2024.06 (io_trps.svl 2023.06)
