@<TRIPOS>MOLECULE
NONAME
48 49 1 0 0 
SMALL
USER_CHARGES


@<TRIPOS>ATOM
  1 S        0.4290     0.3050     0.4180 S.o2  1 <1>   1.3330 
  2 O        0.2280    -0.9420    -0.2850 O.2   1 <1>  -0.6500 
  3 O        0.4630     0.3090     1.8640 O.2   1 <1>  -0.6500 
  4 N       -0.7760     1.3950    -0.0730 N.am  1 <1>  -0.8490 
  5 C        1.9340     1.0510    -0.2020 C.3   1 <1>  -0.0550 
  6 C       -0.8830     2.5770     0.7870 C.3   1 <1>   0.1160 
  7 C       -2.0850     0.7490    -0.2010 C.3   1 <1>   0.1160 
  8 C        3.1780     0.1610    -0.0080 C.3   1 <1>  -0.0800 
  9 C        4.4700     0.7280    -0.5750 C.3   1 <1>   0.2200 
 10 C        3.5450    -0.1270     1.4540 C.3   1 <1>   0.1200 
 11 N        4.5990     2.1700    -0.2540 N.am  1 <1>  -0.7300 
 12 C        5.4910    -0.0440     0.2460 C.3   1 <1>   0.1200 
 13 O        4.9430    -0.1070     1.5280 O.3   1 <1>  -0.5600 
 14 C        4.3280     3.2020    -1.1060 C.2   1 <1>   0.5440 
 15 O        3.9010     2.9240    -2.2100 O.2   1 <1>  -0.5700 
 16 C        4.5240     4.5850    -0.7040 C.ar  1 <1>   0.0860 
 17 C        4.6270     4.9660     0.6370 C.ar  1 <1>  -0.1500 
 18 C        4.6120     5.6020    -1.6590 C.ar  1 <1>  -0.1500 
 19 C        4.8150     6.2860     1.0010 C.ar  1 <1>  -0.1500 
 20 C        4.8000     6.9250    -1.3040 C.ar  1 <1>  -0.1500 
 21 C        4.9040     7.2780     0.0380 C.ar  1 <1>   0.0820 
 22 O        5.0880     8.5430     0.4760 O.3   1 <1>  -0.3630 
 23 C        5.2000     9.6280    -0.4150 C.3   1 <1>   0.1200 
 24 C        5.4040    10.8960     0.4090 C.3   1 <1>  -0.2400 
 25 H        1.8170     1.2480    -1.2500 H     1 <1>   0.0800 
 26 H        2.0830     1.9920     0.2890 H     1 <1>   0.0800 
 27 H       -1.6040     3.2650     0.3810 H     1 <1>   0.0800 
 28 H        0.0670     3.0800     0.8480 H     1 <1>   0.0800 
 29 H       -1.1890     2.2940     1.7810 H     1 <1>   0.0800 
 30 H       -2.8210     1.4590    -0.5350 H     1 <1>   0.0800 
 31 H       -2.3920     0.3350     0.7450 H     1 <1>   0.0800 
 32 H       -2.0340    -0.0470    -0.9260 H     1 <1>   0.0800 
 33 H        2.9910    -0.7860    -0.4870 H     1 <1>   0.0800 
 34 H        4.5760     0.5580    -1.6340 H     1 <1>   0.0800 
 35 H        3.1910    -1.0930     1.7740 H     1 <1>   0.0800 
 36 H        3.1730     0.6330     2.1200 H     1 <1>   0.0800 
 37 H        4.9750     2.3480     0.6790 H     1 <1>   0.3700 
 38 H        6.4520     0.4380     0.2820 H     1 <1>   0.0800 
 39 H        5.5970    -1.0510    -0.1200 H     1 <1>   0.0800 
 40 H        4.5550     4.2270     1.4140 H     1 <1>   0.1500 
 41 H        4.5310     5.3420    -2.7010 H     1 <1>   0.1500 
 42 H        4.8940     6.5640     2.0370 H     1 <1>   0.1500 
 43 H        4.8610     7.6640    -2.0800 H     1 <1>   0.1500 
 44 H        6.0440     9.4540    -1.0600 H     1 <1>   0.0800 
 45 H        4.2940     9.6910    -0.9920 H     1 <1>   0.0800 
 46 H        6.3020    10.8160     0.9940 H     1 <1>   0.0800 
 47 H        4.5630    11.0520     1.0610 H     1 <1>   0.0800 
 48 H        5.4940    11.7450    -0.2440 H     1 <1>   0.0800 
@<TRIPOS>BOND
  1   1   2  2   
  2   1   3  2   
  3   1   4  am  
  4   1   5  1   
  5   4   6  1   
  6   4   7  1   
  7   5   8  1   
  8   5  25  1   
  9   5  26  1   
 10   6  27  1   
 11   6  28  1   
 12   6  29  1   
 13   7  30  1   
 14   7  31  1   
 15   7  32  1   
 16   8   9  1   
 17   8  10  1   
 18   8  33  1   
 19   9  11  1   
 20   9  12  1   
 21   9  34  1   
 22  10  13  1   
 23  10  35  1   
 24  10  36  1   
 25  11  14  am  
 26  11  37  1   
 27  12  13  1   
 28  12  38  1   
 29  12  39  1   
 30  14  15  2   
 31  14  16  1   
 32  16  17  ar  
 33  16  18  ar  
 34  17  19  ar  
 35  17  40  1   
 36  18  20  ar  
 37  18  41  1   
 38  19  21  ar  
 39  19  42  1   
 40  20  21  ar  
 41  20  43  1   
 42  21  22  1   
 43  22  23  1   
 44  23  24  1   
 45  23  44  1   
 46  23  45  1   
 47  24  46  1   
 48  24  47  1   
 49  24  48  1   
@<TRIPOS>SUBSTRUCTURE
  1 ****  14 GROUP 4 **** **** 0

# MOE 2024.06 (io_trps.svl 2023.06)
