@<TRIPOS>MOLECULE
NONAME
51 53 1 0 0 
SMALL
USER_CHARGES


@<TRIPOS>ATOM
  1 O       -0.6330     0.1590    -0.3700 O.2   1 <1>  -0.5700 
  2 C       -1.4960     0.7540     0.2460 C.2   1 <1>   0.5440 
  3 N       -2.6210     0.0640     0.6420 N.am  1 <1>  -0.6600 
  4 C       -1.3320     2.1640     0.5260 C.ar  1 <1>   0.0860 
  5 C       -2.6860    -1.4310     0.5950 C.3   1 <1>   0.1400 
  6 C       -3.9760     0.6910     0.7430 C.3   1 <1>   0.1400 
  7 C       -1.6480     2.6870     1.7770 C.ar  1 <1>   0.1600 
  8 C       -0.8580     3.0530    -0.4290 C.ar  1 <1>  -0.1500 
  9 C       -3.6970    -1.9050    -0.4620 C.3   1 <1>   0.3440 
 10 C       -4.9280     0.1130    -0.3310 C.3   1 <1>   0.2000 
 11 N       -1.5690     3.9600     2.1280 N.ar  1 <1>  -0.6200 
 12 C       -0.7520     4.3850    -0.0890 C.ar  1 <1>  -0.1440 
 13 O       -4.9400    -1.2900    -0.2430 O.3   1 <1>  -0.5600 
 14 C       -3.8580    -3.4210    -0.4080 C.ar  1 <1>  -0.1430 
 15 C       -6.3920     0.6430    -0.2550 C.3   1 <1>   0.0000 
 16 C       -1.1220     4.7780     1.1890 C.ar  1 <1>   0.1600 
 17 C       -0.2410     5.3990    -1.0990 C.3   1 <1>  -0.0970 
 18 C       -3.0340    -4.2240    -1.1840 C.ar  1 <1>  -0.1500 
 19 C       -4.8030    -4.0230     0.4130 C.ar  1 <1>  -0.1500 
 20 C       -7.2110     0.0550    -1.4190 C.3   1 <1>  -0.2400 
 21 C       -6.4290     2.1770    -0.3900 C.3   1 <1>  -0.2400 
 22 C       -7.0850     0.2540     1.0650 C.3   1 <1>  -0.2400 
 23 C       -3.1510    -5.6020    -1.1410 C.ar  1 <1>  -0.1500 
 24 C       -4.9210    -5.4010     0.4580 C.ar  1 <1>  -0.1500 
 25 C       -4.0940    -6.1920    -0.3190 C.ar  1 <1>  -0.1500 
 26 H       -1.7190    -1.8490     0.3730 H     1 <1>   0.0800 
 27 H       -2.9860    -1.8040     1.5580 H     1 <1>   0.0800 
 28 H       -4.3740     0.5020     1.7240 H     1 <1>   0.0800 
 29 H       -3.9040     1.7540     0.6110 H     1 <1>   0.0800 
 30 H       -1.9900     2.0010     2.5320 H     1 <1>   0.1500 
 31 H       -0.5820     2.6930    -1.4050 H     1 <1>   0.1500 
 32 H       -3.3540    -1.6200    -1.4420 H     1 <1>   0.0800 
 33 H       -4.5350     0.3690    -1.3000 H     1 <1>   0.0800 
 34 H       -1.0460     5.8190     1.4540 H     1 <1>   0.1500 
 35 H        0.4280     4.9300    -1.7980 H     1 <1>   0.0800 
 36 H        0.2920     6.1900    -0.6020 H     1 <1>   0.0800 
 37 H       -1.0670     5.8230    -1.6420 H     1 <1>   0.0800 
 38 H       -2.2940    -3.7790    -1.8270 H     1 <1>   0.1500 
 39 H       -5.4530    -3.4150     1.0190 H     1 <1>   0.1500 
 40 H       -8.2190     0.4300    -1.4080 H     1 <1>   0.0800 
 41 H       -7.2550    -1.0180    -1.3460 H     1 <1>   0.0800 
 42 H       -6.7640     0.3080    -2.3640 H     1 <1>   0.0800 
 43 H       -7.4470     2.5240    -0.4400 H     1 <1>   0.0800 
 44 H       -5.9250     2.4900    -1.2870 H     1 <1>   0.0800 
 45 H       -5.9640     2.6570     0.4520 H     1 <1>   0.0800 
 46 H       -8.1110     0.5760     1.0610 H     1 <1>   0.0800 
 47 H       -6.6000     0.7060     1.9100 H     1 <1>   0.0800 
 48 H       -7.0700    -0.8140     1.1950 H     1 <1>   0.0800 
 49 H       -2.5070    -6.2160    -1.7470 H     1 <1>   0.1500 
 50 H       -5.6580    -5.8560     1.0960 H     1 <1>   0.1500 
 51 H       -4.1860    -7.2640    -0.2850 H     1 <1>   0.1500 
@<TRIPOS>BOND
  1   1   2  2   
  2   2   3  am  
  3   2   4  1   
  4   3   5  1   
  5   3   6  1   
  6   4   7  ar  
  7   4   8  ar  
  8   5   9  1   
  9   5  26  1   
 10   5  27  1   
 11   6  10  1   
 12   6  28  1   
 13   6  29  1   
 14   7  11  ar  
 15   7  30  1   
 16   8  12  ar  
 17   8  31  1   
 18   9  13  1   
 19   9  14  1   
 20   9  32  1   
 21  10  13  1   
 22  10  15  1   
 23  10  33  1   
 24  11  16  ar  
 25  12  16  ar  
 26  12  17  1   
 27  14  18  ar  
 28  14  19  ar  
 29  15  20  1   
 30  15  21  1   
 31  15  22  1   
 32  16  34  1   
 33  17  35  1   
 34  17  36  1   
 35  17  37  1   
 36  18  23  ar  
 37  18  38  1   
 38  19  24  ar  
 39  19  39  1   
 40  20  40  1   
 41  20  41  1   
 42  20  42  1   
 43  21  43  1   
 44  21  44  1   
 45  21  45  1   
 46  22  46  1   
 47  22  47  1   
 48  22  48  1   
 49  23  25  ar  
 50  23  49  1   
 51  24  25  ar  
 52  24  50  1   
 53  25  51  1   
@<TRIPOS>SUBSTRUCTURE
  1 ****   3 GROUP 4 **** **** 0

# MOE 2024.06 (io_trps.svl 2023.06)
