@<TRIPOS>MOLECULE
NONAME
52 55 1 0 0 
SMALL
USER_CHARGES


@<TRIPOS>ATOM
  1 O       -1.4380    -0.8330     1.7690 O.co2 1 <1>  -0.9000 
  2 C       -1.2310    -1.8390     1.0860 C.2   1 <1>   1.0330 
  3 O       -2.0600    -2.1660     0.2160 O.co2 1 <1>  -0.9000 
  4 C       -0.1240    -2.6990     1.3050 C.2   1 <1>  -0.2330 
  5 C       -0.1380    -3.9420     1.9470 C.2   1 <1>   0.3720 
  6 C        1.1470    -2.5740     0.8480 C.2   1 <1>   0.0870 
  7 N        1.0130    -4.5110     1.8360 N.2   1 <1>  -0.4100 
  8 N       -1.1820    -4.6050     2.6260 N.3   1 <1>  -0.5730 
  9 O        1.7750    -3.6730     1.1860 O.3   1 <1>  -0.0190 
 10 C        1.8300    -1.5510     0.0920 C.ar  1 <1>   0.0530 
 11 C       -2.6510    -4.2510     2.5240 C.3   1 <1>   0.2450 
 12 C       -1.5340    -5.9710     2.1010 C.3   1 <1>   0.2450 
 13 C        2.9180    -1.8720    -0.7230 C.ar  1 <1>  -0.1500 
 14 C        1.4420    -0.2110     0.1360 C.ar  1 <1>  -0.1500 
 15 C       -2.7830    -5.3330     1.4100 C.3   1 <1>   0.4720 
 16 C        3.5740    -0.9080    -1.4640 C.ar  1 <1>  -0.1500 
 17 C        2.0920     0.7590    -0.6040 C.ar  1 <1>  -0.1500 
 18 N       -2.6560    -4.7860     0.0010 N.4   1 <1>  -0.9280 
 19 C        3.1680     0.4150    -1.4160 C.ar  1 <1>   0.0830 
 20 C       -3.9410    -4.7480    -0.7450 C.3   1 <1>   0.4230 
 21 C       -1.5200    -5.3600    -0.7760 C.3   1 <1>   0.3430 
 22 O        3.8570     1.3000    -2.1750 O.3   1 <1>  -0.3630 
 23 C       -3.7530    -4.0180    -2.0830 C.3   1 <1>  -0.1600 
 24 C       -5.0180    -4.0270     0.0700 C.3   1 <1>  -0.2400 
 25 C       -1.3310    -4.6180    -2.0970 C.3   1 <1>  -0.1600 
 26 C        3.5020     2.6640    -2.2110 C.3   1 <1>   0.0400 
 27 C       -2.6180    -4.6110    -2.9230 C.3   1 <1>  -0.1600 
 28 H       -2.8710    -3.2490     2.2260 H     1 <1>   0.0000 
 29 H       -3.1630    -4.5260     3.4300 H     1 <1>   0.0000 
 30 H       -1.7930    -6.6300     2.9120 H     1 <1>   0.0000 
 31 H       -0.7980    -6.3940     1.4430 H     1 <1>   0.0000 
 32 H        3.2530    -2.8920    -0.7780 H     1 <1>   0.1500 
 33 H        0.6200     0.0850     0.7640 H     1 <1>   0.1500 
 34 H       -3.6620    -5.9430     1.5110 H     1 <1>   0.0000 
 35 H        4.4080    -1.1730    -2.0880 H     1 <1>   0.1500 
 36 H        1.7450     1.7720    -0.5320 H     1 <1>   0.1500 
 37 H       -2.4180    -3.7670     0.1040 H     1 <1>   0.4500 
 38 H       -4.2630    -5.7570    -0.9450 H     1 <1>   0.0800 
 39 H       -1.7030    -6.4030    -0.9710 H     1 <1>   0.0800 
 40 H       -0.6070    -5.2720    -0.2090 H     1 <1>   0.0800 
 41 H       -3.5460    -2.9780    -1.8920 H     1 <1>   0.0800 
 42 H       -4.6680    -4.0640    -2.6470 H     1 <1>   0.0800 
 43 H       -4.6790    -3.0450     0.3560 H     1 <1>   0.0800 
 44 H       -5.2970    -4.5830     0.9440 H     1 <1>   0.0800 
 45 H       -5.9040    -3.9090    -0.5280 H     1 <1>   0.0800 
 46 H       -0.5410    -5.0860    -2.6570 H     1 <1>   0.0800 
 47 H       -1.0230    -3.6060    -1.8880 H     1 <1>   0.0800 
 48 H        4.1760     3.1670    -2.8810 H     1 <1>   0.0800 
 49 H        3.5960     3.0750    -1.2210 H     1 <1>   0.0800 
 50 H        2.4930     2.7530    -2.5710 H     1 <1>   0.0800 
 51 H       -2.4750    -4.0170    -3.8110 H     1 <1>   0.0800 
 52 H       -2.8670    -5.6130    -3.2260 H     1 <1>   0.0800 
@<TRIPOS>BOND
  1   1   2  ar  
  2   2   3  ar  
  3   2   4  1   
  4   4   5  1   
  5   4   6  2   
  6   5   7  2   
  7   5   8  1   
  8   6   9  1   
  9   6  10  1   
 10   7   9  1   
 11   8  11  1   
 12   8  12  1   
 13  10  13  ar  
 14  10  14  ar  
 15  11  15  1   
 16  11  28  1   
 17  11  29  1   
 18  12  15  1   
 19  12  30  1   
 20  12  31  1   
 21  13  16  ar  
 22  13  32  1   
 23  14  17  ar  
 24  14  33  1   
 25  15  18  1   
 26  15  34  1   
 27  16  19  ar  
 28  16  35  1   
 29  17  19  ar  
 30  17  36  1   
 31  18  20  1   
 32  18  21  1   
 33  18  37  1   
 34  19  22  1   
 35  20  23  1   
 36  20  24  1   
 37  20  38  1   
 38  21  25  1   
 39  21  39  1   
 40  21  40  1   
 41  22  26  1   
 42  23  27  1   
 43  23  41  1   
 44  23  42  1   
 45  24  43  1   
 46  24  44  1   
 47  24  45  1   
 48  25  27  1   
 49  25  46  1   
 50  25  47  1   
 51  26  48  1   
 52  26  49  1   
 53  26  50  1   
 54  27  51  1   
 55  27  52  1   
@<TRIPOS>SUBSTRUCTURE
  1 ****   4 GROUP 4 **** **** 0

# MOE 2024.06 (io_trps.svl 2023.06)
