@<TRIPOS>MOLECULE
NONAME
45 47 1 0 0 
SMALL
USER_CHARGES


@<TRIPOS>ATOM
  1 F        1.2160    -4.6210    -1.2530 F     1 <1>  -0.1900 
  2 C        0.1860    -4.5680    -0.4510 C.ar  1 <1>   0.1900 
  3 C        0.2780    -5.1280     0.8150 C.ar  1 <1>  -0.1440 
  4 C       -0.9620    -3.9510    -0.9110 C.ar  1 <1>  -0.1500 
  5 C       -0.8360    -5.0530     1.6360 C.ar  1 <1>  -0.1500 
  6 C        1.5560    -5.8030     1.2910 C.3   1 <1>  -0.0960 
  7 C       -2.0700    -3.8860    -0.0800 C.ar  1 <1>  -0.1430 
  8 C       -1.9960    -4.4370     1.1920 C.ar  1 <1>  -0.1500 
  9 C       -3.3650    -3.2350    -0.5610 C.3   1 <1>   0.0450 
 10 C       -4.3920    -4.2500    -1.0350 C.2   1 <1>   0.5690 
 11 O       -5.5440    -3.9070    -1.1480 O.2   1 <1>  -0.5700 
 12 N       -3.9960    -5.5160    -1.3150 N.am  1 <1>  -0.7300 
 13 C       -4.8780    -6.6230    -1.7410 C.3   1 <1>   0.2200 
 14 C       -5.0330    -7.6010    -0.5890 C.3   1 <1>  -0.0800 
 15 C       -4.1670    -7.4760    -2.7890 C.3   1 <1>   0.1200 
 16 C       -3.7700    -8.4520    -0.7360 C.3   1 <1>   0.1200 
 17 C       -6.3200    -8.4370    -0.7270 C.3   1 <1>  -0.0170 
 18 O       -3.4350    -8.4430    -2.0930 O.3   1 <1>  -0.5600 
 19 C       -6.4840    -9.4020     0.4370 C.ar  1 <1>  -0.1430 
 20 C       -6.9010    -8.9750     1.6810 C.ar  1 <1>  -0.1500 
 21 C       -6.2280   -10.7530     0.3120 C.ar  1 <1>  -0.1500 
 22 C       -7.0320    -9.8910     2.7120 C.ar  1 <1>   0.1600 
 23 C       -6.3900   -11.5850     1.4060 C.ar  1 <1>   0.1600 
 24 N       -6.7850   -11.1860     2.6050 N.ar  1 <1>  -0.6200 
 25 H       -0.9770    -3.5370    -1.9030 H     1 <1>   0.1500 
 26 H       -0.8060    -5.4720     2.6270 H     1 <1>   0.1500 
 27 H        1.4460    -6.1760     2.2930 H     1 <1>   0.0800 
 28 H        2.3690    -5.0990     1.2740 H     1 <1>   0.0800 
 29 H        1.7980    -6.6260     0.6430 H     1 <1>   0.0800 
 30 H       -2.8500    -4.3930     1.8480 H     1 <1>   0.1500 
 31 H       -3.1620    -2.5590    -1.3700 H     1 <1>   0.0800 
 32 H       -3.7970    -2.6620     0.2390 H     1 <1>   0.0800 
 33 H       -3.0160    -5.7740    -1.1620 H     1 <1>   0.3700 
 34 H       -5.8170    -6.2340    -2.1000 H     1 <1>   0.0800 
 35 H       -5.0500    -7.0910     0.3580 H     1 <1>   0.0800 
 36 H       -3.5030    -6.8990    -3.4100 H     1 <1>   0.0800 
 37 H       -4.8810    -7.9930    -3.4050 H     1 <1>   0.0800 
 38 H       -3.8980    -9.4690    -0.4100 H     1 <1>   0.0800 
 39 H       -2.9500    -8.0070    -0.1980 H     1 <1>   0.0800 
 40 H       -6.3110    -8.9870    -1.6520 H     1 <1>   0.0800 
 41 H       -7.1710    -7.7790    -0.7500 H     1 <1>   0.0800 
 42 H       -7.1250    -7.9390     1.8590 H     1 <1>   0.1500 
 43 H       -5.9010   -11.1660    -0.6250 H     1 <1>   0.1500 
 44 H       -7.3580    -9.5390     3.6760 H     1 <1>   0.1500 
 45 H       -6.1850   -12.6360     1.2900 H     1 <1>   0.1500 
@<TRIPOS>BOND
  1   1   2  1   
  2   2   3  ar  
  3   2   4  ar  
  4   3   5  ar  
  5   3   6  1   
  6   4   7  ar  
  7   4  25  1   
  8   5   8  ar  
  9   5  26  1   
 10   6  27  1   
 11   6  28  1   
 12   6  29  1   
 13   7   8  ar  
 14   7   9  1   
 15   8  30  1   
 16   9  10  1   
 17   9  31  1   
 18   9  32  1   
 19  10  11  2   
 20  10  12  am  
 21  12  13  1   
 22  12  33  1   
 23  13  14  1   
 24  13  15  1   
 25  13  34  1   
 26  14  16  1   
 27  14  17  1   
 28  14  35  1   
 29  15  18  1   
 30  15  36  1   
 31  15  37  1   
 32  16  18  1   
 33  16  38  1   
 34  16  39  1   
 35  17  19  1   
 36  17  40  1   
 37  17  41  1   
 38  19  20  ar  
 39  19  21  ar  
 40  20  22  ar  
 41  20  42  1   
 42  21  23  ar  
 43  21  43  1   
 44  22  24  ar  
 45  22  44  1   
 46  23  24  ar  
 47  23  45  1   
@<TRIPOS>SUBSTRUCTURE
  1 ****  14 GROUP 4 **** **** 0

# MOE 2024.06 (io_trps.svl 2023.06)
