@<TRIPOS>MOLECULE
NONAME
43 45 1 0 0 
SMALL
USER_CHARGES


@<TRIPOS>ATOM
  1 S       -0.0590     0.2800    -1.3730 S.o2  1 <1>   1.4470 
  2 O        0.7230    -0.5880    -2.2280 O.2   1 <1>  -0.6500 
  3 O       -0.9840     1.2030    -1.9950 O.2   1 <1>  -0.6500 
  4 N       -0.9440    -0.6930    -0.3010 N.am  1 <1>  -0.8490 
  5 C        1.1130     1.1240    -0.2790 C.ar  1 <1>  -0.0090 
  6 C       -1.5350    -1.8720    -0.9760 C.3   1 <1>   0.1960 
  7 C       -1.9790     0.0610     0.4120 C.3   1 <1>   0.1960 
  8 C        0.8370     2.3450     0.3180 C.ar  1 <1>   0.1900 
  9 C        2.3420     0.5470     0.0280 C.ar  1 <1>  -0.1500 
 10 C       -2.1390    -2.8610     0.0420 C.3   1 <1>  -0.1060 
 11 C       -2.6360    -0.8060     1.4850 C.3   1 <1>  -0.1600 
 12 F       -0.3000     2.9440     0.0920 F     1 <1>  -0.1900 
 13 C        1.7180     2.9870     1.1700 C.ar  1 <1>  -0.1500 
 14 C        3.2430     1.1690     0.8800 C.ar  1 <1>  -0.1500 
 15 C       -2.9020    -3.9550    -0.7000 C.2   1 <1>   0.9060 
 16 C       -3.1900    -2.0820     0.8580 C.3   1 <1>   0.2000 
 17 C       -1.0300    -3.4920     0.9360 C.3   1 <1>  -0.0650 
 18 C        2.9340     2.3910     1.4520 C.ar  1 <1>  -0.1500 
 19 O       -2.8800    -4.0020    -1.9340 O.co2 1 <1>  -0.9000 
 20 O       -3.5810    -4.7510    -0.0320 O.co2 1 <1>  -0.9000 
 21 O       -3.7040    -2.8760     1.8620 O.3   1 <1>  -0.6800 
 22 C        0.0480    -4.2620     0.1560 C.3   1 <1>  -0.1950 
 23 C        1.3590    -4.5830     0.8000 C.3   1 <1>  -0.2000 
 24 C        1.2930    -3.5830    -0.3190 C.3   1 <1>  -0.2000 
 25 H       -2.2990    -1.5460    -1.6640 H     1 <1>   0.0800 
 26 H       -0.7920    -2.3880    -1.5600 H     1 <1>   0.0800 
 27 H       -1.5450     0.9200     0.8900 H     1 <1>   0.0800 
 28 H       -2.7270     0.4040    -0.2850 H     1 <1>   0.0800 
 29 H        2.5990    -0.4050    -0.4070 H     1 <1>   0.1500 
 30 H       -3.4400    -0.2580     1.9400 H     1 <1>   0.0800 
 31 H       -1.9140    -1.0420     2.2450 H     1 <1>   0.0800 
 32 H        1.4540     3.9350     1.6040 H     1 <1>   0.1500 
 33 H        4.1880     0.6990     1.0960 H     1 <1>   0.1500 
 34 H       -4.0120    -1.8280     0.2080 H     1 <1>   0.0800 
 35 H       -0.5540    -2.7300     1.5240 H     1 <1>   0.0800 
 36 H       -1.4880    -4.1840     1.6220 H     1 <1>   0.0800 
 37 H        3.6350     2.8730     2.1120 H     1 <1>   0.1500 
 38 H       -3.8650    -3.7670     1.4340 H     1 <1>   0.4000 
 39 H       -0.3740    -5.0230    -0.4810 H     1 <1>   0.1000 
 40 H        1.5460    -4.2300     1.7990 H     1 <1>   0.1000 
 41 H        1.7950    -5.5480     0.6120 H     1 <1>   0.1000 
 42 H        1.6590    -3.8440    -1.2970 H     1 <1>   0.1000 
 43 H        1.4130    -2.5380    -0.1000 H     1 <1>   0.1000 
@<TRIPOS>BOND
  1   1   2  2   
  2   1   3  2   
  3   1   4  am  
  4   1   5  1   
  5   4   6  1   
  6   4   7  1   
  7   5   8  ar  
  8   5   9  ar  
  9   6  10  1   
 10   6  25  1   
 11   6  26  1   
 12   7  11  1   
 13   7  27  1   
 14   7  28  1   
 15   8  12  1   
 16   8  13  ar  
 17   9  14  ar  
 18   9  29  1   
 19  10  15  1   
 20  10  16  1   
 21  10  17  1   
 22  11  16  1   
 23  11  30  1   
 24  11  31  1   
 25  13  18  ar  
 26  13  32  1   
 27  14  18  ar  
 28  14  33  1   
 29  15  19  ar  
 30  15  20  ar  
 31  16  21  1   
 32  16  34  1   
 33  17  22  1   
 34  17  35  1   
 35  17  36  1   
 36  18  37  1   
 37  21  38  1   
 38  22  23  1   
 39  22  24  1   
 40  22  39  1   
 41  23  24  1   
 42  23  40  1   
 43  23  41  1   
 44  24  42  1   
 45  24  43  1   
@<TRIPOS>SUBSTRUCTURE
  1 ****   4 GROUP 4 **** **** 0

# MOE 2024.06 (io_trps.svl 2023.06)
