@<TRIPOS>MOLECULE
NONAME
48 50 1 0 0 
SMALL
USER_CHARGES


@<TRIPOS>ATOM
  1 S       -0.0820     0.2970    -1.0110 S.o2  1 <1>   1.3330 
  2 O        0.3810     0.1710    -2.3750 O.2   1 <1>  -0.6500 
  3 O       -1.2970     1.0300    -0.7400 O.2   1 <1>  -0.6500 
  4 N       -0.2760    -1.2650    -0.3770 N.am  1 <1>  -0.8490 
  5 C        1.2530     1.0360    -0.0660 C.3   1 <1>  -0.0550 
  6 C       -0.9510    -2.1580    -1.3230 C.3   1 <1>   0.1160 
  7 C       -0.9820    -1.2840     0.9100 C.3   1 <1>   0.1160 
  8 C        2.6340     0.3500    -0.2470 C.3   1 <1>  -0.0800 
  9 C        3.8160     1.1990     0.2150 C.3   1 <1>   0.2200 
 10 C        2.7770    -0.8210     0.7210 C.3   1 <1>   0.1200 
 11 N        3.6920     2.6340    -0.1560 N.am  1 <1>  -0.7300 
 12 C        3.8530     0.9290     1.7250 C.3   1 <1>   0.1200 
 13 O        3.0970    -0.2310     1.9380 O.3   1 <1>  -0.5600 
 14 C        4.4490     3.6440     0.3470 C.2   1 <1>   0.5690 
 15 O        5.2860     3.4490     1.1930 O.2   1 <1>  -0.5700 
 16 C        4.2160     5.0520    -0.1760 C.3   1 <1>  -0.0190 
 17 C        5.4940     5.7830    -0.6320 C.3   1 <1>  -0.0170 
 18 C        3.5520     5.9810     0.8550 C.3   1 <1>  -0.0170 
 19 C        5.1460     7.2310    -0.3870 C.ar  1 <1>  -0.1440 
 20 C        4.0590     7.3410     0.4460 C.ar  1 <1>  -0.1440 
 21 C        5.7730     8.3570    -0.8850 C.ar  1 <1>  -0.1500 
 22 C        3.5670     8.5820     0.8050 C.ar  1 <1>  -0.1500 
 23 C        5.2860     9.6060    -0.5320 C.ar  1 <1>  -0.1500 
 24 C        4.1880     9.7180     0.3100 C.ar  1 <1>  -0.1500 
 25 H        1.3140     2.0540    -0.3880 H     1 <1>   0.0800 
 26 H        0.9940     1.0570     0.9740 H     1 <1>   0.0800 
 27 H       -1.0430    -3.1460    -0.9040 H     1 <1>   0.0800 
 28 H       -0.3800    -2.2310    -2.2330 H     1 <1>   0.0800 
 29 H       -1.9320    -1.7810    -1.5600 H     1 <1>   0.0800 
 30 H       -1.0150    -2.2870     1.2990 H     1 <1>   0.0800 
 31 H       -1.9890    -0.9190     0.7950 H     1 <1>   0.0800 
 32 H       -0.4690    -0.6630     1.6260 H     1 <1>   0.0800 
 33 H        2.7730     0.0260    -1.2640 H     1 <1>   0.0800 
 34 H        4.7260     0.8130    -0.2150 H     1 <1>   0.0800 
 35 H        3.5970    -1.4600     0.4380 H     1 <1>   0.0800 
 36 H        1.8910    -1.4140     0.8410 H     1 <1>   0.0800 
 37 H        3.0940     2.8220    -0.9620 H     1 <1>   0.3700 
 38 H        3.3990     1.7280     2.2840 H     1 <1>   0.0800 
 39 H        4.8590     0.7590     2.0690 H     1 <1>   0.0800 
 40 H        3.5620     5.0060    -1.0280 H     1 <1>   0.0800 
 41 H        5.7160     5.5910    -1.6670 H     1 <1>   0.0800 
 42 H        6.3380     5.5150    -0.0200 H     1 <1>   0.0800 
 43 H        3.8950     5.7600     1.8510 H     1 <1>   0.0800 
 44 H        2.4790     5.9220     0.8130 H     1 <1>   0.0800 
 45 H        6.6250     8.2670    -1.5350 H     1 <1>   0.1500 
 46 H        2.7170     8.6650     1.4590 H     1 <1>   0.1500 
 47 H        5.7630    10.4930    -0.9110 H     1 <1>   0.1500 
 48 H        3.8170    10.6910     0.5800 H     1 <1>   0.1500 
@<TRIPOS>BOND
  1   1   2  2   
  2   1   3  2   
  3   1   4  am  
  4   1   5  1   
  5   4   6  1   
  6   4   7  1   
  7   5   8  1   
  8   5  25  1   
  9   5  26  1   
 10   6  27  1   
 11   6  28  1   
 12   6  29  1   
 13   7  30  1   
 14   7  31  1   
 15   7  32  1   
 16   8   9  1   
 17   8  10  1   
 18   8  33  1   
 19   9  11  1   
 20   9  12  1   
 21   9  34  1   
 22  10  13  1   
 23  10  35  1   
 24  10  36  1   
 25  11  14  am  
 26  11  37  1   
 27  12  13  1   
 28  12  38  1   
 29  12  39  1   
 30  14  15  2   
 31  14  16  1   
 32  16  17  1   
 33  16  18  1   
 34  16  40  1   
 35  17  19  1   
 36  17  41  1   
 37  17  42  1   
 38  18  20  1   
 39  18  43  1   
 40  18  44  1   
 41  19  20  ar  
 42  19  21  ar  
 43  20  22  ar  
 44  21  23  ar  
 45  21  45  1   
 46  22  24  ar  
 47  22  46  1   
 48  23  24  ar  
 49  23  47  1   
 50  24  48  1   
@<TRIPOS>SUBSTRUCTURE
  1 ****  11 GROUP 4 **** **** 0

# MOE 2024.06 (io_trps.svl 2023.06)
