@<TRIPOS>MOLECULE
NONAME
56 58 1 0 0 
SMALL
USER_CHARGES


@<TRIPOS>ATOM
  1 F       -1.0340    -0.4430    -0.3390 F     1 <1>  -0.1900 
  2 C       -2.2300     0.0880    -0.3010 C.ar  1 <1>   0.1900 
  3 C       -2.6480     0.9020     0.7580 C.ar  1 <1>   0.0830 
  4 C       -3.0640    -0.2010    -1.3650 C.ar  1 <1>  -0.1500 
  5 O       -1.9220     1.2580     1.8570 O.3   1 <1>  -0.3630 
  6 C       -3.9340     1.4130     0.7070 C.ar  1 <1>  -0.1500 
  7 C       -4.3430     0.3240    -1.3830 C.ar  1 <1>  -0.1500 
  8 C       -0.5800     0.8710     2.0510 C.3   1 <1>   0.0400 
  9 C       -4.8050     1.1360    -0.3470 C.ar  1 <1>   0.0530 
 10 C       -6.1330     1.6910    -0.3610 C.2   1 <1>   0.0870 
 11 O       -6.2990     2.9700    -0.1420 O.3   1 <1>  -0.0190 
 12 C       -7.3690     1.1560    -0.5590 C.2   1 <1>  -0.0860 
 13 N       -7.5510     3.3380    -0.1910 N.2   1 <1>  -0.4100 
 14 C       -8.2160     2.2670    -0.4440 C.2   1 <1>   0.3720 
 15 C       -7.7770    -0.1960    -0.7940 C.2   1 <1>   0.7160 
 16 N       -9.6130     2.2530    -0.5830 N.pl3 1 <1>  -0.8210 
 17 O       -6.9790    -1.1090    -0.8980 O.2   1 <1>  -0.5700 
 18 N       -9.0970    -0.5150    -0.8900 N.am  1 <1>  -0.7300 
 19 C      -10.0610     2.9820    -1.8040 C.3   1 <1>   0.1290 
 20 C      -10.3110     2.7850     0.6240 C.3   1 <1>   0.1290 
 21 C       -9.6740    -1.8500    -1.1880 C.3   1 <1>   0.1400 
 22 C       -9.3180    -2.8750    -0.0760 C.3   1 <1>   0.4230 
 23 N       -8.7510    -4.1700    -0.6010 N.4   1 <1>  -0.9590 
 24 C      -10.5600    -3.1540     0.7880 C.3   1 <1>  -0.1600 
 25 C       -8.4260    -5.1210     0.5030 C.3   1 <1>   0.3430 
 26 C       -7.5010    -3.9440    -1.3990 C.3   1 <1>   0.2630 
 27 C      -10.2850    -4.1610     1.9090 C.3   1 <1>  -0.1600 
 28 C       -9.6730    -5.4370     1.3260 C.3   1 <1>  -0.1600 
 29 H       -2.7110    -0.8270    -2.1650 H     1 <1>   0.1500 
 30 H       -4.2680     2.0440     1.5110 H     1 <1>   0.1500 
 31 H       -4.9940     0.1050    -2.2110 H     1 <1>   0.1500 
 32 H       -0.2380     1.3030     2.9740 H     1 <1>   0.0800 
 33 H        0.0140     1.2410     1.2340 H     1 <1>   0.0800 
 34 H       -0.5290    -0.2020     2.1110 H     1 <1>   0.0800 
 35 H       -9.7330     0.3020    -0.8400 H     1 <1>   0.3700 
 36 H       -9.5370     2.6100    -2.6670 H     1 <1>   0.0800 
 37 H       -9.8550     4.0350    -1.7050 H     1 <1>   0.0800 
 38 H      -11.1180     2.8430    -1.9530 H     1 <1>   0.0800 
 39 H       -9.9380     2.2970     1.5080 H     1 <1>   0.0800 
 40 H      -11.3700     2.6060     0.5490 H     1 <1>   0.0800 
 41 H      -10.1380     3.8450     0.7180 H     1 <1>   0.0800 
 42 H       -9.3060    -2.1710    -2.1460 H     1 <1>   0.0800 
 43 H      -10.7420    -1.7470    -1.2720 H     1 <1>   0.0800 
 44 H       -8.5690    -2.4200     0.5530 H     1 <1>   0.0800 
 45 H       -9.4650    -4.6100    -1.1950 H     1 <1>   0.4500 
 46 H      -11.3580    -3.5220     0.1660 H     1 <1>   0.0800 
 47 H      -10.8940    -2.2300     1.2270 H     1 <1>   0.0800 
 48 H       -7.6770    -4.6860     1.1450 H     1 <1>   0.0800 
 49 H       -8.0280    -6.0370     0.0940 H     1 <1>   0.0800 
 50 H       -6.7470    -3.4790    -0.7840 H     1 <1>   0.0800 
 51 H       -7.6900    -3.2980    -2.2390 H     1 <1>   0.0800 
 52 H       -7.1150    -4.8800    -1.7680 H     1 <1>   0.0800 
 53 H      -11.2020    -4.3960     2.4250 H     1 <1>   0.0800 
 54 H       -9.6070    -3.7280     2.6260 H     1 <1>   0.0800 
 55 H       -9.4040    -6.1000     2.1300 H     1 <1>   0.0800 
 56 H      -10.3930    -5.9500     0.7130 H     1 <1>   0.0800 
@<TRIPOS>BOND
  1   1   2  1   
  2   2   3  ar  
  3   2   4  ar  
  4   3   5  1   
  5   3   6  ar  
  6   4   7  ar  
  7   4  29  1   
  8   5   8  1   
  9   6   9  ar  
 10   6  30  1   
 11   7   9  ar  
 12   7  31  1   
 13   8  32  1   
 14   8  33  1   
 15   8  34  1   
 16   9  10  1   
 17  10  11  1   
 18  10  12  2   
 19  11  13  1   
 20  12  14  1   
 21  12  15  1   
 22  13  14  2   
 23  14  16  1   
 24  15  17  2   
 25  15  18  am  
 26  16  19  1   
 27  16  20  1   
 28  18  21  1   
 29  18  35  1   
 30  19  36  1   
 31  19  37  1   
 32  19  38  1   
 33  20  39  1   
 34  20  40  1   
 35  20  41  1   
 36  21  22  1   
 37  21  42  1   
 38  21  43  1   
 39  22  23  1   
 40  22  24  1   
 41  22  44  1   
 42  23  25  1   
 43  23  26  1   
 44  23  45  1   
 45  24  27  1   
 46  24  46  1   
 47  24  47  1   
 48  25  28  1   
 49  25  48  1   
 50  25  49  1   
 51  26  50  1   
 52  26  51  1   
 53  26  52  1   
 54  27  28  1   
 55  27  53  1   
 56  27  54  1   
 57  28  55  1   
 58  28  56  1   
@<TRIPOS>SUBSTRUCTURE
  1 ****  17 GROUP 4 **** **** 0

# MOE 2024.06 (io_trps.svl 2023.06)
