@<TRIPOS>MOLECULE
NONAME
43 45 1 0 0 
SMALL
USER_CHARGES


@<TRIPOS>ATOM
  1 CL      -0.5220    -1.5130     2.2440 Cl    1 <1>  -0.1770 
  2 C       -1.9760    -1.7470     1.3030 C.ar  1 <1>   0.1770 
  3 C       -2.6200    -2.9740     1.3150 C.ar  1 <1>   0.1600 
  4 C       -2.4730    -0.7030     0.5540 C.ar  1 <1>  -0.1500 
  5 N       -3.7310    -3.2560     0.6380 N.ar  1 <1>  -0.6200 
  6 C       -3.6180    -0.9900    -0.1470 C.ar  1 <1>   0.1900 
  7 C       -4.2310    -2.2570    -0.0960 C.ar  1 <1>   0.4100 
  8 F       -4.1350    -0.0350    -0.8840 F     1 <1>  -0.1900 
  9 N       -5.4020    -2.5510    -0.7940 N.pl3 1 <1>  -0.8380 
 10 C       -5.6190    -3.9390    -1.2830 C.3   1 <1>   0.2090 
 11 C       -6.6440    -1.8390    -0.3880 C.3   1 <1>   0.2090 
 12 C       -6.3440    -4.7810    -0.2040 C.3   1 <1>   0.4230 
 13 C       -7.3540    -2.6590     0.6970 C.3   1 <1>  -0.1600 
 14 N       -6.4770    -6.2620    -0.5500 N.4   1 <1>  -0.9590 
 15 C       -7.6750    -4.1190     0.2650 C.3   1 <1>   0.0000 
 16 C       -7.5090    -6.9900     0.2580 C.3   1 <1>   0.3430 
 17 C       -6.6570    -6.5690    -2.0070 C.3   1 <1>   0.2630 
 18 C       -8.2270    -4.8900     1.5010 C.3   1 <1>  -0.1600 
 19 C       -8.7140    -4.1240    -0.8920 C.3   1 <1>   0.1200 
 20 C       -7.6990    -6.3320     1.6220 C.3   1 <1>  -0.1600 
 21 O       -9.8300    -3.3650    -0.5820 O.3   1 <1>  -0.6800 
 22 H       -2.1920    -3.7590     1.9160 H     1 <1>   0.1500 
 23 H       -1.9980     0.2600     0.5210 H     1 <1>   0.1500 
 24 H       -6.1890    -3.8900    -2.1920 H     1 <1>   0.0800 
 25 H       -4.6640    -4.3820    -1.5070 H     1 <1>   0.0800 
 26 H       -6.4050    -0.8620     0.0000 H     1 <1>   0.0800 
 27 H       -7.2830    -1.7020    -1.2440 H     1 <1>   0.0800 
 28 H       -5.6970    -4.7340     0.6560 H     1 <1>   0.0800 
 29 H       -6.7120    -2.6650     1.5600 H     1 <1>   0.0800 
 30 H       -8.2520    -2.1410     0.9850 H     1 <1>   0.0800 
 31 H       -5.5680    -6.6610    -0.2710 H     1 <1>   0.4500 
 32 H       -8.4540    -6.9770    -0.2610 H     1 <1>   0.0800 
 33 H       -7.2140    -8.0190     0.3860 H     1 <1>   0.0800 
 34 H       -7.5720    -6.1350    -2.3750 H     1 <1>   0.0800 
 35 H       -6.6970    -7.6360    -2.1610 H     1 <1>   0.0800 
 36 H       -5.8320    -6.1780    -2.5810 H     1 <1>   0.0800 
 37 H       -7.9690    -4.3780     2.4130 H     1 <1>   0.0800 
 38 H       -9.3030    -4.9150     1.4700 H     1 <1>   0.0800 
 39 H       -9.0550    -5.1200    -1.1110 H     1 <1>   0.0800 
 40 H       -8.3020    -3.7010    -1.7910 H     1 <1>   0.0800 
 41 H       -8.3940    -6.9140     2.2040 H     1 <1>   0.0800 
 42 H       -6.7610    -6.3400     2.1520 H     1 <1>   0.0800 
 43 H      -10.3030    -3.7040     0.2030 H     1 <1>   0.4000 
@<TRIPOS>BOND
  1   1   2  1   
  2   2   3  ar  
  3   2   4  ar  
  4   3   5  ar  
  5   3  22  1   
  6   4   6  ar  
  7   4  23  1   
  8   5   7  ar  
  9   6   7  ar  
 10   6   8  1   
 11   7   9  1   
 12   9  10  1   
 13   9  11  1   
 14  10  12  1   
 15  10  24  1   
 16  10  25  1   
 17  11  13  1   
 18  11  26  1   
 19  11  27  1   
 20  12  14  1   
 21  12  15  1   
 22  12  28  1   
 23  13  15  1   
 24  13  29  1   
 25  13  30  1   
 26  14  16  1   
 27  14  17  1   
 28  14  31  1   
 29  15  18  1   
 30  15  19  1   
 31  16  20  1   
 32  16  32  1   
 33  16  33  1   
 34  17  34  1   
 35  17  35  1   
 36  17  36  1   
 37  18  20  1   
 38  18  37  1   
 39  18  38  1   
 40  19  21  1   
 41  19  39  1   
 42  19  40  1   
 43  20  41  1   
 44  20  42  1   
 45  21  43  1   
@<TRIPOS>SUBSTRUCTURE
  1 ****   9 GROUP 4 **** **** 0

# MOE 2024.06 (io_trps.svl 2023.06)
