@<TRIPOS>MOLECULE
NONAME
56 59 1 0 0 
SMALL
USER_CHARGES


@<TRIPOS>ATOM
  1 S       -3.9390    -0.2560     0.0400 S.3   1 <1>  -0.2820 
  2 C       -2.8360    -1.4200    -0.6410 C.2   1 <1>   0.6510 
  3 C       -2.7190     1.0040    -0.1460 C.2   1 <1>   0.5300 
  4 N       -3.1340    -2.6720    -0.7980 N.2   1 <1>  -0.6210 
  5 N       -1.6650    -0.7800    -0.9420 N.am  1 <1>  -0.0580 
  6 N       -1.6300     0.5930    -0.6500 N.2   1 <1>  -0.5120 
  7 C       -3.1230     2.3960     0.3140 C.3   1 <1>  -0.0990 
  8 C       -2.1470    -3.4470    -1.3500 C.2   1 <1>   0.0330 
  9 C       -0.6500    -1.5530    -1.4860 C.2   1 <1>   0.6160 
 10 C       -2.0180     3.4490     0.1300 C.3   1 <1>  -0.2400 
 11 C       -0.9360    -2.9280    -1.6870 C.2   1 <1>  -0.1360 
 12 C       -2.4950    -4.9220    -1.5550 C.3   1 <1>   0.4810 
 13 O        0.4420    -1.0930    -1.7770 O.2   1 <1>  -0.5700 
 14 N       -3.2490    -5.3860    -0.3620 N.4   1 <1>  -0.9590 
 15 C       -4.1500    -6.5420    -0.6930 C.3   1 <1>   0.3430 
 16 C       -2.3540    -5.6330     0.7990 C.3   1 <1>   0.3430 
 17 C       -4.7050    -7.3170     0.5270 C.3   1 <1>   0.0000 
 18 C       -3.1890    -5.8230     2.0640 C.3   1 <1>  -0.1600 
 19 C       -4.5710    -6.4360     1.7970 C.3   1 <1>   0.2000 
 20 C       -6.2180    -7.5360     0.2890 C.3   1 <1>   0.1200 
 21 C       -4.0430    -8.7290     0.6330 C.3   1 <1>  -0.0170 
 22 O       -4.9800    -7.1220     2.9220 O.3   1 <1>  -0.6800 
 23 O       -6.4250    -8.0250    -0.9960 O.3   1 <1>  -0.6800 
 24 C       -2.5200    -8.7620     0.6720 C.ar  1 <1>  -0.1440 
 25 C       -1.8460    -8.8110     1.8840 C.ar  1 <1>  -0.1500 
 26 C       -1.7870    -8.7690    -0.5070 C.ar  1 <1>  -0.1500 
 27 C       -0.4620    -8.8130     1.9180 C.ar  1 <1>  -0.1500 
 28 C       -0.4030    -8.7720    -0.4740 C.ar  1 <1>  -0.1500 
 29 C        0.2600    -8.7850     0.7390 C.ar  1 <1>  -0.1500 
 30 H       -3.9930     2.6980    -0.2400 H     1 <1>   0.0800 
 31 H       -3.3930     2.3460     1.3530 H     1 <1>   0.0800 
 32 H       -1.7460     3.5310    -0.9080 H     1 <1>   0.0800 
 33 H       -1.1420     3.1760     0.6930 H     1 <1>   0.0800 
 34 H       -2.3600     4.4100     0.4720 H     1 <1>   0.0800 
 35 H       -0.1420    -3.5100    -2.1190 H     1 <1>   0.1500 
 36 H       -1.6070    -5.5140    -1.7030 H     1 <1>   0.0800 
 37 H       -3.1190    -5.0040    -2.4300 H     1 <1>   0.0800 
 38 H       -3.8260    -4.5600    -0.1250 H     1 <1>   0.4500 
 39 H       -4.9810    -6.1670    -1.2680 H     1 <1>   0.0800 
 40 H       -3.6310    -7.2400    -1.3260 H     1 <1>   0.0800 
 41 H       -1.7560    -6.5100     0.6170 H     1 <1>   0.0800 
 42 H       -1.6830    -4.8010     0.9400 H     1 <1>   0.0800 
 43 H       -3.3300    -4.8620     2.5250 H     1 <1>   0.0800 
 44 H       -2.6230    -6.4180     2.7560 H     1 <1>   0.0800 
 45 H       -5.2580    -5.6120     1.6920 H     1 <1>   0.0800 
 46 H       -6.7670    -6.6130     0.3770 H     1 <1>   0.0800 
 47 H       -6.6200    -8.2440     0.9950 H     1 <1>   0.0800 
 48 H       -4.4260    -9.2460     1.4960 H     1 <1>   0.0800 
 49 H       -4.3460    -9.3230    -0.2120 H     1 <1>   0.0800 
 50 H       -4.3430    -7.8200     3.1700 H     1 <1>   0.4000 
 51 H       -7.3620    -8.2880    -1.1200 H     1 <1>   0.4000 
 52 H       -2.3870    -8.8560     2.8120 H     1 <1>   0.1500 
 53 H       -2.2830    -8.7890    -1.4620 H     1 <1>   0.1500 
 54 H        0.0550    -8.8490     2.8630 H     1 <1>   0.1500 
 55 H        0.1620    -8.7800    -1.3910 H     1 <1>   0.1500 
 56 H        1.3370    -8.7940     0.7670 H     1 <1>   0.1500 
@<TRIPOS>BOND
  1   1   2  1   
  2   1   3  1   
  3   2   4  2   
  4   2   5  1   
  5   3   6  2   
  6   3   7  1   
  7   4   8  1   
  8   5   6  1   
  9   5   9  am  
 10   7  10  1   
 11   7  30  1   
 12   7  31  1   
 13   8  11  2   
 14   8  12  1   
 15   9  11  1   
 16   9  13  2   
 17  10  32  1   
 18  10  33  1   
 19  10  34  1   
 20  11  35  1   
 21  12  14  1   
 22  12  36  1   
 23  12  37  1   
 24  14  15  1   
 25  14  16  1   
 26  14  38  1   
 27  15  17  1   
 28  15  39  1   
 29  15  40  1   
 30  16  18  1   
 31  16  41  1   
 32  16  42  1   
 33  17  19  1   
 34  17  20  1   
 35  17  21  1   
 36  18  19  1   
 37  18  43  1   
 38  18  44  1   
 39  19  22  1   
 40  19  45  1   
 41  20  23  1   
 42  20  46  1   
 43  20  47  1   
 44  21  24  1   
 45  21  48  1   
 46  21  49  1   
 47  22  50  1   
 48  23  51  1   
 49  24  25  ar  
 50  24  26  ar  
 51  25  27  ar  
 52  25  52  1   
 53  26  28  ar  
 54  26  53  1   
 55  27  29  ar  
 56  27  54  1   
 57  28  29  ar  
 58  28  55  1   
 59  29  56  1   
@<TRIPOS>SUBSTRUCTURE
  1 ****  14 GROUP 4 **** **** 0

# MOE 2024.06 (io_trps.svl 2023.06)
