@<TRIPOS>MOLECULE
NONAME
45 46 1 0 0 
SMALL
USER_CHARGES


@<TRIPOS>ATOM
  1 S       -0.0980     0.0990     0.1200 S.o2  1 <1>   1.3330 
  2 O       -0.0960    -0.6230     1.3720 O.2   1 <1>  -0.6500 
  3 O       -0.7130     1.4040     0.0520 O.2   1 <1>  -0.6500 
  4 N       -0.8320    -0.8950    -1.0450 N.am  1 <1>  -0.8490 
  5 C        1.5770     0.2500    -0.5030 C.3   1 <1>  -0.0550 
  6 C       -0.6120    -2.3270    -0.8120 C.3   1 <1>   0.1160 
  7 C       -2.2670    -0.6280    -1.1800 C.3   1 <1>   0.1160 
  8 C        2.4710     1.1710     0.3500 C.3   1 <1>  -0.0800 
  9 C        3.7900     1.4500    -0.3490 C.3   1 <1>   0.2200 
 10 C        2.9420     0.4860     1.6360 C.3   1 <1>   0.1200 
 11 N        4.3600     2.7050     0.1840 N.am  1 <1>  -0.7300 
 12 C        4.6450     0.2650     0.0900 C.3   1 <1>   0.1200 
 13 O        4.1440    -0.1560     1.3260 O.3   1 <1>  -0.5600 
 14 C        4.5720     3.8510    -0.5240 C.2   1 <1>   0.7160 
 15 O        4.3130     3.8460    -1.7130 O.2   1 <1>  -0.5700 
 16 C        5.0900     5.0170     0.1600 C.2   1 <1>  -0.0860 
 17 C        5.7770     6.1150    -0.3110 C.2   1 <1>  -0.3320 
 18 C        4.9600     5.2420     1.5470 C.2   1 <1>  -0.1500 
 19 N        6.0550     6.9680     0.7060 N.pl3 1 <1>   0.0480 
 20 C        6.2030     6.4050    -1.7450 C.3   1 <1>  -0.0600 
 21 C        5.5520     6.4230     1.8410 C.2   1 <1>  -0.3020 
 22 C        6.7660     8.2560     0.6250 C.3   1 <1>   0.0160 
 23 H        2.0240    -0.7230    -0.5700 H     1 <1>   0.0800 
 24 H        1.5210     0.6530    -1.4950 H     1 <1>   0.0800 
 25 H       -1.0160    -2.9010    -1.6280 H     1 <1>   0.0800 
 26 H       -1.0880    -2.6370     0.1040 H     1 <1>   0.0800 
 27 H        0.4420    -2.5350    -0.7400 H     1 <1>   0.0800 
 28 H       -2.6960    -1.2630    -1.9360 H     1 <1>   0.0800 
 29 H       -2.4260     0.3970    -1.4740 H     1 <1>   0.0800 
 30 H       -2.7700    -0.8000    -0.2430 H     1 <1>   0.0800 
 31 H        1.9380     2.0840     0.5570 H     1 <1>   0.0800 
 32 H        3.6990     1.5040    -1.4210 H     1 <1>   0.0800 
 33 H        2.2500    -0.2400     2.0230 H     1 <1>   0.0800 
 34 H        3.1530     1.2160     2.3980 H     1 <1>   0.0800 
 35 H        4.6800     2.6730     1.1520 H     1 <1>   0.3700 
 36 H        5.6850     0.5200     0.1900 H     1 <1>   0.0800 
 37 H        4.5370    -0.5550    -0.5980 H     1 <1>   0.0800 
 38 H        4.4620     4.5840     2.2370 H     1 <1>   0.1500 
 39 H        5.9910     5.5740    -2.3910 H     1 <1>   0.0800 
 40 H        7.2600     6.5960    -1.7870 H     1 <1>   0.0800 
 41 H        5.6750     7.2640    -2.1180 H     1 <1>   0.0800 
 42 H        5.6390     6.9060     2.7980 H     1 <1>   0.1500 
 43 H        6.7550     8.7350     1.5860 H     1 <1>   0.0800 
 44 H        6.2750     8.8850    -0.0940 H     1 <1>   0.0800 
 45 H        7.7810     8.0800     0.3220 H     1 <1>   0.0800 
@<TRIPOS>BOND
  1   1   2  2   
  2   1   3  2   
  3   1   4  am  
  4   1   5  1   
  5   4   6  1   
  6   4   7  1   
  7   5   8  1   
  8   5  23  1   
  9   5  24  1   
 10   6  25  1   
 11   6  26  1   
 12   6  27  1   
 13   7  28  1   
 14   7  29  1   
 15   7  30  1   
 16   8   9  1   
 17   8  10  1   
 18   8  31  1   
 19   9  11  1   
 20   9  12  1   
 21   9  32  1   
 22  10  13  1   
 23  10  33  1   
 24  10  34  1   
 25  11  14  am  
 26  11  35  1   
 27  12  13  1   
 28  12  36  1   
 29  12  37  1   
 30  14  15  2   
 31  14  16  1   
 32  16  17  2   
 33  16  18  1   
 34  17  19  1   
 35  17  20  1   
 36  18  21  2   
 37  18  38  1   
 38  19  21  1   
 39  19  22  1   
 40  20  39  1   
 41  20  40  1   
 42  20  41  1   
 43  21  42  1   
 44  22  43  1   
 45  22  44  1   
 46  22  45  1   
@<TRIPOS>SUBSTRUCTURE
  1 ****  11 GROUP 4 **** **** 0

# MOE 2024.06 (io_trps.svl 2023.06)
