@<TRIPOS>MOLECULE
NONAME
57 59 1 0 0 
SMALL
USER_CHARGES


@<TRIPOS>ATOM
  1 O        0.4290     0.7610    -0.2270 O.2   1 <1>  -0.5700 
  2 C        0.2800     1.9570    -0.1350 C.2   1 <1>   0.5690 
  3 N       -0.9390     2.5240     0.1260 N.am  1 <1>  -0.6600 
  4 C        1.5050     2.8500    -0.3500 C.3   1 <1>   0.1810 
  5 C       -1.0980     4.0130     0.2280 C.3   1 <1>   0.3640 
  6 C       -2.1400     1.7080     0.4690 C.3   1 <1>   0.0600 
  7 O        1.3500     4.1450     0.1770 O.3   1 <1>  -0.5600 
  8 C       -2.2980     4.4690    -0.6170 C.ar  1 <1>  -0.1430 
  9 C        0.1590     4.7930    -0.2250 C.3   1 <1>   0.2610 
 10 C       -3.3070     5.2890    -0.1100 C.ar  1 <1>  -0.1430 
 11 C       -2.3680     4.0590    -1.9450 C.ar  1 <1>  -0.1500 
 12 C        0.0860     6.2260     0.3290 C.2   1 <1>   0.5690 
 13 C       -4.3440     5.6890    -0.9400 C.ar  1 <1>  -0.1500 
 14 C       -3.3240     5.7730     1.3350 C.3   1 <1>  -0.0960 
 15 C       -3.4070     4.4610    -2.7630 C.ar  1 <1>  -0.1500 
 16 O        0.1300     6.3690     1.5320 O.2   1 <1>  -0.5700 
 17 N       -0.0570     7.3160    -0.5050 N.am  1 <1>  -0.6600 
 18 C       -4.3960     5.2810    -2.2590 C.ar  1 <1>  -0.1500 
 19 C       -0.0190     8.7010     0.0400 C.3   1 <1>   0.1400 
 20 C       -0.3100     7.2210    -1.9710 C.3   1 <1>   0.0600 
 21 C        1.3410     9.3330    -0.2590 C.3   1 <1>  -0.1600 
 22 C        1.4410    10.7220     0.3670 C.3   1 <1>   0.1200 
 23 O        2.6750    11.2860    -0.0110 O.3   1 <1>  -0.3630 
 24 C        3.0370    12.5280     0.3960 C.ar  1 <1>   0.0820 
 25 C        4.2610    12.9990    -0.0520 C.ar  1 <1>  -0.1500 
 26 C        2.2570    13.3330     1.2230 C.ar  1 <1>  -0.1500 
 27 C        4.7070    14.2570     0.3130 C.ar  1 <1>  -0.1500 
 28 C        2.7040    14.5910     1.5870 C.ar  1 <1>  -0.1500 
 29 C        3.9280    15.0540     1.1330 C.ar  1 <1>  -0.1500 
 30 H        1.7090     2.9320    -1.4010 H     1 <1>   0.0800 
 31 H        2.3560     2.4040     0.1330 H     1 <1>   0.0800 
 32 H       -1.2640     4.2390     1.2650 H     1 <1>   0.0800 
 33 H       -2.5540     2.0420     1.4040 H     1 <1>   0.0800 
 34 H       -1.8790     0.6680     0.5610 H     1 <1>   0.0800 
 35 H       -2.8840     1.8080    -0.3020 H     1 <1>   0.0800 
 36 H        0.1800     4.8260    -1.2960 H     1 <1>   0.0800 
 37 H       -1.6100     3.4110    -2.3520 H     1 <1>   0.1500 
 38 H       -5.1260     6.3240    -0.5620 H     1 <1>   0.1500 
 39 H       -4.2330     6.3020     1.5540 H     1 <1>   0.0800 
 40 H       -2.5020     6.4400     1.5180 H     1 <1>   0.0800 
 41 H       -3.2600     4.9400     2.0110 H     1 <1>   0.0800 
 42 H       -3.4480     4.1330    -3.7870 H     1 <1>   0.1500 
 43 H       -5.2080     5.5980    -2.8900 H     1 <1>   0.1500 
 44 H       -0.8100     9.2840    -0.4010 H     1 <1>   0.0800 
 45 H       -0.1810     8.6860     1.1050 H     1 <1>   0.0800 
 46 H       -0.5010     8.1950    -2.3870 H     1 <1>   0.0800 
 47 H       -1.1710     6.6020    -2.1560 H     1 <1>   0.0800 
 48 H        0.5500     6.8010    -2.4630 H     1 <1>   0.0800 
 49 H        1.4760     9.4160    -1.3220 H     1 <1>   0.0800 
 50 H        2.1160     8.7100     0.1530 H     1 <1>   0.0800 
 51 H        1.4100    10.6590     1.4420 H     1 <1>   0.0800 
 52 H        0.6550    11.3630     0.0060 H     1 <1>   0.0800 
 53 H        4.8600    12.3720    -0.6890 H     1 <1>   0.1500 
 54 H        1.3060    13.0000     1.5910 H     1 <1>   0.1500 
 55 H        5.6590    14.6140    -0.0410 H     1 <1>   0.1500 
 56 H        2.1010    15.2130     2.2260 H     1 <1>   0.1500 
 57 H        4.2740    16.0330     1.4180 H     1 <1>   0.1500 
@<TRIPOS>BOND
  1   1   2  2   
  2   2   3  am  
  3   2   4  1   
  4   3   5  1   
  5   3   6  1   
  6   4   7  1   
  7   4  30  1   
  8   4  31  1   
  9   5   8  1   
 10   5   9  1   
 11   5  32  1   
 12   6  33  1   
 13   6  34  1   
 14   6  35  1   
 15   7   9  1   
 16   8  10  ar  
 17   8  11  ar  
 18   9  12  1   
 19   9  36  1   
 20  10  13  ar  
 21  10  14  1   
 22  11  15  ar  
 23  11  37  1   
 24  12  16  2   
 25  12  17  am  
 26  13  18  ar  
 27  13  38  1   
 28  14  39  1   
 29  14  40  1   
 30  14  41  1   
 31  15  18  ar  
 32  15  42  1   
 33  17  19  1   
 34  17  20  1   
 35  18  43  1   
 36  19  21  1   
 37  19  44  1   
 38  19  45  1   
 39  20  46  1   
 40  20  47  1   
 41  20  48  1   
 42  21  22  1   
 43  21  49  1   
 44  21  50  1   
 45  22  23  1   
 46  22  51  1   
 47  22  52  1   
 48  23  24  1   
 49  24  25  ar  
 50  24  26  ar  
 51  25  27  ar  
 52  25  53  1   
 53  26  28  ar  
 54  26  54  1   
 55  27  29  ar  
 56  27  55  1   
 57  28  29  ar  
 58  28  56  1   
 59  29  57  1   
@<TRIPOS>SUBSTRUCTURE
  1 ****  17 GROUP 4 **** **** 0

# MOE 2024.06 (io_trps.svl 2023.06)
