@<TRIPOS>MOLECULE
NONAME
43 46 1 0 0 
SMALL
USER_CHARGES


@<TRIPOS>ATOM
  1 CL      -0.9810     0.8600    -2.6130 Cl    1 <1>  -0.1230 
  2 C       -1.6520     2.1790    -1.6680 C.2   1 <1>   0.1230 
  3 C       -2.7290     2.1050    -0.7810 C.2   1 <1>   0.2030 
  4 C       -1.2290     3.4520    -1.6860 C.2   1 <1>  -0.3020 
  5 N       -2.9520     3.3150    -0.2790 N.2   1 <1>  -0.7070 
  6 C       -3.4440     0.8690    -0.4920 C.2   1 <1>   0.7160 
  7 N       -2.0300     4.1170    -0.8350 N.pl3 1 <1>   0.3140 
  8 O       -2.8120    -0.1470    -0.2470 O.2   1 <1>  -0.5700 
  9 N       -4.8280     0.7750    -0.4840 N.am  1 <1>  -0.6600 
 10 C       -1.9530     5.5490    -0.5190 C.3   1 <1>   0.0160 
 11 C       -5.7450     1.8990    -0.8470 C.3   1 <1>   0.1400 
 12 C       -5.5000    -0.5020    -0.0970 C.3   1 <1>   0.1400 
 13 C       -6.7080     2.2190     0.3160 C.3   1 <1>   0.1430 
 14 C       -7.0170    -0.3290     0.0980 C.3   1 <1>  -0.1600 
 15 C       -7.7370     3.1980    -0.2240 C.ar  1 <1>   0.1670 
 16 C       -7.3360     0.9310     0.9210 C.3   1 <1>  -0.1600 
 17 C       -6.0080     3.0690     1.4100 C.3   1 <1>  -0.1600 
 18 N       -8.7500     2.8940    -1.0000 N.ar  1 <1>  -0.6200 
 19 C       -7.4650     4.4760     0.1730 C.ar  1 <1>  -0.1440 
 20 C       -6.2300     4.5430     1.0360 C.3   1 <1>  -0.0170 
 21 C       -9.4860     3.9350    -1.3580 C.ar  1 <1>   0.7200 
 22 C       -8.3090     5.4730    -0.2520 C.ar  1 <1>   0.1600 
 23 N       -9.3390     5.2100    -1.0240 N.ar  1 <1>  -0.6200 
 24 N      -10.5290     3.6620    -2.1410 N.pl3 1 <1>  -0.9000 
 25 H       -0.4290     3.9040    -2.2410 H     1 <1>   0.1500 
 26 H       -0.9430     5.7990    -0.2530 H     1 <1>   0.0800 
 27 H       -2.6060     5.7640     0.3060 H     1 <1>   0.0800 
 28 H       -2.2580     6.1160    -1.3780 H     1 <1>   0.0800 
 29 H       -6.3210     1.6000    -1.7060 H     1 <1>   0.0800 
 30 H       -5.2070     2.7830    -1.1320 H     1 <1>   0.0800 
 31 H       -5.0640    -0.8490     0.8250 H     1 <1>   0.0800 
 32 H       -5.3100    -1.2460    -0.8520 H     1 <1>   0.0800 
 33 H       -7.4100    -1.1980     0.5940 H     1 <1>   0.0800 
 34 H       -7.4960    -0.2660    -0.8640 H     1 <1>   0.0800 
 35 H       -8.4020     1.0450     1.0080 H     1 <1>   0.0800 
 36 H       -6.9510     0.7690     1.9130 H     1 <1>   0.0800 
 37 H       -4.9650     2.8300     1.5120 H     1 <1>   0.0800 
 38 H       -6.4870     2.9030     2.3590 H     1 <1>   0.0800 
 39 H       -5.4010     4.9140     0.4580 H     1 <1>   0.0800 
 40 H       -6.3770     5.1560     1.9080 H     1 <1>   0.0800 
 41 H       -8.1370     6.4940     0.0410 H     1 <1>   0.1500 
 42 H      -11.2510     4.3760    -2.1580 H     1 <1>   0.4000 
 43 H      -10.8370     2.6950    -2.1260 H     1 <1>   0.4000 
@<TRIPOS>BOND
  1   1   2  1   
  2   2   3  1   
  3   2   4  2   
  4   3   5  2   
  5   3   6  1   
  6   4   7  1   
  7   4  25  1   
  8   5   7  1   
  9   6   8  2   
 10   6   9  am  
 11   7  10  1   
 12   9  11  1   
 13   9  12  1   
 14  10  26  1   
 15  10  27  1   
 16  10  28  1   
 17  11  13  1   
 18  11  29  1   
 19  11  30  1   
 20  12  14  1   
 21  12  31  1   
 22  12  32  1   
 23  13  15  1   
 24  13  16  1   
 25  13  17  1   
 26  14  16  1   
 27  14  33  1   
 28  14  34  1   
 29  15  18  ar  
 30  15  19  ar  
 31  16  35  1   
 32  16  36  1   
 33  17  20  1   
 34  17  37  1   
 35  17  38  1   
 36  18  21  ar  
 37  19  20  1   
 38  19  22  ar  
 39  20  39  1   
 40  20  40  1   
 41  21  23  ar  
 42  21  24  1   
 43  22  23  ar  
 44  22  41  1   
 45  24  42  1   
 46  24  43  1   
@<TRIPOS>SUBSTRUCTURE
  1 ****  11 GROUP 4 **** **** 0

# MOE 2024.06 (io_trps.svl 2023.06)
