@<TRIPOS>MOLECULE
NONAME
43 45 1 0 0 
SMALL
USER_CHARGES


@<TRIPOS>ATOM
  1 N       -1.5060    -1.0090     0.8960 N.pl3 1 <1>  -0.7000 
  2 C       -1.8180     0.2730     1.1230 C.cat 1 <1>   0.7910 
  3 C       -1.3420    -1.1950    -0.4480 C.2   1 <1>   0.1820 
  4 N       -1.8560     0.9220    -0.0680 N.pl3 1 <1>  -0.6290 
  5 C       -2.0850     0.9630     2.3280 C.2   1 <1>  -0.1290 
  6 C       -1.5590    -0.0080    -1.0450 C.2   1 <1>   0.2000 
  7 C       -0.9750    -2.5400    -1.0640 C.3   1 <1>   0.2780 
  8 C       -2.1600     2.2620    -0.1290 C.2   1 <1>   0.2290 
  9 C       -2.3870     2.2990     2.2700 C.2   1 <1>  -0.1500 
 10 C       -2.0350     0.2350     3.6650 C.3   1 <1>  -0.1020 
 11 N       -2.1310    -3.4700    -1.0380 N.3   1 <1>  -0.8100 
 12 C       -2.4230     2.9490     1.0200 C.2   1 <1>  -0.1500 
 13 C       -1.9620    -4.4920     0.0230 C.3   1 <1>   0.2900 
 14 C       -2.3610    -4.1100    -2.3400 C.3   1 <1>   0.1100 
 15 C       -2.1980    -3.9100     1.4110 C.2   1 <1>   0.0060 
 16 C       -3.0180    -3.1150    -3.2950 C.3   1 <1>  -0.2400 
 17 N       -1.2520    -3.6160     2.2510 N.2   1 <1>  -0.5650 
 18 N       -3.4420    -3.6680     1.8930 N.pl3 1 <1>   0.0480 
 19 C       -1.9100    -3.2170     3.3550 C.2   1 <1>   0.0770 
 20 C       -3.2440    -3.2280     3.1480 C.2   1 <1>  -0.3020 
 21 C       -4.7410    -3.8500     1.2190 C.3   1 <1>   0.0160 
 22 H       -1.4590    -1.7810     1.5870 H     1 <1>   0.4500 
 23 H       -1.5250     0.2380    -2.0940 H     1 <1>   0.1500 
 24 H       -0.1350    -2.9540    -0.5320 H     1 <1>   0.0800 
 25 H       -0.6540    -2.3700    -2.0770 H     1 <1>   0.0800 
 26 H       -2.1820     2.7370    -1.0970 H     1 <1>   0.1500 
 27 H       -2.5990     2.8730     3.1580 H     1 <1>   0.1500 
 28 H       -1.1080    -0.3010     3.7660 H     1 <1>   0.0800 
 29 H       -2.8530    -0.4590     3.7370 H     1 <1>   0.0800 
 30 H       -2.1110     0.9300     4.4830 H     1 <1>   0.0800 
 31 H       -2.6630     3.9990     0.9910 H     1 <1>   0.1500 
 32 H       -0.9770    -4.9260    -0.0260 H     1 <1>   0.0800 
 33 H       -2.6700    -5.2900    -0.1210 H     1 <1>   0.0800 
 34 H       -3.0360    -4.9430    -2.2230 H     1 <1>   0.0800 
 35 H       -1.4370    -4.4840    -2.7510 H     1 <1>   0.0800 
 36 H       -3.9220    -2.7270    -2.8590 H     1 <1>   0.0800 
 37 H       -3.2760    -3.6170    -4.2100 H     1 <1>   0.0800 
 38 H       -2.3590    -2.3030    -3.5380 H     1 <1>   0.0800 
 39 H       -1.3830    -2.9460     4.2560 H     1 <1>   0.1500 
 40 H       -4.0450    -2.9690     3.8170 H     1 <1>   0.1500 
 41 H       -4.6810    -3.4660     0.2160 H     1 <1>   0.0800 
 42 H       -5.5050    -3.3190     1.7570 H     1 <1>   0.0800 
 43 H       -4.9840    -4.8960     1.1910 H     1 <1>   0.0800 
@<TRIPOS>BOND
  1   1   2  ar  
  2   1   3  1   
  3   1  22  1   
  4   2   4  ar  
  5   2   5  1   
  6   3   6  2   
  7   3   7  1   
  8   4   6  1   
  9   4   8  1   
 10   5   9  2   
 11   5  10  1   
 12   6  23  1   
 13   7  11  1   
 14   7  24  1   
 15   7  25  1   
 16   8  12  2   
 17   8  26  1   
 18   9  12  1   
 19   9  27  1   
 20  10  28  1   
 21  10  29  1   
 22  10  30  1   
 23  11  13  1   
 24  11  14  1   
 25  12  31  1   
 26  13  15  1   
 27  13  32  1   
 28  13  33  1   
 29  14  16  1   
 30  14  34  1   
 31  14  35  1   
 32  15  17  2   
 33  15  18  1   
 34  16  36  1   
 35  16  37  1   
 36  16  38  1   
 37  17  19  1   
 38  18  20  1   
 39  18  21  1   
 40  19  20  2   
 41  19  39  1   
 42  20  40  1   
 43  21  41  1   
 44  21  42  1   
 45  21  43  1   
@<TRIPOS>SUBSTRUCTURE
  1 ****   1 GROUP 4 **** **** 0

# MOE 2024.06 (io_trps.svl 2023.06)
