@<TRIPOS>MOLECULE
NONAME
51 54 1 0 0 
SMALL
USER_CHARGES


@<TRIPOS>ATOM
  1 O       -1.6470     0.5220    -2.8940 O.2   1 <1>  -0.5700 
  2 C       -1.9450     0.9550    -1.7960 C.2   1 <1>   0.5440 
  3 N       -2.6960     0.1770    -0.9380 N.am  1 <1>  -0.6600 
  4 C       -1.5420     2.3010    -1.4470 C.ar  1 <1>   0.0860 
  5 C       -2.8780    -1.3040    -1.1800 C.3   1 <1>   0.1400 
  6 C       -3.2870     0.7460     0.3120 C.3   1 <1>   0.1400 
  7 C       -0.6970     2.5780    -0.3680 C.ar  1 <1>   0.0820 
  8 C       -1.9990     3.3800    -2.2070 C.ar  1 <1>  -0.1500 
  9 C       -2.9010    -2.0900     0.1470 C.3   1 <1>  -0.1060 
 10 C       -4.4630    -0.0930     0.7930 C.3   1 <1>  -0.1600 
 11 O       -0.1920     1.5570     0.3660 O.3   1 <1>  -0.3630 
 12 C       -0.3650     3.8960    -0.0460 C.ar  1 <1>   0.0820 
 13 C       -1.6560     4.6840    -1.9000 C.ar  1 <1>  -0.1500 
 14 C       -3.2370    -3.5570    -0.0800 C.2   1 <1>   0.9060 
 15 C       -4.0980    -1.5710     0.9830 C.3   1 <1>   0.2000 
 16 C       -1.5100    -1.9950     0.8520 C.3   1 <1>  -0.0160 
 17 C        0.8910     1.8220     1.2320 C.3   1 <1>   0.1200 
 18 O        0.4240     4.1850     1.0220 O.3   1 <1>  -0.3630 
 19 C       -0.8390     4.9440    -0.8130 C.ar  1 <1>  -0.1500 
 20 O       -3.5870    -3.9580    -1.1950 O.co2 1 <1>  -0.9000 
 21 O       -3.2600    -4.2980     0.9160 O.co2 1 <1>  -0.9000 
 22 O       -3.8760    -1.8210     2.3240 O.3   1 <1>  -0.6800 
 23 C       -0.3430    -2.5420     0.0310 C.ar  1 <1>  -0.1440 
 24 C        0.6580     3.1500     1.9590 C.3   1 <1>   0.1200 
 25 C        0.4260    -1.7050    -0.7620 C.ar  1 <1>  -0.1500 
 26 C       -0.0330    -3.8930     0.0790 C.ar  1 <1>  -0.1500 
 27 C        1.4920    -2.2040    -1.4890 C.ar  1 <1>  -0.1500 
 28 C        1.0330    -4.3970    -0.6460 C.ar  1 <1>  -0.1500 
 29 C        1.7990    -3.5520    -1.4290 C.ar  1 <1>  -0.1500 
 30 H       -3.8050    -1.4560    -1.7040 H     1 <1>   0.0800 
 31 H       -2.0940    -1.6810    -1.8140 H     1 <1>   0.0800 
 32 H       -2.5390     0.7810     1.0830 H     1 <1>   0.0800 
 33 H       -3.6230     1.7510     0.1270 H     1 <1>   0.0800 
 34 H       -2.6320     3.1760    -3.0540 H     1 <1>   0.1500 
 35 H       -5.2310    -0.0290     0.0430 H     1 <1>   0.0800 
 36 H       -4.8660     0.3120     1.7030 H     1 <1>   0.0800 
 37 H       -2.0230     5.4970    -2.5030 H     1 <1>   0.1500 
 38 H       -4.9770    -2.1400     0.7200 H     1 <1>   0.0800 
 39 H       -1.2920    -0.9800     1.1160 H     1 <1>   0.0800 
 40 H       -1.5350    -2.5470     1.7740 H     1 <1>   0.0800 
 41 H        0.9650     1.0060     1.9290 H     1 <1>   0.0800 
 42 H        1.7890     1.8660     0.6410 H     1 <1>   0.0800 
 43 H       -0.5680     5.9530    -0.5580 H     1 <1>   0.1500 
 44 H       -3.6630    -2.7870     2.3770 H     1 <1>   0.4000 
 45 H        1.5160     3.4220     2.5460 H     1 <1>   0.0800 
 46 H       -0.2030     3.0780     2.6000 H     1 <1>   0.0800 
 47 H        0.1850    -0.6600    -0.8270 H     1 <1>   0.1500 
 48 H       -0.6370    -4.5570     0.6770 H     1 <1>   0.1500 
 49 H        2.0720    -1.5420    -2.1060 H     1 <1>   0.1500 
 50 H        1.2540    -5.4480    -0.6010 H     1 <1>   0.1500 
 51 H        2.6240    -3.9440    -1.9960 H     1 <1>   0.1500 
@<TRIPOS>BOND
  1   1   2  2   
  2   2   3  am  
  3   2   4  1   
  4   3   5  1   
  5   3   6  1   
  6   4   7  ar  
  7   4   8  ar  
  8   5   9  1   
  9   5  30  1   
 10   5  31  1   
 11   6  10  1   
 12   6  32  1   
 13   6  33  1   
 14   7  11  1   
 15   7  12  ar  
 16   8  13  ar  
 17   8  34  1   
 18   9  14  1   
 19   9  15  1   
 20   9  16  1   
 21  10  15  1   
 22  10  35  1   
 23  10  36  1   
 24  11  17  1   
 25  12  18  1   
 26  12  19  ar  
 27  13  19  ar  
 28  13  37  1   
 29  14  20  ar  
 30  14  21  ar  
 31  15  22  1   
 32  15  38  1   
 33  16  23  1   
 34  16  39  1   
 35  16  40  1   
 36  17  24  1   
 37  17  41  1   
 38  17  42  1   
 39  18  24  1   
 40  19  43  1   
 41  22  44  1   
 42  23  25  ar  
 43  23  26  ar  
 44  24  45  1   
 45  24  46  1   
 46  25  27  ar  
 47  25  47  1   
 48  26  28  ar  
 49  26  48  1   
 50  27  29  ar  
 51  27  49  1   
 52  28  29  ar  
 53  28  50  1   
 54  29  51  1   
@<TRIPOS>SUBSTRUCTURE
  1 ****   3 GROUP 4 **** **** 0

# MOE 2024.06 (io_trps.svl 2023.06)
