@<TRIPOS>MOLECULE
NONAME
50 52 1 0 0 
SMALL
USER_CHARGES


@<TRIPOS>ATOM
  1 O       -0.1090    -1.4390     0.3110 O.2   1 <1>  -0.5700 
  2 C       -0.7810    -2.4270     0.1380 C.2   1 <1>   0.6900 
  3 N       -1.6730    -2.5020    -0.8800 N.am  1 <1>  -0.4900 
  4 N       -0.6700    -3.5080     0.9680 N.am  1 <1>  -0.5390 
  5 C       -2.4520    -3.6010    -1.1110 C.2   1 <1>   0.6160 
  6 C       -1.4220    -4.6460     0.7920 C.2   1 <1>  -0.0410 
  7 O       -3.2060    -3.5510    -2.0610 O.2   1 <1>  -0.5700 
  8 C       -2.3320    -4.7240    -0.2250 C.2   1 <1>   0.0290 
  9 C       -3.1320    -5.8880    -0.4500 C.2   1 <1>   0.6160 
 10 O       -2.5580    -6.9160    -0.7650 O.2   1 <1>  -0.5700 
 11 N       -4.5010    -5.9210    -0.2460 N.am  1 <1>  -0.6600 
 12 C       -5.2850    -7.1700    -0.5300 C.3   1 <1>   0.1400 
 13 C       -5.2580    -4.8010     0.3900 C.3   1 <1>   0.1400 
 14 C       -6.5350    -6.9220    -1.3880 C.3   1 <1>   0.1400 
 15 C       -6.1500    -4.0980    -0.6420 C.3   1 <1>  -0.1600 
 16 N       -7.5810    -6.1770    -0.6220 N.am  1 <1>  -0.6600 
 17 C       -7.5600    -4.6920    -0.7630 C.3   1 <1>   0.1400 
 18 C       -8.4530    -6.8080     0.2470 C.2   1 <1>   0.5440 
 19 O       -9.1910    -6.1390     0.9440 O.2   1 <1>  -0.5700 
 20 C       -8.4920    -8.2500     0.3660 C.ar  1 <1>   0.0860 
 21 C       -7.9470    -8.8910     1.4770 C.ar  1 <1>  -0.1500 
 22 C       -9.0660    -9.0460    -0.6250 C.ar  1 <1>  -0.1500 
 23 C       -7.9530   -10.2690     1.5820 C.ar  1 <1>  -0.1500 
 24 C       -9.0780   -10.4250    -0.5270 C.ar  1 <1>  -0.1500 
 25 C       -8.5130   -11.0480     0.5830 C.ar  1 <1>   0.0830 
 26 O       -8.4740   -12.3880     0.7570 O.3   1 <1>  -0.3630 
 27 C       -9.0240   -13.2780    -0.1850 C.3   1 <1>   0.1200 
 28 C       -8.8070   -14.7000     0.3250 C.3   1 <1>  -0.2400 
 29 H       -1.7400    -1.7170    -1.5170 H     1 <1>   0.3700 
 30 H        0.0310    -3.4060     1.7060 H     1 <1>   0.3700 
 31 H       -1.2670    -5.4690     1.4730 H     1 <1>   0.1500 
 32 H       -5.5690    -7.6280     0.4000 H     1 <1>   0.0800 
 33 H       -4.6700    -7.8770    -1.0570 H     1 <1>   0.0800 
 34 H       -4.5740    -4.0830     0.8060 H     1 <1>   0.0800 
 35 H       -5.8560    -5.1790     1.2030 H     1 <1>   0.0800 
 36 H       -6.9270    -7.8700    -1.7080 H     1 <1>   0.0800 
 37 H       -6.2620    -6.3770    -2.2750 H     1 <1>   0.0800 
 38 H       -5.6730    -4.1020    -1.6050 H     1 <1>   0.0800 
 39 H       -6.2600    -3.0680    -0.3570 H     1 <1>   0.0800 
 40 H       -7.9830    -4.4240    -1.7160 H     1 <1>   0.0800 
 41 H       -8.1780    -4.2460    -0.0030 H     1 <1>   0.0800 
 42 H       -7.5170    -8.2940     2.2620 H     1 <1>   0.1500 
 43 H       -9.5090    -8.5660    -1.4810 H     1 <1>   0.1500 
 44 H       -7.5270   -10.7540     2.4430 H     1 <1>   0.1500 
 45 H       -9.5300   -10.9970    -1.3150 H     1 <1>   0.1500 
 46 H       -8.5230   -13.1310    -1.1260 H     1 <1>   0.0800 
 47 H      -10.0750   -13.0650    -0.2820 H     1 <1>   0.0800 
 48 H       -7.7560   -14.8970     0.4350 H     1 <1>   0.0800 
 49 H       -9.2180   -15.4050    -0.3740 H     1 <1>   0.0800 
 50 H       -9.2980   -14.8300     1.2730 H     1 <1>   0.0800 
@<TRIPOS>BOND
  1   1   2  2   
  2   2   3  am  
  3   2   4  am  
  4   3   5  am  
  5   3  29  1   
  6   4   6  1   
  7   4  30  1   
  8   5   7  2   
  9   5   8  1   
 10   6   8  2   
 11   6  31  1   
 12   8   9  1   
 13   9  10  2   
 14   9  11  am  
 15  11  12  1   
 16  11  13  1   
 17  12  14  1   
 18  12  32  1   
 19  12  33  1   
 20  13  15  1   
 21  13  34  1   
 22  13  35  1   
 23  14  16  1   
 24  14  36  1   
 25  14  37  1   
 26  15  17  1   
 27  15  38  1   
 28  15  39  1   
 29  16  17  1   
 30  16  18  am  
 31  17  40  1   
 32  17  41  1   
 33  18  19  2   
 34  18  20  1   
 35  20  21  ar  
 36  20  22  ar  
 37  21  23  ar  
 38  21  42  1   
 39  22  24  ar  
 40  22  43  1   
 41  23  25  ar  
 42  23  44  1   
 43  24  25  ar  
 44  24  45  1   
 45  25  26  1   
 46  26  27  1   
 47  27  28  1   
 48  27  46  1   
 49  27  47  1   
 50  28  48  1   
 51  28  49  1   
 52  28  50  1   
@<TRIPOS>SUBSTRUCTURE
  1 ****  12 GROUP 4 **** **** 0

# MOE 2024.06 (io_trps.svl 2023.06)
