@<TRIPOS>MOLECULE
NONAME
52 55 1 0 0 
SMALL
USER_CHARGES


@<TRIPOS>ATOM
  1 O       -0.5150     0.1810     0.4450 O.2   1 <1>  -0.5700 
  2 C       -1.4670     0.8900     0.7100 C.2   1 <1>   0.5440 
  3 N       -2.7050     0.3030     0.8590 N.am  1 <1>  -0.6600 
  4 C       -1.2860     2.3220     0.8350 C.ar  1 <1>   0.0860 
  5 C       -2.8670    -1.1830     0.9290 C.3   1 <1>   0.1400 
  6 C       -3.9770     0.9920     0.4880 C.3   1 <1>   0.1400 
  7 C       -0.5720     3.0390    -0.1130 C.ar  1 <1>  -0.1500 
  8 C       -1.8390     3.0270     1.9280 C.ar  1 <1>  -0.1500 
  9 C       -3.5280    -1.7200    -0.3520 C.3   1 <1>   0.3440 
 10 C       -4.5900     0.3490    -0.7780 C.3   1 <1>   0.2000 
 11 C       -0.4310     4.4160     0.0070 C.ar  1 <1>   0.2270 
 12 C       -1.7030     4.3890     2.0620 C.ar  1 <1>  -0.1500 
 13 O       -4.7310    -1.0340    -0.5960 O.3   1 <1>  -0.5600 
 14 C       -3.8060    -3.2150    -0.2270 C.ar  1 <1>  -0.1440 
 15 C       -5.9690     0.9210    -1.1790 C.3   1 <1>  -0.0800 
 16 N        0.2080     5.2950    -0.8140 N.2   1 <1>  -0.5650 
 17 C       -0.9900     5.0800     1.0810 C.ar  1 <1>  -0.1520 
 18 C       -2.8430    -4.1260    -0.6380 C.ar  1 <1>  -0.1500 
 19 C       -4.9980    -3.6910     0.3050 C.ar  1 <1>  -0.1500 
 20 C       -5.8890     2.4130    -1.5400 C.3   1 <1>  -0.2400 
 21 C       -7.0610     0.7050    -0.1170 C.3   1 <1>  -0.2400 
 22 C        0.0430     6.4390    -0.2510 C.2   1 <1>   0.0060 
 23 N       -0.6730     6.3850     0.9020 N.pl3 1 <1>   0.0330 
 24 C       -3.0660    -5.4870    -0.5210 C.ar  1 <1>  -0.1500 
 25 C       -5.2230    -5.0510     0.4220 C.ar  1 <1>  -0.1500 
 26 C        0.5890     7.7370    -0.8050 C.3   1 <1>  -0.0600 
 27 C       -4.2560    -5.9510     0.0100 C.ar  1 <1>  -0.1500 
 28 H       -1.9150    -1.6650     1.0660 H     1 <1>   0.0800 
 29 H       -3.4820    -1.4350     1.7740 H     1 <1>   0.0800 
 30 H       -4.6680     0.9140     1.3080 H     1 <1>   0.0800 
 31 H       -3.7990     2.0350     0.3000 H     1 <1>   0.0800 
 32 H       -0.1180     2.5440    -0.9510 H     1 <1>   0.1500 
 33 H       -2.3780     2.4650     2.6710 H     1 <1>   0.1500 
 34 H       -2.8740    -1.5500    -1.1900 H     1 <1>   0.0800 
 35 H       -3.9120     0.4980    -1.6020 H     1 <1>   0.0800 
 36 H       -2.1270     4.9160     2.8990 H     1 <1>   0.1500 
 37 H       -6.2700     0.3950    -2.0700 H     1 <1>   0.0800 
 38 H       -1.9110    -3.7790    -1.0520 H     1 <1>   0.1500 
 39 H       -5.7570    -2.9980     0.6250 H     1 <1>   0.1500 
 40 H       -5.6650     3.0130    -0.6770 H     1 <1>   0.0800 
 41 H       -6.8300     2.7440    -1.9430 H     1 <1>   0.0800 
 42 H       -5.1300     2.5790    -2.2850 H     1 <1>   0.0800 
 43 H       -6.8540     1.2620     0.7780 H     1 <1>   0.0800 
 44 H       -7.1340    -0.3390     0.1360 H     1 <1>   0.0800 
 45 H       -8.0150     1.0210    -0.4990 H     1 <1>   0.0800 
 46 H       -0.9170     7.1660     1.5140 H     1 <1>   0.2700 
 47 H       -2.3130    -6.1850    -0.8430 H     1 <1>   0.1500 
 48 H       -6.1500    -5.4080     0.8340 H     1 <1>   0.1500 
 49 H        1.1180     7.5450    -1.7220 H     1 <1>   0.0800 
 50 H        1.2690     8.1830    -0.1030 H     1 <1>   0.0800 
 51 H       -0.2150     8.4200    -1.0100 H     1 <1>   0.0800 
 52 H       -4.4300    -7.0090     0.1000 H     1 <1>   0.1500 
@<TRIPOS>BOND
  1   1   2  2   
  2   2   3  am  
  3   2   4  1   
  4   3   5  1   
  5   3   6  1   
  6   4   7  ar  
  7   4   8  ar  
  8   5   9  1   
  9   5  28  1   
 10   5  29  1   
 11   6  10  1   
 12   6  30  1   
 13   6  31  1   
 14   7  11  ar  
 15   7  32  1   
 16   8  12  ar  
 17   8  33  1   
 18   9  13  1   
 19   9  14  1   
 20   9  34  1   
 21  10  13  1   
 22  10  15  1   
 23  10  35  1   
 24  11  16  1   
 25  11  17  ar  
 26  12  17  ar  
 27  12  36  1   
 28  14  18  ar  
 29  14  19  ar  
 30  15  20  1   
 31  15  21  1   
 32  15  37  1   
 33  16  22  2   
 34  17  23  1   
 35  18  24  ar  
 36  18  38  1   
 37  19  25  ar  
 38  19  39  1   
 39  20  40  1   
 40  20  41  1   
 41  20  42  1   
 42  21  43  1   
 43  21  44  1   
 44  21  45  1   
 45  22  23  1   
 46  22  26  1   
 47  23  46  1   
 48  24  27  ar  
 49  24  47  1   
 50  25  27  ar  
 51  25  48  1   
 52  26  49  1   
 53  26  50  1   
 54  26  51  1   
 55  27  52  1   
@<TRIPOS>SUBSTRUCTURE
  1 ****   3 GROUP 4 **** **** 0

# MOE 2024.06 (io_trps.svl 2023.06)
