@<TRIPOS>MOLECULE
Untitled Document
43 46 1 0 0 
SMALL
USER_CHARGES


@<TRIPOS>ATOM
  1 S        0.1440    -0.0170    -0.8600 S.o2  1 <1>   1.2040 
  2 O        1.2610    -0.8340    -0.4430 O.2   1 <1>  -0.6500 
  3 O        0.1450     0.5980    -2.1680 O.2   1 <1>  -0.6500 
  4 C       -1.4010    -0.9280    -0.6200 C.ar  1 <1>  -0.0090 
  5 C       -0.0170     1.2960     0.3340 C.3   1 <1>  -0.1350 
  6 C       -2.5420    -0.6170    -1.3480 C.ar  1 <1>  -0.1500 
  7 C       -1.4970    -1.9460     0.3200 C.ar  1 <1>  -0.1500 
  8 C       -3.7310    -1.2950    -1.1460 C.ar  1 <1>  -0.1500 
  9 C       -2.6850    -2.6220     0.5240 C.ar  1 <1>  -0.1500 
 10 C       -3.8300    -2.3140    -0.2040 C.ar  1 <1>   0.0280 
 11 C       -5.0560    -3.0400     0.0170 C.2   1 <1>  -0.1670 
 12 C       -5.2460    -4.3720     0.1320 C.2   1 <1>  -0.1670 
 13 C       -6.3500    -2.2680     0.1880 C.3   1 <1>   0.0730 
 14 C       -4.2890    -5.4450     0.0120 C.ar  1 <1>   0.0280 
 15 C       -6.6960    -4.7120     0.4150 C.3   1 <1>   0.0730 
 16 C       -7.4150    -3.3700     0.2350 C.3   1 <1>  -0.1900 
 17 C       -3.3330    -5.4270    -1.0060 C.ar  1 <1>  -0.1500 
 18 C       -4.2820    -6.5240     0.9000 C.ar  1 <1>  -0.1500 
 19 C       -8.5330    -3.3060    -0.7700 C.3   1 <1>  -0.2000 
 20 C       -8.8260    -3.1290     0.6830 C.3   1 <1>  -0.2000 
 21 C       -2.3990    -6.4380    -1.1390 C.ar  1 <1>  -0.1500 
 22 C       -3.3560    -7.5460     0.7820 C.ar  1 <1>  -0.1500 
 23 C       -2.4270    -7.4830    -0.2380 C.ar  1 <1>   0.1900 
 24 F       -1.5490    -8.4410    -0.3530 F     1 <1>  -0.1900 
 25 H        0.8490     1.9280     0.3000 H     1 <1>   0.0800 
 26 H       -0.1060     0.8920     1.3240 H     1 <1>   0.0800 
 27 H       -0.8830     1.8910     0.1220 H     1 <1>   0.0800 
 28 H       -2.4980     0.1630    -2.0910 H     1 <1>   0.1500 
 29 H       -0.6290    -2.2190     0.8970 H     1 <1>   0.1500 
 30 H       -4.5900    -1.0370    -1.7390 H     1 <1>   0.1500 
 31 H       -2.7310    -3.4090     1.2570 H     1 <1>   0.1500 
 32 H       -6.5280    -1.5880    -0.6240 H     1 <1>   0.0800 
 33 H       -6.3270    -1.7260     1.1170 H     1 <1>   0.0800 
 34 H       -6.8070    -5.0570     1.4270 H     1 <1>   0.0800 
 35 H       -7.0620    -5.4580    -0.2680 H     1 <1>   0.0800 
 36 H       -3.3280    -4.6060    -1.7020 H     1 <1>   0.1500 
 37 H       -5.0030    -6.5610     1.6960 H     1 <1>   0.1500 
 38 H       -8.8720    -4.2090    -1.2480 H     1 <1>   0.1000 
 39 H       -8.6300    -2.4480    -1.4120 H     1 <1>   0.1000 
 40 H       -9.0970    -2.1510     1.0400 H     1 <1>   0.1000 
 41 H       -9.3470    -3.9140     1.2040 H     1 <1>   0.1000 
 42 H       -1.6630    -6.4190    -1.9220 H     1 <1>   0.1500 
 43 H       -3.3480    -8.3750     1.4660 H     1 <1>   0.1500 
@<TRIPOS>BOND
  1   1   2  2   
  2   1   3  2   
  3   1   4  1   
  4   1   5  1   
  5   4   6  ar  
  6   4   7  ar  
  7   5  25  1   
  8   5  26  1   
  9   5  27  1   
 10   6   8  ar  
 11   6  28  1   
 12   7   9  ar  
 13   7  29  1   
 14   8  10  ar  
 15   8  30  1   
 16   9  10  ar  
 17   9  31  1   
 18  10  11  1   
 19  11  12  2   
 20  11  13  1   
 21  12  14  1   
 22  12  15  1   
 23  13  16  1   
 24  13  32  1   
 25  13  33  1   
 26  14  17  ar  
 27  14  18  ar  
 28  15  16  1   
 29  15  34  1   
 30  15  35  1   
 31  16  19  1   
 32  16  20  1   
 33  17  21  ar  
 34  17  36  1   
 35  18  22  ar  
 36  18  37  1   
 37  19  20  1   
 38  19  38  1   
 39  19  39  1   
 40  20  40  1   
 41  20  41  1   
 42  21  23  ar  
 43  21  42  1   
 44  22  23  ar  
 45  22  43  1   
 46  23  24  1   
@<TRIPOS>SUBSTRUCTURE
  1 ****  10 GROUP 4 **** **** 0

# MOE 2024.06 (io_trps.svl 2023.06)
