@<TRIPOS>MOLECULE
NONAME
40 41 1 0 0 
SMALL
USER_CHARGES


@<TRIPOS>ATOM
  1 S       -0.2040    -0.2270    -1.1340 S.o2  1 <1>   1.4470 
  2 O        0.3930    -1.3300    -1.8610 O.2   1 <1>  -0.6500 
  3 O       -1.2590     0.5130    -1.7970 O.2   1 <1>  -0.6500 
  4 N       -0.8040    -0.8410     0.3360 N.am  1 <1>  -0.8490 
  5 C        1.1590     0.8490    -0.5970 C.ar  1 <1>  -0.0090 
  6 C       -1.0490    -2.2930     0.3840 C.3   1 <1>   0.1960 
  7 C       -1.8660    -0.0480     0.9790 C.3   1 <1>   0.1960 
  8 C        0.9600     2.1610    -0.1670 C.ar  1 <1>   0.0820 
  9 C        2.4600     0.3540    -0.5870 C.ar  1 <1>  -0.1500 
 10 C       -2.3360    -2.7050    -0.3420 C.3   1 <1>  -0.1860 
 11 C       -3.2520    -0.7080     0.9100 C.3   1 <1>  -0.1600 
 12 O       -0.3020     2.6530    -0.1530 O.3   1 <1>  -0.3620 
 13 C        2.0400     2.9390     0.2430 C.ar  1 <1>  -0.1500 
 14 C        3.5380     1.1230    -0.1840 C.ar  1 <1>  -0.1440 
 15 C       -2.7610    -4.0130     0.2970 C.2   1 <1>   0.9060 
 16 C       -3.3870    -1.5750    -0.3370 C.3   1 <1>   0.2000 
 17 C       -0.5630     4.0390    -0.1840 C.3   1 <1>   0.0400 
 18 C        3.3210     2.4230     0.2320 C.ar  1 <1>  -0.1500 
 19 C        4.9410     0.5420    -0.1940 C.3   1 <1>  -0.0970 
 20 O       -2.0530    -5.0060     0.1090 O.co2 1 <1>  -0.9000 
 21 O       -3.7620    -4.0560     1.0260 O.co2 1 <1>  -0.9000 
 22 O       -4.6650    -2.0870    -0.3620 O.3   1 <1>  -0.6800 
 23 H       -0.2120    -2.8400    -0.0180 H     1 <1>   0.0800 
 24 H       -1.1310    -2.5770     1.4210 H     1 <1>   0.0800 
 25 H       -1.6070     0.0990     2.0140 H     1 <1>   0.0800 
 26 H       -1.9260     0.9260     0.5280 H     1 <1>   0.0800 
 27 H        2.6300    -0.6620    -0.9040 H     1 <1>   0.1500 
 28 H       -2.0910    -2.9250    -1.3630 H     1 <1>   0.0800 
 29 H       -4.0080     0.0560     0.9100 H     1 <1>   0.0800 
 30 H       -3.3920    -1.3220     1.7820 H     1 <1>   0.0800 
 31 H        1.9020     3.9480     0.5820 H     1 <1>   0.1500 
 32 H       -3.2730    -0.9600    -1.2130 H     1 <1>   0.0800 
 33 H       -1.6150     4.1750    -0.3600 H     1 <1>   0.0800 
 34 H        0.0020     4.4840    -0.9850 H     1 <1>   0.0800 
 35 H       -0.2930     4.4690     0.7640 H     1 <1>   0.0800 
 36 H        4.1470     3.0340     0.5530 H     1 <1>   0.1500 
 37 H        5.6680     1.3150    -0.3670 H     1 <1>   0.0800 
 38 H        5.0380    -0.1930    -0.9730 H     1 <1>   0.0800 
 39 H        5.1480     0.0740     0.7510 H     1 <1>   0.0800 
 40 H       -4.6380    -2.8990     0.2310 H     1 <1>   0.4000 
@<TRIPOS>BOND
  1   1   2  2   
  2   1   3  2   
  3   1   4  am  
  4   1   5  1   
  5   4   6  1   
  6   4   7  1   
  7   5   8  ar  
  8   5   9  ar  
  9   6  10  1   
 10   6  23  1   
 11   6  24  1   
 12   7  11  1   
 13   7  25  1   
 14   7  26  1   
 15   8  12  1   
 16   8  13  ar  
 17   9  14  ar  
 18   9  27  1   
 19  10  15  1   
 20  10  16  1   
 21  10  28  1   
 22  11  16  1   
 23  11  29  1   
 24  11  30  1   
 25  12  17  1   
 26  13  18  ar  
 27  13  31  1   
 28  14  18  ar  
 29  14  19  1   
 30  15  20  ar  
 31  15  21  ar  
 32  16  22  1   
 33  16  32  1   
 34  17  33  1   
 35  17  34  1   
 36  17  35  1   
 37  18  36  1   
 38  19  37  1   
 39  19  38  1   
 40  19  39  1   
 41  22  40  1   
@<TRIPOS>SUBSTRUCTURE
  1 ****   4 GROUP 4 **** **** 0

# MOE 2024.06 (io_trps.svl 2023.06)
