@<TRIPOS>MOLECULE
NONAME
51 54 1 0 0 
SMALL
USER_CHARGES


@<TRIPOS>ATOM
  1 N        0.4720     0.3100     0.6470 N.ar  1 <1>  -0.6200 
  2 C       -0.4570     1.2120     0.9790 C.ar  1 <1>   0.7200 
  3 C        1.2430     0.6600    -0.3500 C.ar  1 <1>   0.1660 
  4 N       -0.6440     2.4020     0.3980 N.ar  1 <1>  -0.6200 
  5 N       -1.2940     0.8860     2.0250 N.pl3 1 <1>  -0.8380 
  6 C        1.1370     1.8450    -1.0090 C.ar  1 <1>  -0.1430 
  7 C        2.3670    -0.1880    -0.8900 C.3   1 <1>   0.1430 
  8 C        0.1550     2.7100    -0.5960 C.ar  1 <1>   0.1600 
  9 C       -2.1250     1.9160     2.7090 C.3   1 <1>   0.1290 
 10 C       -1.5910    -0.5230     2.4020 C.3   1 <1>   0.1290 
 11 C        2.1690     1.9710    -2.1010 C.3   1 <1>  -0.0160 
 12 C        3.2060    -0.6780     0.3020 C.3   1 <1>   0.3430 
 13 C        1.7990    -1.3860    -1.6810 C.3   1 <1>  -0.1600 
 14 C        3.1360     0.8080    -1.8000 C.3   1 <1>  -0.1600 
 15 N        4.2620    -1.6640    -0.1170 N.4   1 <1>  -0.9590 
 16 C        2.8830    -2.4260    -2.0160 C.3   1 <1>  -0.1600 
 17 C        3.6660    -2.8600    -0.7730 C.3   1 <1>   0.3430 
 18 C        5.1350    -2.0260     1.0250 C.3   1 <1>   0.5240 
 19 C        6.0060    -0.8260     1.3030 C.2   1 <1>  -0.1810 
 20 C        5.8050     0.1120     2.3100 C.2   1 <1>   0.1390 
 21 C        7.1180    -0.4040     0.6600 C.2   1 <1>  -0.3020 
 22 N        6.7010     1.0440     2.2850 N.2   1 <1>  -0.7070 
 23 N        7.5230     0.7250     1.2750 N.pl3 1 <1>   0.3140 
 24 C        8.7010     1.5440     0.9560 C.3   1 <1>   0.0160 
 25 H        0.0230     3.6620    -1.0820 H     1 <1>   0.1500 
 26 H       -1.6180     2.8660     2.7110 H     1 <1>   0.0800 
 27 H       -2.3090     1.6270     3.7290 H     1 <1>   0.0800 
 28 H       -3.0630     2.0230     2.1930 H     1 <1>   0.0800 
 29 H       -1.2870    -1.2010     1.6230 H     1 <1>   0.0800 
 30 H       -2.6490    -0.6450     2.5580 H     1 <1>   0.0800 
 31 H       -1.0680    -0.7710     3.3080 H     1 <1>   0.0800 
 32 H        2.6680     2.9240    -2.0690 H     1 <1>   0.0800 
 33 H        1.6960     1.8390    -3.0600 H     1 <1>   0.0800 
 34 H        2.5420    -1.1400     1.0150 H     1 <1>   0.0800 
 35 H        3.6570     0.1770     0.7800 H     1 <1>   0.0800 
 36 H        1.3220    -1.0400    -2.5830 H     1 <1>   0.0800 
 37 H        1.0370    -1.8620    -1.0850 H     1 <1>   0.0800 
 38 H        3.4920     0.3590    -2.7100 H     1 <1>   0.0800 
 39 H        3.9800     1.2110    -1.2660 H     1 <1>   0.0800 
 40 H        4.8750    -1.1860    -0.7890 H     1 <1>   0.4500 
 41 H        3.5640    -2.0350    -2.7510 H     1 <1>   0.0800 
 42 H        2.4140    -3.2920    -2.4500 H     1 <1>   0.0800 
 43 H        3.0000    -3.3600    -0.0870 H     1 <1>   0.0800 
 44 H        4.4410    -3.5530    -1.0620 H     1 <1>   0.0800 
 45 H        5.7620    -2.8630     0.7650 H     1 <1>   0.0800 
 46 H        4.5490    -2.2830     1.8930 H     1 <1>   0.0800 
 47 H        5.0070     0.0950     3.0360 H     1 <1>   0.1500 
 48 H        7.6490    -0.8250    -0.1760 H     1 <1>   0.1500 
 49 H        9.0200     1.3480    -0.0490 H     1 <1>   0.0800 
 50 H        9.4890     1.3030     1.6450 H     1 <1>   0.0800 
 51 H        8.4430     2.5820     1.0600 H     1 <1>   0.0800 
@<TRIPOS>BOND
  1   1   2  ar  
  2   1   3  ar  
  3   2   4  ar  
  4   2   5  1   
  5   3   6  ar  
  6   3   7  1   
  7   4   8  ar  
  8   5   9  1   
  9   5  10  1   
 10   6   8  ar  
 11   6  11  1   
 12   7  12  1   
 13   7  13  1   
 14   7  14  1   
 15   8  25  1   
 16   9  26  1   
 17   9  27  1   
 18   9  28  1   
 19  10  29  1   
 20  10  30  1   
 21  10  31  1   
 22  11  14  1   
 23  11  32  1   
 24  11  33  1   
 25  12  15  1   
 26  12  34  1   
 27  12  35  1   
 28  13  16  1   
 29  13  36  1   
 30  13  37  1   
 31  14  38  1   
 32  14  39  1   
 33  15  17  1   
 34  15  18  1   
 35  15  40  1   
 36  16  17  1   
 37  16  41  1   
 38  16  42  1   
 39  17  43  1   
 40  17  44  1   
 41  18  19  1   
 42  18  45  1   
 43  18  46  1   
 44  19  20  1   
 45  19  21  2   
 46  20  22  2   
 47  20  47  1   
 48  21  23  1   
 49  21  48  1   
 50  22  23  1   
 51  23  24  1   
 52  24  49  1   
 53  24  50  1   
 54  24  51  1   
@<TRIPOS>SUBSTRUCTURE
  1 ****  12 GROUP 4 **** **** 0

# MOE 2024.06 (io_trps.svl 2023.06)
