@<TRIPOS>MOLECULE
NONAME
45 47 1 0 0 
SMALL
USER_CHARGES


@<TRIPOS>ATOM
  1 S        0.7080    -0.0370    -0.4570 S.3   1 <1>  -0.0800 
  2 C       -0.6580     1.0320    -0.7090 C.2   1 <1>  -0.0450 
  3 C       -0.3740    -1.2900     0.0940 C.2   1 <1>   0.1980 
  4 C       -1.7690     0.3390    -0.3720 C.2   1 <1>   0.0460 
  5 C       -0.4400     2.3600    -1.2190 C.2   1 <1>   0.7150 
  6 N       -1.5980    -0.9470     0.0890 N.2   1 <1>  -0.5650 
  7 C        0.2530    -2.6140     0.5040 C.3   1 <1>   0.0200 
  8 C       -3.1990     0.8330    -0.4540 C.3   1 <1>  -0.0590 
  9 O       -1.0840     2.7480    -2.1720 O.2   1 <1>  -0.5700 
 10 N        0.4930     3.2240    -0.6720 N.am  1 <1>  -0.6600 
 11 C       -0.7750    -3.6350     1.0080 C.3   1 <1>  -0.2400 
 12 C        1.0000     3.0570     0.7430 C.3   1 <1>   0.2200 
 13 C        0.8330     4.4760    -1.4240 C.3   1 <1>   0.1400 
 14 C        0.7460     4.2970     1.6160 C.3   1 <1>   0.1200 
 15 C        2.5010     2.6740     0.7560 C.3   1 <1>   0.3430 
 16 C        2.0570     5.2530    -0.9030 C.3   1 <1>  -0.0800 
 17 O        1.7930     5.2110     1.4920 O.3   1 <1>  -0.5600 
 18 N        3.1850     2.9800    -0.5490 N.4   1 <1>  -0.9590 
 19 C        1.7410     6.0370     0.3800 C.3   1 <1>   0.1200 
 20 C        3.3690     4.4490    -0.7850 C.3   1 <1>   0.3430 
 21 C        4.4760     2.2430    -0.6740 C.3   1 <1>   0.2630 
 22 H        0.7710    -3.0260    -0.3440 H     1 <1>   0.0800 
 23 H        0.9740    -2.4300     1.2800 H     1 <1>   0.0800 
 24 H       -3.2420     1.8430    -0.8190 H     1 <1>   0.0800 
 25 H       -3.6530     0.7930     0.5190 H     1 <1>   0.0800 
 26 H       -3.7580     0.2020    -1.1210 H     1 <1>   0.0800 
 27 H       -1.4960    -3.8440     0.2360 H     1 <1>   0.0800 
 28 H       -1.2970    -3.2450     1.8640 H     1 <1>   0.0800 
 29 H       -0.2880    -4.5520     1.2850 H     1 <1>   0.0800 
 30 H        0.4530     2.2610     1.2180 H     1 <1>   0.0800 
 31 H        1.0070     4.2130    -2.4550 H     1 <1>   0.0800 
 32 H       -0.0300     5.1230    -1.4140 H     1 <1>   0.0800 
 33 H        0.7240     4.0000     2.6510 H     1 <1>   0.0800 
 34 H       -0.1940     4.7680     1.3830 H     1 <1>   0.0800 
 35 H        2.5680     1.6160     0.9490 H     1 <1>   0.0800 
 36 H        2.9970     3.1810     1.5670 H     1 <1>   0.0800 
 37 H        2.2450     6.0150    -1.6380 H     1 <1>   0.0800 
 38 H        2.5230     2.6520    -1.2720 H     1 <1>   0.4500 
 39 H        0.7740     6.5120     0.3340 H     1 <1>   0.0800 
 40 H        2.4800     6.8060     0.5300 H     1 <1>   0.0800 
 41 H        3.9680     4.8710     0.0070 H     1 <1>   0.0800 
 42 H        3.9150     4.5770    -1.7050 H     1 <1>   0.0800 
 43 H        5.1670     2.5690     0.0870 H     1 <1>   0.0800 
 44 H        4.9170     2.4220    -1.6410 H     1 <1>   0.0800 
 45 H        4.3130     1.1830    -0.5630 H     1 <1>   0.0800 
@<TRIPOS>BOND
  1   1   2  1   
  2   1   3  1   
  3   2   4  2   
  4   2   5  1   
  5   3   6  2   
  6   3   7  1   
  7   4   6  1   
  8   4   8  1   
  9   5   9  2   
 10   5  10  am  
 11   7  11  1   
 12   7  22  1   
 13   7  23  1   
 14   8  24  1   
 15   8  25  1   
 16   8  26  1   
 17  10  12  1   
 18  10  13  1   
 19  11  27  1   
 20  11  28  1   
 21  11  29  1   
 22  12  14  1   
 23  12  15  1   
 24  12  30  1   
 25  13  16  1   
 26  13  31  1   
 27  13  32  1   
 28  14  17  1   
 29  14  33  1   
 30  14  34  1   
 31  15  18  1   
 32  15  35  1   
 33  15  36  1   
 34  16  19  1   
 35  16  20  1   
 36  16  37  1   
 37  17  19  1   
 38  18  20  1   
 39  18  21  1   
 40  18  38  1   
 41  19  39  1   
 42  19  40  1   
 43  20  41  1   
 44  20  42  1   
 45  21  43  1   
 46  21  44  1   
 47  21  45  1   
@<TRIPOS>SUBSTRUCTURE
  1 ****  10 GROUP 4 **** **** 0

# MOE 2024.06 (io_trps.svl 2023.06)
