@<TRIPOS>MOLECULE
NONAME
45 47 1 0 0 
SMALL
USER_CHARGES


@<TRIPOS>ATOM
  1 O       -0.6600     0.3990     1.4400 O.2   1 <1>  -0.5700 
  2 C       -1.6710     0.9660     1.0620 C.2   1 <1>   0.7160 
  3 N       -2.8640     0.2700     1.1560 N.am  1 <1>  -0.6600 
  4 C       -1.5570     2.3190     0.5310 C.2   1 <1>   0.2030 
  5 C       -2.9080    -1.2250     1.1580 C.3   1 <1>   0.1400 
  6 C       -4.2280     0.8610     1.0220 C.3   1 <1>   0.1400 
  7 N       -2.3480     2.9250    -0.3100 N.2   1 <1>  -0.4100 
  8 C       -0.5180     3.1880     0.8360 C.2   1 <1>  -0.1500 
  9 C       -3.7050    -1.7440    -0.0560 C.3   1 <1>   0.3440 
 10 C       -4.9250     0.2860    -0.2320 C.3   1 <1>   0.2000 
 11 O       -1.9100     4.1330    -0.5680 O.3   1 <1>  -0.0190 
 12 C       -0.8040     4.2810     0.1260 C.2   1 <1>  -0.0100 
 13 O       -4.9610    -1.1170    -0.1250 O.3   1 <1>  -0.5600 
 14 C       -3.8970    -3.2550     0.0330 C.ar  1 <1>  -0.1430 
 15 C       -6.3670     0.8230    -0.4810 C.3   1 <1>   0.0000 
 16 C       -2.9840    -4.1020    -0.5790 C.ar  1 <1>  -0.1500 
 17 C       -4.9640    -3.8070     0.7300 C.ar  1 <1>  -0.1500 
 18 C       -6.9250     0.2090    -1.7790 C.3   1 <1>  -0.2400 
 19 C       -7.3260     0.4710     0.6710 C.3   1 <1>  -0.2400 
 20 C       -6.3560     2.3530    -0.6590 C.3   1 <1>  -0.2400 
 21 C       -3.1330    -5.4760    -0.4960 C.ar  1 <1>  -0.1500 
 22 C       -5.1150    -5.1800     0.8150 C.ar  1 <1>  -0.1500 
 23 C       -4.1990    -6.0160     0.2020 C.ar  1 <1>  -0.1500 
 24 H       -1.9160    -1.6390     1.1270 H     1 <1>   0.0800 
 25 H       -3.3780    -1.5680     2.0630 H     1 <1>   0.0800 
 26 H       -4.8020     0.6060     1.8940 H     1 <1>   0.0800 
 27 H       -4.1820     1.9310     0.9750 H     1 <1>   0.0800 
 28 H        0.3040     2.9770     1.4970 H     1 <1>   0.1500 
 29 H       -3.1740    -1.5080    -0.9620 H     1 <1>   0.0800 
 30 H       -4.3280     0.5330    -1.0930 H     1 <1>   0.0800 
 31 H       -0.2750     5.2140     0.0510 H     1 <1>   0.1500 
 32 H       -2.1500    -3.6980    -1.1260 H     1 <1>   0.1500 
 33 H       -5.6840    -3.1640     1.2060 H     1 <1>   0.1500 
 34 H       -7.9070     0.5900    -1.9920 H     1 <1>   0.0800 
 35 H       -6.9940    -0.8620    -1.6910 H     1 <1>   0.0800 
 36 H       -6.2830     0.4370    -2.6110 H     1 <1>   0.0800 
 37 H       -8.3250     0.7990     0.4430 H     1 <1>   0.0800 
 38 H       -7.0240     0.9410     1.5890 H     1 <1>   0.0800 
 39 H       -7.3510    -0.5940     0.8260 H     1 <1>   0.0800 
 40 H       -7.3320     2.7060    -0.9420 H     1 <1>   0.0800 
 41 H       -5.6590     2.6380    -1.4280 H     1 <1>   0.0800 
 42 H       -6.0810     2.8520     0.2520 H     1 <1>   0.0800 
 43 H       -2.4210    -6.1250    -0.9740 H     1 <1>   0.1500 
 44 H       -5.9460    -5.5970     1.3560 H     1 <1>   0.1500 
 45 H       -4.3160    -7.0840     0.2670 H     1 <1>   0.1500 
@<TRIPOS>BOND
  1   1   2  2   
  2   2   3  am  
  3   2   4  1   
  4   3   5  1   
  5   3   6  1   
  6   4   7  2   
  7   4   8  1   
  8   5   9  1   
  9   5  24  1   
 10   5  25  1   
 11   6  10  1   
 12   6  26  1   
 13   6  27  1   
 14   7  11  1   
 15   8  12  2   
 16   8  28  1   
 17   9  13  1   
 18   9  14  1   
 19   9  29  1   
 20  10  13  1   
 21  10  15  1   
 22  10  30  1   
 23  11  12  1   
 24  12  31  1   
 25  14  16  ar  
 26  14  17  ar  
 27  15  18  1   
 28  15  19  1   
 29  15  20  1   
 30  16  21  ar  
 31  16  32  1   
 32  17  22  ar  
 33  17  33  1   
 34  18  34  1   
 35  18  35  1   
 36  18  36  1   
 37  19  37  1   
 38  19  38  1   
 39  19  39  1   
 40  20  40  1   
 41  20  41  1   
 42  20  42  1   
 43  21  23  ar  
 44  21  43  1   
 45  22  23  ar  
 46  22  44  1   
 47  23  45  1   
@<TRIPOS>SUBSTRUCTURE
  1 ****   9 GROUP 4 **** **** 0

# MOE 2024.06 (io_trps.svl 2023.06)
