@<TRIPOS>MOLECULE
NONAME
46 48 1 0 0 
SMALL
USER_CHARGES


@<TRIPOS>ATOM
  1 F       -3.4350    -2.5880     2.9040 F     1 <1>  -0.3400 
  2 C       -4.6100    -2.0860     2.5420 C.3   1 <1>   1.1640 
  3 F       -5.5040    -2.5830     3.3870 F     1 <1>  -0.3400 
  4 F       -4.5460    -0.7820     2.7910 F     1 <1>  -0.3400 
  5 C       -4.9720    -2.3970     1.0810 C.ar  1 <1>  -0.1440 
  6 C       -4.5110    -3.5560     0.4650 C.ar  1 <1>  -0.1500 
  7 C       -5.7760    -1.5330     0.3460 C.ar  1 <1>  -0.1500 
  8 C       -4.8480    -3.8430    -0.8460 C.ar  1 <1>  -0.1500 
  9 C       -6.1130    -1.8210    -0.9650 C.ar  1 <1>  -0.1500 
 10 C       -5.6590    -2.9830    -1.5670 C.ar  1 <1>  -0.1430 
 11 C       -6.0490    -3.3130    -3.0070 C.3   1 <1>   0.0450 
 12 C       -6.5020    -4.7570    -3.2170 C.2   1 <1>   0.5690 
 13 O       -5.8200    -5.4270    -3.9580 O.2   1 <1>  -0.5700 
 14 N       -7.6320    -5.2750    -2.6190 N.am  1 <1>  -0.6600 
 15 C       -8.4840    -4.5010    -1.6640 C.3   1 <1>   0.2200 
 16 C       -8.0260    -6.6930    -2.8990 C.3   1 <1>   0.0600 
 17 C       -8.3110    -4.9520    -0.2160 C.3   1 <1>  -0.1600 
 18 C       -9.9870    -4.6070    -1.9150 C.3   1 <1>  -0.1600 
 19 C       -9.5600    -4.4260     0.5040 C.3   1 <1>  -0.0800 
 20 C      -10.6210    -4.1810    -0.5850 C.3   1 <1>  -0.0800 
 21 C       -9.3330    -3.0780     1.2040 C.3   1 <1>  -0.1600 
 22 C      -10.9670    -2.6860    -0.5220 C.3   1 <1>  -0.1600 
 23 C      -10.5730    -2.2600     0.8830 C.3   1 <1>   0.2000 
 24 O      -10.2740    -0.9160     0.9050 O.3   1 <1>  -0.6800 
 25 H       -3.8840    -4.2490     1.0010 H     1 <1>   0.1500 
 26 H       -6.1480    -0.6240     0.7930 H     1 <1>   0.1500 
 27 H       -4.4770    -4.7470    -1.3030 H     1 <1>   0.1500 
 28 H       -6.7340    -1.1330    -1.5120 H     1 <1>   0.1500 
 29 H       -5.1960    -3.1310    -3.6350 H     1 <1>   0.0800 
 30 H       -6.8330    -2.6630    -3.3460 H     1 <1>   0.0800 
 31 H       -8.2400    -3.4570    -1.7110 H     1 <1>   0.0800 
 32 H       -8.4200    -7.1630    -2.0180 H     1 <1>   0.0800 
 33 H       -7.1760    -7.2660    -3.2290 H     1 <1>   0.0800 
 34 H       -8.7710    -6.7120    -3.6740 H     1 <1>   0.0800 
 35 H       -8.3060    -6.0240    -0.1550 H     1 <1>   0.0800 
 36 H       -7.4010    -4.5750     0.2140 H     1 <1>   0.0800 
 37 H      -10.3000    -3.9890    -2.7380 H     1 <1>   0.0800 
 38 H      -10.2740    -5.6240    -2.1080 H     1 <1>   0.0800 
 39 H       -9.9180    -5.1500     1.2170 H     1 <1>   0.0800 
 40 H      -11.5040    -4.7640    -0.3790 H     1 <1>   0.0800 
 41 H       -8.4630    -2.5920     0.8010 H     1 <1>   0.0800 
 42 H       -9.2130    -3.2040     2.2660 H     1 <1>   0.0800 
 43 H      -12.0140    -2.5180    -0.7010 H     1 <1>   0.0800 
 44 H      -10.3860    -2.1400    -1.2440 H     1 <1>   0.0800 
 45 H      -11.3650    -2.4590     1.5880 H     1 <1>   0.0800 
 46 H       -9.5570    -0.7280     0.2740 H     1 <1>   0.4000 
@<TRIPOS>BOND
  1   1   2  1   
  2   2   3  1   
  3   2   4  1   
  4   2   5  1   
  5   5   6  ar  
  6   5   7  ar  
  7   6   8  ar  
  8   6  25  1   
  9   7   9  ar  
 10   7  26  1   
 11   8  10  ar  
 12   8  27  1   
 13   9  10  ar  
 14   9  28  1   
 15  10  11  1   
 16  11  12  1   
 17  11  29  1   
 18  11  30  1   
 19  12  13  2   
 20  12  14  am  
 21  14  15  1   
 22  14  16  1   
 23  15  17  1   
 24  15  18  1   
 25  15  31  1   
 26  16  32  1   
 27  16  33  1   
 28  16  34  1   
 29  17  19  1   
 30  17  35  1   
 31  17  36  1   
 32  18  20  1   
 33  18  37  1   
 34  18  38  1   
 35  19  20  1   
 36  19  21  1   
 37  19  39  1   
 38  20  22  1   
 39  20  40  1   
 40  21  23  1   
 41  21  41  1   
 42  21  42  1   
 43  22  23  1   
 44  22  43  1   
 45  22  44  1   
 46  23  24  1   
 47  23  45  1   
 48  24  46  1   
@<TRIPOS>SUBSTRUCTURE
  1 ****  17 GROUP 4 **** **** 0

# MOE 2024.06 (io_trps.svl 2023.06)
