@<TRIPOS>MOLECULE
NONAME
33 32 1 0 0 
SMALL
USER_CHARGES


@<TRIPOS>ATOM
  1 O       -0.3850    -0.1860    -0.1900 O.2   1 <1>  -0.5700 
  2 C       -0.2950    -1.3290     0.2140 C.2   1 <1>   0.7800 
  3 O        0.9100    -1.9040     0.3170 O.3   1 <1>  -0.4300 
  4 N       -1.3790    -2.0920     0.5880 N.am  1 <1>  -0.6600 
  5 C        2.1640    -1.3440    -0.0070 C.3   1 <1>   0.2800 
  6 C       -2.7940    -1.6170     0.5600 C.3   1 <1>   0.2200 
  7 C       -1.2620    -3.5400     0.9230 C.3   1 <1>   0.0600 
  8 C        2.2250    -1.0060    -1.5010 C.3   1 <1>  -0.2400 
  9 C        3.1820    -2.4430     0.3010 C.3   1 <1>  -0.2400 
 10 C        2.4510    -0.1290     0.8840 C.3   1 <1>  -0.2400 
 11 C       -3.2620    -1.4090    -0.8760 C.3   1 <1>  -0.2660 
 12 C       -2.9830    -0.3800     1.4410 C.3   1 <1>  -0.2400 
 13 C       -4.7630    -1.4370    -0.9200 C.2   1 <1>   0.9060 
 14 O       -5.3300    -2.5090    -0.6850 O.co2 1 <1>  -0.9000 
 15 O       -5.3790    -0.3980    -1.1730 O.co2 1 <1>  -0.9000 
 16 H       -3.4090    -2.3950     0.9850 H     1 <1>   0.0800 
 17 H       -0.2570    -3.8990     0.7960 H     1 <1>   0.0800 
 18 H       -1.9100    -4.1080     0.2780 H     1 <1>   0.0800 
 19 H       -1.5600    -3.6950     1.9440 H     1 <1>   0.0800 
 20 H        1.9450    -1.8610    -2.0890 H     1 <1>   0.0800 
 21 H        3.2240    -0.7150    -1.7720 H     1 <1>   0.0800 
 22 H        1.5730    -0.1860    -1.7390 H     1 <1>   0.0800 
 23 H        2.9790    -3.3140    -0.2950 H     1 <1>   0.0800 
 24 H        3.1360    -2.7120     1.3410 H     1 <1>   0.0800 
 25 H        4.1780    -2.1050     0.0820 H     1 <1>   0.0800 
 26 H        1.8020     0.6910     0.6400 H     1 <1>   0.0800 
 27 H        3.4630     0.2030     0.7380 H     1 <1>   0.0800 
 28 H        2.3200    -0.3860     1.9190 H     1 <1>   0.0800 
 29 H       -2.9120    -2.2060    -1.5010 H     1 <1>   0.0800 
 30 H       -2.9140    -0.4710    -1.2640 H     1 <1>   0.0800 
 31 H       -2.4940     0.4770     1.0150 H     1 <1>   0.0800 
 32 H       -2.6010    -0.5640     2.4270 H     1 <1>   0.0800 
 33 H       -4.0320    -0.1540     1.5150 H     1 <1>   0.0800 
@<TRIPOS>BOND
  1   1   2  2   
  2   2   3  1   
  3   2   4  am  
  4   3   5  1   
  5   4   6  1   
  6   4   7  1   
  7   5   8  1   
  8   5   9  1   
  9   5  10  1   
 10   6  11  1   
 11   6  12  1   
 12   6  16  1   
 13   7  17  1   
 14   7  18  1   
 15   7  19  1   
 16   8  20  1   
 17   8  21  1   
 18   8  22  1   
 19   9  23  1   
 20   9  24  1   
 21   9  25  1   
 22  10  26  1   
 23  10  27  1   
 24  10  28  1   
 25  11  13  1   
 26  11  29  1   
 27  11  30  1   
 28  12  31  1   
 29  12  32  1   
 30  12  33  1   
 31  13  14  ar  
 32  13  15  ar  
@<TRIPOS>SUBSTRUCTURE
  1 ****   2 GROUP 4 **** **** 0

# MOE 2024.06 (io_trps.svl 2023.06)
