@<TRIPOS>MOLECULE
NONAME
31 32 1 0 0 
SMALL
USER_CHARGES


@<TRIPOS>ATOM
  1 O        3.0170    -0.8290    -0.6380 O.2   1 <1>  -0.5700 
  2 C        2.3880    -0.9880     0.3770 C.2   1 <1>   0.5690 
  3 N        2.2590    -0.0280     1.3300 N.am  1 <1>  -0.4930 
  4 C        1.7080    -2.3190     0.5960 C.3   1 <1>  -0.0990 
  5 C        2.7650     1.2810     1.4120 C.2   1 <1>   0.3520 
  6 C        0.7700    -2.6370    -0.5750 C.3   1 <1>   0.0960 
  7 N        2.5260     1.9730     2.4560 N.2   1 <1>  -0.4100 
  8 C        3.5320     2.0660     0.5310 C.2   1 <1>   0.3520 
  9 N        0.0170    -3.8730    -0.3050 N.pl3 1 <1>   0.3140 
 10 O        3.1140     3.1070     2.2250 O.3   1 <1>   0.2420 
 11 N        3.7260     3.2010     1.0850 N.2   1 <1>  -0.4100 
 12 N        4.0190     1.7090    -0.7400 N.am  1 <1>  -0.4930 
 13 N       -0.8770    -3.9470     0.6970 N.2   1 <1>  -0.7070 
 14 C        0.1100    -5.0440    -0.9660 C.2   1 <1>  -0.3020 
 15 C        4.7190     2.3850    -1.6840 C.2   1 <1>   0.5690 
 16 C       -1.3350    -5.1610     0.6460 C.2   1 <1>   0.1390 
 17 C       -0.7530    -5.8990    -0.3770 C.2   1 <1>  -0.1500 
 18 O        5.0110     1.8350    -2.7140 O.2   1 <1>  -0.5700 
 19 C        5.1500     3.8210    -1.4960 C.3   1 <1>  -0.1790 
 20 H        1.7080    -0.2740     2.1520 H     1 <1>   0.3700 
 21 H        1.1480    -2.2970     1.5130 H     1 <1>   0.0800 
 22 H        2.4620    -3.0820     0.6700 H     1 <1>   0.0800 
 23 H        1.3300    -2.7570    -1.4840 H     1 <1>   0.0800 
 24 H        0.0600    -1.8410    -0.7090 H     1 <1>   0.0800 
 25 H        3.8050     0.7430    -1.0200 H     1 <1>   0.3700 
 26 H        0.7680    -5.2020    -1.8010 H     1 <1>   0.1500 
 27 H       -2.0800    -5.5440     1.3240 H     1 <1>   0.1500 
 28 H       -0.9650    -6.9250    -0.6210 H     1 <1>   0.1500 
 29 H        5.8000     3.8990    -0.6450 H     1 <1>   0.0800 
 30 H        4.2890     4.4460    -1.3510 H     1 <1>   0.0800 
 31 H        5.6800     4.1590    -2.3680 H     1 <1>   0.0800 
@<TRIPOS>BOND
  1   1   2  2   
  2   2   3  am  
  3   2   4  1   
  4   3   5  1   
  5   3  20  1   
  6   4   6  1   
  7   4  21  1   
  8   4  22  1   
  9   5   7  2   
 10   5   8  1   
 11   6   9  1   
 12   6  23  1   
 13   6  24  1   
 14   7  10  1   
 15   8  11  2   
 16   8  12  1   
 17   9  13  1   
 18   9  14  1   
 19  10  11  1   
 20  12  15  am  
 21  12  25  1   
 22  13  16  2   
 23  14  17  2   
 24  14  26  1   
 25  15  18  2   
 26  15  19  1   
 27  16  17  1   
 28  16  27  1   
 29  17  28  1   
 30  19  29  1   
 31  19  30  1   
 32  19  31  1   
@<TRIPOS>SUBSTRUCTURE
  1 ****   2 GROUP 4 **** **** 0

# MOE 2024.06 (io_trps.svl 2023.06)
