@<TRIPOS>MOLECULE
NONAME
44 45 1 0 0 
SMALL
USER_CHARGES


@<TRIPOS>ATOM
  1 S        0.9770     0.0860     0.4220 S.o2  1 <1>   1.3330 
  2 O        0.6130    -1.0750    -0.3570 O.2   1 <1>  -0.6500 
  3 O        1.5890    -0.0890     1.7220 O.2   1 <1>  -0.6500 
  4 N       -0.4090     1.0410     0.6370 N.am  1 <1>  -0.8490 
  5 C        2.0280     1.1250    -0.5870 C.3   1 <1>  -0.0550 
  6 C       -0.2330     2.1140     1.6220 C.3   1 <1>   0.1160 
  7 C       -1.5830     0.2350     0.9790 C.3   1 <1>   0.1160 
  8 C        3.3150     0.4290    -1.0790 C.3   1 <1>  -0.0800 
  9 C        4.3000     1.3340    -1.8080 C.3   1 <1>   0.2200 
 10 C        4.1890    -0.1840     0.0220 C.3   1 <1>   0.1200 
 11 N        4.4920     2.5960    -1.0580 N.am  1 <1>  -0.7300 
 12 C        5.5710     0.5050    -1.6830 C.3   1 <1>   0.1200 
 13 O        5.5160    -0.0630    -0.4080 O.3   1 <1>  -0.5600 
 14 C        3.8320     3.7690    -1.2780 C.2   1 <1>   0.5440 
 15 O        3.1840     3.8770    -2.3000 O.2   1 <1>  -0.5700 
 16 C        3.8810     4.8520    -0.3210 C.ar  1 <1>   0.0860 
 17 C        3.8040     4.6420     1.0650 C.ar  1 <1>   0.3930 
 18 C        3.9950     6.1650    -0.7580 C.ar  1 <1>  -0.1500 
 19 O        3.6570     3.3760     1.5150 O.3   1 <1>  -0.3630 
 20 N        3.8530     5.6050     1.9840 N.ar  1 <1>  -0.6200 
 21 C        4.0440     7.1680     0.1840 C.ar  1 <1>  -0.1500 
 22 C        3.5610     3.0590     2.8910 C.3   1 <1>   0.0400 
 23 C        3.9720     6.8380     1.5250 C.ar  1 <1>   0.1600 
 24 H        1.4740     1.4580    -1.4430 H     1 <1>   0.0800 
 25 H        2.2760     1.9900    -0.0130 H     1 <1>   0.0800 
 26 H       -1.1160     2.7290     1.6600 H     1 <1>   0.0800 
 27 H        0.6000     2.7400     1.3500 H     1 <1>   0.0800 
 28 H       -0.0510     1.7020     2.6010 H     1 <1>   0.0800 
 29 H       -2.4500     0.8640     1.0820 H     1 <1>   0.0800 
 30 H       -1.4170    -0.2970     1.9010 H     1 <1>   0.0800 
 31 H       -1.7780    -0.4800     0.1970 H     1 <1>   0.0800 
 32 H        3.0290    -0.3690    -1.7430 H     1 <1>   0.0800 
 33 H        4.0260     1.5290    -2.8320 H     1 <1>   0.0800 
 34 H        3.9650    -1.2240     0.1860 H     1 <1>   0.0800 
 35 H        4.1000     0.3580     0.9480 H     1 <1>   0.0800 
 36 H        4.9610     2.4600    -0.1560 H     1 <1>   0.3700 
 37 H        6.4650     1.0950    -1.7810 H     1 <1>   0.0800 
 38 H        5.5770    -0.2960    -2.4010 H     1 <1>   0.0800 
 39 H        4.0430     6.3840    -1.8120 H     1 <1>   0.1500 
 40 H        4.1350     8.1970    -0.1150 H     1 <1>   0.1500 
 41 H        3.4240     1.9970     2.9870 H     1 <1>   0.0800 
 42 H        2.7190     3.5800     3.3120 H     1 <1>   0.0800 
 43 H        4.4700     3.3620     3.3810 H     1 <1>   0.0800 
 44 H        4.0140     7.6290     2.2550 H     1 <1>   0.1500 
@<TRIPOS>BOND
  1   1   2  2   
  2   1   3  2   
  3   1   4  am  
  4   1   5  1   
  5   4   6  1   
  6   4   7  1   
  7   5   8  1   
  8   5  24  1   
  9   5  25  1   
 10   6  26  1   
 11   6  27  1   
 12   6  28  1   
 13   7  29  1   
 14   7  30  1   
 15   7  31  1   
 16   8   9  1   
 17   8  10  1   
 18   8  32  1   
 19   9  11  1   
 20   9  12  1   
 21   9  33  1   
 22  10  13  1   
 23  10  34  1   
 24  10  35  1   
 25  11  14  am  
 26  11  36  1   
 27  12  13  1   
 28  12  37  1   
 29  12  38  1   
 30  14  15  2   
 31  14  16  1   
 32  16  17  ar  
 33  16  18  ar  
 34  17  19  1   
 35  17  20  ar  
 36  18  21  ar  
 37  18  39  1   
 38  19  22  1   
 39  20  23  ar  
 40  21  23  ar  
 41  21  40  1   
 42  22  41  1   
 43  22  42  1   
 44  22  43  1   
 45  23  44  1   
@<TRIPOS>SUBSTRUCTURE
  1 ****  19 GROUP 4 **** **** 0

# MOE 2024.06 (io_trps.svl 2023.06)
