@<TRIPOS>MOLECULE
NONAME
35 37 1 0 0 
SMALL
USER_CHARGES


@<TRIPOS>ATOM
  1 O       -1.4190     0.6070    -2.4260 O.2   1 <1>  -0.5700 
  2 C       -2.1520     1.0990    -1.5850 C.2   1 <1>   0.5440 
  3 N       -3.2090     0.3610    -1.1130 N.am  1 <1>  -0.6600 
  4 C       -1.9380     2.4600    -1.1520 C.ar  1 <1>   0.0860 
  5 C       -4.2380     0.9290    -0.1910 C.3   1 <1>   0.2350 
  6 C       -3.0180    -1.0960    -0.8640 C.3   1 <1>   0.2350 
  7 C       -1.1660     2.7880    -0.0280 C.ar  1 <1>   0.0820 
  8 C       -2.5230     3.5090    -1.8630 C.ar  1 <1>  -0.1500 
  9 C       -4.7050    -0.2110     0.6910 C.3   1 <1>  -0.2420 
 10 C       -3.9380    -1.4500     0.2900 C.3   1 <1>  -0.2420 
 11 O       -0.5290     1.8530     0.7070 O.3   1 <1>  -0.3620 
 12 C       -0.9990     4.1100     0.3540 C.ar  1 <1>  -0.1500 
 13 C       -2.3580     4.8270    -1.4790 C.ar  1 <1>  -0.1500 
 14 C       -5.1420     0.3090     2.0630 C.2   1 <1>   0.9470 
 15 C       -5.4280    -1.3930     0.1010 C.3   1 <1>  -0.2000 
 16 C       -3.3180    -2.5270     1.1800 C.2   1 <1>   0.9470 
 17 C       -1.2860     1.0960     1.6380 C.3   1 <1>   0.0400 
 18 C       -1.5940     5.1300    -0.3650 C.ar  1 <1>  -0.1500 
 19 O       -6.3090     0.1290     2.4360 O.co2 1 <1>  -0.9000 
 20 O       -4.3760     1.0490     2.6950 O.co2 1 <1>  -0.9000 
 21 O       -3.8320    -3.6540     1.2070 O.co2 1 <1>  -0.9000 
 22 O       -2.2360    -2.2980     1.7360 O.co2 1 <1>  -0.9000 
 23 H       -3.8140     1.7130     0.4130 H     1 <1>   0.0800 
 24 H       -5.0660     1.3240    -0.7510 H     1 <1>   0.0800 
 25 H       -3.2710    -1.6640    -1.7410 H     1 <1>   0.0800 
 26 H       -1.9900    -1.2870    -0.6020 H     1 <1>   0.0800 
 27 H       -3.1150     3.2700    -2.7290 H     1 <1>   0.1500 
 28 H       -0.4000     4.3270     1.2190 H     1 <1>   0.1500 
 29 H       -2.8220     5.6170    -2.0430 H     1 <1>   0.1500 
 30 H       -5.8360    -1.3220    -0.8900 H     1 <1>   0.1000 
 31 H       -6.0370    -1.9920     0.7580 H     1 <1>   0.1000 
 32 H       -0.6160     0.6700     2.3620 H     1 <1>   0.0800 
 33 H       -1.7930     0.2980     1.1310 H     1 <1>   0.0800 
 34 H       -2.0000     1.7330     2.1300 H     1 <1>   0.0800 
 35 H       -1.4630     6.1530    -0.0600 H     1 <1>   0.1500 
@<TRIPOS>BOND
  1   1   2  2   
  2   2   3  am  
  3   2   4  1   
  4   3   5  1   
  5   3   6  1   
  6   4   7  ar  
  7   4   8  ar  
  8   5   9  1   
  9   5  23  1   
 10   5  24  1   
 11   6  10  1   
 12   6  25  1   
 13   6  26  1   
 14   7  11  1   
 15   7  12  ar  
 16   8  13  ar  
 17   8  27  1   
 18   9  10  1   
 19   9  14  1   
 20   9  15  1   
 21  10  15  1   
 22  10  16  1   
 23  11  17  1   
 24  12  18  ar  
 25  12  28  1   
 26  13  18  ar  
 27  13  29  1   
 28  14  19  ar  
 29  14  20  ar  
 30  15  30  1   
 31  15  31  1   
 32  16  21  ar  
 33  16  22  ar  
 34  17  32  1   
 35  17  33  1   
 36  17  34  1   
 37  18  35  1   
@<TRIPOS>SUBSTRUCTURE
  1 ****   5 GROUP 4 **** **** 0

# MOE 2024.06 (io_trps.svl 2023.06)
