@<TRIPOS>MOLECULE
NONAME
43 45 1 0 0 
SMALL
USER_CHARGES


@<TRIPOS>ATOM
  1 CL      -0.9860     0.2400     1.3290 Cl    1 <1>  -0.1400 
  2 C       -1.9020    -0.8630     0.3230 C.2   1 <1>   0.1540 
  3 C       -2.5040    -0.3600    -0.8720 C.2   1 <1>   0.6160 
  4 C       -2.0250    -2.1670     0.6890 C.2   1 <1>  -0.1500 
  5 O       -2.4490     0.7960    -1.2630 O.2   1 <1>  -0.5700 
  6 N       -3.2010    -1.2590    -1.6340 N.am  1 <1>  -0.5390 
  7 C       -2.7730    -3.0770    -0.1210 C.2   1 <1>   0.0140 
  8 C       -3.3280    -2.5790    -1.2770 C.2   1 <1>  -0.0410 
  9 C       -2.9010    -4.4580     0.2870 C.2   1 <1>   0.6160 
 10 O       -1.9500    -5.0260     0.7930 O.2   1 <1>  -0.5700 
 11 N       -4.0770    -5.1570     0.1320 N.am  1 <1>  -0.6600 
 12 C       -5.4210    -4.5450     0.0260 C.3   1 <1>   0.1400 
 13 C       -4.1870    -6.5990     0.4470 C.3   1 <1>   0.1400 
 14 C       -6.3830    -5.5660     0.6490 C.3   1 <1>  -0.0800 
 15 C       -5.6840    -6.9210     0.4370 C.3   1 <1>  -0.0800 
 16 C       -7.8630    -5.5020     0.1580 C.3   1 <1>   0.2800 
 17 C       -6.1380    -7.5720    -0.8790 C.3   1 <1>  -0.1600 
 18 O       -7.9260    -4.9590    -1.1120 O.3   1 <1>  -0.6800 
 19 C       -8.4510    -6.9220     0.0550 C.3   1 <1>  -0.1600 
 20 C       -8.7560    -4.6270     1.0650 C.3   1 <1>  -0.1600 
 21 C       -7.6520    -7.8550    -0.8800 C.3   1 <1>  -0.1600 
 22 C       -8.3340    -3.1520     1.1900 C.3   1 <1>  -0.2400 
 23 H       -1.5640    -2.5430     1.5870 H     1 <1>   0.1500 
 24 H       -3.6060    -0.8670    -2.4880 H     1 <1>   0.3700 
 25 H       -3.8790    -3.2220    -1.9460 H     1 <1>   0.1500 
 26 H       -5.4630    -3.6020     0.5410 H     1 <1>   0.0800 
 27 H       -5.6330    -4.3930    -1.0170 H     1 <1>   0.0800 
 28 H       -3.6430    -7.1840    -0.2750 H     1 <1>   0.0800 
 29 H       -3.7750    -6.7770     1.4260 H     1 <1>   0.0800 
 30 H       -6.3790    -5.3950     1.7110 H     1 <1>   0.0800 
 31 H       -5.9060    -7.5960     1.2460 H     1 <1>   0.0800 
 32 H       -5.9080    -6.9040    -1.6930 H     1 <1>   0.0800 
 33 H       -5.6000    -8.4880    -1.0500 H     1 <1>   0.0800 
 34 H       -8.8430    -5.0100    -1.4360 H     1 <1>   0.4000 
 35 H       -8.4480    -7.3520     1.0410 H     1 <1>   0.0800 
 36 H       -9.4780    -6.8850    -0.2630 H     1 <1>   0.0800 
 37 H       -9.7670    -4.6630     0.6990 H     1 <1>   0.0800 
 38 H       -8.7710    -5.0570     2.0520 H     1 <1>   0.0800 
 39 H       -7.8270    -8.8740    -0.5800 H     1 <1>   0.0800 
 40 H       -8.0150    -7.7500    -1.8880 H     1 <1>   0.0800 
 41 H       -8.2610    -2.6920     0.2200 H     1 <1>   0.0800 
 42 H       -7.3870    -3.0640     1.6900 H     1 <1>   0.0800 
 43 H       -9.0650    -2.6120     1.7650 H     1 <1>   0.0800 
@<TRIPOS>BOND
  1   1   2  1   
  2   2   3  1   
  3   2   4  2   
  4   3   5  2   
  5   3   6  am  
  6   4   7  1   
  7   4  23  1   
  8   6   8  1   
  9   6  24  1   
 10   7   8  2   
 11   7   9  1   
 12   8  25  1   
 13   9  10  2   
 14   9  11  am  
 15  11  12  1   
 16  11  13  1   
 17  12  14  1   
 18  12  26  1   
 19  12  27  1   
 20  13  15  1   
 21  13  28  1   
 22  13  29  1   
 23  14  15  1   
 24  14  16  1   
 25  14  30  1   
 26  15  17  1   
 27  15  31  1   
 28  16  18  1   
 29  16  19  1   
 30  16  20  1   
 31  17  21  1   
 32  17  32  1   
 33  17  33  1   
 34  18  34  1   
 35  19  21  1   
 36  19  35  1   
 37  19  36  1   
 38  20  22  1   
 39  20  37  1   
 40  20  38  1   
 41  21  39  1   
 42  21  40  1   
 43  22  41  1   
 44  22  42  1   
 45  22  43  1   
@<TRIPOS>SUBSTRUCTURE
  1 ****  12 GROUP 4 **** **** 0

# MOE 2024.06 (io_trps.svl 2023.06)
