@<TRIPOS>MOLECULE
NONAME
44 46 1 0 0 
SMALL
USER_CHARGES


@<TRIPOS>ATOM
  1 O       -0.4090     0.0970     0.3640 O.2   1 <1>  -0.5700 
  2 C       -1.4440     0.7370     0.3630 C.2   1 <1>   0.5440 
  3 N       -2.6370     0.0560     0.2820 N.am  1 <1>  -0.6600 
  4 C       -1.3940     2.1850     0.4250 C.ar  1 <1>   0.0860 
  5 C       -3.8990     0.6370    -0.2450 C.3   1 <1>   0.1400 
  6 C       -2.6880    -1.4260     0.2340 C.3   1 <1>   0.1400 
  7 C       -2.2150     2.9380     1.2510 C.ar  1 <1>  -0.1500 
  8 C       -0.5070     2.9200    -0.3450 C.ar  1 <1>  -0.1500 
  9 C       -4.6540    -0.5470    -0.8460 C.3   1 <1>   0.2000 
 10 C       -4.1380    -1.7780    -0.1040 C.3   1 <1>  -0.0800 
 11 C       -2.1340     4.3180     1.2500 C.ar  1 <1>   0.1660 
 12 C       -0.4970     4.3010    -0.2780 C.ar  1 <1>   0.1660 
 13 O       -6.0230    -0.4220    -0.6710 O.3   1 <1>  -0.6800 
 14 C       -4.2840    -3.0730    -0.9160 C.3   1 <1>  -0.0160 
 15 N       -1.2980     5.0080     0.4980 N.ar  1 <1>  -0.6200 
 16 C       -3.0350     5.1370     2.1500 C.3   1 <1>  -0.0970 
 17 C        0.4720     5.0990    -1.1240 C.3   1 <1>  -0.0970 
 18 C       -3.7630    -4.2690    -0.1360 C.ar  1 <1>  -0.1430 
 19 C       -2.4850    -4.7610    -0.3090 C.ar  1 <1>  -0.1500 
 20 C       -4.5470    -4.9240     0.7930 C.ar  1 <1>  -0.1500 
 21 C       -2.0630    -5.8500     0.4360 C.ar  1 <1>   0.1600 
 22 C       -4.0280    -6.0060     1.4850 C.ar  1 <1>   0.1600 
 23 N       -2.8040    -6.4840     1.3310 N.ar  1 <1>  -0.6200 
 24 H       -4.4550     1.0690     0.5670 H     1 <1>   0.0800 
 25 H       -3.6940     1.3810    -0.9960 H     1 <1>   0.0800 
 26 H       -2.0180    -1.7720    -0.5360 H     1 <1>   0.0800 
 27 H       -2.3870    -1.8470     1.1780 H     1 <1>   0.0800 
 28 H       -2.9110     2.4360     1.8970 H     1 <1>   0.1500 
 29 H        0.1750     2.3990    -0.9930 H     1 <1>   0.1500 
 30 H       -4.4500    -0.6110    -1.9020 H     1 <1>   0.0800 
 31 H       -4.6640    -1.8800     0.8290 H     1 <1>   0.0800 
 32 H       -6.2490    -0.4210     0.2780 H     1 <1>   0.4000 
 33 H       -3.7500    -2.9870    -1.8470 H     1 <1>   0.0800 
 34 H       -5.3230    -3.2300    -1.1540 H     1 <1>   0.0800 
 35 H       -3.6810     4.5090     2.7340 H     1 <1>   0.0800 
 36 H       -3.6350     5.7970     1.5510 H     1 <1>   0.0800 
 37 H       -2.4320     5.7290     2.8150 H     1 <1>   0.0800 
 38 H        1.0900     4.4540    -1.7220 H     1 <1>   0.0800 
 39 H        1.1020     5.6900    -0.4850 H     1 <1>   0.0800 
 40 H       -0.0760     5.7560    -1.7730 H     1 <1>   0.0800 
 41 H       -1.8100    -4.3110    -1.0140 H     1 <1>   0.1500 
 42 H       -5.5540    -4.6050     0.9840 H     1 <1>   0.1500 
 43 H       -1.0620    -6.2180     0.2890 H     1 <1>   0.1500 
 44 H       -4.6540    -6.5050     2.2050 H     1 <1>   0.1500 
@<TRIPOS>BOND
  1   1   2  2   
  2   2   3  am  
  3   2   4  1   
  4   3   5  1   
  5   3   6  1   
  6   4   7  ar  
  7   4   8  ar  
  8   5   9  1   
  9   5  24  1   
 10   5  25  1   
 11   6  10  1   
 12   6  26  1   
 13   6  27  1   
 14   7  11  ar  
 15   7  28  1   
 16   8  12  ar  
 17   8  29  1   
 18   9  10  1   
 19   9  13  1   
 20   9  30  1   
 21  10  14  1   
 22  10  31  1   
 23  11  15  ar  
 24  11  16  1   
 25  12  15  ar  
 26  12  17  1   
 27  13  32  1   
 28  14  18  1   
 29  14  33  1   
 30  14  34  1   
 31  16  35  1   
 32  16  36  1   
 33  16  37  1   
 34  17  38  1   
 35  17  39  1   
 36  17  40  1   
 37  18  19  ar  
 38  18  20  ar  
 39  19  21  ar  
 40  19  41  1   
 41  20  22  ar  
 42  20  42  1   
 43  21  23  ar  
 44  21  43  1   
 45  22  23  ar  
 46  22  44  1   
@<TRIPOS>SUBSTRUCTURE
  1 ****   3 GROUP 4 **** **** 0

# MOE 2024.06 (io_trps.svl 2023.06)
