@<TRIPOS>MOLECULE
NONAME
44 45 1 0 0 
SMALL
USER_CHARGES


@<TRIPOS>ATOM
  1 O       -2.7370     0.6630    -2.2870 O.2   1 <1>  -0.5700 
  2 C       -2.4240     0.6930    -1.1220 C.2   1 <1>   0.5690 
  3 N       -2.2060    -0.4480    -0.4200 N.am  1 <1>  -0.7300 
  4 C       -2.2940     2.0400    -0.4100 C.3   1 <1>  -0.0190 
  5 C       -2.2930    -1.8180    -0.9720 C.3   1 <1>   0.2200 
  6 C       -0.8840     2.1970     0.2130 C.3   1 <1>  -0.1600 
  7 C       -3.4480     2.1880     0.6110 C.3   1 <1>  -0.1600 
  8 C       -3.5720    -2.5130    -0.5240 C.3   1 <1>  -0.0800 
  9 C       -1.2490    -2.6880    -0.2870 C.3   1 <1>   0.1200 
 10 C       -0.3340     3.6290     0.1400 C.3   1 <1>  -0.2400 
 11 C       -3.5280     3.5540     1.3010 C.3   1 <1>  -0.2400 
 12 C       -3.1990    -3.0730     0.8530 C.3   1 <1>   0.1200 
 13 C       -4.8470    -1.6480    -0.5340 C.3   1 <1>  -0.0170 
 14 O       -1.8050    -3.0110     0.9510 O.3   1 <1>  -0.5600 
 15 C       -6.0670    -2.4770    -0.1650 C.ar  1 <1>  -0.1440 
 16 C       -6.7120    -3.2690    -1.0940 C.ar  1 <1>  -0.1500 
 17 C       -6.5940    -2.4830     1.1110 C.ar  1 <1>  -0.1500 
 18 C       -7.8160    -4.0130    -0.7110 C.ar  1 <1>   0.1600 
 19 C       -7.7030    -3.2640     1.3900 C.ar  1 <1>   0.1600 
 20 N       -8.3260    -4.0310     0.5100 N.ar  1 <1>  -0.6200 
 21 H       -1.9590    -0.4090     0.5700 H     1 <1>   0.3700 
 22 H       -2.4170     2.7940    -1.1690 H     1 <1>   0.0800 
 23 H       -2.1780    -1.8050    -2.0430 H     1 <1>   0.0800 
 24 H       -0.8900     1.8580     1.2350 H     1 <1>   0.0800 
 25 H       -0.1930     1.5700    -0.3260 H     1 <1>   0.0800 
 26 H       -4.3760     2.0240     0.0880 H     1 <1>   0.0800 
 27 H       -3.3680     1.4230     1.3640 H     1 <1>   0.0800 
 28 H       -3.7330    -3.3520    -1.1780 H     1 <1>   0.0800 
 29 H       -0.3100    -2.1830    -0.1460 H     1 <1>   0.0800 
 30 H       -1.0980    -3.6050    -0.8310 H     1 <1>   0.0800 
 31 H       -0.9520     4.3220     0.6790 H     1 <1>   0.0800 
 32 H       -0.2730     3.9530    -0.8850 H     1 <1>   0.0800 
 33 H        0.6540     3.6620     0.5630 H     1 <1>   0.0800 
 34 H       -3.5240     4.3470     0.5730 H     1 <1>   0.0800 
 35 H       -2.7040     3.6880     1.9780 H     1 <1>   0.0800 
 36 H       -4.4390     3.6210     1.8700 H     1 <1>   0.0800 
 37 H       -3.5140    -4.0960     0.9660 H     1 <1>   0.0800 
 38 H       -3.6070    -2.4760     1.6510 H     1 <1>   0.0800 
 39 H       -4.9840    -1.2260    -1.5150 H     1 <1>   0.0800 
 40 H       -4.7520    -0.8290     0.1570 H     1 <1>   0.0800 
 41 H       -6.3670    -3.3140    -2.1100 H     1 <1>   0.1500 
 42 H       -6.1540    -1.8900     1.8910 H     1 <1>   0.1500 
 43 H       -8.3060    -4.6240    -1.4490 H     1 <1>   0.1500 
 44 H       -8.1000    -3.2570     2.3910 H     1 <1>   0.1500 
@<TRIPOS>BOND
  1   1   2  2   
  2   2   3  am  
  3   2   4  1   
  4   3   5  1   
  5   3  21  1   
  6   4   6  1   
  7   4   7  1   
  8   4  22  1   
  9   5   8  1   
 10   5   9  1   
 11   5  23  1   
 12   6  10  1   
 13   6  24  1   
 14   6  25  1   
 15   7  11  1   
 16   7  26  1   
 17   7  27  1   
 18   8  12  1   
 19   8  13  1   
 20   8  28  1   
 21   9  14  1   
 22   9  29  1   
 23   9  30  1   
 24  10  31  1   
 25  10  32  1   
 26  10  33  1   
 27  11  34  1   
 28  11  35  1   
 29  11  36  1   
 30  12  14  1   
 31  12  37  1   
 32  12  38  1   
 33  13  15  1   
 34  13  39  1   
 35  13  40  1   
 36  15  16  ar  
 37  15  17  ar  
 38  16  18  ar  
 39  16  41  1   
 40  17  19  ar  
 41  17  42  1   
 42  18  20  ar  
 43  18  43  1   
 44  19  20  ar  
 45  19  44  1   
@<TRIPOS>SUBSTRUCTURE
  1 ****  13 GROUP 4 **** **** 0

# MOE 2024.06 (io_trps.svl 2023.06)
