@<TRIPOS>MOLECULE
NONAME
52 54 1 0 0 
SMALL
USER_CHARGES


@<TRIPOS>ATOM
  1 CL      -0.0830    -0.2520    -0.6100 Cl    1 <1>  -0.1770 
  2 C        1.4760    -1.0350    -0.5830 C.ar  1 <1>   0.1770 
  3 C        1.8100    -1.9190    -1.5880 C.ar  1 <1>  -0.1500 
  4 C        2.3590    -0.7570     0.4400 C.ar  1 <1>  -0.1500 
  5 C        3.0480    -2.5360    -1.5600 C.ar  1 <1>  -0.1500 
  6 C        3.5970    -1.3760     0.4600 C.ar  1 <1>  -0.1500 
  7 C        3.9570    -2.2860    -0.5340 C.ar  1 <1>  -0.1430 
  8 C        5.3190    -3.0250    -0.5750 C.3   1 <1>   0.2040 
  9 C        5.0810    -4.5630    -0.7360 C.2   1 <1>   0.5690 
 10 C        6.0530    -2.4170    -1.8160 C.3   1 <1>  -0.1600 
 11 C        6.2180    -2.8180     0.6890 C.3   1 <1>  -0.1600 
 12 O        5.7140    -5.1360    -1.5960 O.2   1 <1>  -0.5700 
 13 N        4.2150    -5.3010     0.0580 N.am  1 <1>  -0.6600 
 14 C        7.5850    -2.4930    -1.7270 C.3   1 <1>  -0.1600 
 15 C        7.1070    -1.5670     0.6180 C.3   1 <1>  -0.1600 
 16 C        4.0810    -6.7680    -0.1850 C.3   1 <1>   0.3200 
 17 C        3.5030    -4.8140     1.2860 C.3   1 <1>   0.1400 
 18 C        8.1150    -1.6710    -0.5390 C.3   1 <1>  -0.1600 
 19 C        2.8690    -7.0800    -1.0480 C.2   1 <1>  -0.3320 
 20 C        1.9820    -4.7300     1.1100 C.3   1 <1>   0.1200 
 21 N        2.3940    -8.3260    -1.2480 N.pl3 1 <1>   0.0480 
 22 C        2.0710    -6.2550    -1.7630 C.2   1 <1>   0.0770 
 23 O        1.4150    -4.3090     2.3060 O.3   1 <1>  -0.6800 
 24 C        1.3260    -8.1630    -2.0610 C.2   1 <1>   0.0360 
 25 C        2.9230    -9.6000    -0.7280 C.3   1 <1>   0.0160 
 26 N        1.0950    -6.9350    -2.3890 N.2   1 <1>  -0.5650 
 27 H        1.1100    -2.1210    -2.3790 H     1 <1>   0.1500 
 28 H        2.0780    -0.0620     1.2110 H     1 <1>   0.1500 
 29 H        3.3010    -3.2200    -2.3530 H     1 <1>   0.1500 
 30 H        4.2630    -1.1290     1.2650 H     1 <1>   0.1500 
 31 H        5.7900    -1.3770    -1.9120 H     1 <1>   0.0800 
 32 H        5.7220    -2.9000    -2.7180 H     1 <1>   0.0800 
 33 H        6.8750    -3.6670     0.7810 H     1 <1>   0.0800 
 34 H        5.6410    -2.7930     1.5910 H     1 <1>   0.0800 
 35 H        8.0250    -2.1330    -2.6410 H     1 <1>   0.0800 
 36 H        7.8770    -3.5230    -1.6130 H     1 <1>   0.0800 
 37 H        7.6390    -1.4360     1.5450 H     1 <1>   0.0800 
 38 H        6.4890    -0.6980     0.4720 H     1 <1>   0.0800 
 39 H        3.9880    -7.2730     0.7600 H     1 <1>   0.0800 
 40 H        4.9640    -7.1550    -0.6650 H     1 <1>   0.0800 
 41 H        3.8470    -3.8410     1.5630 H     1 <1>   0.0800 
 42 H        3.7270    -5.4790     2.1010 H     1 <1>   0.0800 
 43 H        8.3610    -0.6770    -0.8710 H     1 <1>   0.0800 
 44 H        9.0250    -2.1280    -0.1870 H     1 <1>   0.0800 
 45 H        1.5530    -5.6830     0.8560 H     1 <1>   0.0800 
 46 H        1.7300    -4.0060     0.3570 H     1 <1>   0.0800 
 47 H        2.1500    -5.1860    -1.8590 H     1 <1>   0.1500 
 48 H        1.3180    -5.0550     2.9290 H     1 <1>   0.4000 
 49 H        0.7330    -8.9950    -2.3980 H     1 <1>   0.1500 
 50 H        3.9490    -9.7070    -1.0280 H     1 <1>   0.0800 
 51 H        2.3500   -10.4170    -1.1260 H     1 <1>   0.0800 
 52 H        2.8540    -9.6040     0.3440 H     1 <1>   0.0800 
@<TRIPOS>BOND
  1   1   2  1   
  2   2   3  ar  
  3   2   4  ar  
  4   3   5  ar  
  5   3  27  1   
  6   4   6  ar  
  7   4  28  1   
  8   5   7  ar  
  9   5  29  1   
 10   6   7  ar  
 11   6  30  1   
 12   7   8  1   
 13   8   9  1   
 14   8  10  1   
 15   8  11  1   
 16   9  12  2   
 17   9  13  am  
 18  10  14  1   
 19  10  31  1   
 20  10  32  1   
 21  11  15  1   
 22  11  33  1   
 23  11  34  1   
 24  13  16  1   
 25  13  17  1   
 26  14  18  1   
 27  14  35  1   
 28  14  36  1   
 29  15  18  1   
 30  15  37  1   
 31  15  38  1   
 32  16  19  1   
 33  16  39  1   
 34  16  40  1   
 35  17  20  1   
 36  17  41  1   
 37  17  42  1   
 38  18  43  1   
 39  18  44  1   
 40  19  21  1   
 41  19  22  2   
 42  20  23  1   
 43  20  45  1   
 44  20  46  1   
 45  21  24  1   
 46  21  25  1   
 47  22  26  1   
 48  22  47  1   
 49  23  48  1   
 50  24  26  2   
 51  24  49  1   
 52  25  50  1   
 53  25  51  1   
 54  25  52  1   
@<TRIPOS>SUBSTRUCTURE
  1 ****  13 GROUP 4 **** **** 0

# MOE 2024.06 (io_trps.svl 2023.06)
