@<TRIPOS>MOLECULE
NONAME
48 49 1 0 0 
SMALL
USER_CHARGES


@<TRIPOS>ATOM
  1 O       -0.5180     2.0880     1.3630 O.3   1 <1>  -0.6800 
  2 C       -0.9470     2.4490     0.0780 C.3   1 <1>   0.2000 
  3 C       -2.1870     3.4050     0.1230 C.3   1 <1>   0.0000 
  4 C        0.2430     3.1600    -0.5930 C.3   1 <1>   0.3430 
  5 C       -1.7250     4.8940     0.0410 C.3   1 <1>  -0.1600 
  6 C       -2.9910     3.1750     1.4380 C.3   1 <1>   0.1200 
  7 C       -3.1310     3.0870    -1.0760 C.3   1 <1>  -0.1600 
  8 N        0.7120     4.2760     0.3000 N.4   1 <1>  -0.9590 
  9 C       -0.4050     5.1680     0.7750 C.3   1 <1>   0.3430 
 10 O       -4.1810     3.8900     1.4570 O.3   1 <1>  -0.6800 
 11 C       -2.5020     3.0320    -2.4840 C.3   1 <1>  -0.1600 
 12 C        1.8470     5.0230    -0.3320 C.3   1 <1>   0.3430 
 13 C       -3.5760     2.7450    -3.5360 C.3   1 <1>  -0.2400 
 14 C        2.6240     5.8940     0.6620 C.3   1 <1>   0.0960 
 15 N        3.6510     6.6440    -0.0750 N.pl3 1 <1>   0.3140 
 16 N        3.4670     6.9750    -1.3660 N.2   1 <1>  -0.7070 
 17 C        4.8390     7.0950     0.3860 C.2   1 <1>  -0.3320 
 18 C        4.5390     7.6290    -1.6980 C.2   1 <1>   0.1390 
 19 C        5.4340     7.7350    -0.6420 C.2   1 <1>  -0.1500 
 20 C        5.3720     6.9090     1.7980 C.3   1 <1>  -0.0600 
 21 H       -1.0930     1.3860     1.7370 H     1 <1>   0.4000 
 22 H       -1.1830     1.5390    -0.4470 H     1 <1>   0.0800 
 23 H       -0.0610     3.5490    -1.5500 H     1 <1>   0.0800 
 24 H        1.0370     2.4500    -0.7530 H     1 <1>   0.0800 
 25 H       -2.4820     5.5450     0.4390 H     1 <1>   0.0800 
 26 H       -1.5910     5.2030    -0.9780 H     1 <1>   0.0800 
 27 H       -2.4240     3.4620     2.3070 H     1 <1>   0.0800 
 28 H       -3.2560     2.1350     1.5300 H     1 <1>   0.0800 
 29 H       -3.6040     2.1360    -0.8920 H     1 <1>   0.0800 
 30 H       -3.9230     3.8170    -1.0970 H     1 <1>   0.0800 
 31 H        1.0380     3.7650     1.1380 H     1 <1>   0.4500 
 32 H       -0.5600     5.0010     1.8290 H     1 <1>   0.0800 
 33 H       -0.1350     6.2030     0.6410 H     1 <1>   0.0800 
 34 H       -4.0380     4.8480     1.5760 H     1 <1>   0.4000 
 35 H       -2.0340     3.9670    -2.7360 H     1 <1>   0.0800 
 36 H       -1.7650     2.2520    -2.5470 H     1 <1>   0.0800 
 37 H        2.5380     4.3240    -0.7760 H     1 <1>   0.0800 
 38 H        1.4620     5.6510    -1.1210 H     1 <1>   0.0800 
 39 H       -4.3250     3.5190    -3.5350 H     1 <1>   0.0800 
 40 H       -4.0570     1.8020    -3.3420 H     1 <1>   0.0800 
 41 H       -3.1340     2.7050    -4.5170 H     1 <1>   0.0800 
 42 H        3.1060     5.2810     1.3990 H     1 <1>   0.0800 
 43 H        1.9790     6.6080     1.1370 H     1 <1>   0.0800 
 44 H        4.7080     8.0400    -2.6800 H     1 <1>   0.1500 
 45 H        6.3890     8.2310    -0.6730 H     1 <1>   0.1500 
 46 H        6.3300     7.3880     1.8950 H     1 <1>   0.0800 
 47 H        5.4940     5.8640     2.0200 H     1 <1>   0.0800 
 48 H        4.7010     7.3490     2.5150 H     1 <1>   0.0800 
@<TRIPOS>BOND
  1   1   2  1   
  2   1  21  1   
  3   2   3  1   
  4   2   4  1   
  5   2  22  1   
  6   3   5  1   
  7   3   6  1   
  8   3   7  1   
  9   4   8  1   
 10   4  23  1   
 11   4  24  1   
 12   5   9  1   
 13   5  25  1   
 14   5  26  1   
 15   6  10  1   
 16   6  27  1   
 17   6  28  1   
 18   7  11  1   
 19   7  29  1   
 20   7  30  1   
 21   8   9  1   
 22   8  12  1   
 23   8  31  1   
 24   9  32  1   
 25   9  33  1   
 26  10  34  1   
 27  11  13  1   
 28  11  35  1   
 29  11  36  1   
 30  12  14  1   
 31  12  37  1   
 32  12  38  1   
 33  13  39  1   
 34  13  40  1   
 35  13  41  1   
 36  14  15  1   
 37  14  42  1   
 38  14  43  1   
 39  15  16  1   
 40  15  17  1   
 41  16  18  2   
 42  17  19  2   
 43  17  20  1   
 44  18  19  1   
 45  18  44  1   
 46  19  45  1   
 47  20  46  1   
 48  20  47  1   
 49  20  48  1   
@<TRIPOS>SUBSTRUCTURE
  1 ****   8 GROUP 4 **** **** 0

# MOE 2024.06 (io_trps.svl 2023.06)
