@<TRIPOS>MOLECULE
NONAME
61 65 1 0 0 
SMALL
USER_CHARGES


@<TRIPOS>ATOM
  1 O       -0.3830     0.6570     2.1700 O.2   1 <1>  -0.5700 
  2 C        0.3410     1.2750     1.4120 C.2   1 <1>   0.5440 
  3 N        1.5250     0.7830     0.9350 N.am  1 <1>  -0.6600 
  4 C        0.1210     2.5910     0.8870 C.ar  1 <1>   0.0860 
  5 C        2.2320     1.8170     0.1340 C.3   1 <1>   0.2840 
  6 C        2.1670    -0.5050     1.3250 C.3   1 <1>   0.1400 
  7 C        1.2230     2.9540     0.1340 C.ar  1 <1>  -0.1440 
  8 C       -0.9490     3.4670     1.0080 C.ar  1 <1>  -0.1500 
  9 C        1.7930    -1.7180     0.4170 C.3   1 <1>   0.0000 
 10 C        1.2910     4.1860    -0.4910 C.ar  1 <1>  -0.1500 
 11 C       -0.8920     4.7020     0.3830 C.ar  1 <1>  -0.1500 
 12 C        2.2710    -1.5100    -1.0410 C.3   1 <1>  -0.1600 
 13 C        2.4860    -2.9780     0.9980 C.3   1 <1>  -0.1600 
 14 C        0.2470    -1.8740     0.4580 C.3   1 <1>  -0.0990 
 15 C        0.2240     5.0620    -0.3600 C.ar  1 <1>  -0.1500 
 16 C        3.8020    -1.4500    -1.1730 C.3   1 <1>  -0.1600 
 17 C        4.0200    -2.9490     0.8670 C.3   1 <1>  -0.1600 
 18 C       -0.4830    -2.9500    -0.3360 C.2   1 <1>   0.5690 
 19 C        4.4500    -2.7110    -0.5860 C.3   1 <1>  -0.1600 
 20 O        0.0840    -3.8980    -0.8150 O.2   1 <1>  -0.5700 
 21 N       -1.8230    -2.8390    -0.5110 N.am  1 <1>  -0.7300 
 22 C       -2.7330    -1.7780    -0.0020 C.3   1 <1>   0.1400 
 23 C       -3.0090    -0.7540    -1.1060 C.3   1 <1>   0.0200 
 24 C       -3.8660     0.3860    -0.5850 C.2   1 <1>   0.0060 
 25 N       -3.4080     1.5660    -0.3270 N.2   1 <1>  -0.3380 
 26 N       -5.1780     0.2920    -0.3360 N.pl3 1 <1>   0.3340 
 27 N       -4.4200     2.3020     0.1160 N.2   1 <1>  -0.3380 
 28 C       -5.4790     1.5350     0.1110 C.2   1 <1>   0.1410 
 29 C       -6.1530    -0.6990    -0.4340 C.2   1 <1>  -0.1810 
 30 C       -6.8130     1.8280     0.4950 C.2   1 <1>  -0.1050 
 31 C       -7.4350    -0.4290    -0.0700 C.2   1 <1>  -0.1500 
 32 C       -7.7740     0.8660     0.4080 C.2   1 <1>  -0.1500 
 33 H        2.4220     1.4670    -0.8640 H     1 <1>   0.0800 
 34 H        3.1470     2.1080     0.6190 H     1 <1>   0.0800 
 35 H        1.8650    -0.7300     2.3340 H     1 <1>   0.0800 
 36 H        3.2300    -0.3600     1.3450 H     1 <1>   0.0800 
 37 H       -1.8150     3.1700     1.5750 H     1 <1>   0.1500 
 38 H        2.1520     4.4620    -1.0740 H     1 <1>   0.1500 
 39 H       -1.7240     5.3800     0.4710 H     1 <1>   0.1500 
 40 H        1.8320    -0.6200    -1.4530 H     1 <1>   0.0800 
 41 H        1.9270    -2.3310    -1.6450 H     1 <1>   0.0800 
 42 H        2.1430    -3.8540     0.4800 H     1 <1>   0.0800 
 43 H        2.2180    -3.1000     2.0320 H     1 <1>   0.0800 
 44 H       -0.1630    -0.9540     0.0980 H     1 <1>   0.0800 
 45 H       -0.0570    -1.9800     1.4830 H     1 <1>   0.0800 
 46 H        0.2560     6.0250    -0.8410 H     1 <1>   0.1500 
 47 H        4.1870    -0.5790    -0.6760 H     1 <1>   0.0800 
 48 H        4.0640    -1.3720    -2.2150 H     1 <1>   0.0800 
 49 H        4.4180    -3.8920     1.2020 H     1 <1>   0.0800 
 50 H        4.4370    -2.1860     1.4990 H     1 <1>   0.0800 
 51 H        5.5210    -2.6270    -0.6380 H     1 <1>   0.0800 
 52 H        4.1580    -3.5620    -1.1790 H     1 <1>   0.0800 
 53 H       -2.2460    -3.5950    -1.0540 H     1 <1>   0.3700 
 54 H       -2.2940    -1.2790     0.8460 H     1 <1>   0.0800 
 55 H       -3.6520    -2.2310     0.3260 H     1 <1>   0.0800 
 56 H       -3.5000    -1.2260    -1.9370 H     1 <1>   0.0800 
 57 H       -2.0740    -0.3470    -1.4500 H     1 <1>   0.0800 
 58 H       -5.8380    -1.6560    -0.8060 H     1 <1>   0.1500 
 59 H       -7.0200     2.8220     0.8490 H     1 <1>   0.1500 
 60 H       -8.2140    -1.1700    -0.1320 H     1 <1>   0.1500 
 61 H       -8.7940     1.0600     0.6930 H     1 <1>   0.1500 
@<TRIPOS>BOND
  1   1   2  2   
  2   2   3  am  
  3   2   4  1   
  4   3   5  1   
  5   3   6  1   
  6   4   7  ar  
  7   4   8  ar  
  8   5   7  1   
  9   5  33  1   
 10   5  34  1   
 11   6   9  1   
 12   6  35  1   
 13   6  36  1   
 14   7  10  ar  
 15   8  11  ar  
 16   8  37  1   
 17   9  12  1   
 18   9  13  1   
 19   9  14  1   
 20  10  15  ar  
 21  10  38  1   
 22  11  15  ar  
 23  11  39  1   
 24  12  16  1   
 25  12  40  1   
 26  12  41  1   
 27  13  17  1   
 28  13  42  1   
 29  13  43  1   
 30  14  18  1   
 31  14  44  1   
 32  14  45  1   
 33  15  46  1   
 34  16  19  1   
 35  16  47  1   
 36  16  48  1   
 37  17  19  1   
 38  17  49  1   
 39  17  50  1   
 40  18  20  2   
 41  18  21  am  
 42  19  51  1   
 43  19  52  1   
 44  21  22  1   
 45  21  53  1   
 46  22  23  1   
 47  22  54  1   
 48  22  55  1   
 49  23  24  1   
 50  23  56  1   
 51  23  57  1   
 52  24  25  2   
 53  24  26  1   
 54  25  27  1   
 55  26  28  1   
 56  26  29  1   
 57  27  28  2   
 58  28  30  1   
 59  29  31  2   
 60  29  58  1   
 61  30  32  2   
 62  30  59  1   
 63  31  32  1   
 64  31  60  1   
 65  32  61  1   
@<TRIPOS>SUBSTRUCTURE
  1 ****   2 GROUP 4 **** **** 0

# MOE 2024.06 (io_trps.svl 2023.06)
