@<TRIPOS>MOLECULE
NONAME
39 42 1 0 0 
SMALL
USER_CHARGES


@<TRIPOS>ATOM
  1 F       -4.6890    -2.0360    -3.0260 F     1 <1>  -0.1900 
  2 C       -4.9180    -0.9580    -2.3270 C.ar  1 <1>   0.1900 
  3 C       -5.2480    -1.0550    -1.0040 C.ar  1 <1>  -0.1500 
  4 C       -4.7900     0.2690    -2.9770 C.ar  1 <1>  -0.1500 
  5 C       -5.4660     0.1170    -0.2440 C.ar  1 <1>   0.0000 
  6 C       -4.9840     1.4130    -2.2510 C.ar  1 <1>  -0.1500 
  7 C       -5.3060     1.3720    -0.8810 C.ar  1 <1>   0.3100 
  8 C       -5.8250     0.1160     1.1270 C.ar  1 <1>   0.0860 
  9 N       -5.4280     2.5550    -0.2300 N.ar  1 <1>  -0.6200 
 10 C       -6.0640    -1.0980     1.8710 C.2   1 <1>   0.5440 
 11 C       -5.9370     1.3370     1.7390 C.ar  1 <1>  -0.1500 
 12 C       -5.7310     2.5200     1.0280 C.ar  1 <1>   0.1660 
 13 O       -5.3180    -1.3900     2.7890 O.2   1 <1>  -0.5700 
 14 N       -7.1450    -1.8980     1.6120 N.am  1 <1>  -0.6600 
 15 C       -5.8670     3.8510     1.7370 C.3   1 <1>  -0.0970 
 16 C       -8.2640    -1.5810     0.7300 C.3   1 <1>   0.2350 
 17 C       -7.0890    -3.3550     1.6690 C.3   1 <1>   0.2350 
 18 C       -8.2270    -2.6080    -0.3970 C.3   1 <1>  -0.2420 
 19 C       -7.4110    -3.8420     0.2530 C.3   1 <1>  -0.2420 
 20 C       -8.9740    -1.8130    -1.4670 C.2   1 <1>   0.9470 
 21 C       -8.0010    -3.8760    -1.0880 C.3   1 <1>  -0.2000 
 22 C       -6.7350    -5.2120     0.3040 C.2   1 <1>   0.9470 
 23 O       -8.3390    -1.0930    -2.2480 O.co2 1 <1>  -0.9000 
 24 O      -10.2110    -1.8180    -1.4520 O.co2 1 <1>  -0.9000 
 25 O       -5.5830    -5.3420    -0.1270 O.co2 1 <1>  -0.9000 
 26 O       -7.3330    -6.1470     0.8540 O.co2 1 <1>  -0.9000 
 27 H       -5.3490    -2.0300    -0.5580 H     1 <1>   0.1500 
 28 H       -4.5510     0.2840    -4.0240 H     1 <1>   0.1500 
 29 H       -4.8980     2.3800    -2.7110 H     1 <1>   0.1500 
 30 H       -6.1900     1.3790     2.7820 H     1 <1>   0.1500 
 31 H       -6.0620     3.7170     2.7840 H     1 <1>   0.0800 
 32 H       -6.6760     4.4060     1.2980 H     1 <1>   0.0800 
 33 H       -4.9580     4.4120     1.6200 H     1 <1>   0.0800 
 34 H       -9.1770    -1.7140     1.2850 H     1 <1>   0.0800 
 35 H       -8.2270    -0.5640     0.3740 H     1 <1>   0.0800 
 36 H       -6.1280    -3.7000     2.0200 H     1 <1>   0.0800 
 37 H       -7.8510    -3.7010     2.3440 H     1 <1>   0.0800 
 38 H       -7.3370    -3.8820    -1.9360 H     1 <1>   0.1000 
 39 H       -8.8480    -4.5210    -1.2510 H     1 <1>   0.1000 
@<TRIPOS>BOND
  1   1   2  1   
  2   2   3  ar  
  3   2   4  ar  
  4   3   5  ar  
  5   3  27  1   
  6   4   6  ar  
  7   4  28  1   
  8   5   7  ar  
  9   5   8  ar  
 10   6   7  ar  
 11   6  29  1   
 12   7   9  ar  
 13   8  10  1   
 14   8  11  ar  
 15   9  12  ar  
 16  10  13  2   
 17  10  14  am  
 18  11  12  ar  
 19  11  30  1   
 20  12  15  1   
 21  14  16  1   
 22  14  17  1   
 23  15  31  1   
 24  15  32  1   
 25  15  33  1   
 26  16  18  1   
 27  16  34  1   
 28  16  35  1   
 29  17  19  1   
 30  17  36  1   
 31  17  37  1   
 32  18  19  1   
 33  18  20  1   
 34  18  21  1   
 35  19  21  1   
 36  19  22  1   
 37  20  23  ar  
 38  20  24  ar  
 39  21  38  1   
 40  21  39  1   
 41  22  25  ar  
 42  22  26  ar  
@<TRIPOS>SUBSTRUCTURE
  1 ****   3 GROUP 4 **** **** 0

# MOE 2024.06 (io_trps.svl 2023.06)
