@<TRIPOS>MOLECULE
NONAME
41 43 1 0 0 
SMALL
USER_CHARGES


@<TRIPOS>ATOM
  1 CL       2.0250     3.1590     2.3290 Cl    1 <1>  -0.1770 
  2 C        0.9330     2.6030     1.0810 C.ar  1 <1>   0.1770 
  3 C        1.4090     1.9340    -0.0400 C.ar  1 <1>  -0.1440 
  4 C       -0.4160     2.8510     1.2570 C.ar  1 <1>  -0.1500 
  5 C        0.4870     1.5120    -0.9920 C.ar  1 <1>  -0.1500 
  6 C        2.9010     1.6760    -0.2350 C.3   1 <1>   0.3640 
  7 C       -1.3200     2.4250     0.3010 C.ar  1 <1>  -0.1500 
  8 C       -0.8660     1.7560    -0.8220 C.ar  1 <1>  -0.1500 
  9 N        3.0920     0.2500    -0.5990 N.am  1 <1>  -0.7300 
 10 C        3.5180     2.6150    -1.3020 C.3   1 <1>   0.2610 
 11 C        3.9490    -0.1690    -1.5570 C.2   1 <1>   0.5690 
 12 O        4.7900     2.1320    -1.7150 O.3   1 <1>  -0.5600 
 13 C        3.6320     4.0320    -0.7420 C.2   1 <1>   0.5690 
 14 O        4.0690    -1.3420    -1.8020 O.2   1 <1>  -0.5700 
 15 C        4.7490     0.8700    -2.3490 C.3   1 <1>   0.1810 
 16 O        2.6650     4.7550    -0.7790 O.2   1 <1>  -0.5700 
 17 N        4.8220     4.4310    -0.2180 N.am  1 <1>  -0.6550 
 18 C        5.1300     5.7450     0.3710 C.3   1 <1>   0.2250 
 19 C        4.9450     6.9270    -0.6230 C.3   1 <1>   0.0000 
 20 C        6.6550     6.0410     0.3450 C.3   1 <1>   0.0000 
 21 C        4.4680     5.9180     1.7420 C.3   1 <1>  -0.2400 
 22 C        6.3130     7.4740    -0.1410 C.3   1 <1>   0.0000 
 23 H       -0.7510     3.3750     2.1340 H     1 <1>   0.1500 
 24 H        0.8140     0.9900    -1.8760 H     1 <1>   0.1500 
 25 H        3.4270     1.8380     0.6890 H     1 <1>   0.0800 
 26 H       -2.3720     2.6160     0.4280 H     1 <1>   0.1500 
 27 H       -1.5680     1.4240    -1.5680 H     1 <1>   0.1500 
 28 H        2.5640    -0.4460    -0.0710 H     1 <1>   0.3700 
 29 H        2.8800     2.6520    -2.1660 H     1 <1>   0.0800 
 30 H        4.3120     0.9930    -3.3230 H     1 <1>   0.0800 
 31 H        5.7610     0.5270    -2.4650 H     1 <1>   0.0800 
 32 H        5.6210     3.8040    -0.3380 H     1 <1>   0.3700 
 33 H        4.9760     6.6250    -1.6570 H     1 <1>   0.0000 
 34 H        4.1230     7.5810    -0.3890 H     1 <1>   0.0000 
 35 H        7.1300     6.0260     1.3100 H     1 <1>   0.0000 
 36 H        7.1860     5.4800    -0.4060 H     1 <1>   0.0000 
 37 H        4.7330     6.8640     2.1780 H     1 <1>   0.0800 
 38 H        4.7810     5.1350     2.4070 H     1 <1>   0.0800 
 39 H        3.3980     5.8870     1.6370 H     1 <1>   0.0800 
 40 H        6.2170     8.1750     0.6700 H     1 <1>   0.0000 
 41 H        6.9450     7.8240    -0.9370 H     1 <1>   0.0000 
@<TRIPOS>BOND
  1   1   2  1   
  2   2   3  ar  
  3   2   4  ar  
  4   3   5  ar  
  5   3   6  1   
  6   4   7  ar  
  7   4  23  1   
  8   5   8  ar  
  9   5  24  1   
 10   6   9  1   
 11   6  10  1   
 12   6  25  1   
 13   7   8  ar  
 14   7  26  1   
 15   8  27  1   
 16   9  11  am  
 17   9  28  1   
 18  10  12  1   
 19  10  13  1   
 20  10  29  1   
 21  11  14  2   
 22  11  15  1   
 23  12  15  1   
 24  13  16  2   
 25  13  17  am  
 26  15  30  1   
 27  15  31  1   
 28  17  18  1   
 29  17  32  1   
 30  18  19  1   
 31  18  20  1   
 32  18  21  1   
 33  19  22  1   
 34  19  33  1   
 35  19  34  1   
 36  20  22  1   
 37  20  35  1   
 38  20  36  1   
 39  21  37  1   
 40  21  38  1   
 41  21  39  1   
 42  22  40  1   
 43  22  41  1   
@<TRIPOS>SUBSTRUCTURE
  1 ****  10 GROUP 4 **** **** 0

# MOE 2024.06 (io_trps.svl 2023.06)
