@<TRIPOS>MOLECULE
NONAME
47 49 1 0 0 
SMALL
USER_CHARGES


@<TRIPOS>ATOM
  1 F       -1.6310    -1.0950     1.3390 F     1 <1>  -0.1900 
  2 C       -2.1200     0.0660     0.9770 C.ar  1 <1>   0.1900 
  3 C       -1.7770     1.2040     1.6890 C.ar  1 <1>   0.1900 
  4 C       -2.9680     0.1400    -0.1210 C.ar  1 <1>  -0.1440 
  5 F       -0.9780     1.1220     2.7220 F     1 <1>  -0.1900 
  6 C       -2.2650     2.4450     1.3250 C.ar  1 <1>  -0.1500 
  7 C       -3.4540     1.3900    -0.4870 C.ar  1 <1>  -0.1500 
  8 C       -3.3470    -1.1090    -0.9010 C.3   1 <1>   0.2540 
  9 C       -3.1080     2.5310     0.2280 C.ar  1 <1>  -0.1500 
 10 N       -4.3650    -1.8830    -0.1670 N.3   1 <1>  -0.8100 
 11 C       -4.4210    -3.2830    -0.6060 C.3   1 <1>   0.1100 
 12 C       -5.6840    -1.2280    -0.1870 C.3   1 <1>   0.1100 
 13 C       -5.3750    -4.0930     0.3060 C.3   1 <1>   0.4230 
 14 C       -6.6430    -1.9840     0.7380 C.3   1 <1>  -0.1600 
 15 N       -5.3550    -5.5940     0.0440 N.4   1 <1>  -0.9590 
 16 C       -6.8040    -3.4800     0.3590 C.3   1 <1>   0.0000 
 17 C       -6.5320    -6.3270     0.6140 C.3   1 <1>   0.3430 
 18 C       -5.1490    -5.9950    -1.3860 C.3   1 <1>   0.2630 
 19 C       -7.6310    -4.1960     1.4680 C.3   1 <1>  -0.1600 
 20 C       -7.5050    -3.6200    -1.0220 C.3   1 <1>   0.1200 
 21 C       -7.1010    -5.5970     1.8300 C.3   1 <1>  -0.1600 
 22 O       -8.6860    -2.9000    -1.0760 O.3   1 <1>  -0.6800 
 23 H       -1.9890     3.3190     1.8880 H     1 <1>   0.1500 
 24 H       -4.1120     1.4850    -1.3350 H     1 <1>   0.1500 
 25 H       -2.4600    -1.7060    -1.0320 H     1 <1>   0.0800 
 26 H       -3.7150    -0.8460    -1.8790 H     1 <1>   0.0800 
 27 H       -3.4980     3.4890    -0.0720 H     1 <1>   0.1500 
 28 H       -4.7370    -3.3170    -1.6330 H     1 <1>   0.0800 
 29 H       -3.4330    -3.7030    -0.5280 H     1 <1>   0.0800 
 30 H       -5.5940    -0.2170     0.1730 H     1 <1>   0.0800 
 31 H       -6.0730    -1.1910    -1.1910 H     1 <1>   0.0800 
 32 H       -4.9810    -3.9560     1.2990 H     1 <1>   0.0800 
 33 H       -6.2530    -1.8960     1.7380 H     1 <1>   0.0800 
 34 H       -7.5950    -1.4840     0.7330 H     1 <1>   0.0800 
 35 H       -4.5330    -5.9280     0.5690 H     1 <1>   0.4500 
 36 H       -7.3090    -6.4040    -0.1300 H     1 <1>   0.0800 
 37 H       -6.2410    -7.3280     0.8930 H     1 <1>   0.0800 
 38 H       -5.9590    -5.6350    -2.0000 H     1 <1>   0.0800 
 39 H       -5.1060    -7.0690    -1.4700 H     1 <1>   0.0800 
 40 H       -4.2240    -5.5910    -1.7630 H     1 <1>   0.0800 
 41 H       -7.6360    -3.6110     2.3730 H     1 <1>   0.0800 
 42 H       -8.6600    -4.2800     1.1640 H     1 <1>   0.0800 
 43 H       -7.7460    -4.6450    -1.2380 H     1 <1>   0.0800 
 44 H       -6.8850    -3.2440    -1.8160 H     1 <1>   0.0800 
 45 H       -7.9020    -6.1780     2.2510 H     1 <1>   0.0800 
 46 H       -6.3370    -5.5200     2.5850 H     1 <1>   0.0800 
 47 H       -9.3170    -3.1720    -0.3810 H     1 <1>   0.4000 
@<TRIPOS>BOND
  1   1   2  1   
  2   2   3  ar  
  3   2   4  ar  
  4   3   5  1   
  5   3   6  ar  
  6   4   7  ar  
  7   4   8  1   
  8   6   9  ar  
  9   6  23  1   
 10   7   9  ar  
 11   7  24  1   
 12   8  10  1   
 13   8  25  1   
 14   8  26  1   
 15   9  27  1   
 16  10  11  1   
 17  10  12  1   
 18  11  13  1   
 19  11  28  1   
 20  11  29  1   
 21  12  14  1   
 22  12  30  1   
 23  12  31  1   
 24  13  15  1   
 25  13  16  1   
 26  13  32  1   
 27  14  16  1   
 28  14  33  1   
 29  14  34  1   
 30  15  17  1   
 31  15  18  1   
 32  15  35  1   
 33  16  19  1   
 34  16  20  1   
 35  17  21  1   
 36  17  36  1   
 37  17  37  1   
 38  18  38  1   
 39  18  39  1   
 40  18  40  1   
 41  19  21  1   
 42  19  41  1   
 43  19  42  1   
 44  20  22  1   
 45  20  43  1   
 46  20  44  1   
 47  21  45  1   
 48  21  46  1   
 49  22  47  1   
@<TRIPOS>SUBSTRUCTURE
  1 ****  10 GROUP 4 **** **** 0

# MOE 2024.06 (io_trps.svl 2023.06)
