@<TRIPOS>MOLECULE
NONAME
52 54 1 0 0 
SMALL
USER_CHARGES


@<TRIPOS>ATOM
  1 F       -0.1810    -2.3500     2.7870 F     1 <1>  -0.1900 
  2 C       -0.8580    -3.1290     1.9820 C.ar  1 <1>   0.1900 
  3 C       -0.2980    -3.6540     0.8120 C.ar  1 <1>   0.0830 
  4 C       -2.1620    -3.4040     2.3450 C.ar  1 <1>  -0.1500 
  5 O        0.9710    -3.4570     0.3490 O.3   1 <1>  -0.3630 
  6 C       -1.0990    -4.4650     0.0240 C.ar  1 <1>  -0.1500 
  7 C       -2.9340    -4.2150     1.5350 C.ar  1 <1>  -0.1500 
  8 C        1.9440    -2.7270     1.0620 C.3   1 <1>   0.0400 
  9 C       -2.4210    -4.7680     0.3580 C.ar  1 <1>   0.0530 
 10 C       -3.2220    -5.6180    -0.4900 C.2   1 <1>   0.0870 
 11 O       -2.9570    -5.7230    -1.7680 O.3   1 <1>  -0.0190 
 12 C       -4.2920    -6.4160    -0.2520 C.2   1 <1>  -0.2330 
 13 N       -3.7810    -6.5230    -2.3900 N.2   1 <1>  -0.4100 
 14 C       -4.6170    -6.9510    -1.5040 C.2   1 <1>   0.3720 
 15 C       -4.9210    -6.6940     0.9880 C.2   1 <1>   1.0330 
 16 N       -5.6720    -7.8450    -1.8380 N.pl3 1 <1>  -0.8210 
 17 O       -5.9650    -6.1080     1.3170 O.co2 1 <1>  -0.9000 
 18 O       -4.5270    -7.6280     1.7010 O.co2 1 <1>  -0.9000 
 19 C       -6.9760    -7.6590    -1.0930 C.3   1 <1>   0.2090 
 20 C       -5.8870    -7.9830    -3.3150 C.3   1 <1>   0.1290 
 21 C       -7.2120    -8.5950     0.1410 C.3   1 <1>   0.4230 
 22 N       -6.6670    -9.9880     0.0380 N.4   1 <1>  -0.9590 
 23 C       -8.7040    -8.7160     0.4420 C.3   1 <1>  -0.2400 
 24 C       -5.2060    -9.9920     0.3940 C.3   1 <1>   0.3430 
 25 C       -6.8750   -10.6860    -1.2650 C.3   1 <1>   0.3430 
 26 C       -4.5380   -11.3540     0.1210 C.3   1 <1>   0.1200 
 27 C       -6.3020   -12.1220    -1.2370 C.3   1 <1>   0.1200 
 28 O       -5.4980   -12.3540    -0.1100 O.3   1 <1>  -0.5600 
 29 H       -2.5700    -2.9890     3.2490 H     1 <1>   0.1500 
 30 H       -0.6790    -4.8760    -0.8760 H     1 <1>   0.1500 
 31 H       -3.9530    -4.4160     1.8220 H     1 <1>   0.1500 
 32 H        2.8620    -2.7580     0.5020 H     1 <1>   0.0800 
 33 H        2.0880    -3.1840     2.0250 H     1 <1>   0.0800 
 34 H        1.6130    -1.7090     1.1620 H     1 <1>   0.0800 
 35 H       -7.7900    -7.8100    -1.7780 H     1 <1>   0.0800 
 36 H       -7.0620    -6.6350    -0.7720 H     1 <1>   0.0800 
 37 H       -4.9950    -8.3690    -3.7790 H     1 <1>   0.0800 
 38 H       -6.1070    -7.0190    -3.7440 H     1 <1>   0.0800 
 39 H       -6.7000    -8.6530    -3.5260 H     1 <1>   0.0800 
 40 H       -6.7680    -8.1330     1.0050 H     1 <1>   0.0800 
 41 H       -7.1000   -10.5590     0.7700 H     1 <1>   0.4500 
 42 H       -9.2380    -9.1670    -0.3740 H     1 <1>   0.0800 
 43 H       -9.1070    -7.7320     0.6110 H     1 <1>   0.0800 
 44 H       -8.8580    -9.2870     1.3400 H     1 <1>   0.0800 
 45 H       -5.0930    -9.7540     1.4390 H     1 <1>   0.0800 
 46 H       -4.6810    -9.2290    -0.1550 H     1 <1>   0.0800 
 47 H       -6.3710   -10.1400    -2.0420 H     1 <1>   0.0800 
 48 H       -7.9230   -10.7190    -1.5110 H     1 <1>   0.0800 
 49 H       -3.9430   -11.6460     0.9680 H     1 <1>   0.0800 
 50 H       -3.8930   -11.2870    -0.7390 H     1 <1>   0.0800 
 51 H       -5.7140   -12.3060    -2.1190 H     1 <1>   0.0800 
 52 H       -7.1040   -12.8390    -1.2120 H     1 <1>   0.0800 
@<TRIPOS>BOND
  1   1   2  1   
  2   2   3  ar  
  3   2   4  ar  
  4   3   5  1   
  5   3   6  ar  
  6   4   7  ar  
  7   4  29  1   
  8   5   8  1   
  9   6   9  ar  
 10   6  30  1   
 11   7   9  ar  
 12   7  31  1   
 13   8  32  1   
 14   8  33  1   
 15   8  34  1   
 16   9  10  1   
 17  10  11  1   
 18  10  12  2   
 19  11  13  1   
 20  12  14  1   
 21  12  15  1   
 22  13  14  2   
 23  14  16  1   
 24  15  17  ar  
 25  15  18  ar  
 26  16  19  1   
 27  16  20  1   
 28  19  21  1   
 29  19  35  1   
 30  19  36  1   
 31  20  37  1   
 32  20  38  1   
 33  20  39  1   
 34  21  22  1   
 35  21  23  1   
 36  21  40  1   
 37  22  24  1   
 38  22  25  1   
 39  22  41  1   
 40  23  42  1   
 41  23  43  1   
 42  23  44  1   
 43  24  26  1   
 44  24  45  1   
 45  24  46  1   
 46  25  27  1   
 47  25  47  1   
 48  25  48  1   
 49  26  28  1   
 50  26  49  1   
 51  26  50  1   
 52  27  28  1   
 53  27  51  1   
 54  27  52  1   
@<TRIPOS>SUBSTRUCTURE
  1 ****  12 GROUP 4 **** **** 0

# MOE 2024.06 (io_trps.svl 2023.06)
