@<TRIPOS>MOLECULE
NONAME
57 62 1 0 0 
SMALL
USER_CHARGES


@<TRIPOS>ATOM
  1 O        0.1310    -0.4850     2.5020 O.2   1 <1>  -0.5700 
  2 C       -0.2160     0.6330     2.1990 C.2   1 <1>   0.5690 
  3 N       -1.4810     0.8800     1.7210 N.am  1 <1>  -0.6600 
  4 C        0.8100     1.7390     2.3950 C.3   1 <1>   0.1570 
  5 C       -2.0010     2.2420     1.3640 C.3   1 <1>   0.1400 
  6 C       -2.3960    -0.2680     1.4360 C.3   1 <1>   0.1400 
  7 N        1.2810     2.3140     1.1110 N.pl3 1 <1>   0.0480 
  8 C       -2.8470     2.2210     0.0790 C.3   1 <1>   0.1440 
  9 C       -3.8560     0.1870     1.3230 C.3   1 <1>  -0.1600 
 10 C        1.6720     1.6350    -0.0060 C.ar  1 <1>  -0.1520 
 11 C        1.4240     3.6360     0.7970 C.2   1 <1>   0.1010 
 12 C       -3.2420     3.6570    -0.2230 C.ar  1 <1>   0.1660 
 13 C       -4.0710     1.2820     0.2580 C.3   1 <1>  -0.1600 
 14 C       -1.9800     1.8470    -1.1600 C.3   1 <1>  -0.1600 
 15 C        2.0100     2.6070    -0.9290 C.ar  1 <1>   0.2270 
 16 C        1.7760     0.2780    -0.3350 C.ar  1 <1>  -0.1500 
 17 N        1.8460     3.8470    -0.4010 N.2   1 <1>  -0.5650 
 18 C        1.1270     4.7570     1.7870 C.3   1 <1>  -0.0150 
 19 N       -4.1130     4.3680     0.4590 N.ar  1 <1>  -0.6200 
 20 C       -2.5440     4.1630    -1.2780 C.ar  1 <1>  -0.1430 
 21 C       -1.5830     3.1600    -1.8570 C.3   1 <1>  -0.0170 
 22 C        2.4410     2.2500    -2.2050 C.ar  1 <1>  -0.1500 
 23 C        2.2020    -0.0680    -1.5970 C.ar  1 <1>  -0.1500 
 24 C       -0.2210     5.4170     1.8150 C.3   1 <1>  -0.2000 
 25 C        0.9730     6.1760     1.3290 C.3   1 <1>  -0.2000 
 26 C       -4.2730     5.6090     0.0220 C.ar  1 <1>   0.4770 
 27 C       -2.7820     5.4650    -1.6410 C.ar  1 <1>   0.1600 
 28 C        2.5340     0.9160    -2.5360 C.ar  1 <1>  -0.1500 
 29 N       -3.6590     6.2040    -0.9920 N.ar  1 <1>  -0.6200 
 30 C       -5.2760     6.4570     0.7650 C.3   1 <1>  -0.0970 
 31 H        1.6600     1.3360     2.9130 H     1 <1>   0.0800 
 32 H        0.3760     2.5080     3.0020 H     1 <1>   0.0800 
 33 H       -1.1970     2.9340     1.2240 H     1 <1>   0.0800 
 34 H       -2.6090     2.6060     2.1750 H     1 <1>   0.0800 
 35 H       -2.3110    -1.0000     2.2230 H     1 <1>   0.0800 
 36 H       -2.0890    -0.7350     0.5160 H     1 <1>   0.0800 
 37 H       -4.1630     0.5600     2.2850 H     1 <1>   0.0800 
 38 H       -4.4800    -0.6600     1.0980 H     1 <1>   0.0800 
 39 H       -4.3320     0.8260    -0.6800 H     1 <1>   0.0800 
 40 H       -4.9280     1.8590     0.5590 H     1 <1>   0.0800 
 41 H       -2.5570     1.2700    -1.8590 H     1 <1>   0.0800 
 42 H       -1.1090     1.2720    -0.9010 H     1 <1>   0.0800 
 43 H        1.5300    -0.4840     0.3830 H     1 <1>   0.1500 
 44 H        1.6580     4.6310     2.7130 H     1 <1>   0.1000 
 45 H       -1.6790     3.0860    -2.9260 H     1 <1>   0.0800 
 46 H       -0.5770     3.4400    -1.6030 H     1 <1>   0.0800 
 47 H        2.6940     3.0290    -2.8990 H     1 <1>   0.1500 
 48 H        2.2870    -1.1050    -1.8730 H     1 <1>   0.1500 
 49 H       -0.6520     5.6890     2.7620 H     1 <1>   0.1000 
 50 H       -0.9660     5.1820     1.0750 H     1 <1>   0.1000 
 51 H        1.0610     6.3880     0.2770 H     1 <1>   0.1000 
 52 H        1.3780     6.9630     1.9420 H     1 <1>   0.1000 
 53 H       -2.2500     5.9070    -2.4660 H     1 <1>   0.1500 
 54 H        2.8650     0.6200    -3.5150 H     1 <1>   0.1500 
 55 H       -5.6170     5.9520     1.6490 H     1 <1>   0.0800 
 56 H       -6.1160     6.6530     0.1260 H     1 <1>   0.0800 
 57 H       -4.8220     7.3880     1.0460 H     1 <1>   0.0800 
@<TRIPOS>BOND
  1   1   2  2   
  2   2   3  am  
  3   2   4  1   
  4   3   5  1   
  5   3   6  1   
  6   4   7  1   
  7   4  31  1   
  8   4  32  1   
  9   5   8  1   
 10   5  33  1   
 11   5  34  1   
 12   6   9  1   
 13   6  35  1   
 14   6  36  1   
 15   7  10  1   
 16   7  11  1   
 17   8  12  1   
 18   8  13  1   
 19   8  14  1   
 20   9  13  1   
 21   9  37  1   
 22   9  38  1   
 23  10  15  ar  
 24  10  16  ar  
 25  11  17  2   
 26  11  18  1   
 27  12  19  ar  
 28  12  20  ar  
 29  13  39  1   
 30  13  40  1   
 31  14  21  1   
 32  14  41  1   
 33  14  42  1   
 34  15  17  1   
 35  15  22  ar  
 36  16  23  ar  
 37  16  43  1   
 38  18  24  1   
 39  18  25  1   
 40  18  44  1   
 41  19  26  ar  
 42  20  21  1   
 43  20  27  ar  
 44  21  45  1   
 45  21  46  1   
 46  22  28  ar  
 47  22  47  1   
 48  23  28  ar  
 49  23  48  1   
 50  24  25  1   
 51  24  49  1   
 52  24  50  1   
 53  25  51  1   
 54  25  52  1   
 55  26  29  ar  
 56  26  30  1   
 57  27  29  ar  
 58  27  53  1   
 59  28  54  1   
 60  30  55  1   
 61  30  56  1   
 62  30  57  1   
@<TRIPOS>SUBSTRUCTURE
  1 ****   5 GROUP 4 **** **** 0

# MOE 2024.06 (io_trps.svl 2023.06)
