@<TRIPOS>MOLECULE
NONAME
42 45 1 0 0 
SMALL
USER_CHARGES


@<TRIPOS>ATOM
  1 O       -0.7070     0.2740    -0.7590 O.2   1 <1>  -0.5700 
  2 C       -1.5980     0.8720    -0.1810 C.2   1 <1>   0.5440 
  3 N       -2.6880     0.1250     0.2380 N.am  1 <1>  -0.6600 
  4 C       -1.4670     2.3200     0.0070 C.ar  1 <1>   0.3960 
  5 C       -2.6450    -1.3710     0.3340 C.3   1 <1>   0.1400 
  6 C       -4.0440     0.6840     0.5370 C.3   1 <1>   0.1400 
  7 N       -2.0560     2.9500     1.0420 N.ar  1 <1>  -0.6200 
  8 C       -0.6980     3.0370    -0.9200 C.ar  1 <1>   0.1600 
  9 C       -3.8160    -2.0160    -0.4280 C.3   1 <1>   0.3440 
 10 C       -5.1480    -0.0890    -0.2150 C.3   1 <1>   0.2950 
 11 C       -1.8270     4.2500     1.0680 C.ar  1 <1>   0.1600 
 12 N       -0.4760     4.3420    -0.9020 N.ar  1 <1>  -0.6200 
 13 O       -5.0320    -1.4640     0.0060 O.3   1 <1>  -0.5600 
 14 C       -3.8310    -3.5270    -0.2130 C.ar  1 <1>  -0.1440 
 15 C       -6.5450     0.3340     0.2500 C.3   1 <1>  -0.1950 
 16 C       -1.0630     4.9260     0.1260 C.ar  1 <1>   0.1600 
 17 C       -3.1230    -4.3470    -1.0810 C.ar  1 <1>  -0.1500 
 18 C       -4.5260    -4.1060     0.8410 C.ar  1 <1>  -0.1500 
 19 C       -7.7460     0.1220    -0.6160 C.3   1 <1>  -0.2000 
 20 C       -7.2390     1.5130    -0.3580 C.3   1 <1>  -0.2000 
 21 C       -3.1090    -5.7190    -0.9000 C.ar  1 <1>  -0.1500 
 22 C       -4.5130    -5.4780     1.0240 C.ar  1 <1>  -0.1500 
 23 C       -3.8040    -6.2860     0.1540 C.ar  1 <1>  -0.1500 
 24 H       -1.7200    -1.7560    -0.0580 H     1 <1>   0.0800 
 25 H       -2.7020    -1.6590     1.3680 H     1 <1>   0.0800 
 26 H       -4.2230     0.6260     1.5960 H     1 <1>   0.0800 
 27 H       -4.1040     1.7160     0.2460 H     1 <1>   0.0800 
 28 H       -0.2410     2.4850    -1.7240 H     1 <1>   0.1500 
 29 H       -3.7170    -1.8120    -1.4800 H     1 <1>   0.0800 
 30 H       -5.0560     0.0870    -1.2730 H     1 <1>   0.0800 
 31 H       -2.2640     4.8130     1.8740 H     1 <1>   0.1500 
 32 H       -6.6770     0.1820     1.3070 H     1 <1>   0.1000 
 33 H       -0.9340     5.9900     0.2290 H     1 <1>   0.1500 
 34 H       -2.5760    -3.9210    -1.9040 H     1 <1>   0.1500 
 35 H       -5.0840    -3.4860     1.5220 H     1 <1>   0.1500 
 36 H       -7.6080    -0.3170    -1.5890 H     1 <1>   0.1000 
 37 H       -8.6610    -0.1990    -0.1490 H     1 <1>   0.1000 
 38 H       -7.8180     2.1600     0.2790 H     1 <1>   0.1000 
 39 H       -6.7790     2.0440    -1.1730 H     1 <1>   0.1000 
 40 H       -2.5570    -6.3460    -1.5780 H     1 <1>   0.1500 
 41 H       -5.0570    -5.9140     1.8430 H     1 <1>   0.1500 
 42 H       -3.7940    -7.3520     0.2950 H     1 <1>   0.1500 
@<TRIPOS>BOND
  1   1   2  2   
  2   2   3  am  
  3   2   4  1   
  4   3   5  1   
  5   3   6  1   
  6   4   7  ar  
  7   4   8  ar  
  8   5   9  1   
  9   5  24  1   
 10   5  25  1   
 11   6  10  1   
 12   6  26  1   
 13   6  27  1   
 14   7  11  ar  
 15   8  12  ar  
 16   8  28  1   
 17   9  13  1   
 18   9  14  1   
 19   9  29  1   
 20  10  13  1   
 21  10  15  1   
 22  10  30  1   
 23  11  16  ar  
 24  11  31  1   
 25  12  16  ar  
 26  14  17  ar  
 27  14  18  ar  
 28  15  19  1   
 29  15  20  1   
 30  15  32  1   
 31  16  33  1   
 32  17  21  ar  
 33  17  34  1   
 34  18  22  ar  
 35  18  35  1   
 36  19  20  1   
 37  19  36  1   
 38  19  37  1   
 39  20  38  1   
 40  20  39  1   
 41  21  23  ar  
 42  21  40  1   
 43  22  23  ar  
 44  22  41  1   
 45  23  42  1   
@<TRIPOS>SUBSTRUCTURE
  1 ****   3 GROUP 4 **** **** 0

# MOE 2024.06 (io_trps.svl 2023.06)
