@<TRIPOS>MOLECULE
NONAME
50 53 1 0 0 
SMALL
USER_CHARGES


@<TRIPOS>ATOM
  1 O       -0.1410     0.1990     1.0240 O.3   1 <1>  -0.5600 
  2 C        0.5180     0.9140     0.0330 C.3   1 <1>   0.1200 
  3 C       -1.4750     0.0230     0.6460 C.3   1 <1>   0.1200 
  4 C       -0.5020     1.9840    -0.3400 C.3   1 <1>   0.4230 
  5 C       -1.7590     1.1130    -0.4040 C.3   1 <1>  -0.0800 
  6 N       -0.5880     2.9480     0.7970 N.4   1 <1>  -0.9060 
  7 C       -3.1120     1.8370    -0.2230 C.3   1 <1>  -0.0170 
  8 C        0.1100     4.2490     0.6570 C.3   1 <1>   0.4230 
  9 C       -4.3690     0.9840    -0.4210 C.ar  1 <1>  -0.1440 
 10 C       -0.5540     5.0880    -0.4420 C.3   1 <1>  -0.1600 
 11 C        1.6110     4.0710     0.3950 C.3   1 <1>  -0.1600 
 12 C       -5.6390     1.5270    -0.0960 C.ar  1 <1>   0.0000 
 13 C       -4.3520    -0.2960    -0.9070 C.ar  1 <1>  -0.1500 
 14 C        0.1350     6.4550    -0.5700 C.3   1 <1>  -0.1600 
 15 C        2.3030     5.4370     0.2750 C.3   1 <1>  -0.1600 
 16 C       -6.7790     0.7020    -0.2620 C.ar  1 <1>   0.3100 
 17 C       -5.8490     2.8450     0.3790 C.ar  1 <1>  -0.1500 
 18 C       -5.5410    -1.0220    -1.0420 C.ar  1 <1>   0.1600 
 19 C        1.6420     6.2990    -0.8100 C.3   1 <1>  -0.1600 
 20 N       -6.7110    -0.5650    -0.7340 N.ar  1 <1>  -0.6200 
 21 C       -8.0450     1.2080     0.0690 C.ar  1 <1>  -0.1500 
 22 C       -7.0980     3.3100     0.6890 C.ar  1 <1>  -0.1500 
 23 C       -8.2120     2.4830     0.5370 C.ar  1 <1>  -0.1500 
 24 H        1.4440     1.3000     0.4190 H     1 <1>   0.0800 
 25 H        0.7170     0.2500    -0.7930 H     1 <1>   0.0800 
 26 H       -1.5880    -0.9680     0.2380 H     1 <1>   0.0800 
 27 H       -2.0900     0.1210     1.5260 H     1 <1>   0.0800 
 28 H       -0.2830     2.4730    -1.2740 H     1 <1>   0.0800 
 29 H       -1.7590     0.6450    -1.3740 H     1 <1>   0.0800 
 30 H       -1.5700     3.1330     1.0090 H     1 <1>   0.4500 
 31 H       -0.2210     2.4350     1.6130 H     1 <1>   0.4500 
 32 H       -3.1640     2.6580    -0.9180 H     1 <1>   0.0800 
 33 H       -3.1600     2.2360     0.7750 H     1 <1>   0.0800 
 34 H        0.0070     4.7910     1.5840 H     1 <1>   0.0800 
 35 H       -0.4870     4.5910    -1.3930 H     1 <1>   0.0800 
 36 H       -1.5920     5.2490    -0.2080 H     1 <1>   0.0800 
 37 H        2.0650     3.5280     1.2060 H     1 <1>   0.0800 
 38 H        1.7780     3.5360    -0.5220 H     1 <1>   0.0800 
 39 H       -3.4560    -0.8040    -1.2040 H     1 <1>   0.1500 
 40 H       -0.3010     7.0080    -1.3860 H     1 <1>   0.0800 
 41 H       -0.0230     7.0290     0.3290 H     1 <1>   0.0800 
 42 H        2.2550     5.9550     1.2180 H     1 <1>   0.0800 
 43 H        3.3440     5.2980     0.0350 H     1 <1>   0.0800 
 44 H       -5.0190     3.5110     0.4990 H     1 <1>   0.1500 
 45 H       -5.4790    -2.0260    -1.4260 H     1 <1>   0.1500 
 46 H        2.1050     7.2720    -0.8250 H     1 <1>   0.0800 
 47 H        1.8080     5.8500    -1.7760 H     1 <1>   0.0800 
 48 H       -8.8880     0.5540    -0.0600 H     1 <1>   0.1500 
 49 H       -7.2440     4.3140     1.0520 H     1 <1>   0.1500 
 50 H       -9.1900     2.8580     0.7870 H     1 <1>   0.1500 
@<TRIPOS>BOND
  1   1   2  1   
  2   1   3  1   
  3   2   4  1   
  4   2  24  1   
  5   2  25  1   
  6   3   5  1   
  7   3  26  1   
  8   3  27  1   
  9   4   5  1   
 10   4   6  1   
 11   4  28  1   
 12   5   7  1   
 13   5  29  1   
 14   6   8  1   
 15   6  30  1   
 16   6  31  1   
 17   7   9  1   
 18   7  32  1   
 19   7  33  1   
 20   8  10  1   
 21   8  11  1   
 22   8  34  1   
 23   9  12  ar  
 24   9  13  ar  
 25  10  14  1   
 26  10  35  1   
 27  10  36  1   
 28  11  15  1   
 29  11  37  1   
 30  11  38  1   
 31  12  16  ar  
 32  12  17  ar  
 33  13  18  ar  
 34  13  39  1   
 35  14  19  1   
 36  14  40  1   
 37  14  41  1   
 38  15  19  1   
 39  15  42  1   
 40  15  43  1   
 41  16  20  ar  
 42  16  21  ar  
 43  17  22  ar  
 44  17  44  1   
 45  18  20  ar  
 46  18  45  1   
 47  19  46  1   
 48  19  47  1   
 49  21  23  ar  
 50  21  48  1   
 51  22  23  ar  
 52  22  49  1   
 53  23  50  1   
@<TRIPOS>SUBSTRUCTURE
  1 ****   7 GROUP 4 **** **** 0

# MOE 2024.06 (io_trps.svl 2023.06)
