@<TRIPOS>MOLECULE
NONAME
47 49 1 0 0 
SMALL
USER_CHARGES


@<TRIPOS>ATOM
  1 O       -0.6680     2.2890    -1.6910 O.2   1 <1>  -0.5750 
  2 C       -0.5480     1.9890    -0.5310 C.2   1 <1>   0.5640 
  3 N       -1.3460     1.1430     0.1550 N.am  1 <1>  -0.6640 
  4 C        0.3120     2.7640     0.4260 C.3   1 <1>  -0.1070 
  5 C       -1.2120     1.3270     1.6130 C.3   1 <1>   0.1320 
  6 C       -2.5030     0.4130    -0.4160 C.3   1 <1>   0.2770 
  7 C       -0.5550     2.7070     1.7020 C.3   1 <1>  -0.0280 
  8 C       -3.6940     1.3590    -0.4780 C.ar  1 <1>  -0.1510 
  9 C       -1.6500     3.7790     1.7000 C.2   1 <1>   0.8490 
 10 C       -4.4860     1.5900     0.6370 C.ar  1 <1>  -0.1580 
 11 C       -4.0030     1.9970    -1.6680 C.ar  1 <1>  -0.1580 
 12 O       -1.9090     4.3560     2.7220 O.2   1 <1>  -0.5750 
 13 N       -2.3070     4.0800     0.5510 N.pl3 1 <1>  -0.7330 
 14 C       -5.5540     2.4670     0.5680 C.ar  1 <1>  -0.1580 
 15 C       -5.0840     2.8590    -1.7400 C.ar  1 <1>  -0.1580 
 16 C       -3.1480     5.0790     0.3230 C.cat 1 <1>   1.0690 
 17 C       -5.8580     3.1090    -0.6200 C.ar  1 <1>  -0.1510 
 18 N       -3.8190     5.7490     1.2390 N.pl3 1 <1>  -0.7040 
 19 N       -3.4040     5.5830    -0.8830 N.pl3 1 <1>  -0.7670 
 20 C       -7.0450     4.0550    -0.7000 C.3   1 <1>  -0.0250 
 21 C       -4.5700     6.7130     0.6100 C.2   1 <1>   0.1930 
 22 C       -4.3140     6.6110    -0.7080 C.2   1 <1>   0.1930 
 23 C       -2.8220     5.1980    -2.1990 C.3   1 <1>   0.2670 
 24 C       -8.3140     3.2900    -1.0750 C.3   1 <1>  -0.2470 
 25 H        0.4990     3.7670     0.0860 H     1 <1>   0.0720 
 26 H        1.2430     2.2440     0.5640 H     1 <1>   0.0720 
 27 H       -0.5620     0.5630     2.0080 H     1 <1>   0.0720 
 28 H       -2.1590     1.2930     2.1210 H     1 <1>   0.0720 
 29 H       -2.7320    -0.4440     0.1920 H     1 <1>   0.0720 
 30 H       -2.2520     0.0670    -1.4050 H     1 <1>   0.0720 
 31 H        0.0380     2.8020     2.5940 H     1 <1>   0.0720 
 32 H       -4.2890     1.0810     1.5630 H     1 <1>   0.1420 
 33 H       -3.4090     1.8140    -2.5490 H     1 <1>   0.1420 
 34 H       -2.2350     3.4060    -0.2120 H     1 <1>   0.4440 
 35 H       -6.1630     2.6330     1.4410 H     1 <1>   0.1420 
 36 H       -5.3310     3.3260    -2.6780 H     1 <1>   0.1420 
 37 H       -3.7140     5.5470     2.2380 H     1 <1>   0.4440 
 38 H       -6.8580     4.8160    -1.4370 H     1 <1>   0.0720 
 39 H       -7.1900     4.5410     0.2490 H     1 <1>   0.0720 
 40 H       -5.2210     7.3940     1.1360 H     1 <1>   0.1420 
 41 H       -4.7100     7.1940    -1.5250 H     1 <1>   0.1420 
 42 H       -2.2980     4.2600    -2.1330 H     1 <1>   0.0720 
 43 H       -2.1310     5.9560    -2.5280 H     1 <1>   0.0720 
 44 H       -3.6040     5.1000    -2.9310 H     1 <1>   0.0720 
 45 H       -8.1900     2.8100    -2.0300 H     1 <1>   0.0720 
 46 H       -9.1510     3.9620    -1.1310 H     1 <1>   0.0720 
 47 H       -8.5250     2.5350    -0.3380 H     1 <1>   0.0720 
@<TRIPOS>BOND
  1   1   2  2   
  2   2   3  am  
  3   2   4  1   
  4   3   5  1   
  5   3   6  1   
  6   4   7  1   
  7   4  25  1   
  8   4  26  1   
  9   5   7  1   
 10   5  27  1   
 11   5  28  1   
 12   6   8  1   
 13   6  29  1   
 14   6  30  1   
 15   7   9  1   
 16   7  31  1   
 17   8  10  ar  
 18   8  11  ar  
 19   9  12  2   
 20   9  13  1   
 21  10  14  ar  
 22  10  32  1   
 23  11  15  ar  
 24  11  33  1   
 25  13  16  ar  
 26  13  34  1   
 27  14  17  ar  
 28  14  35  1   
 29  15  17  ar  
 30  15  36  1   
 31  16  18  ar  
 32  16  19  ar  
 33  17  20  1   
 34  18  21  1   
 35  18  37  1   
 36  19  22  1   
 37  19  23  1   
 38  20  24  1   
 39  20  38  1   
 40  20  39  1   
 41  21  22  2   
 42  21  40  1   
 43  22  41  1   
 44  23  42  1   
 45  23  43  1   
 46  23  44  1   
 47  24  45  1   
 48  24  46  1   
 49  24  47  1   
@<TRIPOS>SUBSTRUCTURE
  1 ****  13 GROUP 4 **** **** 0

# MOE 2024.06 (io_trps.svl 2023.06)
