@<TRIPOS>MOLECULE
NONAME
52 54 1 0 0 
SMALL
USER_CHARGES


@<TRIPOS>ATOM
  1 CL       3.2370     0.5280     3.0340 Cl    1 <1>  -0.1770 
  2 C        3.4680    -0.4080     1.5740 C.ar  1 <1>   0.1770 
  3 C        4.7200    -0.4740     0.9760 C.ar  1 <1>   0.0820 
  4 C        2.3800    -1.0670     1.0390 C.ar  1 <1>  -0.1500 
  5 O        5.7830     0.1560     1.5210 O.3   1 <1>  -0.3630 
  6 C        4.8440    -1.2290    -0.1830 C.ar  1 <1>   0.1770 
  7 C        2.5020    -1.8340    -0.1230 C.ar  1 <1>   0.0860 
  8 C        6.0700     1.4500     1.0420 C.3   1 <1>   0.0400 
  9 CL       6.3900    -1.3590    -0.9920 Cl    1 <1>  -0.1770 
 10 C        3.7600    -1.8920    -0.7260 C.ar  1 <1>  -0.1500 
 11 C        1.3690    -2.5350    -0.6960 C.2   1 <1>   0.5440 
 12 O        1.2520    -2.5780    -1.9070 O.2   1 <1>  -0.5700 
 13 N        0.4220    -3.1620     0.0920 N.am  1 <1>  -0.6600 
 14 C       -0.9080    -3.5110    -0.4980 C.3   1 <1>   0.2200 
 15 C        0.8420    -3.8880     1.3300 C.3   1 <1>   0.0600 
 16 C       -1.6400    -2.2660    -1.0040 C.3   1 <1>  -0.1600 
 17 C       -1.9130    -4.1200     0.4860 C.3   1 <1>  -0.1600 
 18 C       -3.1130    -2.6810    -1.0930 C.3   1 <1>  -0.0800 
 19 C       -3.2830    -3.8840    -0.1630 C.3   1 <1>  -0.0800 
 20 C       -4.1230    -1.6320    -0.6100 C.3   1 <1>  -0.1600 
 21 C       -4.4180    -3.5110     0.8040 C.3   1 <1>  -0.1600 
 22 C       -5.2310    -2.4310     0.0810 C.3   1 <1>   0.4230 
 23 N       -6.1500    -3.0480    -0.9300 N.4   1 <1>  -0.9590 
 24 C       -6.8580    -2.0270    -1.7690 C.3   1 <1>   0.2630 
 25 C       -7.1760    -3.9460    -0.3080 C.3   1 <1>   0.2630 
 26 H        1.4230    -0.9840     1.5230 H     1 <1>   0.1500 
 27 H        6.9340     1.8180     1.5660 H     1 <1>   0.0800 
 28 H        5.2250     2.0880     1.2310 H     1 <1>   0.0800 
 29 H        6.2760     1.3970    -0.0130 H     1 <1>   0.0800 
 30 H        3.8870    -2.4640    -1.6290 H     1 <1>   0.1500 
 31 H       -0.7600    -4.1920    -1.3210 H     1 <1>   0.0800 
 32 H        0.3460    -3.4690     2.1880 H     1 <1>   0.0800 
 33 H        1.9050    -3.8150     1.4780 H     1 <1>   0.0800 
 34 H        0.5930    -4.9320     1.2470 H     1 <1>   0.0800 
 35 H       -1.5060    -1.4700    -0.2930 H     1 <1>   0.0800 
 36 H       -1.2680    -1.9530    -1.9630 H     1 <1>   0.0800 
 37 H       -1.7310    -5.1680     0.6430 H     1 <1>   0.0800 
 38 H       -1.8560    -3.5930     1.4220 H     1 <1>   0.0800 
 39 H       -3.3380    -2.9840    -2.1030 H     1 <1>   0.0800 
 40 H       -3.5550    -4.7450    -0.7520 H     1 <1>   0.0800 
 41 H       -4.4510    -0.9840    -1.4000 H     1 <1>   0.0800 
 42 H       -3.6620    -1.0110     0.1390 H     1 <1>   0.0800 
 43 H       -4.0020    -3.0570     1.6870 H     1 <1>   0.0800 
 44 H       -4.9810    -4.3670     1.1230 H     1 <1>   0.0800 
 45 H       -5.7860    -1.8210     0.7760 H     1 <1>   0.0800 
 46 H       -5.5500    -3.6150    -1.5460 H     1 <1>   0.4500 
 47 H       -7.4190    -1.3520    -1.1430 H     1 <1>   0.0800 
 48 H       -7.5390    -2.5120    -2.4490 H     1 <1>   0.0800 
 49 H       -6.1550    -1.4560    -2.3510 H     1 <1>   0.0800 
 50 H       -7.7620    -3.4020     0.4150 H     1 <1>   0.0800 
 51 H       -6.7070    -4.7810     0.1840 H     1 <1>   0.0800 
 52 H       -7.8390    -4.3340    -1.0650 H     1 <1>   0.0800 
@<TRIPOS>BOND
  1   1   2  1   
  2   2   3  ar  
  3   2   4  ar  
  4   3   5  1   
  5   3   6  ar  
  6   4   7  ar  
  7   4  26  1   
  8   5   8  1   
  9   6   9  1   
 10   6  10  ar  
 11   7  10  ar  
 12   7  11  1   
 13   8  27  1   
 14   8  28  1   
 15   8  29  1   
 16  10  30  1   
 17  11  12  2   
 18  11  13  am  
 19  13  14  1   
 20  13  15  1   
 21  14  16  1   
 22  14  17  1   
 23  14  31  1   
 24  15  32  1   
 25  15  33  1   
 26  15  34  1   
 27  16  18  1   
 28  16  35  1   
 29  16  36  1   
 30  17  19  1   
 31  17  37  1   
 32  17  38  1   
 33  18  19  1   
 34  18  20  1   
 35  18  39  1   
 36  19  21  1   
 37  19  40  1   
 38  20  22  1   
 39  20  41  1   
 40  20  42  1   
 41  21  22  1   
 42  21  43  1   
 43  21  44  1   
 44  22  23  1   
 45  22  45  1   
 46  23  24  1   
 47  23  25  1   
 48  23  46  1   
 49  24  47  1   
 50  24  48  1   
 51  24  49  1   
 52  25  50  1   
 53  25  51  1   
 54  25  52  1   
@<TRIPOS>SUBSTRUCTURE
  1 ****  13 GROUP 4 **** **** 0

# MOE 2024.06 (io_trps.svl 2023.06)
