@<TRIPOS>MOLECULE
NONAME
50 54 1 0 0 
SMALL
USER_CHARGES


@<TRIPOS>ATOM
  1 F       -1.3090     0.2680    -1.9530 F     1 <1>  -0.1370 
  2 C       -2.1220     0.6310    -0.9930 C.2   1 <1>  -0.0150 
  3 N       -2.2930     1.9190    -0.6920 N.pl3 1 <1>   0.3340 
  4 C       -2.8910    -0.1650    -0.1970 C.2   1 <1>   0.1410 
  5 C       -3.2150     1.8730     0.3290 C.2   1 <1>   0.1410 
  6 C       -1.7870     3.1250    -1.1620 C.2   1 <1>  -0.1810 
  7 N       -3.5910     0.6530     0.6440 N.2   1 <1>  -0.5650 
  8 C       -2.9530    -1.6210    -0.2110 C.2   1 <1>   0.7160 
  9 C       -3.6420     3.0990     0.9030 C.2   1 <1>  -0.1050 
 10 C       -2.2020     4.2950    -0.6100 C.2   1 <1>  -0.1500 
 11 O       -1.9860    -2.2600    -0.5890 O.2   1 <1>  -0.5700 
 12 N       -4.0730    -2.3360     0.1800 N.am  1 <1>  -0.6600 
 13 C       -3.1520     4.2880     0.4500 C.2   1 <1>  -0.1380 
 14 C       -4.0270    -3.8060     0.4660 C.3   1 <1>   0.1400 
 15 C       -5.4530    -1.7640     0.2640 C.3   1 <1>   0.1400 
 16 C       -3.5830     5.6190     1.0380 C.3   1 <1>  -0.1020 
 17 C       -5.1190    -4.5640    -0.3110 C.3   1 <1>   0.3430 
 18 C       -6.4730    -2.6480    -0.4820 C.3   1 <1>   0.2950 
 19 O       -6.3720    -3.9800    -0.0720 O.3   1 <1>  -0.5600 
 20 C       -5.1510    -6.0330     0.1000 C.ar  1 <1>  -0.1440 
 21 C       -7.9110    -2.1930    -0.2150 C.3   1 <1>  -0.1950 
 22 C       -5.9230    -6.4710     1.1680 C.ar  1 <1>  -0.1500 
 23 C       -4.3830    -6.9560    -0.5970 C.ar  1 <1>  -0.1500 
 24 C       -9.0210    -2.5370    -1.1570 C.3   1 <1>  -0.2000 
 25 C       -8.5460    -1.1160    -1.0400 C.3   1 <1>  -0.2000 
 26 C       -5.9270    -7.8060     1.5340 C.ar  1 <1>  -0.1500 
 27 C       -4.3860    -8.2920    -0.2320 C.ar  1 <1>  -0.1500 
 28 C       -5.1580    -8.7180     0.8340 C.ar  1 <1>  -0.1500 
 29 H       -1.0720     3.0640    -1.9630 H     1 <1>   0.1500 
 30 H       -4.3590     3.0390     1.7020 H     1 <1>   0.1500 
 31 H       -1.8250     5.2440    -0.9550 H     1 <1>   0.1500 
 32 H       -3.0680    -4.2200     0.2120 H     1 <1>   0.0800 
 33 H       -4.1790    -3.9640     1.5200 H     1 <1>   0.0800 
 34 H       -5.7370    -1.6810     1.2990 H     1 <1>   0.0800 
 35 H       -5.4870    -0.7810    -0.1690 H     1 <1>   0.0800 
 36 H       -2.7310     6.1370     1.4400 H     1 <1>   0.0800 
 37 H       -4.2990     5.4750     1.8280 H     1 <1>   0.0800 
 38 H       -4.0340     6.2290     0.2760 H     1 <1>   0.0800 
 39 H       -4.9190    -4.4990    -1.3670 H     1 <1>   0.0800 
 40 H       -6.2780    -2.6100    -1.5400 H     1 <1>   0.0800 
 41 H       -8.1440    -2.2030     0.8350 H     1 <1>   0.1000 
 42 H       -6.5280    -5.7700     1.7170 H     1 <1>   0.1500 
 43 H       -3.7760    -6.6410    -1.4280 H     1 <1>   0.1500 
 44 H       -8.7870    -3.1000    -2.0450 H     1 <1>   0.1000 
 45 H       -9.9760    -2.8080    -0.7410 H     1 <1>   0.1000 
 46 H       -9.1840    -0.3990    -0.5520 H     1 <1>   0.1000 
 47 H       -8.0070    -0.6900    -1.8690 H     1 <1>   0.1000 
 48 H       -6.5310    -8.1330     2.3620 H     1 <1>   0.1500 
 49 H       -3.7880    -9.0010    -0.7780 H     1 <1>   0.1500 
 50 H       -5.1610    -9.7560     1.1170 H     1 <1>   0.1500 
@<TRIPOS>BOND
  1   1   2  1   
  2   2   3  1   
  3   2   4  2   
  4   3   5  1   
  5   3   6  1   
  6   4   7  1   
  7   4   8  1   
  8   5   7  2   
  9   5   9  1   
 10   6  10  2   
 11   6  29  1   
 12   8  11  2   
 13   8  12  am  
 14   9  13  2   
 15   9  30  1   
 16  10  13  1   
 17  10  31  1   
 18  12  14  1   
 19  12  15  1   
 20  13  16  1   
 21  14  17  1   
 22  14  32  1   
 23  14  33  1   
 24  15  18  1   
 25  15  34  1   
 26  15  35  1   
 27  16  36  1   
 28  16  37  1   
 29  16  38  1   
 30  17  19  1   
 31  17  20  1   
 32  17  39  1   
 33  18  19  1   
 34  18  21  1   
 35  18  40  1   
 36  20  22  ar  
 37  20  23  ar  
 38  21  24  1   
 39  21  25  1   
 40  21  41  1   
 41  22  26  ar  
 42  22  42  1   
 43  23  27  ar  
 44  23  43  1   
 45  24  25  1   
 46  24  44  1   
 47  24  45  1   
 48  25  46  1   
 49  25  47  1   
 50  26  28  ar  
 51  26  48  1   
 52  27  28  ar  
 53  27  49  1   
 54  28  50  1   
@<TRIPOS>SUBSTRUCTURE
  1 ****  12 GROUP 4 **** **** 0

# MOE 2024.06 (io_trps.svl 2023.06)
