@<TRIPOS>MOLECULE
NONAME
53 56 1 0 0 
SMALL
USER_CHARGES


@<TRIPOS>ATOM
  1 O       -3.1080    -1.8690    -1.4460 O.3   1 <1>  -0.3630 
  2 C       -3.8490    -0.9590    -0.7730 C.ar  1 <1>   0.0830 
  3 C       -2.6960    -3.0740    -0.8340 C.3   1 <1>   0.0400 
  4 C       -4.3060     0.1340    -1.4910 C.ar  1 <1>  -0.1500 
  5 C       -4.1830    -1.0760     0.5730 C.ar  1 <1>  -0.1500 
  6 C       -5.1230     1.0730    -0.8910 C.ar  1 <1>  -0.1500 
  7 C       -4.9990    -0.1340     1.1680 C.ar  1 <1>  -0.1500 
  8 C       -5.5060     0.9370     0.4400 C.ar  1 <1>   0.0530 
  9 C       -6.4580     1.8370     1.0290 C.2   1 <1>  -0.2050 
 10 N       -6.2300     3.1590     1.2160 N.pl3 1 <1>   0.3000 
 11 C       -7.7210     1.6130     1.4940 C.2   1 <1>  -0.1810 
 12 N       -7.2860     3.7820     1.7670 N.2   1 <1>  -0.7070 
 13 C       -8.1700     2.8500     1.9330 C.2   1 <1>   0.1390 
 14 C       -8.5500     0.3420     1.5720 C.3   1 <1>   0.5240 
 15 N       -8.0740    -0.6370     0.5690 N.4   1 <1>  -0.9590 
 16 C       -8.3470    -0.2410    -0.8500 C.3   1 <1>   0.3430 
 17 C       -8.6290    -2.0030     0.7340 C.3   1 <1>   0.3430 
 18 C       -8.8620    -1.5040    -1.5620 C.3   1 <1>   0.2000 
 19 C       -8.4520    -2.6490    -0.6390 C.3   1 <1>  -0.0800 
 20 O      -10.2490    -1.4500    -1.5780 O.3   1 <1>  -0.6800 
 21 C       -6.9960    -3.0920    -0.9120 C.3   1 <1>   0.0210 
 22 C       -6.4490    -3.9890     0.1810 C.2   1 <1>   0.1080 
 23 N       -6.1090    -3.5490     1.3550 N.2   1 <1>  -0.7070 
 24 C       -6.2420    -5.3570     0.0500 C.2   1 <1>  -0.1500 
 25 N       -5.6670    -4.6440     2.0110 N.pl3 1 <1>   0.3000 
 26 C       -5.7400    -5.7480     1.2400 C.2   1 <1>  -0.3320 
 27 C       -5.3180    -7.1340     1.6940 C.3   1 <1>  -0.0600 
 28 H       -2.1750    -3.6610    -1.5690 H     1 <1>   0.0800 
 29 H       -3.5630    -3.6080    -0.4870 H     1 <1>   0.0800 
 30 H       -2.0340    -2.8420    -0.0190 H     1 <1>   0.0800 
 31 H       -4.0170     0.2340    -2.5230 H     1 <1>   0.1500 
 32 H       -3.8240    -1.8980     1.1640 H     1 <1>   0.1500 
 33 H       -5.4750     1.9140    -1.4640 H     1 <1>   0.1500 
 34 H       -5.2480    -0.2350     2.2110 H     1 <1>   0.1500 
 35 H       -5.3600     3.6550     0.9840 H     1 <1>   0.2700 
 36 H       -9.1390     3.0480     2.3670 H     1 <1>   0.1500 
 37 H       -9.5880     0.5690     1.3950 H     1 <1>   0.0800 
 38 H       -8.4550    -0.0750     2.5620 H     1 <1>   0.0800 
 39 H       -7.0500    -0.7110     0.6850 H     1 <1>   0.4500 
 40 H       -9.0870     0.5410    -0.9090 H     1 <1>   0.0800 
 41 H       -7.4350     0.0970    -1.3110 H     1 <1>   0.0800 
 42 H       -8.1390    -2.5480     1.5220 H     1 <1>   0.0800 
 43 H       -9.6830    -1.9410     0.9530 H     1 <1>   0.0800 
 44 H       -8.5050    -1.5900    -2.5750 H     1 <1>   0.0800 
 45 H       -9.0980    -3.5040    -0.7390 H     1 <1>   0.0800 
 46 H      -10.6280    -2.1440    -2.1590 H     1 <1>   0.4000 
 47 H       -6.3440    -2.2430    -0.9950 H     1 <1>   0.0800 
 48 H       -6.9510    -3.6180    -1.8490 H     1 <1>   0.0800 
 49 H       -6.4420    -5.9560    -0.8210 H     1 <1>   0.1500 
 50 H       -5.3220    -4.6130     2.9800 H     1 <1>   0.2700 
 51 H       -5.4710    -7.8460     0.9010 H     1 <1>   0.0800 
 52 H       -5.8990    -7.4430     2.5450 H     1 <1>   0.0800 
 53 H       -4.2760    -7.1400     1.9600 H     1 <1>   0.0800 
@<TRIPOS>BOND
  1   1   2  1   
  2   1   3  1   
  3   2   4  ar  
  4   2   5  ar  
  5   3  28  1   
  6   3  29  1   
  7   3  30  1   
  8   4   6  ar  
  9   4  31  1   
 10   5   7  ar  
 11   5  32  1   
 12   6   8  ar  
 13   6  33  1   
 14   7   8  ar  
 15   7  34  1   
 16   8   9  1   
 17   9  10  1   
 18   9  11  2   
 19  10  12  1   
 20  10  35  1   
 21  11  13  1   
 22  11  14  1   
 23  12  13  2   
 24  13  36  1   
 25  14  15  1   
 26  14  37  1   
 27  14  38  1   
 28  15  16  1   
 29  15  17  1   
 30  15  39  1   
 31  16  18  1   
 32  16  40  1   
 33  16  41  1   
 34  17  19  1   
 35  17  42  1   
 36  17  43  1   
 37  18  19  1   
 38  18  20  1   
 39  18  44  1   
 40  19  21  1   
 41  19  45  1   
 42  20  46  1   
 43  21  22  1   
 44  21  47  1   
 45  21  48  1   
 46  22  23  2   
 47  22  24  1   
 48  23  25  1   
 49  24  26  2   
 50  24  49  1   
 51  25  26  1   
 52  25  50  1   
 53  26  27  1   
 54  27  51  1   
 55  27  52  1   
 56  27  53  1   
@<TRIPOS>SUBSTRUCTURE
  1 ****  15 GROUP 4 **** **** 0

# MOE 2024.06 (io_trps.svl 2023.06)
