@<TRIPOS>MOLECULE
NONAME
42 44 1 0 0 
SMALL
USER_CHARGES


@<TRIPOS>ATOM
  1 S        1.9340    -0.5820    -0.3740 S.3   1 <1>  -0.4600 
  2 C        1.8550     1.0440    -1.1720 C.3   1 <1>   0.0700 
  3 C        3.5130    -0.4970     0.5100 C.3   1 <1>   0.0700 
  4 C        2.0450     2.1330    -0.1080 C.3   1 <1>   0.3430 
  5 C        3.5230     0.7560     1.3950 C.3   1 <1>   0.3430 
  6 N        3.3690     2.0110     0.5920 N.4   1 <1>  -0.9590 
  7 C        3.7240     3.2180     1.3840 C.3   1 <1>   0.4860 
  8 C        3.7260     4.4410     0.4770 C.ar  1 <1>  -0.1430 
  9 C        4.7230     4.6440    -0.4850 C.ar  1 <1>  -0.0230 
 10 C        2.7010     5.3660     0.6150 C.ar  1 <1>  -0.1500 
 11 N        5.8150     3.7430    -0.6550 N.pl3 1 <1>   0.5930 
 12 C        4.6430     5.7660    -1.3050 C.ar  1 <1>  -0.1500 
 13 C        2.6450     6.4800    -0.2020 C.ar  1 <1>  -0.1500 
 14 N        5.6380     2.4410    -1.0190 N.2   1 <1>  -0.7070 
 15 C        7.1350     3.9850    -0.4350 C.2   1 <1>  -0.3320 
 16 C        3.6140     6.6780    -1.1660 C.ar  1 <1>  -0.1500 
 17 C        6.8260     1.9290    -1.0610 C.2   1 <1>   0.1080 
 18 C        7.8040     2.8440    -0.6960 C.2   1 <1>  -0.1500 
 19 C        7.7090     5.3190     0.0200 C.3   1 <1>  -0.0600 
 20 C        7.0990     0.4980    -1.4660 C.3   1 <1>  -0.0590 
 21 H        0.8890     1.1210    -1.6400 H     1 <1>   0.0800 
 22 H        2.6250     1.0840    -1.9230 H     1 <1>   0.0800 
 23 H        4.3010    -0.4740    -0.2220 H     1 <1>   0.0800 
 24 H        3.5920    -1.3930     1.1010 H     1 <1>   0.0800 
 25 H        1.2440     2.0680     0.6090 H     1 <1>   0.0800 
 26 H        1.9800     3.0910    -0.5970 H     1 <1>   0.0800 
 27 H        4.4580     0.7850     1.9300 H     1 <1>   0.0800 
 28 H        2.7250     0.6830     2.1160 H     1 <1>   0.0800 
 29 H        4.0940     1.9790    -0.1580 H     1 <1>   0.4500 
 30 H        4.7050     3.0970     1.8140 H     1 <1>   0.0800 
 31 H        3.0150     3.3560     2.1830 H     1 <1>   0.0800 
 32 H        1.9320     5.2370     1.3590 H     1 <1>   0.1500 
 33 H        5.3910     5.9300    -2.0630 H     1 <1>   0.1500 
 34 H        1.8470     7.1960    -0.0910 H     1 <1>   0.1500 
 35 H        3.5680     7.5430    -1.8070 H     1 <1>   0.1500 
 36 H        8.8630     2.6540    -0.6440 H     1 <1>   0.1500 
 37 H        7.2470     5.6350     0.9380 H     1 <1>   0.0800 
 38 H        7.5470     6.0740    -0.7290 H     1 <1>   0.0800 
 39 H        8.7690     5.2310     0.1850 H     1 <1>   0.0800 
 40 H        6.4290     0.2070    -2.2550 H     1 <1>   0.0800 
 41 H        6.9600    -0.1560    -0.6260 H     1 <1>   0.0800 
 42 H        8.1090     0.4000    -1.8210 H     1 <1>   0.0800 
@<TRIPOS>BOND
  1   1   2  1   
  2   1   3  1   
  3   2   4  1   
  4   2  21  1   
  5   2  22  1   
  6   3   5  1   
  7   3  23  1   
  8   3  24  1   
  9   4   6  1   
 10   4  25  1   
 11   4  26  1   
 12   5   6  1   
 13   5  27  1   
 14   5  28  1   
 15   6   7  1   
 16   6  29  1   
 17   7   8  1   
 18   7  30  1   
 19   7  31  1   
 20   8   9  ar  
 21   8  10  ar  
 22   9  11  1   
 23   9  12  ar  
 24  10  13  ar  
 25  10  32  1   
 26  11  14  1   
 27  11  15  1   
 28  12  16  ar  
 29  12  33  1   
 30  13  16  ar  
 31  13  34  1   
 32  14  17  2   
 33  15  18  2   
 34  15  19  1   
 35  16  35  1   
 36  17  18  1   
 37  17  20  1   
 38  18  36  1   
 39  19  37  1   
 40  19  38  1   
 41  19  39  1   
 42  20  40  1   
 43  20  41  1   
 44  20  42  1   
@<TRIPOS>SUBSTRUCTURE
  1 ****  11 GROUP 4 **** **** 0

# MOE 2024.06 (io_trps.svl 2023.06)
