@<TRIPOS>MOLECULE
NONAME
52 54 1 0 0 
SMALL
USER_CHARGES


@<TRIPOS>ATOM
  1 O        0.6840     0.0350    -0.9540 O.2   1 <1>  -0.5700 
  2 C        1.6790    -0.5700    -0.5970 C.2   1 <1>   0.7150 
  3 N        2.7930     0.1500    -0.2140 N.am  1 <1>  -0.6600 
  4 C        1.6430    -2.0050    -0.5580 C.2   1 <1>  -0.2370 
  5 C        3.8640    -0.4500     0.6440 C.3   1 <1>   0.1400 
  6 C        2.7850     1.6380    -0.3680 C.3   1 <1>   0.1400 
  7 N        0.6130    -2.7110    -0.0230 N.pl3 1 <1>   0.3140 
  8 C        2.5230    -2.9450    -1.0030 C.2   1 <1>  -0.1500 
  9 C        5.1530    -0.7150    -0.1470 C.3   1 <1>   0.1400 
 10 C        4.1690     2.2940    -0.4660 C.3   1 <1>  -0.1600 
 11 N        0.8170    -4.0350    -0.0840 N.2   1 <1>  -0.7070 
 12 C       -0.6200    -2.1730     0.5770 C.3   1 <1>   0.0160 
 13 C        1.9620    -4.1660    -0.6800 C.2   1 <1>   0.1390 
 14 N        5.8990     0.5450    -0.4360 N.am  1 <1>  -0.6600 
 15 C        5.1780     1.5100    -1.3090 C.3   1 <1>   0.1400 
 16 C        7.1330     0.7750     0.1260 C.2   1 <1>   0.5690 
 17 O        7.6870    -0.0660     0.7950 O.2   1 <1>  -0.5700 
 18 C        7.8410     2.1050    -0.0850 C.3   1 <1>  -0.0990 
 19 C        8.9410     2.3860     0.9470 C.3   1 <1>   0.0210 
 20 C        9.5840     3.7320     0.6710 C.2   1 <1>   0.1080 
 21 N        8.9600     4.8460     0.8950 N.2   1 <1>  -0.7070 
 22 C       10.8640     3.9380     0.1550 C.2   1 <1>  -0.1810 
 23 N        9.8340     5.8020     0.5350 N.pl3 1 <1>   0.3000 
 24 C       10.9930     5.2820     0.0810 C.2   1 <1>  -0.3320 
 25 C       11.8600     2.8560    -0.2250 C.3   1 <1>  -0.0590 
 26 C       12.1490     6.1480    -0.3910 C.3   1 <1>  -0.0600 
 27 H        3.5190    -1.3810     1.0570 H     1 <1>   0.0800 
 28 H        4.0800     0.1990     1.4750 H     1 <1>   0.0800 
 29 H        2.2430     2.0700     0.4560 H     1 <1>   0.0800 
 30 H        2.2440     1.8810    -1.2670 H     1 <1>   0.0800 
 31 H        3.4570    -2.8040    -1.5130 H     1 <1>   0.1500 
 32 H        4.9240    -1.2090    -1.0730 H     1 <1>   0.0800 
 33 H        5.7690    -1.3830     0.4290 H     1 <1>   0.0800 
 34 H        4.5660     2.4680     0.5190 H     1 <1>   0.0800 
 35 H        4.0310     3.2610    -0.9150 H     1 <1>   0.0800 
 36 H       -0.3650    -1.4440     1.3220 H     1 <1>   0.0800 
 37 H       -1.1730    -2.9750     1.0290 H     1 <1>   0.0800 
 38 H       -1.2130    -1.7150    -0.1920 H     1 <1>   0.0800 
 39 H        2.4070    -5.1240    -0.8920 H     1 <1>   0.1500 
 40 H        5.8770     2.1890    -1.7650 H     1 <1>   0.0800 
 41 H        4.6780     0.9850    -2.1050 H     1 <1>   0.0800 
 42 H        7.1270     2.9040    -0.0200 H     1 <1>   0.0800 
 43 H        8.2710     2.1120    -1.0690 H     1 <1>   0.0800 
 44 H        9.6820     1.6090     0.9200 H     1 <1>   0.0800 
 45 H        8.5150     2.4020     1.9340 H     1 <1>   0.0800 
 46 H        9.6110     6.8010     0.6120 H     1 <1>   0.2700 
 47 H       11.4130     2.1820    -0.9320 H     1 <1>   0.0800 
 48 H       12.1490     2.3040     0.6510 H     1 <1>   0.0800 
 49 H       12.7400     3.2810    -0.6690 H     1 <1>   0.0800 
 50 H       12.9830     5.5440    -0.6950 H     1 <1>   0.0800 
 51 H       12.4730     6.7960     0.4030 H     1 <1>   0.0800 
 52 H       11.8420     6.7480    -1.2290 H     1 <1>   0.0800 
@<TRIPOS>BOND
  1   1   2  2   
  2   2   3  am  
  3   2   4  1   
  4   3   5  1   
  5   3   6  1   
  6   4   7  1   
  7   4   8  2   
  8   5   9  1   
  9   5  27  1   
 10   5  28  1   
 11   6  10  1   
 12   6  29  1   
 13   6  30  1   
 14   7  11  1   
 15   7  12  1   
 16   8  13  1   
 17   8  31  1   
 18   9  14  1   
 19   9  32  1   
 20   9  33  1   
 21  10  15  1   
 22  10  34  1   
 23  10  35  1   
 24  11  13  2   
 25  12  36  1   
 26  12  37  1   
 27  12  38  1   
 28  13  39  1   
 29  14  15  1   
 30  14  16  am  
 31  15  40  1   
 32  15  41  1   
 33  16  17  2   
 34  16  18  1   
 35  18  19  1   
 36  18  42  1   
 37  18  43  1   
 38  19  20  1   
 39  19  44  1   
 40  19  45  1   
 41  20  21  2   
 42  20  22  1   
 43  21  23  1   
 44  22  24  2   
 45  22  25  1   
 46  23  24  1   
 47  23  46  1   
 48  24  26  1   
 49  25  47  1   
 50  25  48  1   
 51  25  49  1   
 52  26  50  1   
 53  26  51  1   
 54  26  52  1   
@<TRIPOS>SUBSTRUCTURE
  1 ****  14 GROUP 4 **** **** 0

# MOE 2024.06 (io_trps.svl 2023.06)
