@<TRIPOS>MOLECULE
NONAME
40 41 1 0 0 
SMALL
USER_CHARGES


@<TRIPOS>ATOM
  1 S       -0.0250    -0.0110    -1.0890 S.o2  1 <1>   1.3330 
  2 O        0.5440     0.3300    -2.3740 O.2   1 <1>  -0.6500 
  3 O       -0.8050    -1.2190    -0.9480 O.2   1 <1>  -0.6500 
  4 N        1.2490    -0.1000     0.0330 N.am  1 <1>  -0.8490 
  5 C       -0.9980     1.3900    -0.5330 C.3   1 <1>  -0.0550 
  6 C        2.4310    -0.7580    -0.5330 C.3   1 <1>   0.1160 
  7 C        0.8700    -0.7640     1.2860 C.3   1 <1>   0.1160 
  8 C       -0.2990     2.7540    -0.7180 C.3   1 <1>  -0.0800 
  9 C       -1.1650     3.9600    -0.3580 C.3   1 <1>   0.2000 
 10 C        0.9670     2.9410     0.1280 C.3   1 <1>   0.2090 
 11 O       -1.7680     3.7270     0.8690 O.3   1 <1>  -0.6800 
 12 C       -0.1350     5.0710    -0.1710 C.3   1 <1>   0.2090 
 13 N        1.0220     4.3880     0.4750 N.pl3 1 <1>  -0.8380 
 14 C        2.2700     5.0080     0.5580 C.ar  1 <1>   0.1000 
 15 C        2.5520     6.2570     0.0280 C.ar  1 <1>  -0.1500 
 16 C        3.3280     4.3920     1.1980 C.ar  1 <1>  -0.1500 
 17 C        3.8170     6.8420     0.1010 C.ar  1 <1>   0.1310 
 18 C        4.5560     5.0140     1.2510 C.ar  1 <1>   0.1600 
 19 N        4.8270     6.1930     0.7290 N.ar  1 <1>  -0.6200 
 20 C        4.0010     8.1700    -0.5280 C.2   1 <1>   0.9790 
 21 O        5.1220     8.6740    -0.7460 O.co2 1 <1>  -0.9000 
 22 O        3.0060     8.8380    -0.8900 O.co2 1 <1>  -0.9000 
 23 H       -1.9120     1.4090    -1.0950 H     1 <1>   0.0800 
 24 H       -1.2640     1.2530     0.4970 H     1 <1>   0.0800 
 25 H        3.2240    -0.7950     0.1950 H     1 <1>   0.0800 
 26 H        2.7860    -0.2080    -1.3890 H     1 <1>   0.0800 
 27 H        2.1880    -1.7610    -0.8440 H     1 <1>   0.0800 
 28 H        1.6840    -0.7200     1.9890 H     1 <1>   0.0800 
 29 H        0.6190    -1.7970     1.1050 H     1 <1>   0.0800 
 30 H        0.0170    -0.2750     1.7250 H     1 <1>   0.0800 
 31 H       -0.0120     2.8560    -1.7500 H     1 <1>   0.0800 
 32 H       -1.9220     4.1900    -1.0880 H     1 <1>   0.0800 
 33 H        1.8440     2.6400    -0.4210 H     1 <1>   0.0800 
 34 H        0.9050     2.3740     1.0410 H     1 <1>   0.0800 
 35 H       -1.0740     3.8560     1.5520 H     1 <1>   0.4000 
 36 H       -0.5100     5.8760     0.4370 H     1 <1>   0.0800 
 37 H        0.1620     5.4520    -1.1340 H     1 <1>   0.0800 
 38 H        1.7800     6.8130    -0.4660 H     1 <1>   0.1500 
 39 H        3.1930     3.4340     1.6570 H     1 <1>   0.1500 
 40 H        5.3660     4.5180     1.7530 H     1 <1>   0.1500 
@<TRIPOS>BOND
  1   1   2  2   
  2   1   3  2   
  3   1   4  am  
  4   1   5  1   
  5   4   6  1   
  6   4   7  1   
  7   5   8  1   
  8   5  23  1   
  9   5  24  1   
 10   6  25  1   
 11   6  26  1   
 12   6  27  1   
 13   7  28  1   
 14   7  29  1   
 15   7  30  1   
 16   8   9  1   
 17   8  10  1   
 18   8  31  1   
 19   9  11  1   
 20   9  12  1   
 21   9  32  1   
 22  10  13  1   
 23  10  33  1   
 24  10  34  1   
 25  11  35  1   
 26  12  13  1   
 27  12  36  1   
 28  12  37  1   
 29  13  14  1   
 30  14  15  ar  
 31  14  16  ar  
 32  15  17  ar  
 33  15  38  1   
 34  16  18  ar  
 35  16  39  1   
 36  17  19  ar  
 37  17  20  1   
 38  18  19  ar  
 39  18  40  1   
 40  20  21  ar  
 41  20  22  ar  
@<TRIPOS>SUBSTRUCTURE
  1 ****  10 GROUP 4 **** **** 0

# MOE 2024.06 (io_trps.svl 2023.06)
