@<TRIPOS>MOLECULE
NONAME
57 60 1 0 0 
SMALL
USER_CHARGES


@<TRIPOS>ATOM
  1 O        0.7260    -0.5290     1.3230 O.3   1 <1>  -0.5600 
  2 C        1.8200    -0.9360     0.5370 C.3   1 <1>   0.4240 
  3 C       -0.5520    -0.8390     0.8560 C.3   1 <1>   0.1200 
  4 C        1.5920    -2.3220    -0.0980 C.ar  1 <1>  -0.1440 
  5 C        3.0050    -0.9900     1.5110 C.3   1 <1>  -0.1600 
  6 C        2.0650     0.1430    -0.5300 C.3   1 <1>  -0.1600 
  7 C       -0.7260    -2.3550     0.8570 C.3   1 <1>  -0.0160 
  8 C        0.3910    -2.9990     0.0600 C.ar  1 <1>  -0.1440 
  9 C        2.5910    -2.9240    -0.8520 C.ar  1 <1>  -0.1500 
 10 C        3.3010     0.3860     2.1070 C.3   1 <1>   0.2090 
 11 C        2.3940     1.4960     0.1000 C.3   1 <1>   0.2090 
 12 C        0.2090    -4.2520    -0.5040 C.ar  1 <1>  -0.1500 
 13 C        2.4260    -4.1700    -1.4320 C.ar  1 <1>   0.0820 
 14 N        3.5940     1.3410     0.9910 N.pl3 1 <1>  -0.8380 
 15 C        1.2170    -4.8610    -1.2470 C.ar  1 <1>   0.0820 
 16 O        3.5070    -4.6020    -2.1440 O.3   1 <1>  -0.3630 
 17 C        4.7610     1.9970     0.7430 C.ar  1 <1>   0.7710 
 18 O        1.0470    -6.1090    -1.7750 O.3   1 <1>  -0.3630 
 19 C        3.3930    -5.5550    -3.1770 C.3   1 <1>   0.0400 
 20 N        4.8460     2.8150    -0.2960 N.ar  1 <1>  -0.6200 
 21 N        5.8100     1.7940     1.5590 N.ar  1 <1>  -0.1790 
 22 C       -0.0330    -6.9390    -1.4090 C.3   1 <1>   0.0400 
 23 C        5.9860     3.4380    -0.5340 C.ar  1 <1>   0.4100 
 24 C        6.9950     2.4210     1.3670 C.ar  1 <1>   0.2110 
 25 N        6.0490     4.2580    -1.6200 N.pl3 1 <1>  -0.8380 
 26 C        7.0980     3.2590     0.3110 C.ar  1 <1>  -0.1500 
 27 C        7.3130     4.6720    -2.2970 C.3   1 <1>   0.1290 
 28 C        4.8210     4.7640    -2.3090 C.3   1 <1>   0.1290 
 29 H       -0.6760    -0.4360    -0.1330 H     1 <1>   0.0800 
 30 H       -1.2660    -0.3790     1.5160 H     1 <1>   0.0800 
 31 H        3.8830    -1.3480     1.0090 H     1 <1>   0.0800 
 32 H        2.7740    -1.6880     2.2960 H     1 <1>   0.0800 
 33 H        1.2040     0.2320    -1.1650 H     1 <1>   0.0800 
 34 H        2.8880    -0.1440    -1.1580 H     1 <1>   0.0800 
 35 H       -1.6800    -2.6000     0.4270 H     1 <1>   0.0800 
 36 H       -0.7070    -2.7180     1.8690 H     1 <1>   0.0800 
 37 H        3.5310    -2.4290    -1.0110 H     1 <1>   0.1500 
 38 H        4.1170     0.3070     2.8010 H     1 <1>   0.0800 
 39 H        2.4410     0.7360     2.6570 H     1 <1>   0.0800 
 40 H        1.5560     1.8390     0.6860 H     1 <1>   0.0800 
 41 H        2.5550     2.2180    -0.6820 H     1 <1>   0.0800 
 42 H       -0.7330    -4.7410    -0.3520 H     1 <1>   0.1500 
 43 H        4.2930    -5.5230    -3.7630 H     1 <1>   0.0800 
 44 H        2.5440    -5.3090    -3.7900 H     1 <1>   0.0800 
 45 H        3.2800    -6.5300    -2.7380 H     1 <1>   0.0800 
 46 H        5.6500     1.1480     2.3200 H     1 <1>   0.4570 
 47 H        0.1150    -7.9000    -1.8670 H     1 <1>   0.0800 
 48 H       -0.9470    -6.5020    -1.7680 H     1 <1>   0.0800 
 49 H       -0.0460    -7.0430    -0.3380 H     1 <1>   0.0800 
 50 H        7.8080     2.2390     2.0530 H     1 <1>   0.1500 
 51 H        8.0040     3.7980     0.1120 H     1 <1>   0.1500 
 52 H        8.1020     3.9670    -2.1050 H     1 <1>   0.0800 
 53 H        7.6110     5.6460    -1.9490 H     1 <1>   0.0800 
 54 H        7.1630     4.7160    -3.3630 H     1 <1>   0.0800 
 55 H        3.9720     4.7390    -1.6490 H     1 <1>   0.0800 
 56 H        4.6110     4.1520    -3.1690 H     1 <1>   0.0800 
 57 H        4.9680     5.7820    -2.6260 H     1 <1>   0.0800 
@<TRIPOS>BOND
  1   1   2  1   
  2   1   3  1   
  3   2   4  1   
  4   2   5  1   
  5   2   6  1   
  6   3   7  1   
  7   3  29  1   
  8   3  30  1   
  9   4   8  ar  
 10   4   9  ar  
 11   5  10  1   
 12   5  31  1   
 13   5  32  1   
 14   6  11  1   
 15   6  33  1   
 16   6  34  1   
 17   7   8  1   
 18   7  35  1   
 19   7  36  1   
 20   8  12  ar  
 21   9  13  ar  
 22   9  37  1   
 23  10  14  1   
 24  10  38  1   
 25  10  39  1   
 26  11  14  1   
 27  11  40  1   
 28  11  41  1   
 29  12  15  ar  
 30  12  42  1   
 31  13  15  ar  
 32  13  16  1   
 33  14  17  1   
 34  15  18  1   
 35  16  19  1   
 36  17  20  ar  
 37  17  21  ar  
 38  18  22  1   
 39  19  43  1   
 40  19  44  1   
 41  19  45  1   
 42  20  23  ar  
 43  21  24  ar  
 44  21  46  1   
 45  22  47  1   
 46  22  48  1   
 47  22  49  1   
 48  23  25  1   
 49  23  26  ar  
 50  24  26  ar  
 51  24  50  1   
 52  25  27  1   
 53  25  28  1   
 54  26  51  1   
 55  27  52  1   
 56  27  53  1   
 57  27  54  1   
 58  28  55  1   
 59  28  56  1   
 60  28  57  1   
@<TRIPOS>SUBSTRUCTURE
  1 ****   6 GROUP 4 **** **** 0

# MOE 2024.06 (io_trps.svl 2023.06)
