@<TRIPOS>MOLECULE
NONAME
55 57 1 0 0 
SMALL
USER_CHARGES


@<TRIPOS>ATOM
  1 O        1.6000    -0.0250    -2.5500 O.2   1 <1>  -0.5700 
  2 C        1.8850    -0.5030    -1.4750 C.2   1 <1>   0.5690 
  3 N        2.2070     0.3270    -0.4140 N.am  1 <1>  -0.6600 
  4 C        1.9000    -2.0480    -1.3830 C.3   1 <1>   0.4050 
  5 C        2.8550    -0.1510     0.8390 C.3   1 <1>   0.1400 
  6 C        2.0100     1.7990    -0.5020 C.3   1 <1>   0.1400 
  7 O        3.2090    -2.5210    -1.1070 O.3   1 <1>  -0.5600 
  8 C        0.8900    -2.5810    -0.3550 C.ar  1 <1>  -0.1440 
  9 C        4.3740    -0.3160     0.6370 C.3   1 <1>   0.3430 
 10 C        3.3410     2.5510    -0.3820 C.3   1 <1>  -0.1600 
 11 C        3.5150    -3.7380    -1.7210 C.3   1 <1>   0.0400 
 12 C       -0.4420    -2.2100    -0.4890 C.ar  1 <1>  -0.1500 
 13 C        1.2450    -3.4140     0.7020 C.ar  1 <1>  -0.1500 
 14 N        5.1230     0.9530     0.3120 N.4   1 <1>  -0.9590 
 15 C        4.5540     1.7370    -0.8370 C.3   1 <1>   0.3430 
 16 C       -1.3940    -2.6490     0.4140 C.ar  1 <1>  -0.1500 
 17 C        0.2930    -3.8550     1.6050 C.ar  1 <1>  -0.1500 
 18 C        6.5560     0.6270     0.0710 C.3   1 <1>   0.4860 
 19 C       -1.0270    -3.4710     1.4630 C.ar  1 <1>  -0.1500 
 20 C        7.3620     1.9080     0.0630 C.ar  1 <1>  -0.1440 
 21 C        7.8510     2.4050    -1.1350 C.ar  1 <1>   0.1600 
 22 C        7.6210     2.6050     1.2290 C.ar  1 <1>  -0.1500 
 23 N        8.5320     3.5250    -1.2610 N.ar  1 <1>  -0.6200 
 24 C        8.3440     3.7720     1.1120 C.ar  1 <1>  -0.1500 
 25 C        8.7740     4.1950    -0.1450 C.ar  1 <1>   0.3930 
 26 O        9.4780     5.3310    -0.3260 O.3   1 <1>  -0.3620 
 27 C        9.9590     6.1200     0.7390 C.3   1 <1>   0.0400 
 28 H        1.6130    -2.4150    -2.3540 H     1 <1>   0.0800 
 29 H        2.6600     0.5360     1.6440 H     1 <1>   0.0800 
 30 H        2.4370    -1.0960     1.1290 H     1 <1>   0.0800 
 31 H        1.5500     2.0530    -1.4440 H     1 <1>   0.0800 
 32 H        1.3320     2.1180     0.2720 H     1 <1>   0.0800 
 33 H        4.5300    -1.0270    -0.1560 H     1 <1>   0.0800 
 34 H        4.7840    -0.7470     1.5350 H     1 <1>   0.0800 
 35 H        3.4770     2.9090     0.6220 H     1 <1>   0.0800 
 36 H        3.2670     3.4220    -1.0080 H     1 <1>   0.0800 
 37 H        4.4900    -4.0510    -1.3920 H     1 <1>   0.0800 
 38 H        3.5200    -3.6060    -2.7900 H     1 <1>   0.0800 
 39 H        2.7850    -4.4800    -1.4420 H     1 <1>   0.0800 
 40 H       -0.7520    -1.5710    -1.3000 H     1 <1>   0.1500 
 41 H        2.2630    -3.7310     0.8390 H     1 <1>   0.1500 
 42 H        5.0960     1.5740     1.1290 H     1 <1>   0.4500 
 43 H        5.2940     2.4320    -1.2000 H     1 <1>   0.0800 
 44 H        4.2820     1.0840    -1.6520 H     1 <1>   0.0800 
 45 H       -2.4220    -2.3510     0.2990 H     1 <1>   0.1500 
 46 H        0.5770    -4.4990     2.4190 H     1 <1>   0.1500 
 47 H        6.9270    -0.0140     0.8550 H     1 <1>   0.0800 
 48 H        6.6660     0.1100    -0.8690 H     1 <1>   0.0800 
 49 H       -1.7680    -3.8130     2.1640 H     1 <1>   0.1500 
 50 H        7.6750     1.8640    -2.0500 H     1 <1>   0.1500 
 51 H        7.2860     2.2670     2.1950 H     1 <1>   0.1500 
 52 H        8.5670     4.3440     1.9920 H     1 <1>   0.1500 
 53 H       10.5300     6.9290     0.3200 H     1 <1>   0.0800 
 54 H       10.5910     5.5160     1.3670 H     1 <1>   0.0800 
 55 H        9.1240     6.5130     1.2910 H     1 <1>   0.0800 
@<TRIPOS>BOND
  1   1   2  2   
  2   2   3  am  
  3   2   4  1   
  4   3   5  1   
  5   3   6  1   
  6   4   7  1   
  7   4   8  1   
  8   4  28  1   
  9   5   9  1   
 10   5  29  1   
 11   5  30  1   
 12   6  10  1   
 13   6  31  1   
 14   6  32  1   
 15   7  11  1   
 16   8  12  ar  
 17   8  13  ar  
 18   9  14  1   
 19   9  33  1   
 20   9  34  1   
 21  10  15  1   
 22  10  35  1   
 23  10  36  1   
 24  11  37  1   
 25  11  38  1   
 26  11  39  1   
 27  12  16  ar  
 28  12  40  1   
 29  13  17  ar  
 30  13  41  1   
 31  14  15  1   
 32  14  18  1   
 33  14  42  1   
 34  15  43  1   
 35  15  44  1   
 36  16  19  ar  
 37  16  45  1   
 38  17  19  ar  
 39  17  46  1   
 40  18  20  1   
 41  18  47  1   
 42  18  48  1   
 43  19  49  1   
 44  20  21  ar  
 45  20  22  ar  
 46  21  23  ar  
 47  21  50  1   
 48  22  24  ar  
 49  22  51  1   
 50  23  25  ar  
 51  24  25  ar  
 52  24  52  1   
 53  25  26  1   
 54  26  27  1   
 55  27  53  1   
 56  27  54  1   
 57  27  55  1   
@<TRIPOS>SUBSTRUCTURE
  1 ****   9 GROUP 4 **** **** 0

# MOE 2024.06 (io_trps.svl 2023.06)
