@<TRIPOS>MOLECULE
NONAME
47 49 1 0 0 
SMALL
USER_CHARGES


@<TRIPOS>ATOM
  1 O        0.6150     1.1490     0.5150 O.2   1 <1>  -0.5700 
  2 C        0.4350     2.3110     0.2550 C.2   1 <1>   0.5690 
  3 N       -0.4430     3.0520     0.9630 N.am  1 <1>  -0.7300 
  4 C        1.1720     2.9630    -0.9140 C.3   1 <1>   0.1810 
  5 C       -0.8030     4.4530     0.6330 C.3   1 <1>   0.3640 
  6 O        1.2280     4.3670    -0.7920 O.3   1 <1>  -0.5600 
  7 C       -2.3150     4.5040     0.4140 C.ar  1 <1>  -0.1440 
  8 C       -0.0350     5.0040    -0.6050 C.3   1 <1>   0.2610 
  9 C       -2.9580     3.5720    -0.3920 C.ar  1 <1>  -0.1500 
 10 C       -3.0700     5.4960     1.0240 C.ar  1 <1>  -0.1500 
 11 C        0.1640     6.5220    -0.4790 C.2   1 <1>   0.5690 
 12 C       -4.3270     3.6310    -0.5820 C.ar  1 <1>  -0.1500 
 13 C       -4.4400     5.5560     0.8350 C.ar  1 <1>  -0.1500 
 14 O       -0.7410     7.2280    -0.1020 O.2   1 <1>  -0.5700 
 15 N        1.3770     7.0580    -0.7860 N.am  1 <1>  -0.7300 
 16 C       -5.0700     4.6230     0.0320 C.ar  1 <1>  -0.1500 
 17 C        1.6930     8.5070    -0.8090 C.3   1 <1>   0.1400 
 18 C        1.8160     9.0470     0.6170 C.3   1 <1>   0.0960 
 19 N        2.1400    10.4840     0.5750 N.pl3 1 <1>   0.0480 
 20 C        3.3500    11.0810     0.5460 C.2   1 <1>  -0.3320 
 21 C        1.2510    11.4990     0.5250 C.2   1 <1>   0.0360 
 22 C        3.1110    12.4130     0.4810 C.2   1 <1>   0.0460 
 23 C        4.6660    10.3180     0.5860 C.3   1 <1>  -0.0600 
 24 N        1.7930    12.6700     0.4670 N.2   1 <1>  -0.5650 
 25 C        4.0830    13.5710     0.4270 C.3   1 <1>  -0.0590 
 26 H       -0.9880     2.5940     1.6960 H     1 <1>   0.3700 
 27 H        0.6790     2.7160    -1.8360 H     1 <1>   0.0800 
 28 H        2.1820     2.5950    -0.9470 H     1 <1>   0.0800 
 29 H       -0.5540     5.0620     1.4850 H     1 <1>   0.0800 
 30 H       -0.6180     4.8250    -1.4900 H     1 <1>   0.0800 
 31 H       -2.4000     2.7890    -0.8760 H     1 <1>   0.1500 
 32 H       -2.5970     6.2370     1.6470 H     1 <1>   0.1500 
 33 H       -4.8160     2.9040    -1.2070 H     1 <1>   0.1500 
 34 H       -5.0150     6.3310     1.3110 H     1 <1>   0.1500 
 35 H        2.1170     6.4020    -1.0630 H     1 <1>   0.3700 
 36 H       -6.1350     4.6710    -0.1160 H     1 <1>   0.1500 
 37 H        2.6140     8.6620    -1.3440 H     1 <1>   0.0800 
 38 H        0.9020     9.0290    -1.3210 H     1 <1>   0.0800 
 39 H        2.5910     8.5270     1.1490 H     1 <1>   0.0800 
 40 H        0.8850     8.9210     1.1390 H     1 <1>   0.0800 
 41 H        0.1890    11.3280     0.5310 H     1 <1>   0.1500 
 42 H        5.5010    10.9910     0.5430 H     1 <1>   0.0800 
 43 H        4.7320     9.6460    -0.2500 H     1 <1>   0.0800 
 44 H        4.7370     9.7530     1.4980 H     1 <1>   0.0800 
 45 H        5.0980    13.2290     0.4470 H     1 <1>   0.0800 
 46 H        3.9130    14.2150     1.2700 H     1 <1>   0.0800 
 47 H        3.9190    14.1300    -0.4750 H     1 <1>   0.0800 
@<TRIPOS>BOND
  1   1   2  2   
  2   2   3  am  
  3   2   4  1   
  4   3   5  1   
  5   3  26  1   
  6   4   6  1   
  7   4  27  1   
  8   4  28  1   
  9   5   7  1   
 10   5   8  1   
 11   5  29  1   
 12   6   8  1   
 13   7   9  ar  
 14   7  10  ar  
 15   8  11  1   
 16   8  30  1   
 17   9  12  ar  
 18   9  31  1   
 19  10  13  ar  
 20  10  32  1   
 21  11  14  2   
 22  11  15  am  
 23  12  16  ar  
 24  12  33  1   
 25  13  16  ar  
 26  13  34  1   
 27  15  17  1   
 28  15  35  1   
 29  16  36  1   
 30  17  18  1   
 31  17  37  1   
 32  17  38  1   
 33  18  19  1   
 34  18  39  1   
 35  18  40  1   
 36  19  20  1   
 37  19  21  1   
 38  20  22  2   
 39  20  23  1   
 40  21  24  2   
 41  21  41  1   
 42  22  24  1   
 43  22  25  1   
 44  23  42  1   
 45  23  43  1   
 46  23  44  1   
 47  25  45  1   
 48  25  46  1   
 49  25  47  1   
@<TRIPOS>SUBSTRUCTURE
  1 ****  11 GROUP 4 **** **** 0

# MOE 2024.06 (io_trps.svl 2023.06)
