@<TRIPOS>MOLECULE
NONAME
54 58 1 0 0 
SMALL
USER_CHARGES


@<TRIPOS>ATOM
  1 S       -0.1440     0.7990     1.0050 S.o2  1 <1>   1.4470 
  2 O        0.4630     1.9710     1.5950 O.2   1 <1>  -0.6500 
  3 O       -0.9860    -0.0510     1.8220 O.2   1 <1>  -0.6500 
  4 N       -1.0920     1.3330    -0.2990 N.am  1 <1>  -0.8490 
  5 C        1.1360    -0.1970     0.1910 C.ar  1 <1>  -0.0090 
  6 C       -1.9470     0.2650    -0.8580 C.3   1 <1>   0.1960 
  7 C       -2.0180     2.4080     0.0770 C.3   1 <1>   0.1960 
  8 C        1.8720     0.3170    -0.8690 C.ar  1 <1>  -0.1500 
  9 C        1.4140    -1.4950     0.6060 C.ar  1 <1>  -0.1500 
 10 C       -3.3690     0.5120    -0.3400 C.3   1 <1>   0.2800 
 11 C       -3.2870     1.7160     0.5840 C.3   1 <1>  -0.0800 
 12 C        2.8480    -0.4360    -1.5000 C.ar  1 <1>  -0.1500 
 13 C        2.3870    -2.2560    -0.0190 C.ar  1 <1>  -0.1500 
 14 O       -4.2160     0.9850    -1.3270 O.3   1 <1>  -0.5600 
 15 C       -4.2090    -0.6090     0.2680 C.3   1 <1>  -0.1600 
 16 C       -4.6800     2.3530     0.3880 C.3   1 <1>  -0.0800 
 17 C        3.1050    -1.7260    -1.0750 C.ar  1 <1>  -0.1500 
 18 C       -5.3120     1.3310    -0.5690 C.3   1 <1>   0.2000 
 19 C       -5.6110     0.0020     0.1430 C.3   1 <1>  -0.1600 
 20 C       -4.6680     3.7670    -0.2100 C.3   1 <1>   0.1400 
 21 N       -6.0510     4.2890    -0.3030 N.am  1 <1>  -0.7300 
 22 C       -6.7220     4.9750     0.6750 C.2   1 <1>   0.5440 
 23 O       -6.1530     5.1540     1.7380 O.2   1 <1>  -0.5700 
 24 C       -8.0790     5.4640     0.4460 C.ar  1 <1>   0.3960 
 25 N       -8.6900     5.2050    -0.7250 N.ar  1 <1>  -0.6200 
 26 C       -8.7240     6.1940     1.4510 C.ar  1 <1>   0.1600 
 27 C       -9.9100     5.7050    -0.7950 C.ar  1 <1>   0.1600 
 28 N       -9.9480     6.6930     1.3770 N.ar  1 <1>  -0.6200 
 29 C      -10.5270     6.4290     0.2210 C.ar  1 <1>   0.1670 
 30 C      -11.9340     6.9650     0.0490 C.3   1 <1>  -0.0970 
 31 H       -1.9460     0.3250    -1.9330 H     1 <1>   0.0800 
 32 H       -1.5990    -0.7110    -0.5670 H     1 <1>   0.0800 
 33 H       -1.6000     3.0740     0.8150 H     1 <1>   0.0800 
 34 H       -2.2300     2.9750    -0.8120 H     1 <1>   0.0800 
 35 H        1.6760     1.3230    -1.2040 H     1 <1>   0.1500 
 36 H        0.8620    -1.9180     1.4300 H     1 <1>   0.1500 
 37 H       -3.1450     1.4130     1.6060 H     1 <1>   0.0800 
 38 H        3.4060    -0.0170    -2.3210 H     1 <1>   0.1500 
 39 H        2.5860    -3.2590     0.3170 H     1 <1>   0.1500 
 40 H       -4.1210    -1.5040    -0.3220 H     1 <1>   0.0800 
 41 H       -3.9260    -0.8150     1.2860 H     1 <1>   0.0800 
 42 H       -5.2110     2.3800     1.3230 H     1 <1>   0.0800 
 43 H        3.8630    -2.3140    -1.5630 H     1 <1>   0.1500 
 44 H       -6.1150     1.7040    -1.1820 H     1 <1>   0.0800 
 45 H       -6.0830     0.1580     1.0970 H     1 <1>   0.0800 
 46 H       -6.2440    -0.6120    -0.4730 H     1 <1>   0.0800 
 47 H       -4.2300     3.7600    -1.1930 H     1 <1>   0.0800 
 48 H       -4.0880     4.4210     0.4210 H     1 <1>   0.0800 
 49 H       -6.5440     4.1470    -1.1910 H     1 <1>   0.3700 
 50 H       -8.1880     6.3700     2.3680 H     1 <1>   0.1500 
 51 H      -10.4530     5.5340    -1.7080 H     1 <1>   0.1500 
 52 H      -12.3350     6.7090    -0.9150 H     1 <1>   0.0800 
 53 H      -11.9250     8.0350     0.1490 H     1 <1>   0.0800 
 54 H      -12.5710     6.5540     0.8110 H     1 <1>   0.0800 
@<TRIPOS>BOND
  1   1   2  2   
  2   1   3  2   
  3   1   4  am  
  4   1   5  1   
  5   4   6  1   
  6   4   7  1   
  7   5   8  ar  
  8   5   9  ar  
  9   6  10  1   
 10   6  31  1   
 11   6  32  1   
 12   7  11  1   
 13   7  33  1   
 14   7  34  1   
 15   8  12  ar  
 16   8  35  1   
 17   9  13  ar  
 18   9  36  1   
 19  10  11  1   
 20  10  14  1   
 21  10  15  1   
 22  11  16  1   
 23  11  37  1   
 24  12  17  ar  
 25  12  38  1   
 26  13  17  ar  
 27  13  39  1   
 28  14  18  1   
 29  15  19  1   
 30  15  40  1   
 31  15  41  1   
 32  16  18  1   
 33  16  20  1   
 34  16  42  1   
 35  17  43  1   
 36  18  19  1   
 37  18  44  1   
 38  19  45  1   
 39  19  46  1   
 40  20  21  1   
 41  20  47  1   
 42  20  48  1   
 43  21  22  am  
 44  21  49  1   
 45  22  23  2   
 46  22  24  1   
 47  24  25  ar  
 48  24  26  ar  
 49  25  27  ar  
 50  26  28  ar  
 51  26  50  1   
 52  27  29  ar  
 53  27  51  1   
 54  28  29  ar  
 55  29  30  1   
 56  30  52  1   
 57  30  53  1   
 58  30  54  1   
@<TRIPOS>SUBSTRUCTURE
  1 ****  16 GROUP 4 **** **** 0

# MOE 2024.06 (io_trps.svl 2023.06)
