@<TRIPOS>MOLECULE
NONAME
54 58 1 0 0 
SMALL
USER_CHARGES


@<TRIPOS>ATOM
  1 O        0.4870     0.2600     1.0860 O.2   1 <1>  -0.5700 
  2 C        1.4070    -0.4230     0.6760 C.2   1 <1>   0.6160 
  3 N        2.6720     0.1280     0.5920 N.am  1 <1>  -0.6600 
  4 C        1.1460    -1.7920     0.2820 C.2   1 <1>   0.0140 
  5 C        3.9130    -0.7000     0.4970 C.3   1 <1>   0.1400 
  6 C        2.8880     1.5990     0.6670 C.3   1 <1>   0.1400 
  7 C        0.5410    -2.6690     1.1220 C.2   1 <1>  -0.1780 
  8 C        1.5270    -2.1680    -1.0610 C.2   1 <1>  -0.1500 
  9 C        4.6910    -0.4140    -0.7930 C.3   1 <1>   0.1400 
 10 C        3.1980     2.1390    -0.7330 C.3   1 <1>  -0.1600 
 11 C        0.1960    -4.0490     0.8910 C.ar  1 <1>   0.0280 
 12 C        1.8800    -3.3920    -1.4870 C.2   1 <1>  -0.0730 
 13 N        5.4190     0.8890    -0.7030 N.am  1 <1>  -0.6600 
 14 C        4.6900     2.1290    -1.0980 C.3   1 <1>   0.1400 
 15 C        0.8840    -4.9000     0.0100 C.ar  1 <1>   0.0830 
 16 C       -0.8770    -4.5920     1.5930 C.ar  1 <1>  -0.1500 
 17 O        1.9710    -4.4920    -0.7020 O.3   1 <1>  -0.1590 
 18 C        6.7310     0.9170    -0.2480 C.2   1 <1>   0.7160 
 19 C        0.5060    -6.2220    -0.1450 C.ar  1 <1>  -0.1500 
 20 C       -1.2590    -5.9130     1.4340 C.ar  1 <1>  -0.1500 
 21 O        7.1200    -0.0570     0.3820 O.2   1 <1>  -0.5700 
 22 C        7.6560     2.0300    -0.4720 C.2   1 <1>   0.2030 
 23 C       -0.5680    -6.7330     0.5630 C.ar  1 <1>  -0.1500 
 24 N        7.5520     3.0160    -1.3540 N.2   1 <1>  -0.7070 
 25 C        8.8430     2.1810     0.2590 C.2   1 <1>  -0.1500 
 26 N        8.6490     3.7690    -1.1810 N.pl3 1 <1>   0.3000 
 27 C        9.4450     3.2890    -0.2100 C.2   1 <1>  -0.2370 
 28 C       10.7490     3.9410     0.1980 C.3   1 <1>  -0.0150 
 29 C       11.2190     3.8560     1.6140 C.3   1 <1>  -0.2000 
 30 C       10.7230     5.1600     1.0620 C.3   1 <1>  -0.2000 
 31 H        3.6670    -1.7460     0.5270 H     1 <1>   0.0800 
 32 H        4.5460    -0.5020     1.3460 H     1 <1>   0.0800 
 33 H        3.6900     1.8200     1.3500 H     1 <1>   0.0800 
 34 H        2.0010     2.0810     1.0400 H     1 <1>   0.0800 
 35 H        0.2480    -2.3050     2.0920 H     1 <1>   0.1500 
 36 H        1.5190    -1.3490    -1.7590 H     1 <1>   0.1500 
 37 H        4.0270    -0.4160    -1.6390 H     1 <1>   0.0800 
 38 H        5.4060    -1.2050    -0.9440 H     1 <1>   0.0800 
 39 H        2.8690     3.1620    -0.7760 H     1 <1>   0.0800 
 40 H        2.6280     1.6030    -1.4700 H     1 <1>   0.0800 
 41 H        2.1510    -3.6060    -2.5060 H     1 <1>   0.1500 
 42 H        5.1430     2.9680    -0.5990 H     1 <1>   0.0800 
 43 H        4.8060     2.2820    -2.1580 H     1 <1>   0.0800 
 44 H       -1.4290    -3.9690     2.2750 H     1 <1>   0.1500 
 45 H        1.0540    -6.8540    -0.8210 H     1 <1>   0.1500 
 46 H       -2.0960    -6.3010     1.9890 H     1 <1>   0.1500 
 47 H       -0.8600    -7.7610     0.4360 H     1 <1>   0.1500 
 48 H        9.1750     1.5140     1.0360 H     1 <1>   0.1500 
 49 H        8.8380     4.6110    -1.7370 H     1 <1>   0.2700 
 50 H       11.5040     3.8850    -0.5700 H     1 <1>   0.1000 
 51 H       12.2720     3.7350     1.7990 H     1 <1>   0.1000 
 52 H       10.6100     3.3370     2.3340 H     1 <1>   0.1000 
 53 H        9.7750     5.5320     1.4100 H     1 <1>   0.1000 
 54 H       11.4340     5.9450     0.8740 H     1 <1>   0.1000 
@<TRIPOS>BOND
  1   1   2  2   
  2   2   3  am  
  3   2   4  1   
  4   3   5  1   
  5   3   6  1   
  6   4   7  2   
  7   4   8  1   
  8   5   9  1   
  9   5  31  1   
 10   5  32  1   
 11   6  10  1   
 12   6  33  1   
 13   6  34  1   
 14   7  11  1   
 15   7  35  1   
 16   8  12  2   
 17   8  36  1   
 18   9  13  1   
 19   9  37  1   
 20   9  38  1   
 21  10  14  1   
 22  10  39  1   
 23  10  40  1   
 24  11  15  ar  
 25  11  16  ar  
 26  12  17  1   
 27  12  41  1   
 28  13  14  1   
 29  13  18  am  
 30  14  42  1   
 31  14  43  1   
 32  15  17  1   
 33  15  19  ar  
 34  16  20  ar  
 35  16  44  1   
 36  18  21  2   
 37  18  22  1   
 38  19  23  ar  
 39  19  45  1   
 40  20  23  ar  
 41  20  46  1   
 42  22  24  2   
 43  22  25  1   
 44  23  47  1   
 45  24  26  1   
 46  25  27  2   
 47  25  48  1   
 48  26  27  1   
 49  26  49  1   
 50  27  28  1   
 51  28  29  1   
 52  28  30  1   
 53  28  50  1   
 54  29  30  1   
 55  29  51  1   
 56  29  52  1   
 57  30  53  1   
 58  30  54  1   
@<TRIPOS>SUBSTRUCTURE
  1 ****   5 GROUP 4 **** **** 0

# MOE 2024.06 (io_trps.svl 2023.06)
