@<TRIPOS>MOLECULE
NONAME
48 51 1 0 0 
SMALL
USER_CHARGES


@<TRIPOS>ATOM
  1 S       -2.1830     0.0780    -2.0370 S.3   1 <1>  -0.0800 
  2 C       -2.8300     0.6240    -0.4990 C.2   1 <1>  -0.1400 
  3 C       -0.6720    -0.4030    -1.2860 C.2   1 <1>  -0.1400 
  4 C       -1.9260     0.4370     0.4820 C.2   1 <1>  -0.1500 
  5 C       -4.2450     1.1750    -0.5240 C.3   1 <1>   0.3200 
  6 C       -0.7000    -0.1470     0.0340 C.2   1 <1>  -0.1500 
  7 C        0.3880    -1.0030    -2.1850 C.3   1 <1>  -0.0600 
  8 N       -4.7950     1.3230     0.8510 N.am  1 <1>  -0.5090 
  9 C       -5.0460     0.2610     1.6980 C.2   1 <1>   0.5690 
 10 C       -5.0180     2.7300     1.2670 C.3   1 <1>   0.0490 
 11 O       -5.5020     0.4360     2.8080 O.2   1 <1>  -0.5700 
 12 C       -4.8150    -1.1970     1.2600 C.3   1 <1>   0.2610 
 13 C       -6.3470     3.1490     1.8160 C.3   1 <1>  -0.2000 
 14 C       -5.9410     3.5800     0.4450 C.3   1 <1>  -0.2000 
 15 O       -3.9500    -1.8940     2.1410 O.3   1 <1>  -0.5600 
 16 C       -6.1810    -1.9040     1.1540 C.3   1 <1>   0.3640 
 17 C       -3.6310    -3.2030     1.7190 C.3   1 <1>   0.1810 
 18 N       -6.0140    -3.3690     0.9990 N.am  1 <1>  -0.7300 
 19 C       -6.9480    -1.3380    -0.0380 C.ar  1 <1>  -0.1440 
 20 C       -4.8580    -4.0140     1.2800 C.2   1 <1>   0.5690 
 21 C       -7.9030    -0.3530     0.1710 C.ar  1 <1>  -0.1500 
 22 C       -6.6860    -1.7580    -1.3360 C.ar  1 <1>  -0.1500 
 23 O       -4.7820    -5.2110     1.1620 O.2   1 <1>  -0.5700 
 24 C       -8.5820     0.2060    -0.8970 C.ar  1 <1>  -0.1500 
 25 C       -7.3660    -1.2010    -2.4050 C.ar  1 <1>  -0.1500 
 26 C       -8.3140    -0.2180    -2.1860 C.ar  1 <1>  -0.1500 
 27 H       -2.0680     0.6820     1.5220 H     1 <1>   0.1500 
 28 H       -4.8850     0.5180    -1.0880 H     1 <1>   0.0800 
 29 H       -4.2350     2.1260    -1.0260 H     1 <1>   0.0800 
 30 H        0.0990    -0.3440     0.7280 H     1 <1>   0.1500 
 31 H        1.2630    -1.2510    -1.6120 H     1 <1>   0.0800 
 32 H        0.6610    -0.2970    -2.9480 H     1 <1>   0.0800 
 33 H        0.0120    -1.8950    -2.6510 H     1 <1>   0.0800 
 34 H       -4.1340     3.1790     1.6890 H     1 <1>   0.1000 
 35 H       -4.3550    -1.2270     0.2940 H     1 <1>   0.0800 
 36 H       -7.1160     2.4060     1.9270 H     1 <1>   0.1000 
 37 H       -6.3640     3.8800     2.6050 H     1 <1>   0.1000 
 38 H       -5.7000     4.6180     0.2960 H     1 <1>   0.1000 
 39 H       -6.4710     3.1510    -0.3870 H     1 <1>   0.1000 
 40 H       -6.7380    -1.7230     2.0580 H     1 <1>   0.0800 
 41 H       -2.9370    -3.1330     0.9010 H     1 <1>   0.0800 
 42 H       -3.1500    -3.7020     2.5400 H     1 <1>   0.0800 
 43 H       -6.8340    -3.9120     0.7280 H     1 <1>   0.3700 
 44 H       -8.1190    -0.0070     1.1690 H     1 <1>   0.1500 
 45 H       -5.9500    -2.5220    -1.5270 H     1 <1>   0.1500 
 46 H       -9.3200     0.9700    -0.7240 H     1 <1>   0.1500 
 47 H       -7.1600    -1.5340    -3.4080 H     1 <1>   0.1500 
 48 H       -8.8440     0.2150    -3.0170 H     1 <1>   0.1500 
@<TRIPOS>BOND
  1   1   2  1   
  2   1   3  1   
  3   2   4  2   
  4   2   5  1   
  5   3   6  2   
  6   3   7  1   
  7   4   6  1   
  8   4  27  1   
  9   5   8  1   
 10   5  28  1   
 11   5  29  1   
 12   6  30  1   
 13   7  31  1   
 14   7  32  1   
 15   7  33  1   
 16   8   9  am  
 17   8  10  1   
 18   9  11  2   
 19   9  12  1   
 20  10  13  1   
 21  10  14  1   
 22  10  34  1   
 23  12  15  1   
 24  12  16  1   
 25  12  35  1   
 26  13  14  1   
 27  13  36  1   
 28  13  37  1   
 29  14  38  1   
 30  14  39  1   
 31  15  17  1   
 32  16  18  1   
 33  16  19  1   
 34  16  40  1   
 35  17  20  1   
 36  17  41  1   
 37  17  42  1   
 38  18  20  am  
 39  18  43  1   
 40  19  21  ar  
 41  19  22  ar  
 42  20  23  2   
 43  21  24  ar  
 44  21  44  1   
 45  22  25  ar  
 46  22  45  1   
 47  24  26  ar  
 48  24  46  1   
 49  25  26  ar  
 50  25  47  1   
 51  26  48  1   
@<TRIPOS>SUBSTRUCTURE
  1 ****  12 GROUP 4 **** **** 0

# MOE 2024.06 (io_trps.svl 2023.06)
