@<TRIPOS>MOLECULE
NONAME
46 48 1 0 0 
SMALL
USER_CHARGES


@<TRIPOS>ATOM
  1 O       -1.5310     0.0010    -2.1690 O.2   1 <1>  -0.5700 
  2 C       -1.6570     0.3340    -1.0160 C.2   1 <1>   0.5690 
  3 N       -1.8240    -0.5820    -0.0300 N.am  1 <1>  -0.7300 
  4 C       -1.6500     1.8190    -0.6620 C.3   1 <1>  -0.0190 
  5 C       -1.8450    -2.0490    -0.2250 C.3   1 <1>   0.2200 
  6 C       -0.5060     2.1740     0.3120 C.3   1 <1>  -0.1600 
  7 C       -3.0130     2.2750    -0.1010 C.3   1 <1>  -0.1600 
  8 C       -3.2630    -2.5980    -0.1260 C.3   1 <1>  -0.0800 
  9 C       -1.2060    -2.7110     0.9870 C.3   1 <1>   0.1200 
 10 C       -0.5050     3.6720     0.6560 C.3   1 <1>  -0.1600 
 11 C       -3.0080     3.7720     0.2440 C.3   1 <1>  -0.1600 
 12 C       -3.4600    -2.7830     1.3840 C.3   1 <1>   0.1200 
 13 C       -4.3590    -1.7590    -0.8100 C.3   1 <1>  -0.0170 
 14 O       -2.1940    -2.6860     1.9720 O.3   1 <1>  -0.5600 
 15 C       -1.8660     4.1080     1.2070 C.3   1 <1>   0.2000 
 16 C       -5.7060    -2.4590    -0.7320 C.ar  1 <1>  -0.1440 
 17 O       -1.8420     5.4700     1.3940 O.3   1 <1>  -0.6800 
 18 C       -6.0550    -3.4580    -1.6190 C.ar  1 <1>  -0.1500 
 19 C       -6.6480    -2.1380     0.2240 C.ar  1 <1>  -0.1500 
 20 C       -7.2900    -4.0730    -1.5070 C.ar  1 <1>   0.1600 
 21 C       -7.8560    -2.8160     0.2500 C.ar  1 <1>   0.1600 
 22 N       -8.1990    -3.7780    -0.5910 N.ar  1 <1>  -0.6200 
 23 H       -1.9500    -0.2900     0.9410 H     1 <1>   0.3700 
 24 H       -1.4760     2.3570    -1.5790 H     1 <1>   0.0800 
 25 H       -1.3570    -2.3190    -1.1460 H     1 <1>   0.0800 
 26 H       -0.6110     1.6070     1.2200 H     1 <1>   0.0800 
 27 H        0.4370     1.9090    -0.1340 H     1 <1>   0.0800 
 28 H       -3.7820     2.0790    -0.8300 H     1 <1>   0.0800 
 29 H       -3.2480     1.7110     0.7850 H     1 <1>   0.0800 
 30 H       -3.2660    -3.5770    -0.5710 H     1 <1>   0.0800 
 31 H       -0.3300    -2.1930     1.3340 H     1 <1>   0.0800 
 32 H       -0.9690    -3.7400     0.7820 H     1 <1>   0.0800 
 33 H       -0.2760     4.2340    -0.2330 H     1 <1>   0.0800 
 34 H        0.2560     3.8690     1.3910 H     1 <1>   0.0800 
 35 H       -3.9470     4.0370     0.6990 H     1 <1>   0.0800 
 36 H       -2.8960     4.3390    -0.6640 H     1 <1>   0.0800 
 37 H       -3.8800    -3.7470     1.6150 H     1 <1>   0.0800 
 38 H       -4.0740    -2.0080     1.8060 H     1 <1>   0.0800 
 39 H       -4.0960    -1.6040    -1.8430 H     1 <1>   0.0800 
 40 H       -4.4350    -0.7900    -0.3490 H     1 <1>   0.0800 
 41 H       -2.0420     3.6500     2.1670 H     1 <1>   0.0800 
 42 H       -1.6740     5.9190     0.5450 H     1 <1>   0.4000 
 43 H       -5.3780    -3.7620    -2.3960 H     1 <1>   0.1500 
 44 H       -6.4580    -1.3680     0.9490 H     1 <1>   0.1500 
 45 H       -7.5450    -4.8500    -2.2070 H     1 <1>   0.1500 
 46 H       -8.5790    -2.5520     1.0030 H     1 <1>   0.1500 
@<TRIPOS>BOND
  1   1   2  2   
  2   2   3  am  
  3   2   4  1   
  4   3   5  1   
  5   3  23  1   
  6   4   6  1   
  7   4   7  1   
  8   4  24  1   
  9   5   8  1   
 10   5   9  1   
 11   5  25  1   
 12   6  10  1   
 13   6  26  1   
 14   6  27  1   
 15   7  11  1   
 16   7  28  1   
 17   7  29  1   
 18   8  12  1   
 19   8  13  1   
 20   8  30  1   
 21   9  14  1   
 22   9  31  1   
 23   9  32  1   
 24  10  15  1   
 25  10  33  1   
 26  10  34  1   
 27  11  15  1   
 28  11  35  1   
 29  11  36  1   
 30  12  14  1   
 31  12  37  1   
 32  12  38  1   
 33  13  16  1   
 34  13  39  1   
 35  13  40  1   
 36  15  17  1   
 37  15  41  1   
 38  16  18  ar  
 39  16  19  ar  
 40  17  42  1   
 41  18  20  ar  
 42  18  43  1   
 43  19  21  ar  
 44  19  44  1   
 45  20  22  ar  
 46  20  45  1   
 47  21  22  ar  
 48  21  46  1   
@<TRIPOS>SUBSTRUCTURE
  1 ****   3 GROUP 4 **** **** 0

# MOE 2024.06 (io_trps.svl 2023.06)
