@<TRIPOS>MOLECULE
NONAME
38 39 1 0 0 
SMALL
USER_CHARGES


@<TRIPOS>ATOM
  1 O       -0.5440    -2.1060     0.6430 O.2   1 <1>  -0.5700 
  2 C       -1.5790    -1.5230     0.3610 C.2   1 <1>   0.7160 
  3 N       -1.6850    -0.1990     0.7240 N.am  1 <1>  -0.7300 
  4 C       -2.6880    -2.1830    -0.3360 C.2   1 <1>   0.4300 
  5 C       -0.6610     0.6090     1.4350 C.3   1 <1>   0.0600 
  6 N       -3.8020    -1.6060    -0.6530 N.2   1 <1>  -0.4100 
  7 N       -2.6850    -3.4680    -0.7290 N.2   1 <1>  -0.5650 
  8 O       -4.5540    -2.4780    -1.2410 O.3   1 <1>  -0.0190 
  9 C       -3.8380    -3.5720    -1.2500 C.2   1 <1>   0.2980 
 10 C       -4.4210    -4.8320    -1.8830 C.3   1 <1>   0.2900 
 11 N       -5.3410    -5.5640    -0.9810 N.3   1 <1>  -0.8100 
 12 C       -5.5110    -6.9670    -1.4200 C.3   1 <1>   0.2900 
 13 C       -6.6460    -4.8910    -0.8460 C.3   1 <1>   0.0300 
 14 C       -6.2610    -7.8070    -0.3940 C.2   1 <1>   0.0060 
 15 N       -7.3650    -8.4300    -0.6670 N.2   1 <1>  -0.5650 
 16 N       -5.8380    -7.9830     0.8850 N.pl3 1 <1>   0.0480 
 17 C       -7.6820    -9.0440     0.4870 C.2   1 <1>   0.0770 
 18 C       -6.7650    -8.7840     1.4410 C.2   1 <1>  -0.3020 
 19 C       -4.6410    -7.4420     1.5680 C.3   1 <1>   0.0960 
 20 C       -3.4280    -8.3490     1.3380 C.3   1 <1>  -0.2400 
 21 H       -2.5590     0.2770     0.4820 H     1 <1>   0.3700 
 22 H        0.2140     0.0150     1.6410 H     1 <1>   0.0800 
 23 H       -1.0630     0.9660     2.3670 H     1 <1>   0.0800 
 24 H       -0.3740     1.4490     0.8270 H     1 <1>   0.0800 
 25 H       -3.5890    -5.4690    -2.1280 H     1 <1>   0.0800 
 26 H       -4.9230    -4.5770    -2.8000 H     1 <1>   0.0800 
 27 H       -4.5470    -7.4180    -1.5750 H     1 <1>   0.0800 
 28 H       -6.0470    -6.9950    -2.3540 H     1 <1>   0.0800 
 29 H       -6.5180    -3.8990    -0.4500 H     1 <1>   0.0800 
 30 H       -7.2770    -5.4360    -0.1630 H     1 <1>   0.0800 
 31 H       -7.1440    -4.8320    -1.7990 H     1 <1>   0.0800 
 32 H       -8.5690    -9.6500     0.5710 H     1 <1>   0.1500 
 33 H       -6.7240    -9.1180     2.4610 H     1 <1>   0.1500 
 34 H       -4.8510    -7.3720     2.6200 H     1 <1>   0.0800 
 35 H       -4.4380    -6.4510     1.2050 H     1 <1>   0.0800 
 36 H       -3.6250    -9.3380     1.7130 H     1 <1>   0.0800 
 37 H       -2.5740    -7.9490     1.8540 H     1 <1>   0.0800 
 38 H       -3.1960    -8.4040     0.2890 H     1 <1>   0.0800 
@<TRIPOS>BOND
  1   1   2  2   
  2   2   3  am  
  3   2   4  1   
  4   3   5  1   
  5   3  21  1   
  6   4   6  2   
  7   4   7  1   
  8   5  22  1   
  9   5  23  1   
 10   5  24  1   
 11   6   8  1   
 12   7   9  2   
 13   8   9  1   
 14   9  10  1   
 15  10  11  1   
 16  10  25  1   
 17  10  26  1   
 18  11  12  1   
 19  11  13  1   
 20  12  14  1   
 21  12  27  1   
 22  12  28  1   
 23  13  29  1   
 24  13  30  1   
 25  13  31  1   
 26  14  15  2   
 27  14  16  1   
 28  15  17  1   
 29  16  18  1   
 30  16  19  1   
 31  17  18  2   
 32  17  32  1   
 33  18  33  1   
 34  19  20  1   
 35  19  34  1   
 36  19  35  1   
 37  20  36  1   
 38  20  37  1   
 39  20  38  1   
@<TRIPOS>SUBSTRUCTURE
  1 ****  11 GROUP 4 **** **** 0

# MOE 2024.06 (io_trps.svl 2023.06)
