@<TRIPOS>MOLECULE
NONAME
52 54 1 0 0 
SMALL
USER_CHARGES


@<TRIPOS>ATOM
  1 O       -0.0260    -0.3800    -0.1730 O.3   1 <1>  -0.3630 
  2 C       -0.0830    -1.7170    -0.3880 C.ar  1 <1>   0.0830 
  3 C        0.9480     0.1930     0.6720 C.3   1 <1>   0.0400 
  4 C        0.7540    -2.6410     0.2280 C.ar  1 <1>  -0.1500 
  5 C       -1.0400    -2.1600    -1.2820 C.ar  1 <1>  -0.1500 
  6 C        0.6330    -3.9970    -0.0390 C.ar  1 <1>  -0.1430 
  7 C       -1.1700    -3.5080    -1.5540 C.ar  1 <1>  -0.1500 
  8 C       -0.3450    -4.4340    -0.9300 C.ar  1 <1>  -0.1440 
  9 C        1.5900    -4.9620     0.6510 C.3   1 <1>  -0.0970 
 10 C       -0.5500    -5.9070    -1.2330 C.3   1 <1>   0.4860 
 11 N       -1.3900    -6.4830    -0.1530 N.4   1 <1>  -0.9590 
 12 C       -2.7650    -5.9280    -0.1480 C.3   1 <1>   0.3430 
 13 C       -1.5310    -7.9590    -0.2100 C.3   1 <1>   0.3430 
 14 C       -3.5780    -6.9230     0.6690 C.3   1 <1>  -0.0800 
 15 C       -2.9090    -8.2840     0.3780 C.3   1 <1>  -0.0800 
 16 C       -5.1020    -6.8510     0.3970 C.3   1 <1>   0.2800 
 17 C       -3.7180    -9.1550    -0.5990 C.3   1 <1>  -0.1600 
 18 O       -5.3000    -6.5730    -0.9410 O.3   1 <1>  -0.6800 
 19 C       -5.7470    -8.2170     0.6910 C.3   1 <1>  -0.1600 
 20 C       -5.8200    -5.7480     1.2070 C.3   1 <1>  -0.1600 
 21 C       -5.1560    -9.3940    -0.1120 C.3   1 <1>  -0.1600 
 22 C       -5.3430    -4.3030     0.9730 C.3   1 <1>  -0.2400 
 23 H        0.8070     1.2590     0.6670 H     1 <1>   0.0800 
 24 H        1.9250    -0.0480     0.2920 H     1 <1>   0.0800 
 25 H        0.8140    -0.1880     1.6680 H     1 <1>   0.0800 
 26 H        1.5070    -2.3080     0.9170 H     1 <1>   0.1500 
 27 H       -1.6780    -1.4380    -1.7610 H     1 <1>   0.1500 
 28 H       -1.9230    -3.8200    -2.2580 H     1 <1>   0.1500 
 29 H        2.3410    -4.4240     1.2040 H     1 <1>   0.0800 
 30 H        2.0990    -5.5720    -0.0740 H     1 <1>   0.0800 
 31 H        1.0620    -5.5920     1.3430 H     1 <1>   0.0800 
 32 H        0.4050    -6.4040    -1.2710 H     1 <1>   0.0800 
 33 H       -1.0360    -6.0240    -2.1880 H     1 <1>   0.0800 
 34 H       -0.9600    -6.2100     0.7380 H     1 <1>   0.4500 
 35 H       -2.7920    -4.9370     0.2750 H     1 <1>   0.0800 
 36 H       -3.1450    -5.8920    -1.1560 H     1 <1>   0.0800 
 37 H       -1.4960    -8.2930    -1.2340 H     1 <1>   0.0800 
 38 H       -0.7460    -8.4470     0.3460 H     1 <1>   0.0800 
 39 H       -3.4170    -6.7050     1.7090 H     1 <1>   0.0800 
 40 H       -2.7870    -8.8310     1.2980 H     1 <1>   0.0800 
 41 H       -3.7630    -8.6630    -1.5560 H     1 <1>   0.0800 
 42 H       -3.2330   -10.1040    -0.7490 H     1 <1>   0.0800 
 43 H       -6.2570    -6.6020    -1.1370 H     1 <1>   0.4000 
 44 H       -5.6040    -8.4270     1.7370 H     1 <1>   0.0800 
 45 H       -6.8110    -8.1740     0.5320 H     1 <1>   0.0800 
 46 H       -6.8730    -5.7930     0.9880 H     1 <1>   0.0800 
 47 H       -5.7190    -5.9670     2.2560 H     1 <1>   0.0800 
 48 H       -5.1870   -10.2790     0.5020 H     1 <1>   0.0800 
 49 H       -5.7760    -9.5840    -0.9720 H     1 <1>   0.0800 
 50 H       -5.3480    -4.0580    -0.0750 H     1 <1>   0.0800 
 51 H       -4.3580    -4.1480     1.3710 H     1 <1>   0.0800 
 52 H       -6.0070    -3.6210     1.4760 H     1 <1>   0.0800 
@<TRIPOS>BOND
  1   1   2  1   
  2   1   3  1   
  3   2   4  ar  
  4   2   5  ar  
  5   3  23  1   
  6   3  24  1   
  7   3  25  1   
  8   4   6  ar  
  9   4  26  1   
 10   5   7  ar  
 11   5  27  1   
 12   6   8  ar  
 13   6   9  1   
 14   7   8  ar  
 15   7  28  1   
 16   8  10  1   
 17   9  29  1   
 18   9  30  1   
 19   9  31  1   
 20  10  11  1   
 21  10  32  1   
 22  10  33  1   
 23  11  12  1   
 24  11  13  1   
 25  11  34  1   
 26  12  14  1   
 27  12  35  1   
 28  12  36  1   
 29  13  15  1   
 30  13  37  1   
 31  13  38  1   
 32  14  15  1   
 33  14  16  1   
 34  14  39  1   
 35  15  17  1   
 36  15  40  1   
 37  16  18  1   
 38  16  19  1   
 39  16  20  1   
 40  17  21  1   
 41  17  41  1   
 42  17  42  1   
 43  18  43  1   
 44  19  21  1   
 45  19  44  1   
 46  19  45  1   
 47  20  22  1   
 48  20  46  1   
 49  20  47  1   
 50  21  48  1   
 51  21  49  1   
 52  22  50  1   
 53  22  51  1   
 54  22  52  1   
@<TRIPOS>SUBSTRUCTURE
  1 ****  12 GROUP 4 **** **** 0

# MOE 2024.06 (io_trps.svl 2023.06)
