@<TRIPOS>MOLECULE
NONAME
50 52 1 0 0 
SMALL
USER_CHARGES


@<TRIPOS>ATOM
  1 O       -1.4160    -2.8790     0.3450 O.co2 1 <1>  -0.9000 
  2 C       -0.3980    -3.2360    -0.2640 C.2   1 <1>   1.0330 
  3 O       -0.5610    -3.8550    -1.3340 O.co2 1 <1>  -0.9000 
  4 C        0.8980    -3.1980     0.3340 C.2   1 <1>  -0.2330 
  5 C        1.2990    -3.9360     1.4570 C.2   1 <1>   0.3720 
  6 C        2.0300    -2.5490    -0.0460 C.2   1 <1>   0.0870 
  7 N        2.5500    -3.7730     1.6900 N.2   1 <1>  -0.4100 
  8 N        0.5150    -4.7610     2.2840 N.pl3 1 <1>  -0.8210 
  9 O        2.9730    -2.9320     0.7840 O.3   1 <1>  -0.0190 
 10 C        2.3490    -1.6060    -1.0960 C.ar  1 <1>   0.0530 
 11 C        0.1920    -6.1290     1.7850 C.3   1 <1>   0.2090 
 12 C       -0.6020    -4.0520     2.9740 C.3   1 <1>   0.1290 
 13 C        3.4620    -0.7700    -0.9800 C.ar  1 <1>  -0.1500 
 14 C        1.5850    -1.4800    -2.2570 C.ar  1 <1>  -0.1500 
 15 C       -0.5290    -6.0400     0.4340 C.3   1 <1>   0.3430 
 16 C        3.7950     0.1430    -1.9640 C.ar  1 <1>  -0.1500 
 17 C        1.9100    -0.5690    -3.2450 C.ar  1 <1>  -0.1500 
 18 N       -1.1120    -7.2790    -0.1530 N.4   1 <1>  -0.9590 
 19 C        3.0170     0.2460    -3.1020 C.ar  1 <1>  -0.1500 
 20 C       -1.5320    -6.8720    -1.5260 C.3   1 <1>   0.3430 
 21 C       -2.2800    -7.7550     0.6210 C.3   1 <1>   0.3430 
 22 C       -1.6760    -8.0820    -2.4530 C.3   1 <1>  -0.1600 
 23 C       -2.3580    -9.2820     0.5960 C.3   1 <1>  -0.1600 
 24 C       -2.6240    -9.1970    -1.9730 C.3   1 <1>  -0.1600 
 25 C       -2.0790    -9.9620    -0.7570 C.3   1 <1>  -0.1600 
 26 H       -0.4230    -6.6270     2.5120 H     1 <1>   0.0800 
 27 H        1.1120    -6.6760     1.6690 H     1 <1>   0.0800 
 28 H       -0.4230    -2.9890     2.9740 H     1 <1>   0.0800 
 29 H       -0.6690    -4.3870     3.9940 H     1 <1>   0.0800 
 30 H       -1.5390    -4.2330     2.4760 H     1 <1>   0.0800 
 31 H        4.0760    -0.8330    -0.0990 H     1 <1>   0.1500 
 32 H        0.7230    -2.1030    -2.4020 H     1 <1>   0.1500 
 33 H        0.1920    -5.6530    -0.2670 H     1 <1>   0.0800 
 34 H       -1.3160    -5.3100     0.5280 H     1 <1>   0.0800 
 35 H        4.6580     0.7730    -1.8440 H     1 <1>   0.1500 
 36 H        1.2960    -0.4990    -4.1270 H     1 <1>   0.1500 
 37 H       -0.3970    -8.0090    -0.2290 H     1 <1>   0.4500 
 38 H        3.2700     0.9550    -3.8710 H     1 <1>   0.1500 
 39 H       -0.8000    -6.1990    -1.9480 H     1 <1>   0.0800 
 40 H       -2.4620    -6.3280    -1.4770 H     1 <1>   0.0800 
 41 H       -3.1810    -7.3380     0.2010 H     1 <1>   0.0800 
 42 H       -2.2120    -7.4250     1.6450 H     1 <1>   0.0800 
 43 H       -0.7000    -8.4910    -2.6470 H     1 <1>   0.0800 
 44 H       -2.0440    -7.7140    -3.3950 H     1 <1>   0.0800 
 45 H       -3.3500    -9.5520     0.9140 H     1 <1>   0.0800 
 46 H       -1.6830    -9.6810     1.3330 H     1 <1>   0.0800 
 47 H       -2.7320    -9.9000    -2.7830 H     1 <1>   0.0800 
 48 H       -3.6060    -8.8030    -1.7680 H     1 <1>   0.0800 
 49 H       -2.5320   -10.9400    -0.7360 H     1 <1>   0.0800 
 50 H       -1.0200   -10.1190    -0.8790 H     1 <1>   0.0800 
@<TRIPOS>BOND
  1   1   2  ar  
  2   2   3  ar  
  3   2   4  1   
  4   4   5  1   
  5   4   6  2   
  6   5   7  2   
  7   5   8  1   
  8   6   9  1   
  9   6  10  1   
 10   7   9  1   
 11   8  11  1   
 12   8  12  1   
 13  10  13  ar  
 14  10  14  ar  
 15  11  15  1   
 16  11  26  1   
 17  11  27  1   
 18  12  28  1   
 19  12  29  1   
 20  12  30  1   
 21  13  16  ar  
 22  13  31  1   
 23  14  17  ar  
 24  14  32  1   
 25  15  18  1   
 26  15  33  1   
 27  15  34  1   
 28  16  19  ar  
 29  16  35  1   
 30  17  19  ar  
 31  17  36  1   
 32  18  20  1   
 33  18  21  1   
 34  18  37  1   
 35  19  38  1   
 36  20  22  1   
 37  20  39  1   
 38  20  40  1   
 39  21  23  1   
 40  21  41  1   
 41  21  42  1   
 42  22  24  1   
 43  22  43  1   
 44  22  44  1   
 45  23  25  1   
 46  23  45  1   
 47  23  46  1   
 48  24  25  1   
 49  24  47  1   
 50  24  48  1   
 51  25  49  1   
 52  25  50  1   
@<TRIPOS>SUBSTRUCTURE
  1 ****   2 GROUP 4 **** **** 0

# MOE 2024.06 (io_trps.svl 2023.06)
