@<TRIPOS>MOLECULE
NONAME
27 28 1 0 0 
SMALL
USER_CHARGES


@<TRIPOS>ATOM
  1 S       -0.2670     0.4990    -0.3870 S.3   1 <1>  -0.2420 
  2 C        1.3830     0.0180     0.0110 C.2   1 <1>   0.6410 
  3 C       -0.7100    -1.1780    -0.7730 C.2   1 <1>  -0.0490 
  4 N        2.2870     0.8420     0.3980 N.2   1 <1>  -0.6610 
  5 N        1.5250    -1.3500    -0.1590 N.pl3 1 <1>  -0.1080 
  6 C        0.3450    -1.9940    -0.5980 C.2   1 <1>   0.2090 
  7 C        3.4860     0.2300     0.6480 C.2   1 <1>   0.7810 
  8 N        2.7130    -1.9950     0.0870 N.2   1 <1>  -0.4920 
  9 N        0.4170    -3.3790    -0.7950 N.am  1 <1>  -0.5390 
 10 O        4.4080     0.9470     1.0220 O.2   1 <1>  -0.5700 
 11 C        3.6590    -1.2010     0.4790 C.2   1 <1>   0.3890 
 12 C       -0.5560    -4.2650    -1.1500 C.2   1 <1>   0.5690 
 13 C        5.0160    -1.8220     0.7760 C.3   1 <1>  -0.1790 
 14 O       -1.6990    -3.9320    -1.3510 O.2   1 <1>  -0.5700 
 15 C       -0.1840    -5.7340    -1.2970 C.3   1 <1>   0.1310 
 16 S        1.2670    -6.1680    -0.2670 S.3   1 <1>  -0.4600 
 17 C        0.6110    -6.1290     1.4250 C.3   1 <1>  -0.0100 
 18 H       -1.7210    -1.3650    -1.0920 H     1 <1>   0.1500 
 19 H        1.3390    -3.7840    -0.5980 H     1 <1>   0.3700 
 20 H        5.7630    -1.3860     0.1370 H     1 <1>   0.0800 
 21 H        4.9950    -2.8850     0.6090 H     1 <1>   0.0800 
 22 H        5.2860    -1.6370     1.8000 H     1 <1>   0.0800 
 23 H        0.0750    -5.9480    -2.3170 H     1 <1>   0.0800 
 24 H       -1.0000    -6.3630    -0.9900 H     1 <1>   0.0800 
 25 H        1.4130    -6.3890     2.0930 H     1 <1>   0.0800 
 26 H       -0.1870    -6.8480     1.4910 H     1 <1>   0.0800 
 27 H        0.2520    -5.1350     1.6270 H     1 <1>   0.0800 
@<TRIPOS>BOND
  1   1   2  1   
  2   1   3  1   
  3   2   4  2   
  4   2   5  1   
  5   3   6  2   
  6   3  18  1   
  7   4   7  1   
  8   5   6  1   
  9   5   8  1   
 10   6   9  1   
 11   7  10  2   
 12   7  11  1   
 13   8  11  2   
 14   9  12  am  
 15   9  19  1   
 16  11  13  1   
 17  12  14  2   
 18  12  15  1   
 19  13  20  1   
 20  13  21  1   
 21  13  22  1   
 22  15  16  1   
 23  15  23  1   
 24  15  24  1   
 25  16  17  1   
 26  17  25  1   
 27  17  26  1   
 28  17  27  1   
@<TRIPOS>SUBSTRUCTURE
  1 ****   5 GROUP 4 **** **** 0

# MOE 2024.06 (io_trps.svl 2023.06)
