@<TRIPOS>MOLECULE
NONAME
44 47 1 0 0 
SMALL
USER_CHARGES


@<TRIPOS>ATOM
  1 O        2.3260     0.2420     2.0740 O.2   1 <1>  -0.5700 
  2 C        1.8730     0.3590     0.9480 C.2   1 <1>   0.5440 
  3 N        0.9480     1.3530     0.7100 N.am  1 <1>  -0.6600 
  4 C        2.3000    -0.5430    -0.0950 C.ar  1 <1>   0.0860 
  5 C        0.4950     2.2890     1.7650 C.3   1 <1>   0.1400 
  6 C        0.0020     1.3520    -0.4310 C.3   1 <1>   0.1400 
  7 C        2.2430    -1.9370     0.0900 C.ar  1 <1>   0.4100 
  8 C        2.7820    -0.0700    -1.3090 C.ar  1 <1>  -0.1500 
  9 C       -0.9330     2.6510     1.3790 C.3   1 <1>  -0.1600 
 10 C       -0.9750     2.4860    -0.1360 C.3   1 <1>  -0.1600 
 11 N        2.5780    -2.8240    -0.8460 N.ar  1 <1>  -0.6200 
 12 N        1.8090    -2.4670     1.2810 N.pl3 1 <1>  -0.8690 
 13 C        3.1450    -0.9880    -2.2680 C.ar  1 <1>  -0.1500 
 14 C        3.0200    -2.3370    -1.9890 C.ar  1 <1>   0.1600 
 15 C        2.2450    -3.7910     1.8010 C.3   1 <1>   0.3890 
 16 C        1.2720    -4.8790     1.3840 C.2   1 <1>   0.0070 
 17 N        0.7780    -4.9470     0.1580 N.pl3 1 <1>   0.0330 
 18 N        0.8270    -5.8390     2.1220 N.2   1 <1>  -0.3380 
 19 C       -0.0160    -6.0210     0.1730 C.2   1 <1>   0.1340 
 20 N        0.0110    -6.5660     1.3600 N.2   1 <1>  -0.3380 
 21 C       -0.7650    -6.4690    -0.9760 C.ar  1 <1>   0.3630 
 22 N       -0.6390    -5.7890    -2.1250 N.ar  1 <1>  -0.6200 
 23 C       -1.6000    -7.5910    -0.8770 C.ar  1 <1>   0.1600 
 24 C       -1.3700    -6.2910    -3.1040 C.ar  1 <1>   0.1600 
 25 N       -2.3320    -8.0930    -1.8590 N.ar  1 <1>  -0.6200 
 26 C       -2.1890    -7.4050    -2.9780 C.ar  1 <1>   0.1600 
 27 H        1.1250     3.1620     1.7500 H     1 <1>   0.0800 
 28 H        0.5350     1.8350     2.7410 H     1 <1>   0.0800 
 29 H       -0.5170     0.4080    -0.4600 H     1 <1>   0.0800 
 30 H        0.5130     1.5180    -1.3630 H     1 <1>   0.0800 
 31 H        2.8690     0.9880    -1.4850 H     1 <1>   0.1500 
 32 H       -1.1920     3.6470     1.6930 H     1 <1>   0.0800 
 33 H       -1.6060     1.9500     1.8430 H     1 <1>   0.0800 
 34 H       -1.9640     2.2660    -0.4980 H     1 <1>   0.0800 
 35 H       -0.6210     3.3850    -0.6100 H     1 <1>   0.0800 
 36 H        1.7270    -1.7660     2.0340 H     1 <1>   0.4000 
 37 H        3.5230    -0.6660    -3.2220 H     1 <1>   0.1500 
 38 H        3.3030    -3.0470    -2.7480 H     1 <1>   0.1500 
 39 H        2.2950    -3.7540     2.8760 H     1 <1>   0.0800 
 40 H        3.2260    -4.0270     1.4270 H     1 <1>   0.0800 
 41 H        0.9790    -4.3010    -0.6140 H     1 <1>   0.2700 
 42 H       -1.6550    -8.0910     0.0740 H     1 <1>   0.1500 
 43 H       -1.3210    -5.7980    -4.0590 H     1 <1>   0.1500 
 44 H       -2.7480    -7.7390    -3.8340 H     1 <1>   0.1500 
@<TRIPOS>BOND
  1   1   2  2   
  2   2   3  am  
  3   2   4  1   
  4   3   5  1   
  5   3   6  1   
  6   4   7  ar  
  7   4   8  ar  
  8   5   9  1   
  9   5  27  1   
 10   5  28  1   
 11   6  10  1   
 12   6  29  1   
 13   6  30  1   
 14   7  11  ar  
 15   7  12  1   
 16   8  13  ar  
 17   8  31  1   
 18   9  10  1   
 19   9  32  1   
 20   9  33  1   
 21  10  34  1   
 22  10  35  1   
 23  11  14  ar  
 24  12  15  1   
 25  12  36  1   
 26  13  14  ar  
 27  13  37  1   
 28  14  38  1   
 29  15  16  1   
 30  15  39  1   
 31  15  40  1   
 32  16  17  1   
 33  16  18  2   
 34  17  19  1   
 35  17  41  1   
 36  18  20  1   
 37  19  20  2   
 38  19  21  1   
 39  21  22  ar  
 40  21  23  ar  
 41  22  24  ar  
 42  23  25  ar  
 43  23  42  1   
 44  24  26  ar  
 45  24  43  1   
 46  25  26  ar  
 47  26  44  1   
@<TRIPOS>SUBSTRUCTURE
  1 ****   7 GROUP 4 **** **** 0

# MOE 2024.06 (io_trps.svl 2023.06)
