@<TRIPOS>MOLECULE
NONAME
58 60 1 0 0 
SMALL
USER_CHARGES


@<TRIPOS>ATOM
  1 O       -0.9710     0.1840    -1.0810 O.2   1 <1>  -0.5700 
  2 C       -1.9940     0.6370    -0.6020 C.2   1 <1>   0.5440 
  3 N       -3.0830    -0.2100    -0.4580 N.am  1 <1>  -0.6600 
  4 C       -2.0060     2.0330    -0.2100 C.ar  1 <1>   0.0860 
  5 C       -4.5290     0.1350    -0.6280 C.3   1 <1>   0.2200 
  6 C       -2.8420    -1.6800    -0.3810 C.3   1 <1>   0.0600 
  7 C       -2.2820     2.4300     1.0980 C.ar  1 <1>  -0.1500 
  8 C       -1.7120     3.0370    -1.1340 C.ar  1 <1>  -0.1500 
  9 C       -4.8270     1.2270    -1.6630 C.3   1 <1>  -0.1600 
 10 C       -5.1790     0.5480     0.6920 C.3   1 <1>  -0.1600 
 11 C       -2.3390     3.7650     1.4490 C.ar  1 <1>  -0.1500 
 12 C       -1.7590     4.3770    -0.7920 C.ar  1 <1>  -0.1500 
 13 C       -5.8970     2.1440    -1.0550 C.3   1 <1>  -0.0800 
 14 C       -6.1710     1.6750     0.3750 C.3   1 <1>  -0.0800 
 15 C       -2.0990     4.7500     0.5050 C.ar  1 <1>   0.0830 
 16 C       -5.4780     3.6140    -0.9290 C.3   1 <1>  -0.1600 
 17 C       -6.0270     2.9190     1.2700 C.3   1 <1>  -0.1600 
 18 O       -2.2150     6.0320     0.9130 O.3   1 <1>  -0.3620 
 19 C       -6.1500     4.1320     0.3430 C.3   1 <1>   0.4230 
 20 C       -1.6880     7.0940     0.1500 C.3   1 <1>   0.1200 
 21 N       -7.5920     4.4620     0.0990 N.4   1 <1>  -0.9590 
 22 C       -1.8500     8.3850     0.9540 C.3   1 <1>  -0.1600 
 23 C       -7.7760     5.5160    -0.9500 C.3   1 <1>   0.2630 
 24 C       -8.2910     4.9120     1.3460 C.3   1 <1>   0.2630 
 25 C       -1.3070     9.5930     0.1830 C.3   1 <1>  -0.2400 
 26 H       -5.0470    -0.7470    -0.9700 H     1 <1>   0.0800 
 27 H       -3.5130    -2.1290     0.3310 H     1 <1>   0.0800 
 28 H       -1.8310    -1.8800    -0.0670 H     1 <1>   0.0800 
 29 H       -2.9950    -2.1240    -1.3490 H     1 <1>   0.0800 
 30 H       -2.4400     1.6730     1.8460 H     1 <1>   0.1500 
 31 H       -1.4430     2.7470    -2.1350 H     1 <1>   0.1500 
 32 H       -3.9550     1.7760    -1.9540 H     1 <1>   0.0800 
 33 H       -5.2170     0.7620    -2.5520 H     1 <1>   0.0800 
 34 H       -5.6960    -0.2920     1.1200 H     1 <1>   0.0800 
 35 H       -4.4340     0.8620     1.3930 H     1 <1>   0.0800 
 36 H       -2.5590     4.0550     2.4620 H     1 <1>   0.1500 
 37 H       -1.5320     5.1110    -1.5420 H     1 <1>   0.1500 
 38 H       -6.8040     2.0740    -1.6330 H     1 <1>   0.0800 
 39 H       -7.1770     1.2910     0.4290 H     1 <1>   0.0800 
 40 H       -5.6770     4.1800    -1.8190 H     1 <1>   0.0800 
 41 H       -4.4200     3.6600    -0.7580 H     1 <1>   0.0800 
 42 H       -5.0380     2.9510     1.6890 H     1 <1>   0.0800 
 43 H       -6.7150     2.9060     2.0930 H     1 <1>   0.0800 
 44 H       -5.6270     4.9880     0.7410 H     1 <1>   0.0800 
 45 H       -0.6480     6.8930    -0.0400 H     1 <1>   0.0800 
 46 H       -2.2310     7.1540    -0.7770 H     1 <1>   0.0800 
 47 H       -8.0310     3.5910    -0.2300 H     1 <1>   0.4500 
 48 H       -2.8920     8.5420     1.1700 H     1 <1>   0.0800 
 49 H       -1.3150     8.2910     1.8830 H     1 <1>   0.0800 
 50 H       -7.2310     6.4070    -0.6850 H     1 <1>   0.0800 
 51 H       -8.8200     5.7670    -1.0480 H     1 <1>   0.0800 
 52 H       -7.4260     5.1670    -1.9070 H     1 <1>   0.0800 
 53 H       -7.7970     5.7750     1.7610 H     1 <1>   0.0800 
 54 H       -8.2980     4.1290     2.0850 H     1 <1>   0.0800 
 55 H       -9.3130     5.1740     1.1260 H     1 <1>   0.0800 
 56 H       -1.8350     9.7200    -0.7460 H     1 <1>   0.0800 
 57 H       -0.2590     9.4680    -0.0270 H     1 <1>   0.0800 
 58 H       -1.4310    10.4870     0.7690 H     1 <1>   0.0800 
@<TRIPOS>BOND
  1   1   2  2   
  2   2   3  am  
  3   2   4  1   
  4   3   5  1   
  5   3   6  1   
  6   4   7  ar  
  7   4   8  ar  
  8   5   9  1   
  9   5  10  1   
 10   5  26  1   
 11   6  27  1   
 12   6  28  1   
 13   6  29  1   
 14   7  11  ar  
 15   7  30  1   
 16   8  12  ar  
 17   8  31  1   
 18   9  13  1   
 19   9  32  1   
 20   9  33  1   
 21  10  14  1   
 22  10  34  1   
 23  10  35  1   
 24  11  15  ar  
 25  11  36  1   
 26  12  15  ar  
 27  12  37  1   
 28  13  14  1   
 29  13  16  1   
 30  13  38  1   
 31  14  17  1   
 32  14  39  1   
 33  15  18  1   
 34  16  19  1   
 35  16  40  1   
 36  16  41  1   
 37  17  19  1   
 38  17  42  1   
 39  17  43  1   
 40  18  20  1   
 41  19  21  1   
 42  19  44  1   
 43  20  22  1   
 44  20  45  1   
 45  20  46  1   
 46  21  23  1   
 47  21  24  1   
 48  21  47  1   
 49  22  25  1   
 50  22  48  1   
 51  22  49  1   
 52  23  50  1   
 53  23  51  1   
 54  23  52  1   
 55  24  53  1   
 56  24  54  1   
 57  24  55  1   
 58  25  56  1   
 59  25  57  1   
 60  25  58  1   
@<TRIPOS>SUBSTRUCTURE
  1 ****  16 GROUP 4 **** **** 0

# MOE 2024.06 (io_trps.svl 2023.06)
