@<TRIPOS>MOLECULE
NONAME
48 50 1 0 0 
SMALL
USER_CHARGES


@<TRIPOS>ATOM
  1 O       -0.4690     1.3530     1.7870 O.3   1 <1>  -0.6800 
  2 C       -1.0480     2.0410     0.7340 C.3   1 <1>   0.4240 
  3 C       -2.1920     1.1460     0.2040 C.ar  1 <1>  -0.1440 
  4 C        0.0290     2.4290    -0.3000 C.3   1 <1>   0.2090 
  5 C       -1.4430     3.4090     1.2910 C.3   1 <1>  -0.1600 
  6 C       -1.9560    -0.0530    -0.4830 C.ar  1 <1>  -0.1440 
  7 C       -3.5170     1.5200     0.4260 C.ar  1 <1>  -0.1500 
  8 N        0.5950     3.7630     0.1050 N.pl3 1 <1>  -0.8380 
  9 C       -0.1530     4.2190     1.3000 C.3   1 <1>   0.2090 
 10 C       -3.0250    -0.8080    -0.9440 C.ar  1 <1>  -0.1500 
 11 C       -0.5660    -0.6160    -0.7670 C.3   1 <1>  -0.0970 
 12 C       -4.5730     0.7580    -0.0350 C.ar  1 <1>  -0.1500 
 13 C        1.8890     4.1130    -0.0970 C.ar  1 <1>   0.4100 
 14 C       -4.3280    -0.4090    -0.7260 C.ar  1 <1>  -0.1500 
 15 N        2.7780     3.1450     0.0080 N.ar  1 <1>  -0.6200 
 16 C        2.2640     5.4560    -0.3820 C.ar  1 <1>  -0.1430 
 17 C        4.0420     3.4690    -0.0780 C.ar  1 <1>   0.7710 
 18 C        3.5960     5.7500    -0.4470 C.ar  1 <1>   0.2180 
 19 C        1.1780     6.5100    -0.6330 C.3   1 <1>  -0.0970 
 20 N        4.4650     4.7230    -0.2850 N.ar  1 <1>  -0.1790 
 21 N        4.9170     2.4770     0.0580 N.pl3 1 <1>  -0.9000 
 22 C        4.2120     7.1300    -0.6930 C.3   1 <1>  -0.0170 
 23 C        5.1910     7.5450     0.4160 C.3   1 <1>  -0.2400 
 24 H       -1.1360     0.7260     2.1240 H     1 <1>   0.4000 
 25 H       -0.4320     2.5350    -1.2650 H     1 <1>   0.0800 
 26 H        0.7920     1.6750    -0.3550 H     1 <1>   0.0800 
 27 H       -1.8930     3.3490     2.2650 H     1 <1>   0.0800 
 28 H       -2.1210     3.8960     0.6150 H     1 <1>   0.0800 
 29 H       -3.7690     2.4130     0.9660 H     1 <1>   0.1500 
 30 H        0.4190     3.9900     2.1850 H     1 <1>   0.0800 
 31 H       -0.3590     5.2740     1.2650 H     1 <1>   0.0800 
 32 H       -2.8520    -1.7240    -1.4820 H     1 <1>   0.1500 
 33 H        0.0780    -0.5170     0.0870 H     1 <1>   0.0800 
 34 H       -0.1270    -0.1110    -1.6080 H     1 <1>   0.0800 
 35 H       -0.6200    -1.6640    -1.0010 H     1 <1>   0.0800 
 36 H       -5.5870     1.0720     0.1460 H     1 <1>   0.1500 
 37 H       -5.1460    -1.0060    -1.0910 H     1 <1>   0.1500 
 38 H        0.2740     6.0530    -0.9960 H     1 <1>   0.0800 
 39 H        1.4760     7.2180    -1.3840 H     1 <1>   0.0800 
 40 H        0.9520     7.0370     0.2770 H     1 <1>   0.0800 
 41 H        5.4660     4.8730    -0.3180 H     1 <1>   0.4570 
 42 H        5.9360     2.5040     0.0300 H     1 <1>   0.4000 
 43 H        4.5300     1.5430     0.2330 H     1 <1>   0.4000 
 44 H        3.4510     7.8860    -0.7470 H     1 <1>   0.0800 
 45 H        4.7220     7.1300    -1.6410 H     1 <1>   0.0800 
 46 H        4.7020     7.5300     1.3750 H     1 <1>   0.0800 
 47 H        5.5350     8.5500     0.2360 H     1 <1>   0.0800 
 48 H        6.0540     6.9050     0.4520 H     1 <1>   0.0800 
@<TRIPOS>BOND
  1   1   2  1   
  2   1  24  1   
  3   2   3  1   
  4   2   4  1   
  5   2   5  1   
  6   3   6  ar  
  7   3   7  ar  
  8   4   8  1   
  9   4  25  1   
 10   4  26  1   
 11   5   9  1   
 12   5  27  1   
 13   5  28  1   
 14   6  10  ar  
 15   6  11  1   
 16   7  12  ar  
 17   7  29  1   
 18   8   9  1   
 19   8  13  1   
 20   9  30  1   
 21   9  31  1   
 22  10  14  ar  
 23  10  32  1   
 24  11  33  1   
 25  11  34  1   
 26  11  35  1   
 27  12  14  ar  
 28  12  36  1   
 29  13  15  ar  
 30  13  16  ar  
 31  14  37  1   
 32  15  17  ar  
 33  16  18  ar  
 34  16  19  1   
 35  17  20  ar  
 36  17  21  1   
 37  18  20  ar  
 38  18  22  1   
 39  19  38  1   
 40  19  39  1   
 41  19  40  1   
 42  20  41  1   
 43  21  42  1   
 44  21  43  1   
 45  22  23  1   
 46  22  44  1   
 47  22  45  1   
 48  23  46  1   
 49  23  47  1   
 50  23  48  1   
@<TRIPOS>SUBSTRUCTURE
  1 ****   8 GROUP 4 **** **** 0

# MOE 2024.06 (io_trps.svl 2023.06)
