@<TRIPOS>MOLECULE
NONAME
51 52 1 0 0 
SMALL
USER_CHARGES


@<TRIPOS>ATOM
  1 O        0.2200     0.9270     0.0310 O.2   1 <1>  -0.5700 
  2 C        0.1050     2.1200    -0.0820 C.2   1 <1>   0.5690 
  3 N       -0.7990     2.7970     0.6600 N.am  1 <1>  -0.7300 
  4 C        0.9670     2.8880    -1.0850 C.3   1 <1>   0.1810 
  5 C       -0.9970     4.2660     0.5820 C.3   1 <1>   0.3640 
  6 O        1.0840     4.2520    -0.7510 O.3   1 <1>  -0.5600 
  7 C       -2.4810     4.5630     0.4020 C.ar  1 <1>  -0.1440 
  8 C       -0.1520     4.9220    -0.5420 C.3   1 <1>   0.2610 
  9 C       -3.2810     3.7880    -0.4280 C.ar  1 <1>   0.1600 
 10 C       -3.0580     5.6310     1.0620 C.ar  1 <1>  -0.1500 
 11 C        0.0310     6.4150    -0.2250 C.2   1 <1>   0.5690 
 12 N       -4.5720     3.9850    -0.6410 N.ar  1 <1>  -0.6200 
 13 C       -4.4020     5.8520     0.8500 C.ar  1 <1>  -0.1500 
 14 O       -0.7340     7.1700    -0.7800 O.2   1 <1>  -0.5700 
 15 N        0.9690     6.8980     0.6690 N.am  1 <1>  -0.6600 
 16 C       -5.1020     5.0120     0.0020 C.ar  1 <1>   0.1600 
 17 C        1.8950     6.0510     1.4810 C.3   1 <1>   0.1400 
 18 C        1.0820     8.3670     0.9090 C.3   1 <1>   0.1400 
 19 C        3.3000     6.0430     0.8750 C.3   1 <1>  -0.1600 
 20 C        1.8260     9.0510    -0.2430 C.3   1 <1>  -0.1600 
 21 C        4.1890     4.9950     1.5560 C.3   1 <1>  -0.1600 
 22 C        1.9930    10.5530     0.0200 C.3   1 <1>  -0.1600 
 23 C        5.5950     4.9910     0.9510 C.3   1 <1>  -0.2400 
 24 C        2.7360    11.2340    -1.1320 C.3   1 <1>  -0.2400 
 25 H       -1.3770     2.2730     1.3210 H     1 <1>   0.3700 
 26 H        0.5380     2.8120    -2.0670 H     1 <1>   0.0800 
 27 H        1.9570     2.4690    -1.1020 H     1 <1>   0.0800 
 28 H       -0.6870     4.6810     1.5240 H     1 <1>   0.0800 
 29 H       -0.6980     4.8580    -1.4660 H     1 <1>   0.0800 
 30 H       -2.8420     2.9560    -0.9520 H     1 <1>   0.1500 
 31 H       -2.4920     6.2790     1.7110 H     1 <1>   0.1500 
 32 H       -4.9050     6.6700     1.3330 H     1 <1>   0.1500 
 33 H       -6.1510     5.1960    -0.1570 H     1 <1>   0.1500 
 34 H        1.9360     6.4260     2.4890 H     1 <1>   0.0800 
 35 H        1.5300     5.0420     1.5330 H     1 <1>   0.0800 
 36 H        0.0940     8.7880     0.9930 H     1 <1>   0.0800 
 37 H        1.5980     8.5500     1.8360 H     1 <1>   0.0800 
 38 H        3.2320     5.8200    -0.1750 H     1 <1>   0.0800 
 39 H        3.7470     7.0130     0.9950 H     1 <1>   0.0800 
 40 H        2.7950     8.6050    -0.3690 H     1 <1>   0.0800 
 41 H        1.2690     8.9130    -1.1540 H     1 <1>   0.0800 
 42 H        4.2580     5.2040     2.6100 H     1 <1>   0.0800 
 43 H        3.7520     4.0180     1.4350 H     1 <1>   0.0800 
 44 H        1.0230    11.0090     0.1330 H     1 <1>   0.0800 
 45 H        2.5430    10.7030     0.9340 H     1 <1>   0.0800 
 46 H        6.0630     5.9520     1.0780 H     1 <1>   0.0800 
 47 H        5.5520     4.7640    -0.1000 H     1 <1>   0.0800 
 48 H        6.2030     4.2480     1.4360 H     1 <1>   0.0800 
 49 H        2.1930    11.1130    -2.0530 H     1 <1>   0.0800 
 50 H        3.7180    10.8090    -1.2510 H     1 <1>   0.0800 
 51 H        2.8410    12.2860    -0.9330 H     1 <1>   0.0800 
@<TRIPOS>BOND
  1   1   2  2   
  2   2   3  am  
  3   2   4  1   
  4   3   5  1   
  5   3  25  1   
  6   4   6  1   
  7   4  26  1   
  8   4  27  1   
  9   5   7  1   
 10   5   8  1   
 11   5  28  1   
 12   6   8  1   
 13   7   9  ar  
 14   7  10  ar  
 15   8  11  1   
 16   8  29  1   
 17   9  12  ar  
 18   9  30  1   
 19  10  13  ar  
 20  10  31  1   
 21  11  14  2   
 22  11  15  am  
 23  12  16  ar  
 24  13  16  ar  
 25  13  32  1   
 26  15  17  1   
 27  15  18  1   
 28  16  33  1   
 29  17  19  1   
 30  17  34  1   
 31  17  35  1   
 32  18  20  1   
 33  18  36  1   
 34  18  37  1   
 35  19  21  1   
 36  19  38  1   
 37  19  39  1   
 38  20  22  1   
 39  20  40  1   
 40  20  41  1   
 41  21  23  1   
 42  21  42  1   
 43  21  43  1   
 44  22  24  1   
 45  22  44  1   
 46  22  45  1   
 47  23  46  1   
 48  23  47  1   
 49  23  48  1   
 50  24  49  1   
 51  24  50  1   
 52  24  51  1   
@<TRIPOS>SUBSTRUCTURE
  1 ****   8 GROUP 4 **** **** 0

# MOE 2024.06 (io_trps.svl 2023.06)
