@<TRIPOS>MOLECULE
NONAME
58 61 1 0 0 
SMALL
USER_CHARGES


@<TRIPOS>ATOM
  1 O        4.3910    -1.3320     0.6470 O.2   1 <1>  -0.5700 
  2 C        3.2760    -1.2680     0.1630 C.2   1 <1>   0.7030 
  3 N        2.9120    -0.0480    -0.3640 N.am  1 <1>  -0.6600 
  4 C        2.3890    -2.4270     0.2160 C.2   1 <1>   0.2770 
  5 C        3.7890     0.6530    -1.3670 C.3   1 <1>   0.1400 
  6 C        1.9910     0.8410     0.3930 C.3   1 <1>   0.1400 
  7 N        1.2030    -2.6860    -0.4880 N.pl3 1 <1>  -0.7640 
  8 C        2.5920    -3.5200     0.9970 C.2   1 <1>   0.2000 
  9 C        5.0900     1.2530    -0.7830 C.3   1 <1>   0.3430 
 10 C        2.7170     1.5300     1.5570 C.3   1 <1>  -0.1600 
 11 C        0.7560    -3.8790    -0.1080 C.cat 1 <1>   0.6500 
 12 C        0.5770    -1.8210    -1.5270 C.3   1 <1>   0.2740 
 13 N        1.5720    -4.4030     0.7910 N.pl3 1 <1>  -0.7000 
 14 N        5.0470     1.4450     0.7040 N.4   1 <1>  -0.9590 
 15 C        3.9550     2.3450     1.1680 C.3   1 <1>   0.3430 
 16 C        6.3830     1.7860     1.3010 C.3   1 <1>   0.3430 
 17 C        7.1680     2.9160     0.5950 C.3   1 <1>  -0.0800 
 18 C        8.5120     3.1020     1.3300 C.3   1 <1>  -0.0170 
 19 C        6.4020     4.2540     0.5160 C.3   1 <1>  -0.2400 
 20 C        9.4520     4.0470     0.5950 C.ar  1 <1>  -0.1440 
 21 C        9.6060     5.3580     1.0360 C.ar  1 <1>  -0.1500 
 22 C       10.1640     3.6000    -0.5190 C.ar  1 <1>  -0.1500 
 23 C       10.4640     6.1860     0.3400 C.ar  1 <1>   0.0820 
 24 C       11.0250     4.4480    -1.2050 C.ar  1 <1>  -0.1500 
 25 O       10.7560     7.4680     0.5810 O.3   1 <1>  -0.3630 
 26 C       11.1540     5.7440    -0.7500 C.ar  1 <1>   0.0820 
 27 C       11.6950     7.8670    -0.4160 C.3   1 <1>   0.4000 
 28 O       11.9130     6.7270    -1.2450 O.3   1 <1>  -0.3620 
 29 H        3.2280     1.4430    -1.8370 H     1 <1>   0.0800 
 30 H        4.0570    -0.0390    -2.1480 H     1 <1>   0.0800 
 31 H        1.1720     0.2610     0.7850 H     1 <1>   0.0800 
 32 H        1.5750     1.5820    -0.2710 H     1 <1>   0.0800 
 33 H        3.4100    -3.7030     1.6790 H     1 <1>   0.1500 
 34 H        5.3030     2.1880    -1.2740 H     1 <1>   0.0800 
 35 H        5.8980     0.5790    -1.0180 H     1 <1>   0.0800 
 36 H        2.9800     0.8070     2.3090 H     1 <1>   0.0800 
 37 H        2.0170     2.2050     2.0180 H     1 <1>   0.0800 
 38 H       -0.1400    -4.3600    -0.4820 H     1 <1>   0.1500 
 39 H        1.3110    -1.5360    -2.2620 H     1 <1>   0.0800 
 40 H        0.1690    -0.9330    -1.0750 H     1 <1>   0.0800 
 41 H       -0.2200    -2.3470    -2.0270 H     1 <1>   0.0800 
 42 H        1.4650    -5.3180     1.2460 H     1 <1>   0.4500 
 43 H        4.8080     0.4970     1.0560 H     1 <1>   0.4500 
 44 H        4.2880     2.8930     2.0350 H     1 <1>   0.0800 
 45 H        3.7050     3.0610     0.4020 H     1 <1>   0.0800 
 46 H        6.9980     0.9010     1.2830 H     1 <1>   0.0800 
 47 H        6.2470     2.0530     2.3370 H     1 <1>   0.0800 
 48 H        7.4060     2.5990    -0.4050 H     1 <1>   0.0800 
 49 H        9.0100     2.1520     1.4290 H     1 <1>   0.0800 
 50 H        8.3400     3.4740     2.3260 H     1 <1>   0.0800 
 51 H        6.1290     4.6010     1.4970 H     1 <1>   0.0800 
 52 H        5.5190     4.1670    -0.0880 H     1 <1>   0.0800 
 53 H        7.0130     5.0100     0.0550 H     1 <1>   0.0800 
 54 H        9.0820     5.7400     1.8920 H     1 <1>   0.1500 
 55 H       10.0570     2.5850    -0.8590 H     1 <1>   0.1500 
 56 H       11.5820     4.1190    -2.0640 H     1 <1>   0.1500 
 57 H       12.6190     8.1540     0.0530 H     1 <1>   0.0800 
 58 H       11.2800     8.6670    -1.0030 H     1 <1>   0.0800 
@<TRIPOS>BOND
  1   1   2  2   
  2   2   3  am  
  3   2   4  1   
  4   3   5  1   
  5   3   6  1   
  6   4   7  1   
  7   4   8  2   
  8   5   9  1   
  9   5  29  1   
 10   5  30  1   
 11   6  10  1   
 12   6  31  1   
 13   6  32  1   
 14   7  11  ar  
 15   7  12  1   
 16   8  13  1   
 17   8  33  1   
 18   9  14  1   
 19   9  34  1   
 20   9  35  1   
 21  10  15  1   
 22  10  36  1   
 23  10  37  1   
 24  11  13  ar  
 25  11  38  1   
 26  12  39  1   
 27  12  40  1   
 28  12  41  1   
 29  13  42  1   
 30  14  15  1   
 31  14  16  1   
 32  14  43  1   
 33  15  44  1   
 34  15  45  1   
 35  16  17  1   
 36  16  46  1   
 37  16  47  1   
 38  17  18  1   
 39  17  19  1   
 40  17  48  1   
 41  18  20  1   
 42  18  49  1   
 43  18  50  1   
 44  19  51  1   
 45  19  52  1   
 46  19  53  1   
 47  20  21  ar  
 48  20  22  ar  
 49  21  23  ar  
 50  21  54  1   
 51  22  24  ar  
 52  22  55  1   
 53  23  25  1   
 54  23  26  ar  
 55  24  26  ar  
 56  24  56  1   
 57  25  27  1   
 58  26  28  1   
 59  27  28  1   
 60  27  57  1   
 61  27  58  1   
@<TRIPOS>SUBSTRUCTURE
  1 ****  14 GROUP 4 **** **** 0

# MOE 2024.06 (io_trps.svl 2023.06)
