@<TRIPOS>MOLECULE
NONAME
57 59 1 0 0 
SMALL
USER_CHARGES


@<TRIPOS>ATOM
  1 O        0.1100     0.7480     0.7040 O.2   1 <1>  -0.5700 
  2 C        0.2780     1.9450     0.7110 C.2   1 <1>   0.5690 
  3 N       -0.7480     2.8150     0.9870 N.am  1 <1>  -0.6600 
  4 C        1.6680     2.4810     0.3960 C.3   1 <1>  -0.0990 
  5 C       -2.1440     2.3190     1.1910 C.3   1 <1>   0.1400 
  6 C       -0.6340     4.2980     1.0480 C.3   1 <1>   0.1400 
  7 C        2.6920     1.3950     0.0350 C.3   1 <1>  -0.0160 
  8 C       -3.1090     2.8990     0.1280 C.3   1 <1>   0.0000 
  9 C       -1.5460     4.9240    -0.0110 C.3   1 <1>  -0.1600 
 10 C        4.0360     2.0260    -0.2940 C.ar  1 <1>  -0.1440 
 11 C       -4.5330     2.3830     0.4190 C.3   1 <1>   0.2000 
 12 C       -3.0000     4.4440     0.1350 C.3   1 <1>  -0.1600 
 13 C       -2.8110     2.3010    -1.2590 C.3   1 <1>  -0.1600 
 14 C        4.9560     2.2770     0.7130 C.ar  1 <1>  -0.1500 
 15 C        4.3530     2.3580    -1.6030 C.ar  1 <1>  -0.1500 
 16 O       -5.4700     3.1880    -0.2390 O.3   1 <1>  -0.5600 
 17 C       -4.5820     0.9770    -0.1950 C.3   1 <1>  -0.1600 
 18 C       -3.5030     0.9360    -1.2860 C.3   1 <1>  -0.1600 
 19 C        6.1820     2.8520     0.4230 C.ar  1 <1>   0.0820 
 20 C        5.5700     2.9460    -1.9010 C.ar  1 <1>  -0.1500 
 21 C       -6.7510     3.1710     0.3070 C.3   1 <1>   0.0400 
 22 O        7.0470     3.0330     1.4520 O.3   1 <1>  -0.3630 
 23 C        6.4840     3.2130    -0.8950 C.ar  1 <1>   0.0820 
 24 C        8.2200     2.2510     1.4200 C.3   1 <1>   0.0400 
 25 O        7.6420     3.8240    -1.2490 O.3   1 <1>  -0.3630 
 26 C        7.8550     5.1170    -0.7270 C.3   1 <1>   0.0400 
 27 H        1.5890     3.1630    -0.4300 H     1 <1>   0.0800 
 28 H        2.0260     3.0220     1.2530 H     1 <1>   0.0800 
 29 H       -2.1660     1.2440     1.1600 H     1 <1>   0.0800 
 30 H       -2.4680     2.6190     2.1710 H     1 <1>   0.0800 
 31 H       -0.9380     4.6280     2.0270 H     1 <1>   0.0800 
 32 H        0.3770     4.6260     0.8900 H     1 <1>   0.0800 
 33 H        2.3380     0.8290    -0.8090 H     1 <1>   0.0800 
 34 H        2.8030     0.7120     0.8600 H     1 <1>   0.0800 
 35 H       -1.5140     5.9950     0.0810 H     1 <1>   0.0800 
 36 H       -1.1740     4.6710    -0.9880 H     1 <1>   0.0800 
 37 H       -4.7480     2.3840     1.4750 H     1 <1>   0.0800 
 38 H       -3.5920     4.8610    -0.6610 H     1 <1>   0.0800 
 39 H       -3.4010     4.8170     1.0620 H     1 <1>   0.0800 
 40 H       -3.2570     2.9240    -2.0150 H     1 <1>   0.0800 
 41 H       -1.7580     2.2170    -1.4620 H     1 <1>   0.0800 
 42 H        4.7320     2.0230     1.7330 H     1 <1>   0.1500 
 43 H        3.6520     2.1610    -2.3950 H     1 <1>   0.1500 
 44 H       -4.3400     0.2520     0.5620 H     1 <1>   0.0800 
 45 H       -5.5530     0.7450    -0.5940 H     1 <1>   0.0800 
 46 H       -2.7900     0.1580    -1.0680 H     1 <1>   0.0800 
 47 H       -3.9350     0.7510    -2.2550 H     1 <1>   0.0800 
 48 H        5.8150     3.2060    -2.9140 H     1 <1>   0.1500 
 49 H       -7.3800     3.7980    -0.3010 H     1 <1>   0.0800 
 50 H       -6.7140     3.5610     1.3090 H     1 <1>   0.0800 
 51 H       -7.1320     2.1650     0.3040 H     1 <1>   0.0800 
 52 H        8.7650     2.4240     2.3300 H     1 <1>   0.0800 
 53 H        8.8180     2.5380     0.5750 H     1 <1>   0.0800 
 54 H        7.9430     1.2140     1.3460 H     1 <1>   0.0800 
 55 H        8.7290     5.5290    -1.1970 H     1 <1>   0.0800 
 56 H        8.0060     5.0530     0.3350 H     1 <1>   0.0800 
 57 H        6.9950     5.7250    -0.9460 H     1 <1>   0.0800 
@<TRIPOS>BOND
  1   1   2  2   
  2   2   3  am  
  3   2   4  1   
  4   3   5  1   
  5   3   6  1   
  6   4   7  1   
  7   4  27  1   
  8   4  28  1   
  9   5   8  1   
 10   5  29  1   
 11   5  30  1   
 12   6   9  1   
 13   6  31  1   
 14   6  32  1   
 15   7  10  1   
 16   7  33  1   
 17   7  34  1   
 18   8  11  1   
 19   8  12  1   
 20   8  13  1   
 21   9  12  1   
 22   9  35  1   
 23   9  36  1   
 24  10  14  ar  
 25  10  15  ar  
 26  11  16  1   
 27  11  17  1   
 28  11  37  1   
 29  12  38  1   
 30  12  39  1   
 31  13  18  1   
 32  13  40  1   
 33  13  41  1   
 34  14  19  ar  
 35  14  42  1   
 36  15  20  ar  
 37  15  43  1   
 38  16  21  1   
 39  17  18  1   
 40  17  44  1   
 41  17  45  1   
 42  18  46  1   
 43  18  47  1   
 44  19  22  1   
 45  19  23  ar  
 46  20  23  ar  
 47  20  48  1   
 48  21  49  1   
 49  21  50  1   
 50  21  51  1   
 51  22  24  1   
 52  23  25  1   
 53  24  52  1   
 54  24  53  1   
 55  24  54  1   
 56  25  26  1   
 57  26  55  1   
 58  26  56  1   
 59  26  57  1   
@<TRIPOS>SUBSTRUCTURE
  1 ****   4 GROUP 4 **** **** 0

# MOE 2024.06 (io_trps.svl 2023.06)
