@<TRIPOS>MOLECULE
NONAME
44 47 1 0 0 
SMALL
USER_CHARGES


@<TRIPOS>ATOM
  1 O       -0.3290     1.8160    -0.2770 O.co2 1 <1>  -0.9000 
  2 C        0.6760     1.7220     0.4410 C.2   1 <1>   0.9470 
  3 O        0.6590     2.1180     1.6150 O.co2 1 <1>  -0.9000 
  4 C        2.0200     1.3350    -0.1830 C.3   1 <1>  -0.2420 
  5 C        2.7370     0.0160    -0.3550 C.3   1 <1>  -0.2420 
  6 C        3.0660     2.3830     0.1440 C.3   1 <1>   0.2350 
  7 C        2.0160     0.6390    -1.5220 C.3   1 <1>  -0.2000 
  8 C        2.3530    -1.3950     0.0980 C.2   1 <1>   0.9470 
  9 C        4.2250     0.2610    -0.1610 C.3   1 <1>   0.2350 
 10 N        4.3790     1.7430    -0.1490 N.am  1 <1>  -0.6600 
 11 O        1.8780    -2.1900    -0.7250 O.co2 1 <1>  -0.9000 
 12 O        2.6690    -1.7650     1.2370 O.co2 1 <1>  -0.9000 
 13 C        5.5370     2.3860    -0.4600 C.2   1 <1>   0.5690 
 14 O        6.5440     1.7880    -0.7660 O.2   1 <1>  -0.5700 
 15 C        5.5630     3.9100    -0.4240 C.3   1 <1>  -0.0990 
 16 C        6.9720     4.5270    -0.4940 C.3   1 <1>  -0.1600 
 17 C        6.9250     6.0580    -0.4160 C.3   1 <1>   0.0210 
 18 C        8.3070     6.6880    -0.4750 C.2   1 <1>  -0.1810 
 19 C        8.5280     8.0830    -0.4040 C.ar  1 <1>   0.0000 
 20 C        9.5190     6.0920    -0.6000 C.2   1 <1>  -0.3020 
 21 C        9.9030     8.2710    -0.4900 C.ar  1 <1>  -0.1520 
 22 C        7.6890     9.1950    -0.2730 C.ar  1 <1>  -0.1500 
 23 N       10.4980     7.0420    -0.6110 N.pl3 1 <1>   0.0330 
 24 C       10.4590     9.5530    -0.4490 C.ar  1 <1>  -0.1500 
 25 C        8.2350    10.4570    -0.2330 C.ar  1 <1>  -0.1500 
 26 C        9.6210    10.6360    -0.3210 C.ar  1 <1>  -0.1500 
 27 H        3.0220     2.6350     1.1900 H     1 <1>   0.0800 
 28 H        2.9060     3.2630    -0.4520 H     1 <1>   0.0800 
 29 H        2.5830     1.0490    -2.3370 H     1 <1>   0.1000 
 30 H        1.1000     0.1740    -1.8470 H     1 <1>   0.1000 
 31 H        4.7970    -0.1840    -0.9560 H     1 <1>   0.0800 
 32 H        4.5490    -0.1360     0.7860 H     1 <1>   0.0800 
 33 H        4.9770     4.2670    -1.2500 H     1 <1>   0.0800 
 34 H        5.0920     4.2300     0.4880 H     1 <1>   0.0800 
 35 H        7.5640     4.1450     0.3210 H     1 <1>   0.0800 
 36 H        7.4430     4.2300    -1.4150 H     1 <1>   0.0800 
 37 H        6.4550     6.3560     0.5050 H     1 <1>   0.0800 
 38 H        6.3400     6.4420    -1.2320 H     1 <1>   0.0800 
 39 H        9.7480     5.0440    -0.6830 H     1 <1>   0.1500 
 40 H        6.6270     9.0450    -0.2070 H     1 <1>   0.1500 
 41 H       11.5050     6.8770    -0.6940 H     1 <1>   0.2700 
 42 H       11.5240     9.6810    -0.5180 H     1 <1>   0.1500 
 43 H        7.6010    11.3200    -0.1330 H     1 <1>   0.1500 
 44 H       10.0230    11.6330    -0.2870 H     1 <1>   0.1500 
@<TRIPOS>BOND
  1   1   2  ar  
  2   2   3  ar  
  3   2   4  1   
  4   4   5  1   
  5   4   6  1   
  6   4   7  1   
  7   5   7  1   
  8   5   8  1   
  9   5   9  1   
 10   6  10  1   
 11   6  27  1   
 12   6  28  1   
 13   7  29  1   
 14   7  30  1   
 15   8  11  ar  
 16   8  12  ar  
 17   9  10  1   
 18   9  31  1   
 19   9  32  1   
 20  10  13  am  
 21  13  14  2   
 22  13  15  1   
 23  15  16  1   
 24  15  33  1   
 25  15  34  1   
 26  16  17  1   
 27  16  35  1   
 28  16  36  1   
 29  17  18  1   
 30  17  37  1   
 31  17  38  1   
 32  18  19  1   
 33  18  20  2   
 34  19  21  ar  
 35  19  22  ar  
 36  20  23  1   
 37  20  39  1   
 38  21  23  1   
 39  21  24  ar  
 40  22  25  ar  
 41  22  40  1   
 42  23  41  1   
 43  24  26  ar  
 44  24  42  1   
 45  25  26  ar  
 46  25  43  1   
 47  26  44  1   
@<TRIPOS>SUBSTRUCTURE
  1 ****  15 GROUP 4 **** **** 0

# MOE 2024.06 (io_trps.svl 2023.06)
