@<TRIPOS>MOLECULE
NONAME
52 55 1 0 0 
SMALL
USER_CHARGES


@<TRIPOS>ATOM
  1 O       -1.3330     1.2380     2.4030 O.2   1 <1>  -0.5700 
  2 C       -2.1710     1.5770     1.5840 C.2   1 <1>   0.5440 
  3 N       -3.4360     1.0220     1.6510 N.am  1 <1>  -0.6600 
  4 C       -1.8100     2.5240     0.5610 C.ar  1 <1>   0.0860 
  5 C       -3.7680    -0.0380     2.6430 C.3   1 <1>   0.1400 
  6 C       -4.4190     1.0870     0.5360 C.3   1 <1>   0.1400 
  7 C       -0.8130     2.2100    -0.3810 C.ar  1 <1>   0.4100 
  8 C       -2.4290     3.7630     0.4700 C.ar  1 <1>  -0.1500 
  9 C       -3.7320    -1.3980     1.9420 C.3   1 <1>  -0.1600 
 10 C       -4.3880    -0.2410    -0.2200 C.3   1 <1>  -0.1600 
 11 N       -0.4560     3.0220    -1.3760 N.ar  1 <1>  -0.6200 
 12 N       -0.1390     1.0100    -0.3080 N.pl3 1 <1>  -0.8690 
 13 C       -2.0490     4.6040    -0.5500 C.ar  1 <1>  -0.1500 
 14 C       -4.6570    -1.4430     0.7110 C.3   1 <1>   0.4240 
 15 C       -1.0720     4.1860    -1.4360 C.ar  1 <1>   0.1600 
 16 C        1.1580     0.7710    -0.9860 C.3   1 <1>   0.1290 
 17 O       -5.9460    -1.2500     1.2540 O.3   1 <1>  -0.5600 
 18 C       -4.5440    -2.8020    -0.0360 C.ar  1 <1>  -0.1430 
 19 C       -7.0390    -1.6840     0.5120 C.3   1 <1>   0.1200 
 20 C       -3.3460    -3.2310    -0.6210 C.ar  1 <1>   0.0830 
 21 C       -5.6590    -3.6300    -0.1530 C.ar  1 <1>  -0.1430 
 22 C       -6.9880    -3.2030     0.4350 C.3   1 <1>  -0.0160 
 23 O       -2.2440    -2.4440    -0.5460 O.3   1 <1>  -0.3630 
 24 C       -3.2760    -4.4570    -1.2750 C.ar  1 <1>  -0.1500 
 25 C       -5.5820    -4.8480    -0.8090 C.ar  1 <1>  -0.1500 
 26 C       -1.3270    -2.3810    -1.6140 C.3   1 <1>   0.0400 
 27 C       -4.3910    -5.2640    -1.3700 C.ar  1 <1>  -0.1500 
 28 H       -4.7500     0.1470     3.0450 H     1 <1>   0.0800 
 29 H       -3.0690    -0.0290     3.4620 H     1 <1>   0.0800 
 30 H       -4.1920     1.8900    -0.1410 H     1 <1>   0.0800 
 31 H       -5.4020     1.2600     0.9420 H     1 <1>   0.0800 
 32 H       -3.1830     4.0460     1.1830 H     1 <1>   0.1500 
 33 H       -4.0230    -2.1720     2.6270 H     1 <1>   0.0800 
 34 H       -2.7140    -1.5890     1.6640 H     1 <1>   0.0800 
 35 H       -3.4190    -0.3270    -0.6710 H     1 <1>   0.0800 
 36 H       -5.1010    -0.2280    -1.0210 H     1 <1>   0.0800 
 37 H       -0.2330     0.5410     0.6060 H     1 <1>   0.4000 
 38 H       -2.5000     5.5740    -0.6620 H     1 <1>   0.1500 
 39 H       -0.7820     4.8480    -2.2350 H     1 <1>   0.1500 
 40 H        1.8940     1.4610    -0.6130 H     1 <1>   0.0800 
 41 H        1.0470     0.9170    -2.0470 H     1 <1>   0.0800 
 42 H        1.4870    -0.2360    -0.8010 H     1 <1>   0.0800 
 43 H       -7.0050    -1.2430    -0.4690 H     1 <1>   0.0800 
 44 H       -7.9310    -1.3610     1.0170 H     1 <1>   0.0800 
 45 H       -7.7990    -3.5530    -0.1770 H     1 <1>   0.0800 
 46 H       -7.1000    -3.6170     1.4210 H     1 <1>   0.0800 
 47 H       -2.3550    -4.7970    -1.7060 H     1 <1>   0.1500 
 48 H       -6.4500    -5.4800    -0.8860 H     1 <1>   0.1500 
 49 H       -0.7220    -1.5020    -1.4800 H     1 <1>   0.0800 
 50 H       -1.8710    -2.3100    -2.5400 H     1 <1>   0.0800 
 51 H       -0.7060    -3.2580    -1.5960 H     1 <1>   0.0800 
 52 H       -4.3330    -6.2120    -1.8750 H     1 <1>   0.1500 
@<TRIPOS>BOND
  1   1   2  2   
  2   2   3  am  
  3   2   4  1   
  4   3   5  1   
  5   3   6  1   
  6   4   7  ar  
  7   4   8  ar  
  8   5   9  1   
  9   5  28  1   
 10   5  29  1   
 11   6  10  1   
 12   6  30  1   
 13   6  31  1   
 14   7  11  ar  
 15   7  12  1   
 16   8  13  ar  
 17   8  32  1   
 18   9  14  1   
 19   9  33  1   
 20   9  34  1   
 21  10  14  1   
 22  10  35  1   
 23  10  36  1   
 24  11  15  ar  
 25  12  16  1   
 26  12  37  1   
 27  13  15  ar  
 28  13  38  1   
 29  14  17  1   
 30  14  18  1   
 31  15  39  1   
 32  16  40  1   
 33  16  41  1   
 34  16  42  1   
 35  17  19  1   
 36  18  20  ar  
 37  18  21  ar  
 38  19  22  1   
 39  19  43  1   
 40  19  44  1   
 41  20  23  1   
 42  20  24  ar  
 43  21  22  1   
 44  21  25  ar  
 45  22  45  1   
 46  22  46  1   
 47  23  26  1   
 48  24  27  ar  
 49  24  47  1   
 50  25  27  ar  
 51  25  48  1   
 52  26  49  1   
 53  26  50  1   
 54  26  51  1   
 55  27  52  1   
@<TRIPOS>SUBSTRUCTURE
  1 ****  10 GROUP 4 **** **** 0

# MOE 2024.06 (io_trps.svl 2023.06)
