@<TRIPOS>MOLECULE
NONAME
53 55 1 0 0 
SMALL
USER_CHARGES


@<TRIPOS>ATOM
  1 O        0.0830     1.1010     0.8170 O.2   1 <1>  -0.5700 
  2 C       -0.0690     2.2810     0.6290 C.2   1 <1>   0.5690 
  3 N       -1.1470     2.9280     1.1200 N.am  1 <1>  -0.7300 
  4 C        0.9390     3.0660    -0.2080 C.3   1 <1>   0.1810 
  5 C       -1.4630     4.3500     0.8300 C.3   1 <1>   0.3640 
  6 O        0.9000     4.4460     0.0730 O.3   1 <1>  -0.5600 
  7 C       -2.8400     4.3940     0.1670 C.ar  1 <1>  -0.1440 
  8 C       -0.3880     5.0490    -0.0510 C.3   1 <1>   0.2610 
  9 C       -3.7790     5.3250     0.5860 C.ar  1 <1>  -0.1500 
 10 C       -3.1770     3.5170    -0.8580 C.ar  1 <1>  -0.1500 
 11 C       -0.3060     6.5390     0.3100 C.2   1 <1>   0.5690 
 12 C       -5.0300     5.3800    -0.0030 C.ar  1 <1>  -0.1500 
 13 C       -4.4290     3.5700    -1.4470 C.ar  1 <1>  -0.1500 
 14 O       -1.3100     7.2100     0.3280 O.2   1 <1>  -0.5700 
 15 N        0.9080     7.0760     0.6130 N.am  1 <1>  -0.7300 
 16 C       -5.3570     4.5020    -1.0200 C.ar  1 <1>  -0.1500 
 17 C        1.1820     8.4850     0.9580 C.3   1 <1>   0.1400 
 18 C        2.2230     9.0420    -0.0180 C.3   1 <1>  -0.1600 
 19 C        2.6870    10.4740     0.3270 C.3   1 <1>  -0.0800 
 20 C        1.5550    11.5020     0.0980 C.3   1 <1>  -0.1600 
 21 C        3.9580    10.7820    -0.4890 C.3   1 <1>  -0.1600 
 22 C        1.8410    12.8640     0.7500 C.3   1 <1>  -0.1600 
 23 C        4.5630    12.1810    -0.2860 C.3   1 <1>  -0.1600 
 24 C        2.6030    13.8580    -0.1380 C.3   1 <1>  -0.1600 
 25 C        3.7480    13.2800    -0.9810 C.3   1 <1>  -0.1600 
 26 H       -1.8550     2.3890     1.6210 H     1 <1>   0.3700 
 27 H        0.7350     2.9210    -1.2530 H     1 <1>   0.0800 
 28 H        1.9310     2.7130     0.0070 H     1 <1>   0.0800 
 29 H       -1.5160     4.8680     1.7730 H     1 <1>   0.0800 
 30 H       -0.6770     4.9790    -1.0840 H     1 <1>   0.0800 
 31 H       -3.5410     6.0250     1.3700 H     1 <1>   0.1500 
 32 H       -2.4720     2.7830    -1.2050 H     1 <1>   0.1500 
 33 H       -5.7480     6.1100     0.3300 H     1 <1>   0.1500 
 34 H       -4.6810     2.8860    -2.2390 H     1 <1>   0.1500 
 35 H        1.7110     6.4400     0.5880 H     1 <1>   0.3700 
 36 H       -6.3300     4.5450    -1.4770 H     1 <1>   0.1500 
 37 H        0.2670     9.0510     0.9040 H     1 <1>   0.0800 
 38 H        1.5540     8.5350     1.9670 H     1 <1>   0.0800 
 39 H        3.0760     8.3880     0.0040 H     1 <1>   0.0800 
 40 H        1.8160     9.0290    -1.0140 H     1 <1>   0.0800 
 41 H        2.9570    10.4880     1.3700 H     1 <1>   0.0800 
 42 H        1.3570    11.6200    -0.9530 H     1 <1>   0.0800 
 43 H        0.6510    11.1340     0.5470 H     1 <1>   0.0800 
 44 H        4.7120    10.0650    -0.2160 H     1 <1>   0.0800 
 45 H        3.7550    10.6360    -1.5370 H     1 <1>   0.0800 
 46 H        0.9030    13.3200     1.0170 H     1 <1>   0.0800 
 47 H        2.3820    12.7160     1.6690 H     1 <1>   0.0800 
 48 H        4.6880    12.3970     0.7600 H     1 <1>   0.0800 
 49 H        5.5440    12.1740    -0.7280 H     1 <1>   0.0800 
 50 H        1.9050    14.3320    -0.8070 H     1 <1>   0.0800 
 51 H        2.9990    14.6310     0.4990 H     1 <1>   0.0800 
 52 H        4.4080    14.0910    -1.2380 H     1 <1>   0.0800 
 53 H        3.3520    12.9010    -1.9070 H     1 <1>   0.0800 
@<TRIPOS>BOND
  1   1   2  2   
  2   2   3  am  
  3   2   4  1   
  4   3   5  1   
  5   3  26  1   
  6   4   6  1   
  7   4  27  1   
  8   4  28  1   
  9   5   7  1   
 10   5   8  1   
 11   5  29  1   
 12   6   8  1   
 13   7   9  ar  
 14   7  10  ar  
 15   8  11  1   
 16   8  30  1   
 17   9  12  ar  
 18   9  31  1   
 19  10  13  ar  
 20  10  32  1   
 21  11  14  2   
 22  11  15  am  
 23  12  16  ar  
 24  12  33  1   
 25  13  16  ar  
 26  13  34  1   
 27  15  17  1   
 28  15  35  1   
 29  16  36  1   
 30  17  18  1   
 31  17  37  1   
 32  17  38  1   
 33  18  19  1   
 34  18  39  1   
 35  18  40  1   
 36  19  20  1   
 37  19  21  1   
 38  19  41  1   
 39  20  22  1   
 40  20  42  1   
 41  20  43  1   
 42  21  23  1   
 43  21  44  1   
 44  21  45  1   
 45  22  24  1   
 46  22  46  1   
 47  22  47  1   
 48  23  25  1   
 49  23  48  1   
 50  23  49  1   
 51  24  25  1   
 52  24  50  1   
 53  24  51  1   
 54  25  52  1   
 55  25  53  1   
@<TRIPOS>SUBSTRUCTURE
  1 ****  11 GROUP 4 **** **** 0

# MOE 2024.06 (io_trps.svl 2023.06)
