@<TRIPOS>MOLECULE
NONAME
47 50 1 0 0 
SMALL
USER_CHARGES


@<TRIPOS>ATOM
  1 S       -0.8590     0.5140     0.0070 S.o2  1 <1>   1.0900 
  2 O       -1.0560     1.6540     0.8700 O.2   1 <1>  -0.6500 
  3 O        0.4020     0.2600    -0.6490 O.2   1 <1>  -0.6500 
  4 C       -1.3450    -0.9800     0.8200 C.3   1 <1>  -0.0550 
  5 C       -2.1480     0.4290    -1.2280 C.3   1 <1>  -0.0550 
  6 C       -1.8520    -1.8700    -0.3120 C.3   1 <1>   0.1760 
  7 C       -2.7380    -0.9930    -1.2200 C.3   1 <1>  -0.1600 
  8 N       -2.5980    -3.0460     0.2040 N.pl3 1 <1>   0.3140 
  9 N       -3.5440    -2.9040     1.1500 N.2   1 <1>  -0.7070 
 10 C       -2.4950    -4.3360    -0.2060 C.2   1 <1>  -0.3320 
 11 C       -4.0310    -4.0930     1.3190 C.2   1 <1>   0.1080 
 12 C       -3.4140    -5.0380     0.4940 C.2   1 <1>   0.0630 
 13 C       -1.5230    -4.8250    -1.2730 C.3   1 <1>  -0.0600 
 14 C       -5.1340    -4.3580     2.3210 C.3   1 <1>  -0.0590 
 15 N       -3.6480    -6.4320     0.3920 N.am  1 <1>  -0.4930 
 16 C       -4.8430    -7.0960     0.2900 C.2   1 <1>   0.6160 
 17 O       -5.8780    -6.4580     0.2360 O.2   1 <1>  -0.5700 
 18 C       -4.8620    -8.5440     0.2350 C.2   1 <1>   0.0910 
 19 O       -5.9910    -9.0930    -0.2570 O.3   1 <1>  -0.1590 
 20 C       -3.8570    -9.3710     0.6330 C.2   1 <1>  -0.1360 
 21 C       -6.1750   -10.4250    -0.3780 C.ar  1 <1>   0.0820 
 22 C       -3.9490   -10.7810     0.5340 C.2   1 <1>   0.4690 
 23 C       -5.1720   -11.3200     0.0080 C.ar  1 <1>   0.0860 
 24 C       -7.3790   -10.8850    -0.8930 C.ar  1 <1>  -0.1500 
 25 O       -3.0170   -11.4820     0.8830 O.2   1 <1>  -0.5700 
 26 C       -5.4170   -12.6870    -0.1410 C.ar  1 <1>  -0.1500 
 27 C       -7.6000   -12.2410    -1.0320 C.ar  1 <1>  -0.1500 
 28 C       -6.6160   -13.1430    -0.6550 C.ar  1 <1>  -0.1500 
 29 H       -2.1410    -0.7700     1.5090 H     1 <1>   0.0800 
 30 H       -0.5230    -1.4310     1.3410 H     1 <1>   0.0800 
 31 H       -1.7430     0.6650    -2.1950 H     1 <1>   0.0800 
 32 H       -2.9220     1.1390    -1.0030 H     1 <1>   0.0800 
 33 H       -1.0040    -2.2150    -0.8750 H     1 <1>   0.0800 
 34 H       -2.7850    -1.3980    -2.2160 H     1 <1>   0.0800 
 35 H       -3.7360    -0.9490    -0.8150 H     1 <1>   0.0800 
 36 H       -1.6870    -4.2940    -2.1940 H     1 <1>   0.0800 
 37 H       -1.6620    -5.8730    -1.4640 H     1 <1>   0.0800 
 38 H       -0.5080    -4.6680    -0.9530 H     1 <1>   0.0800 
 39 H       -5.0810    -3.6430     3.1200 H     1 <1>   0.0800 
 40 H       -5.0400    -5.3460     2.7280 H     1 <1>   0.0800 
 41 H       -6.0870    -4.2670     1.8330 H     1 <1>   0.0800 
 42 H       -2.8070    -6.9790     0.2290 H     1 <1>   0.3700 
 43 H       -2.9390    -9.0040     1.0510 H     1 <1>   0.1500 
 44 H       -8.1360   -10.1760    -1.1820 H     1 <1>   0.1500 
 45 H       -4.6540   -13.3900     0.1510 H     1 <1>   0.1500 
 46 H       -8.5330   -12.6000    -1.4310 H     1 <1>   0.1500 
 47 H       -6.7900   -14.2000    -0.7640 H     1 <1>   0.1500 
@<TRIPOS>BOND
  1   1   2  2   
  2   1   3  2   
  3   1   4  1   
  4   1   5  1   
  5   4   6  1   
  6   4  29  1   
  7   4  30  1   
  8   5   7  1   
  9   5  31  1   
 10   5  32  1   
 11   6   7  1   
 12   6   8  1   
 13   6  33  1   
 14   7  34  1   
 15   7  35  1   
 16   8   9  1   
 17   8  10  1   
 18   9  11  2   
 19  10  12  2   
 20  10  13  1   
 21  11  12  1   
 22  11  14  1   
 23  12  15  1   
 24  13  36  1   
 25  13  37  1   
 26  13  38  1   
 27  14  39  1   
 28  14  40  1   
 29  14  41  1   
 30  15  16  am  
 31  15  42  1   
 32  16  17  2   
 33  16  18  1   
 34  18  19  1   
 35  18  20  2   
 36  19  21  1   
 37  20  22  1   
 38  20  43  1   
 39  21  23  ar  
 40  21  24  ar  
 41  22  23  1   
 42  22  25  2   
 43  23  26  ar  
 44  24  27  ar  
 45  24  44  1   
 46  26  28  ar  
 47  26  45  1   
 48  27  28  ar  
 49  27  46  1   
 50  28  47  1   
@<TRIPOS>SUBSTRUCTURE
  1 ****  15 GROUP 4 **** **** 0

# MOE 2024.06 (io_trps.svl 2023.06)
