@<TRIPOS>MOLECULE
NONAME
49 51 1 0 0 
SMALL
USER_CHARGES


@<TRIPOS>ATOM
  1 O        2.5240    -0.6200    -3.5900 O.2   1 <1>  -0.5700 
  2 C        1.9550    -0.9920    -2.5940 C.2   1 <1>   0.5690 
  3 N        1.8240    -0.2440    -1.4560 N.am  1 <1>  -0.4940 
  4 C        1.3290    -2.3800    -2.5950 C.3   1 <1>   0.0450 
  5 C        2.1900     1.0610    -1.0530 C.2   1 <1>  -0.0880 
  6 C        0.4850    -2.6180    -1.3440 C.ar  1 <1>  -0.1430 
  7 N        3.1100     1.9120    -1.5900 N.pl3 1 <1>   0.3140 
  8 C        1.6630     1.6980     0.0210 C.2   1 <1>  -0.1810 
  9 C       -0.8440    -2.2250    -1.3170 C.ar  1 <1>  -0.1500 
 10 C        1.0570    -3.1680    -0.2080 C.ar  1 <1>  -0.1500 
 11 N        3.1830     3.0610    -0.8820 N.2   1 <1>  -0.7070 
 12 C        4.0090     1.7080    -2.7320 C.3   1 <1>   0.0160 
 13 C        2.3190     2.9250     0.0730 C.2   1 <1>   0.1080 
 14 C        0.5830     1.1830     0.9620 C.3   1 <1>   0.0210 
 15 C       -1.5870    -2.3600    -0.1590 C.ar  1 <1>  -0.1500 
 16 C        0.3150    -3.3010     0.9510 C.ar  1 <1>  -0.1500 
 17 C        2.0910     4.0140     1.1060 C.3   1 <1>   0.0210 
 18 C        1.1940     0.3160     2.0640 C.3   1 <1>  -0.2400 
 19 C       -1.0140    -2.8930     0.9900 C.ar  1 <1>  -0.0230 
 20 C        0.9560     4.9510     0.6810 C.3   1 <1>  -0.2400 
 21 N       -1.7660    -3.0080     2.1890 N.pl3 1 <1>   0.5930 
 22 N       -1.5750    -2.2560     3.2600 N.2   1 <1>  -0.4180 
 23 C       -2.7650    -3.8370     2.4840 C.2   1 <1>   0.0060 
 24 N       -2.4310    -2.6300     4.1380 N.2   1 <1>   0.0000 
 25 N       -3.1840    -3.6190     3.6690 N.2   1 <1>  -0.3380 
 26 C       -3.3230    -4.8950     1.5480 C.3   1 <1>  -0.0600 
 27 H        1.2700    -0.7240    -0.7420 H     1 <1>   0.3700 
 28 H        2.1160    -3.1080    -2.6580 H     1 <1>   0.0800 
 29 H        0.7210    -2.4790    -3.4750 H     1 <1>   0.0800 
 30 H       -1.3020    -1.7970    -2.1940 H     1 <1>   0.1500 
 31 H        2.0880    -3.4820    -0.2140 H     1 <1>   0.1500 
 32 H        4.4810     0.7490    -2.6450 H     1 <1>   0.0800 
 33 H        4.7560     2.4790    -2.7350 H     1 <1>   0.0800 
 34 H        3.4380     1.7570    -3.6390 H     1 <1>   0.0800 
 35 H       -0.1320     0.6040     0.4050 H     1 <1>   0.0800 
 36 H        0.0540     2.0100     1.4010 H     1 <1>   0.0800 
 37 H       -2.6150    -2.0380    -0.1480 H     1 <1>   0.1500 
 38 H        0.7730    -3.7170     1.8330 H     1 <1>   0.1500 
 39 H        3.0000     4.5790     1.2150 H     1 <1>   0.0800 
 40 H        1.8650     3.5680     2.0560 H     1 <1>   0.0800 
 41 H        1.7110    -0.5240     1.6350 H     1 <1>   0.0800 
 42 H        0.4230    -0.0490     2.7190 H     1 <1>   0.0800 
 43 H        1.8960     0.8920     2.6400 H     1 <1>   0.0800 
 44 H        1.1990     5.4060    -0.2630 H     1 <1>   0.0800 
 45 H        0.8160     5.7230     1.4150 H     1 <1>   0.0800 
 46 H        0.0390     4.4010     0.5700 H     1 <1>   0.0800 
 47 H       -2.5400    -5.5570     1.2250 H     1 <1>   0.0800 
 48 H       -3.7720    -4.4320     0.6880 H     1 <1>   0.0800 
 49 H       -4.0740    -5.4740     2.0570 H     1 <1>   0.0800 
@<TRIPOS>BOND
  1   1   2  2   
  2   2   3  am  
  3   2   4  1   
  4   3   5  1   
  5   3  27  1   
  6   4   6  1   
  7   4  28  1   
  8   4  29  1   
  9   5   7  1   
 10   5   8  2   
 11   6   9  ar  
 12   6  10  ar  
 13   7  11  1   
 14   7  12  1   
 15   8  13  1   
 16   8  14  1   
 17   9  15  ar  
 18   9  30  1   
 19  10  16  ar  
 20  10  31  1   
 21  11  13  2   
 22  12  32  1   
 23  12  33  1   
 24  12  34  1   
 25  13  17  1   
 26  14  18  1   
 27  14  35  1   
 28  14  36  1   
 29  15  19  ar  
 30  15  37  1   
 31  16  19  ar  
 32  16  38  1   
 33  17  20  1   
 34  17  39  1   
 35  17  40  1   
 36  18  41  1   
 37  18  42  1   
 38  18  43  1   
 39  19  21  1   
 40  20  44  1   
 41  20  45  1   
 42  20  46  1   
 43  21  22  1   
 44  21  23  1   
 45  22  24  2   
 46  23  25  2   
 47  23  26  1   
 48  24  25  1   
 49  26  47  1   
 50  26  48  1   
 51  26  49  1   
@<TRIPOS>SUBSTRUCTURE
  1 ****  14 GROUP 4 **** **** 0

# MOE 2024.06 (io_trps.svl 2023.06)
