@<TRIPOS>MOLECULE
NONAME
52 55 1 0 0 
SMALL
USER_CHARGES


@<TRIPOS>ATOM
  1 O       -1.5810     0.3940    -3.1310 O.co2 1 <1>  -0.9000 
  2 C       -1.7680    -0.0400    -1.9790 C.2   1 <1>   0.9790 
  3 O       -1.1540    -1.0590    -1.6150 O.co2 1 <1>  -0.9000 
  4 C       -2.7160     0.5860    -1.1050 C.ar  1 <1>  -0.1790 
  5 C       -2.4220     1.6790    -0.2950 C.ar  1 <1>   0.1000 
  6 C       -4.0070     0.0410    -1.0780 C.ar  1 <1>   0.1600 
  7 N       -1.1710     2.2760    -0.2500 N.pl3 1 <1>  -0.8380 
  8 C       -3.4810     2.1470     0.5020 C.ar  1 <1>   0.0000 
  9 N       -5.0120     0.4640    -0.3490 N.ar  1 <1>  -0.5670 
 10 C       -0.6760     2.8630    -1.5400 C.3   1 <1>   0.2090 
 11 C       -0.1390     1.5170     0.5050 C.3   1 <1>   0.2090 
 12 C       -4.7050     1.5220     0.4290 C.ar  1 <1>   0.1050 
 13 C       -3.6850     3.1690     1.4510 C.2   1 <1>   0.1080 
 14 C       -0.1730     4.3040    -1.3630 C.3   1 <1>   0.2090 
 15 C        1.2030     2.2520     0.6310 C.3   1 <1>  -0.1600 
 16 N       -5.5220     2.1800     1.2940 N.pl3 1 <1>   0.3140 
 17 N       -4.8870     3.1970     1.9250 N.2   1 <1>  -0.7070 
 18 C       -2.6200     4.1420     1.8940 C.3   1 <1>  -0.0590 
 19 N        1.0710     4.4260    -0.5360 N.pl3 1 <1>  -0.8380 
 20 C        1.0840     3.7680     0.7940 C.3   1 <1>   0.2090 
 21 C       -6.9290     1.8580     1.5510 C.3   1 <1>   0.0160 
 22 C        1.9060     5.5160    -0.7660 C.ar  1 <1>   0.1000 
 23 C        1.7390     6.7590    -0.1440 C.ar  1 <1>  -0.1430 
 24 C        2.9540     5.3490    -1.6610 C.ar  1 <1>  -0.1500 
 25 C        2.6210     7.7900    -0.4270 C.ar  1 <1>  -0.1500 
 26 C        0.6040     7.0130     0.8390 C.3   1 <1>  -0.0970 
 27 C        3.8280     6.3810    -1.9410 C.ar  1 <1>  -0.1500 
 28 C        3.6620     7.6060    -1.3210 C.ar  1 <1>  -0.1500 
 29 H       -4.1810    -0.8060    -1.7200 H     1 <1>   0.1500 
 30 H       -1.4830     2.8740    -2.2520 H     1 <1>   0.0800 
 31 H        0.1030     2.2490    -1.9600 H     1 <1>   0.0800 
 32 H        0.0230     0.5620     0.0330 H     1 <1>   0.0800 
 33 H       -0.5280     1.3270     1.4910 H     1 <1>   0.0800 
 34 H       -0.9590     4.8880    -0.9220 H     1 <1>   0.0800 
 35 H        0.0280     4.7110    -2.3380 H     1 <1>   0.0800 
 36 H        1.8180     2.0320    -0.2230 H     1 <1>   0.0800 
 37 H        1.7080     1.8520     1.4890 H     1 <1>   0.0800 
 38 H       -2.2000     4.6290     1.0350 H     1 <1>   0.0800 
 39 H       -1.8470     3.6090     2.4130 H     1 <1>   0.0800 
 40 H       -3.0430     4.8820     2.5480 H     1 <1>   0.0800 
 41 H        1.9360     4.1300     1.3440 H     1 <1>   0.0800 
 42 H        0.1950     4.0230     1.3420 H     1 <1>   0.0800 
 43 H       -7.4730     1.9130     0.6270 H     1 <1>   0.0800 
 44 H       -7.3310     2.5620     2.2560 H     1 <1>   0.0800 
 45 H       -6.9900     0.8630     1.9500 H     1 <1>   0.0800 
 46 H        3.0710     4.3910    -2.1340 H     1 <1>   0.1500 
 47 H        2.5040     8.7480     0.0470 H     1 <1>   0.1500 
 48 H       -0.3270     6.6770     0.4230 H     1 <1>   0.0800 
 49 H        0.5150     8.0590     1.0640 H     1 <1>   0.0800 
 50 H        0.7890     6.4800     1.7530 H     1 <1>   0.0800 
 51 H        4.6340     6.2310    -2.6370 H     1 <1>   0.1500 
 52 H        4.3400     8.4140    -1.5330 H     1 <1>   0.1500 
@<TRIPOS>BOND
  1   1   2  ar  
  2   2   3  ar  
  3   2   4  1   
  4   4   5  ar  
  5   4   6  ar  
  6   5   7  1   
  7   5   8  ar  
  8   6   9  ar  
  9   6  29  1   
 10   7  10  1   
 11   7  11  1   
 12   8  12  ar  
 13   8  13  1   
 14   9  12  ar  
 15  10  14  1   
 16  10  30  1   
 17  10  31  1   
 18  11  15  1   
 19  11  32  1   
 20  11  33  1   
 21  12  16  1   
 22  13  17  2   
 23  13  18  1   
 24  14  19  1   
 25  14  34  1   
 26  14  35  1   
 27  15  20  1   
 28  15  36  1   
 29  15  37  1   
 30  16  17  1   
 31  16  21  1   
 32  18  38  1   
 33  18  39  1   
 34  18  40  1   
 35  19  20  1   
 36  19  22  1   
 37  20  41  1   
 38  20  42  1   
 39  21  43  1   
 40  21  44  1   
 41  21  45  1   
 42  22  23  ar  
 43  22  24  ar  
 44  23  25  ar  
 45  23  26  1   
 46  24  27  ar  
 47  24  46  1   
 48  25  28  ar  
 49  25  47  1   
 50  26  48  1   
 51  26  49  1   
 52  26  50  1   
 53  27  28  ar  
 54  27  51  1   
 55  28  52  1   
@<TRIPOS>SUBSTRUCTURE
  1 ****   7 GROUP 4 **** **** 0

# MOE 2024.06 (io_trps.svl 2023.06)
