@<TRIPOS>MOLECULE
NONAME
35 37 1 0 0 
SMALL
USER_CHARGES


@<TRIPOS>ATOM
  1 O       -2.8370     0.7610    -1.8600 O.2   1 <1>  -0.5700 
  2 C       -2.5500     0.7490    -0.6770 C.2   1 <1>   0.7160 
  3 N       -2.2980    -0.4660    -0.1020 N.am  1 <1>  -0.7300 
  4 C       -2.4860     1.9540     0.1310 C.2   1 <1>   0.1410 
  5 C       -2.3170    -1.7740    -0.7980 C.3   1 <1>   0.2200 
  6 N       -2.9160     3.1660    -0.2880 N.2   1 <1>  -0.2270 
  7 C       -2.0210     2.1090     1.3970 C.2   1 <1>  -0.3020 
  8 C       -3.6070    -2.5330    -0.5140 C.3   1 <1>  -0.0800 
  9 C       -1.3060    -2.6910    -0.1260 C.3   1 <1>   0.1200 
 10 N       -2.7340     4.0250     0.6500 N.2   1 <1>  -0.4180 
 11 N       -2.1850     3.3950     1.6860 N.pl3 1 <1>   0.3000 
 12 C       -3.3160    -3.2220     0.8250 C.3   1 <1>   0.1200 
 13 C       -4.9030    -1.7000    -0.5320 C.3   1 <1>  -0.0160 
 14 O       -1.9380    -3.1170     1.0410 O.3   1 <1>  -0.5600 
 15 C       -6.1200    -2.5860    -0.3200 C.ar  1 <1>  -0.1440 
 16 C       -6.6680    -3.3220    -1.3500 C.ar  1 <1>  -0.1500 
 17 C       -6.7390    -2.7020     0.9090 C.ar  1 <1>  -0.1500 
 18 C       -7.7730    -4.1210    -1.1090 C.ar  1 <1>   0.1600 
 19 C       -7.8410    -3.5310     1.0440 C.ar  1 <1>   0.1600 
 20 N       -8.3710    -4.2460     0.0650 N.ar  1 <1>  -0.6200 
 21 H       -2.1300    -0.5330     0.9020 H     1 <1>   0.3700 
 22 H       -2.1260    -1.6520    -1.8520 H     1 <1>   0.0800 
 23 H       -1.5950     1.3950     2.0760 H     1 <1>   0.1500 
 24 H       -3.7000    -3.3060    -1.2560 H     1 <1>   0.0800 
 25 H       -0.3830    -2.1940     0.1170 H     1 <1>   0.0800 
 26 H       -1.1090    -3.5580    -0.7330 H     1 <1>   0.0800 
 27 H       -1.9440     3.8830     2.5560 H     1 <1>   0.2700 
 28 H       -3.5890    -4.2640     0.8040 H     1 <1>   0.0800 
 29 H       -3.8130    -2.7340     1.6450 H     1 <1>   0.0800 
 30 H       -4.9900    -1.1950    -1.4790 H     1 <1>   0.0800 
 31 H       -4.8780    -0.9440     0.2330 H     1 <1>   0.0800 
 32 H       -6.2470    -3.2800    -2.3380 H     1 <1>   0.1500 
 33 H       -6.3790    -2.1570     1.7610 H     1 <1>   0.1500 
 34 H       -8.1870    -4.6890    -1.9250 H     1 <1>   0.1500 
 35 H       -8.3110    -3.6100     2.0090 H     1 <1>   0.1500 
@<TRIPOS>BOND
  1   1   2  2   
  2   2   3  am  
  3   2   4  1   
  4   3   5  1   
  5   3  21  1   
  6   4   6  1   
  7   4   7  2   
  8   5   8  1   
  9   5   9  1   
 10   5  22  1   
 11   6  10  2   
 12   7  11  1   
 13   7  23  1   
 14   8  12  1   
 15   8  13  1   
 16   8  24  1   
 17   9  14  1   
 18   9  25  1   
 19   9  26  1   
 20  10  11  1   
 21  11  27  1   
 22  12  14  1   
 23  12  28  1   
 24  12  29  1   
 25  13  15  1   
 26  13  30  1   
 27  13  31  1   
 28  15  16  ar  
 29  15  17  ar  
 30  16  18  ar  
 31  16  32  1   
 32  17  19  ar  
 33  17  33  1   
 34  18  20  ar  
 35  18  34  1   
 36  19  20  ar  
 37  19  35  1   
@<TRIPOS>SUBSTRUCTURE
  1 ****  13 GROUP 4 **** **** 0

# MOE 2024.06 (io_trps.svl 2023.06)
