@<TRIPOS>MOLECULE
NONAME
46 48 1 0 0 
SMALL
USER_CHARGES


@<TRIPOS>ATOM
  1 S       -0.3900    -0.0350    -1.4000 S.3   1 <1>  -0.0800 
  2 C        0.2060    -1.4460    -0.5640 C.2   1 <1>  -0.1400 
  3 C        0.6450     0.9610    -0.4050 C.2   1 <1>   0.2280 
  4 C        1.1060    -1.0520     0.3530 C.2   1 <1>   0.0460 
  5 C       -0.3290    -2.8000    -0.9680 C.3   1 <1>   0.5230 
  6 N        1.3370     0.3070     0.4390 N.2   1 <1>  -0.5650 
  7 C        1.9060    -1.9110     1.3110 C.3   1 <1>  -0.0590 
  8 N       -1.6900    -2.9530    -0.3850 N.4   1 <1>  -0.9590 
  9 C       -1.9730    -4.3790     0.0030 C.3   1 <1>   0.3430 
 10 C       -2.7350    -2.4190    -1.3100 C.3   1 <1>   0.3430 
 11 C       -3.1970    -4.5630     0.9330 C.3   1 <1>   0.1400 
 12 C       -3.7930    -1.6320    -0.5370 C.3   1 <1>  -0.1600 
 13 N       -4.4090    -3.8290     0.4490 N.am  1 <1>  -0.6600 
 14 C       -4.3770    -2.3570     0.6780 C.3   1 <1>   0.1400 
 15 C       -5.5120    -4.3970    -0.1390 C.2   1 <1>   0.5690 
 16 O       -6.3090    -3.7190    -0.7370 O.2   1 <1>  -0.5700 
 17 C       -5.7540    -5.8960    -0.0750 C.3   1 <1>  -0.0990 
 18 C       -7.1890    -6.2700    -0.4820 C.3   1 <1>   0.0960 
 19 N       -7.3850    -7.7270    -0.3740 N.pl3 1 <1>   0.0480 
 20 C       -7.6930    -8.4480     0.7050 C.2   1 <1>   0.0360 
 21 C       -7.2680    -8.6580    -1.3220 C.2   1 <1>   0.0360 
 22 N       -7.7500    -9.7060     0.4400 N.2   1 <1>  -0.3380 
 23 N       -7.4770    -9.8410    -0.8590 N.2   1 <1>  -0.3380 
 24 H        0.6230     2.0250    -0.5710 H     1 <1>   0.1500 
 25 H        0.3280    -3.5570    -0.5730 H     1 <1>   0.0800 
 26 H       -0.3520    -2.8930    -2.0420 H     1 <1>   0.0800 
 27 H        1.6800    -2.9530     1.1920 H     1 <1>   0.0800 
 28 H        1.6920    -1.6180     2.3230 H     1 <1>   0.0800 
 29 H        2.9560    -1.7610     1.1320 H     1 <1>   0.0800 
 30 H       -1.6960    -2.3580     0.4540 H     1 <1>   0.4500 
 31 H       -1.1130    -4.7910     0.5060 H     1 <1>   0.0800 
 32 H       -2.1320    -4.9640    -0.8880 H     1 <1>   0.0800 
 33 H       -3.2130    -3.2330    -1.8310 H     1 <1>   0.0800 
 34 H       -2.2940    -1.7690    -2.0480 H     1 <1>   0.0800 
 35 H       -2.9470    -4.2180     1.9210 H     1 <1>   0.0800 
 36 H       -3.4020    -5.6150     1.0180 H     1 <1>   0.0800 
 37 H       -4.6010    -1.4200    -1.2160 H     1 <1>   0.0800 
 38 H       -3.3950    -0.6810    -0.2300 H     1 <1>   0.0800 
 39 H       -5.3760    -1.9940     0.8650 H     1 <1>   0.0800 
 40 H       -3.7930    -2.1400     1.5560 H     1 <1>   0.0800 
 41 H       -5.5870    -6.2280     0.9330 H     1 <1>   0.0800 
 42 H       -5.0590    -6.3840    -0.7320 H     1 <1>   0.0800 
 43 H       -7.3810    -5.9670    -1.4970 H     1 <1>   0.0800 
 44 H       -7.8990    -5.7740     0.1570 H     1 <1>   0.0800 
 45 H       -7.8690    -8.0180     1.6750 H     1 <1>   0.1500 
 46 H       -7.0260    -8.4360    -2.3450 H     1 <1>   0.1500 
@<TRIPOS>BOND
  1   1   2  1   
  2   1   3  1   
  3   2   4  2   
  4   2   5  1   
  5   3   6  2   
  6   3  24  1   
  7   4   6  1   
  8   4   7  1   
  9   5   8  1   
 10   5  25  1   
 11   5  26  1   
 12   7  27  1   
 13   7  28  1   
 14   7  29  1   
 15   8   9  1   
 16   8  10  1   
 17   8  30  1   
 18   9  11  1   
 19   9  31  1   
 20   9  32  1   
 21  10  12  1   
 22  10  33  1   
 23  10  34  1   
 24  11  13  1   
 25  11  35  1   
 26  11  36  1   
 27  12  14  1   
 28  12  37  1   
 29  12  38  1   
 30  13  14  1   
 31  13  15  am  
 32  14  39  1   
 33  14  40  1   
 34  15  16  2   
 35  15  17  1   
 36  17  18  1   
 37  17  41  1   
 38  17  42  1   
 39  18  19  1   
 40  18  43  1   
 41  18  44  1   
 42  19  20  1   
 43  19  21  1   
 44  20  22  2   
 45  20  45  1   
 46  21  23  2   
 47  21  46  1   
 48  22  23  1   
@<TRIPOS>SUBSTRUCTURE
  1 ****  13 GROUP 4 **** **** 0

# MOE 2024.06 (io_trps.svl 2023.06)
