@<TRIPOS>MOLECULE
NONAME
48 50 1 0 0 
SMALL
USER_CHARGES


@<TRIPOS>ATOM
  1 O        2.8230    -2.3290    -2.6610 O.2   1 <1>  -0.5700 
  2 C        3.0900    -2.5200    -1.5000 C.2   1 <1>   0.5690 
  3 N        3.6620    -1.5450    -0.7320 N.am  1 <1>  -0.6600 
  4 C        2.7710    -3.8840    -0.9110 C.3   1 <1>  -0.0990 
  5 C        3.9750    -0.1890    -1.2610 C.3   1 <1>   0.1400 
  6 C        4.0180    -1.6140     0.7060 C.3   1 <1>   0.1400 
  7 C        1.4240    -3.8920    -0.1700 C.3   1 <1>  -0.1600 
  8 C        4.0550     0.7110    -0.0220 C.3   1 <1>   0.4240 
  9 C        4.6100    -0.2410     1.0350 C.3   1 <1>  -0.1600 
 10 C        1.0970    -5.2800     0.4090 C.3   1 <1>  -0.0990 
 11 O        2.7580     1.0130     0.3550 O.3   1 <1>  -0.6800 
 12 C        4.8480     2.0200    -0.1470 C.ar  1 <1>  -0.1440 
 13 C       -0.1860    -5.2750     1.2360 C.2   1 <1>   0.4230 
 14 C        5.0100     2.8210     0.9770 C.ar  1 <1>  -0.1500 
 15 C        5.4150     2.4450    -1.3460 C.ar  1 <1>  -0.1500 
 16 O       -0.2910    -4.4180     2.0760 O.2   1 <1>  -0.5700 
 17 C       -1.2200    -6.2640     1.0010 C.ar  1 <1>   0.0860 
 18 C        5.7300     4.0010     0.9170 C.ar  1 <1>  -0.1500 
 19 C        6.1360     3.6250    -1.4090 C.ar  1 <1>  -0.1500 
 20 C       -2.5550    -5.9500     1.2630 C.ar  1 <1>  -0.1500 
 21 C       -0.9540    -7.5520     0.5240 C.ar  1 <1>  -0.1500 
 22 C        6.2980     4.4030    -0.2770 C.ar  1 <1>  -0.1500 
 23 C       -3.5740    -6.8590     1.0460 C.ar  1 <1>  -0.1500 
 24 C       -1.9680    -8.4660     0.3030 C.ar  1 <1>  -0.1500 
 25 C       -3.2820    -8.1200     0.5610 C.ar  1 <1>  -0.1500 
 26 H        3.5640    -4.1820    -0.2500 H     1 <1>   0.0800 
 27 H        2.7380    -4.5950    -1.7170 H     1 <1>   0.0800 
 28 H        3.2320     0.1540    -1.9590 H     1 <1>   0.0800 
 29 H        4.9320    -0.2380    -1.7490 H     1 <1>   0.0800 
 30 H        4.7310    -2.4000     0.8900 H     1 <1>   0.0800 
 31 H        3.1300    -1.7830     1.2910 H     1 <1>   0.0800 
 32 H        0.6420    -3.5960    -0.8500 H     1 <1>   0.0800 
 33 H        1.4500    -3.1700     0.6280 H     1 <1>   0.0800 
 34 H        5.6790    -0.2930     0.9330 H     1 <1>   0.0800 
 35 H        4.3780     0.0740     2.0360 H     1 <1>   0.0800 
 36 H        1.8990    -5.6030     1.0470 H     1 <1>   0.0800 
 37 H        1.0140    -5.9730    -0.4080 H     1 <1>   0.0800 
 38 H        2.2130     0.2160     0.2090 H     1 <1>   0.4000 
 39 H        4.5630     2.5270     1.9110 H     1 <1>   0.1500 
 40 H        5.3050     1.8760    -2.2500 H     1 <1>   0.1500 
 41 H        5.8450     4.6060     1.7990 H     1 <1>   0.1500 
 42 H        6.5710     3.9400    -2.3410 H     1 <1>   0.1500 
 43 H       -2.7920    -4.9710     1.6460 H     1 <1>   0.1500 
 44 H        0.0580    -7.8570     0.3300 H     1 <1>   0.1500 
 45 H        6.8580     5.3200    -0.3270 H     1 <1>   0.1500 
 46 H       -4.5940    -6.5850     1.2550 H     1 <1>   0.1500 
 47 H       -1.7390    -9.4500    -0.0670 H     1 <1>   0.1500 
 48 H       -4.0730    -8.8300     0.3900 H     1 <1>   0.1500 
@<TRIPOS>BOND
  1   1   2  2   
  2   2   3  am  
  3   2   4  1   
  4   3   5  1   
  5   3   6  1   
  6   4   7  1   
  7   4  26  1   
  8   4  27  1   
  9   5   8  1   
 10   5  28  1   
 11   5  29  1   
 12   6   9  1   
 13   6  30  1   
 14   6  31  1   
 15   7  10  1   
 16   7  32  1   
 17   7  33  1   
 18   8   9  1   
 19   8  11  1   
 20   8  12  1   
 21   9  34  1   
 22   9  35  1   
 23  10  13  1   
 24  10  36  1   
 25  10  37  1   
 26  11  38  1   
 27  12  14  ar  
 28  12  15  ar  
 29  13  16  2   
 30  13  17  1   
 31  14  18  ar  
 32  14  39  1   
 33  15  19  ar  
 34  15  40  1   
 35  17  20  ar  
 36  17  21  ar  
 37  18  22  ar  
 38  18  41  1   
 39  19  22  ar  
 40  19  42  1   
 41  20  23  ar  
 42  20  43  1   
 43  21  24  ar  
 44  21  44  1   
 45  22  45  1   
 46  23  25  ar  
 47  23  46  1   
 48  24  25  ar  
 49  24  47  1   
 50  25  48  1   
@<TRIPOS>SUBSTRUCTURE
  1 ****   3 GROUP 4 **** **** 0

# MOE 2024.06 (io_trps.svl 2023.06)
