@<TRIPOS>MOLECULE
NONAME
50 54 1 0 0 
SMALL
USER_CHARGES


@<TRIPOS>ATOM
  1 S        0.4220     0.7220     0.0150 S.3   1 <1>  -0.0800 
  2 C       -0.8340     0.6510    -1.1970 C.2   1 <1>   0.2280 
  3 C        0.0400    -0.9140     0.4630 C.2   1 <1>  -0.1100 
  4 N       -1.4750    -0.4530    -1.2290 N.2   1 <1>  -0.5650 
  5 C       -0.9700    -1.3560    -0.3030 C.2   1 <1>   0.0460 
  6 C       -1.5630    -2.7600    -0.2450 C.3   1 <1>   0.0210 
  7 C       -3.0670    -2.8960     0.1250 C.3   1 <1>   0.0610 
  8 C       -3.2570    -4.3430     0.5860 C.2   1 <1>   0.5690 
  9 C       -3.4980    -1.9120     1.2420 C.3   1 <1>   0.4230 
 10 C       -4.0170    -2.4430    -1.0260 C.3   1 <1>  -0.1600 
 11 O       -3.0150    -4.6090     1.7380 O.2   1 <1>  -0.5700 
 12 N       -3.6730    -5.2930    -0.2860 N.am  1 <1>  -0.7300 
 13 N       -3.7860    -0.6970     0.4700 N.4   1 <1>  -0.9060 
 14 C       -4.9160    -2.1880     1.7770 C.3   1 <1>  -0.1600 
 15 C       -4.7880    -1.2630    -0.4220 C.3   1 <1>   0.4230 
 16 C       -4.4160    -6.5160     0.1400 C.3   1 <1>   0.2010 
 17 C       -5.8070    -1.7690     0.5980 C.3   1 <1>  -0.1600 
 18 C       -5.9320    -6.3410    -0.0500 C.2   1 <1>   0.4390 
 19 N       -6.7470    -7.3670     0.3310 N.pl3 1 <1>  -0.5500 
 20 N       -6.3800    -5.2490    -0.5560 N.2   1 <1>  -0.6610 
 21 C       -8.1220    -7.3060     0.1860 C.ar  1 <1>   0.1000 
 22 C       -7.7320    -5.0930    -0.7150 C.2   1 <1>   0.6950 
 23 C       -8.6580    -6.1370    -0.3570 C.ar  1 <1>   0.0860 
 24 C       -8.9560    -8.3560     0.5610 C.ar  1 <1>  -0.1500 
 25 O       -8.1060    -4.0220    -1.1580 O.2   1 <1>  -0.5700 
 26 C      -10.0450    -6.0510    -0.5160 C.ar  1 <1>  -0.1500 
 27 C      -10.3210    -8.2510     0.3960 C.ar  1 <1>  -0.1500 
 28 C      -10.8670    -7.0940    -0.1450 C.ar  1 <1>  -0.1500 
 29 H       -0.9720     1.5290    -1.8080 H     1 <1>   0.1500 
 30 H        0.6280    -1.3680     1.2420 H     1 <1>   0.1500 
 31 H       -1.3900    -3.2380    -1.1940 H     1 <1>   0.0800 
 32 H       -0.9830    -3.3100     0.4780 H     1 <1>   0.0800 
 33 H       -2.7580    -1.7850     2.0170 H     1 <1>   0.0800 
 34 H       -4.7130    -3.1970    -1.3480 H     1 <1>   0.0800 
 35 H       -3.4700    -2.1150    -1.8930 H     1 <1>   0.0800 
 36 H       -3.9250    -5.0100    -1.2370 H     1 <1>   0.3700 
 37 H       -4.1570     0.0620     1.0460 H     1 <1>   0.4500 
 38 H       -2.9560    -0.3980    -0.0720 H     1 <1>   0.4500 
 39 H       -5.0860    -3.2100     2.0650 H     1 <1>   0.0800 
 40 H       -5.1080    -1.5690     2.6370 H     1 <1>   0.0800 
 41 H       -5.1890    -0.5730    -1.1490 H     1 <1>   0.0800 
 42 H       -4.0780    -7.3520    -0.4470 H     1 <1>   0.0800 
 43 H       -4.2110    -6.7250     1.1760 H     1 <1>   0.0800 
 44 H       -6.4850    -0.9830     0.8800 H     1 <1>   0.0800 
 45 H       -6.3820    -2.5900     0.2090 H     1 <1>   0.0800 
 46 H       -6.3430    -8.2130     0.7410 H     1 <1>   0.4000 
 47 H       -8.5370    -9.2540     0.9790 H     1 <1>   0.1500 
 48 H      -10.4680    -5.1540    -0.9360 H     1 <1>   0.1500 
 49 H      -10.9690    -9.0620     0.6840 H     1 <1>   0.1500 
 50 H      -11.9340    -7.0170    -0.2720 H     1 <1>   0.1500 
@<TRIPOS>BOND
  1   1   2  1   
  2   1   3  1   
  3   2   4  2   
  4   2  29  1   
  5   3   5  2   
  6   3  30  1   
  7   4   5  1   
  8   5   6  1   
  9   6   7  1   
 10   6  31  1   
 11   6  32  1   
 12   7   8  1   
 13   7   9  1   
 14   7  10  1   
 15   8  11  2   
 16   8  12  am  
 17   9  13  1   
 18   9  14  1   
 19   9  33  1   
 20  10  15  1   
 21  10  34  1   
 22  10  35  1   
 23  12  16  1   
 24  12  36  1   
 25  13  15  1   
 26  13  37  1   
 27  13  38  1   
 28  14  17  1   
 29  14  39  1   
 30  14  40  1   
 31  15  17  1   
 32  15  41  1   
 33  16  18  1   
 34  16  42  1   
 35  16  43  1   
 36  17  44  1   
 37  17  45  1   
 38  18  19  1   
 39  18  20  2   
 40  19  21  1   
 41  19  46  1   
 42  20  22  1   
 43  21  23  ar  
 44  21  24  ar  
 45  22  23  1   
 46  22  25  2   
 47  23  26  ar  
 48  24  27  ar  
 49  24  47  1   
 50  26  28  ar  
 51  26  48  1   
 52  27  28  ar  
 53  27  49  1   
 54  28  50  1   
@<TRIPOS>SUBSTRUCTURE
  1 ****   8 GROUP 4 **** **** 0

# MOE 2024.06 (io_trps.svl 2023.06)
