@<TRIPOS>MOLECULE
NONAME
52 53 1 0 0 
SMALL
USER_CHARGES


@<TRIPOS>ATOM
  1 O        0.6520     2.3740    -2.2670 O.2   1 <1>  -0.5700 
  2 C        0.0730     1.9820    -1.2740 C.2   1 <1>   0.5440 
  3 N        0.4780     0.7950    -0.7650 N.am  1 <1>  -0.8000 
  4 C       -1.0150     2.7170    -0.6880 C.ar  1 <1>   0.0860 
  5 C       -0.7980     3.8100     0.1690 C.ar  1 <1>   0.4100 
  6 C       -2.3250     2.3560    -0.9550 C.ar  1 <1>  -0.1500 
  7 N       -1.7800     4.5200     0.7230 N.ar  1 <1>  -0.6200 
  8 N        0.4760     4.2440     0.4880 N.pl3 1 <1>  -0.8380 
  9 C       -3.3460     3.0760    -0.3730 C.ar  1 <1>  -0.1430 
 10 C       -3.0160     4.1420     0.4600 C.ar  1 <1>   0.1670 
 11 C        1.3190     4.8510    -0.5840 C.3   1 <1>   0.2090 
 12 C        0.8360     4.5430     1.9060 C.3   1 <1>   0.2090 
 13 C       -4.7880     2.6800    -0.6640 C.3   1 <1>  -0.0970 
 14 C       -4.1010     4.9600     1.1370 C.3   1 <1>  -0.0970 
 15 C        1.5220     6.3500    -0.2970 C.3   1 <1>   0.0000 
 16 C        2.1770     5.2820     1.9850 C.3   1 <1>  -0.1600 
 17 C        2.2400     6.5290     1.0770 C.3   1 <1>  -0.1600 
 18 C        2.3880     6.9520    -1.4240 C.3   1 <1>   0.1200 
 19 C        0.0980     6.9600    -0.2760 C.3   1 <1>   0.3430 
 20 O        1.6920     6.9550    -2.6260 O.3   1 <1>  -0.6800 
 21 N        0.0310     8.4420    -0.0370 N.4   1 <1>  -0.9590 
 22 C       -1.1840     8.7460     0.7740 C.3   1 <1>   0.2630 
 23 C       -0.0060     9.1930    -1.3320 C.3   1 <1>   0.2630 
 24 H        1.2630     0.3110    -1.2000 H     1 <1>   0.3700 
 25 H        0.1190     0.4050     0.1060 H     1 <1>   0.3700 
 26 H       -2.5240     1.5260    -1.6100 H     1 <1>   0.1500 
 27 H        0.8320     4.7300    -1.5370 H     1 <1>   0.0800 
 28 H        2.2620     4.3340    -0.6290 H     1 <1>   0.0800 
 29 H        0.8960     3.6180     2.4550 H     1 <1>   0.0800 
 30 H        0.0680     5.1470     2.3580 H     1 <1>   0.0800 
 31 H       -4.8340     1.9210    -1.4250 H     1 <1>   0.0800 
 32 H       -5.3470     3.5310    -1.0100 H     1 <1>   0.0800 
 33 H       -5.2520     2.2940     0.2260 H     1 <1>   0.0800 
 34 H       -3.6780     5.5860     1.9020 H     1 <1>   0.0800 
 35 H       -4.8230     4.3140     1.6000 H     1 <1>   0.0800 
 36 H       -4.5930     5.5830     0.4140 H     1 <1>   0.0800 
 37 H        2.9520     4.5910     1.7000 H     1 <1>   0.0800 
 38 H        2.3690     5.5630     3.0050 H     1 <1>   0.0800 
 39 H        1.8180     7.3590     1.6150 H     1 <1>   0.0800 
 40 H        3.2820     6.7580     0.9240 H     1 <1>   0.0800 
 41 H        3.3000     6.3940    -1.5590 H     1 <1>   0.0800 
 42 H        2.6460     7.9720    -1.1960 H     1 <1>   0.0800 
 43 H       -0.4480     6.4640     0.5080 H     1 <1>   0.0800 
 44 H       -0.4000     6.7200    -1.2020 H     1 <1>   0.0800 
 45 H        1.8550     6.1300    -3.1350 H     1 <1>   0.4000 
 46 H        0.8670     8.7180     0.4940 H     1 <1>   0.4500 
 47 H       -2.0720     8.4480     0.2400 H     1 <1>   0.0800 
 48 H       -1.2420     9.8010     0.9840 H     1 <1>   0.0800 
 49 H       -1.1510     8.2080     1.7080 H     1 <1>   0.0800 
 50 H       -0.8390     8.8620    -1.9300 H     1 <1>   0.0800 
 51 H        0.8980     9.0290    -1.8930 H     1 <1>   0.0800 
 52 H       -0.1060    10.2500    -1.1510 H     1 <1>   0.0800 
@<TRIPOS>BOND
  1   1   2  2   
  2   2   3  am  
  3   2   4  1   
  4   3  24  1   
  5   3  25  1   
  6   4   5  ar  
  7   4   6  ar  
  8   5   7  ar  
  9   5   8  1   
 10   6   9  ar  
 11   6  26  1   
 12   7  10  ar  
 13   8  11  1   
 14   8  12  1   
 15   9  10  ar  
 16   9  13  1   
 17  10  14  1   
 18  11  15  1   
 19  11  27  1   
 20  11  28  1   
 21  12  16  1   
 22  12  29  1   
 23  12  30  1   
 24  13  31  1   
 25  13  32  1   
 26  13  33  1   
 27  14  34  1   
 28  14  35  1   
 29  14  36  1   
 30  15  17  1   
 31  15  18  1   
 32  15  19  1   
 33  16  17  1   
 34  16  37  1   
 35  16  38  1   
 36  17  39  1   
 37  17  40  1   
 38  18  20  1   
 39  18  41  1   
 40  18  42  1   
 41  19  21  1   
 42  19  43  1   
 43  19  44  1   
 44  20  45  1   
 45  21  22  1   
 46  21  23  1   
 47  21  46  1   
 48  22  47  1   
 49  22  48  1   
 50  22  49  1   
 51  23  50  1   
 52  23  51  1   
 53  23  52  1   
@<TRIPOS>SUBSTRUCTURE
  1 ****   5 GROUP 4 **** **** 0

# MOE 2024.06 (io_trps.svl 2023.06)
