@<TRIPOS>MOLECULE
NONAME
52 56 1 0 0 
SMALL
USER_CHARGES


@<TRIPOS>ATOM
  1 O       -1.4470     1.6500    -2.1880 O.2   1 <1>  -0.5700 
  2 C       -2.3180     1.7360    -1.3530 C.2   1 <1>   0.6300 
  3 N       -3.4430     0.9500    -1.3900 N.am  1 <1>  -0.6600 
  4 C       -2.1340     2.7610    -0.2390 C.3   1 <1>  -0.1000 
  5 C       -4.6040     1.0700    -0.4680 C.3   1 <1>   0.1400 
  6 C       -3.5700    -0.1810    -2.3480 C.3   1 <1>   0.1400 
  7 C       -0.8160     2.9130     0.4520 C.3   1 <1>  -0.1520 
  8 C       -1.9650     2.3280     1.2030 C.3   1 <1>  -0.2000 
  9 C       -4.7150    -0.2110     0.3620 C.3   1 <1>  -0.1600 
 10 C       -3.6670    -1.4900    -1.5600 C.3   1 <1>  -0.1600 
 11 C        0.5260     2.1490     0.3510 C.3   1 <1>   0.0760 
 12 C       -0.0430     4.1230     1.0240 C.3   1 <1>   0.0760 
 13 C       -4.8110    -1.4680    -0.5290 C.3   1 <1>   0.4240 
 14 C        1.0420     3.1010     1.4660 C.3   1 <1>   0.0000 
 15 O       -5.9700    -1.3130    -1.3200 O.3   1 <1>  -0.5600 
 16 C       -4.8520    -2.7840     0.3020 C.ar  1 <1>  -0.1430 
 17 C       -7.1880    -1.7040    -0.7770 C.3   1 <1>   0.1200 
 18 C       -3.7890    -3.1810     1.1250 C.ar  1 <1>   0.0820 
 19 C       -5.9760    -3.6080     0.2410 C.ar  1 <1>  -0.1430 
 20 C       -7.1660    -3.2150    -0.6100 C.3   1 <1>  -0.0170 
 21 O       -2.6930    -2.3820     1.2170 O.3   1 <1>  -0.3630 
 22 C       -3.8620    -4.3750     1.8400 C.ar  1 <1>  -0.1500 
 23 C       -6.0350    -4.7940     0.9530 C.ar  1 <1>  -0.1500 
 24 C       -1.5050    -2.7820     1.8640 C.3   1 <1>   0.0400 
 25 C       -4.9790    -5.1790     1.7520 C.ar  1 <1>  -0.1500 
 26 H       -2.6710     3.6680    -0.4450 H     1 <1>   0.1000 
 27 H       -5.4990     1.2060    -1.0520 H     1 <1>   0.0800 
 28 H       -4.5030     1.9190     0.1810 H     1 <1>   0.0800 
 29 H       -2.7220    -0.2190    -3.0090 H     1 <1>   0.0800 
 30 H       -4.4540    -0.0410    -2.9470 H     1 <1>   0.0800 
 31 H       -1.9540     1.2750     1.4250 H     1 <1>   0.1000 
 32 H       -2.4480     2.9090     1.9690 H     1 <1>   0.1000 
 33 H       -5.5650    -0.1570     1.0130 H     1 <1>   0.0800 
 34 H       -3.8490    -0.2660     0.9890 H     1 <1>   0.0800 
 35 H       -2.7210    -1.6460    -1.0820 H     1 <1>   0.0800 
 36 H       -3.8200    -2.3110    -2.2350 H     1 <1>   0.0800 
 37 H        1.0200     2.3110    -0.5920 H     1 <1>   0.0000 
 38 H        0.4710     1.1140     0.6390 H     1 <1>   0.0000 
 39 H       -0.5390     4.6240     1.8360 H     1 <1>   0.0000 
 40 H        0.3050     4.7880     0.2520 H     1 <1>   0.0000 
 41 H        2.0500     3.4440     1.3120 H     1 <1>   0.0000 
 42 H        0.8660     2.7130     2.4550 H     1 <1>   0.0000 
 43 H       -7.9650    -1.4110    -1.4610 H     1 <1>   0.0800 
 44 H       -7.3370    -1.2090     0.1660 H     1 <1>   0.0800 
 45 H       -7.0950    -3.6840    -1.5750 H     1 <1>   0.0800 
 46 H       -8.0810    -3.5320    -0.1430 H     1 <1>   0.0800 
 47 H       -3.0600    -4.6970     2.4750 H     1 <1>   0.1500 
 48 H       -6.9060    -5.4240     0.8900 H     1 <1>   0.1500 
 49 H       -0.7710    -2.0110     1.7190 H     1 <1>   0.0800 
 50 H       -1.1610    -3.7020     1.4240 H     1 <1>   0.0800 
 51 H       -1.7040    -2.9050     2.9140 H     1 <1>   0.0800 
 52 H       -5.0280    -6.1010     2.3050 H     1 <1>   0.1500 
@<TRIPOS>BOND
  1   1   2  2   
  2   2   3  am  
  3   2   4  1   
  4   3   5  1   
  5   3   6  1   
  6   4   7  1   
  7   4   8  1   
  8   4  26  1   
  9   5   9  1   
 10   5  27  1   
 11   5  28  1   
 12   6  10  1   
 13   6  29  1   
 14   6  30  1   
 15   7   8  1   
 16   7  11  1   
 17   7  12  1   
 18   8  31  1   
 19   8  32  1   
 20   9  13  1   
 21   9  33  1   
 22   9  34  1   
 23  10  13  1   
 24  10  35  1   
 25  10  36  1   
 26  11  14  1   
 27  11  37  1   
 28  11  38  1   
 29  12  14  1   
 30  12  39  1   
 31  12  40  1   
 32  13  15  1   
 33  13  16  1   
 34  14  41  1   
 35  14  42  1   
 36  15  17  1   
 37  16  18  ar  
 38  16  19  ar  
 39  17  20  1   
 40  17  43  1   
 41  17  44  1   
 42  18  21  1   
 43  18  22  ar  
 44  19  20  1   
 45  19  23  ar  
 46  20  45  1   
 47  20  46  1   
 48  21  24  1   
 49  22  25  ar  
 50  22  47  1   
 51  23  25  ar  
 52  23  48  1   
 53  24  49  1   
 54  24  50  1   
 55  24  51  1   
 56  25  52  1   
@<TRIPOS>SUBSTRUCTURE
  1 ****   9 GROUP 4 **** **** 0

# MOE 2024.06 (io_trps.svl 2023.06)
