@<TRIPOS>MOLECULE
NONAME
46 47 1 0 0 
SMALL
USER_CHARGES


@<TRIPOS>ATOM
  1 S        0.7500     1.2300    -1.6780 S.o2  1 <1>   1.3330 
  2 O        0.5860    -0.1590    -2.0440 O.2   1 <1>  -0.6500 
  3 O        0.2960     2.2650    -2.5780 O.2   1 <1>  -0.6500 
  4 N       -0.0480     1.4720    -0.1970 N.am  1 <1>  -0.8490 
  5 C        2.4780     1.4960    -1.2730 C.3   1 <1>  -0.0550 
  6 C       -0.2690     2.8890     0.1160 C.3   1 <1>   0.1160 
  7 C       -1.3210     0.7490    -0.1340 C.3   1 <1>   0.1160 
  8 C        3.1120     0.3630    -0.4350 C.3   1 <1>  -0.0800 
  9 C        4.6050     0.5030    -0.1710 C.3   1 <1>   0.2200 
 10 C        2.5370     0.1850     0.9760 C.3   1 <1>   0.1200 
 11 N        4.9410     1.8860     0.2380 N.am  1 <1>  -0.7300 
 12 C        4.7500    -0.4050     1.0420 C.3   1 <1>   0.1200 
 13 O        3.6110    -0.1560     1.8070 O.3   1 <1>  -0.5600 
 14 C        5.3870     2.8760    -0.5910 C.2   1 <1>   0.7160 
 15 O        5.5500     2.6010    -1.7640 O.2   1 <1>  -0.5700 
 16 C        5.6230     4.2090    -0.0520 C.2   1 <1>   0.1410 
 17 N        5.2320     5.3560    -0.7600 N.2   1 <1>  -0.5650 
 18 C        6.1950     4.4720     1.1450 C.2   1 <1>  -0.1100 
 19 C        5.5010     6.4300    -0.1370 C.2   1 <1>   0.1980 
 20 S        6.2680     6.1820     1.4140 S.3   1 <1>  -0.0800 
 21 C        5.2430     7.8580    -0.5780 C.3   1 <1>   0.0200 
 22 C        4.0780     8.4880     0.2000 C.3   1 <1>  -0.1600 
 23 C        3.8010     9.9230    -0.2640 C.3   1 <1>  -0.2400 
 24 H        3.0290     1.5750    -2.1910 H     1 <1>   0.0800 
 25 H        2.5790     2.4330    -0.7630 H     1 <1>   0.0800 
 26 H       -0.6940     2.9880     1.1000 H     1 <1>   0.0800 
 27 H       -0.9390     3.3340    -0.6020 H     1 <1>   0.0800 
 28 H        0.6640     3.4260     0.0950 H     1 <1>   0.0800 
 29 H       -1.7980     0.9130     0.8180 H     1 <1>   0.0800 
 30 H       -1.1520    -0.3090    -0.2460 H     1 <1>   0.0800 
 31 H       -1.9780     1.0790    -0.9220 H     1 <1>   0.0800 
 32 H        2.9610    -0.5640    -0.9610 H     1 <1>   0.0800 
 33 H        5.2130     0.1860    -1.0020 H     1 <1>   0.0800 
 34 H        1.8000    -0.5990     1.0120 H     1 <1>   0.0800 
 35 H        2.1130     1.0990     1.3550 H     1 <1>   0.0800 
 36 H        4.6730     2.1100     1.1980 H     1 <1>   0.3700 
 37 H        5.6320    -0.1960     1.6210 H     1 <1>   0.0800 
 38 H        4.7350    -1.4410     0.7510 H     1 <1>   0.0800 
 39 H        6.5920     3.8260     1.9060 H     1 <1>   0.1500 
 40 H        6.1390     8.4350    -0.4380 H     1 <1>   0.0800 
 41 H        5.0110     7.8510    -1.6280 H     1 <1>   0.0800 
 42 H        3.1940     7.8900     0.0560 H     1 <1>   0.0800 
 43 H        4.3070     8.4950     1.2520 H     1 <1>   0.0800 
 44 H        3.5440     9.9370    -1.3090 H     1 <1>   0.0800 
 45 H        4.6660    10.5440    -0.1100 H     1 <1>   0.0800 
 46 H        2.9800    10.3370     0.2940 H     1 <1>   0.0800 
@<TRIPOS>BOND
  1   1   2  2   
  2   1   3  2   
  3   1   4  am  
  4   1   5  1   
  5   4   6  1   
  6   4   7  1   
  7   5   8  1   
  8   5  24  1   
  9   5  25  1   
 10   6  26  1   
 11   6  27  1   
 12   6  28  1   
 13   7  29  1   
 14   7  30  1   
 15   7  31  1   
 16   8   9  1   
 17   8  10  1   
 18   8  32  1   
 19   9  11  1   
 20   9  12  1   
 21   9  33  1   
 22  10  13  1   
 23  10  34  1   
 24  10  35  1   
 25  11  14  am  
 26  11  36  1   
 27  12  13  1   
 28  12  37  1   
 29  12  38  1   
 30  14  15  2   
 31  14  16  1   
 32  16  17  1   
 33  16  18  2   
 34  17  19  2   
 35  18  20  1   
 36  18  39  1   
 37  19  20  1   
 38  19  21  1   
 39  21  22  1   
 40  21  40  1   
 41  21  41  1   
 42  22  23  1   
 43  22  42  1   
 44  22  43  1   
 45  23  44  1   
 46  23  45  1   
 47  23  46  1   
@<TRIPOS>SUBSTRUCTURE
  1 ****  11 GROUP 4 **** **** 0

# MOE 2024.06 (io_trps.svl 2023.06)
