@<TRIPOS>MOLECULE
NONAME
51 53 1 0 0 
SMALL
USER_CHARGES


@<TRIPOS>ATOM
  1 F       -0.0770    -0.7880    -1.1190 F     1 <1>  -0.1900 
  2 C       -0.6980    -1.9080    -0.8450 C.ar  1 <1>   0.1900 
  3 C       -0.1420    -3.1570    -1.1430 C.ar  1 <1>   0.0820 
  4 C       -1.9330    -1.7930    -0.2380 C.ar  1 <1>  -0.1500 
  5 O        1.0630    -3.4000    -1.7370 O.3   1 <1>  -0.3630 
  6 C       -0.8770    -4.2830    -0.8080 C.ar  1 <1>  -0.1500 
  7 C       -2.6380    -2.9370     0.0840 C.ar  1 <1>  -0.1500 
  8 C        1.9070    -2.3730    -2.2080 C.3   1 <1>   0.0400 
  9 C       -2.1310    -4.2090    -0.1950 C.ar  1 <1>   0.0530 
 10 C       -2.8610    -5.4100     0.1370 C.2   1 <1>   0.0870 
 11 O       -2.2200    -6.5340     0.3430 O.3   1 <1>  -0.0190 
 12 C       -4.1810    -5.6800     0.2990 C.2   1 <1>  -0.2330 
 13 N       -3.0170    -7.5270     0.6380 N.2   1 <1>  -0.4100 
 14 C       -4.2110    -7.0400     0.6290 C.2   1 <1>   0.3720 
 15 C       -5.2890    -4.8010     0.1320 C.2   1 <1>   1.0330 
 16 N       -5.3180    -7.8560     0.9270 N.pl3 1 <1>  -0.8210 
 17 O       -5.6950    -4.1120     1.0840 O.co2 1 <1>  -0.9000 
 18 O       -5.8710    -4.7110    -0.9610 O.co2 1 <1>  -0.9000 
 19 C       -6.6430    -7.2070     1.1730 C.3   1 <1>   0.2090 
 20 C       -5.4670    -9.0420     0.0380 C.3   1 <1>   0.2090 
 21 C       -7.6630    -8.2220     1.7200 C.3   1 <1>   0.1100 
 22 C       -6.5040   -10.0320     0.6020 C.3   1 <1>   0.1100 
 23 N       -7.8230    -9.3970     0.8320 N.3   1 <1>  -0.8100 
 24 C       -8.7990   -10.3670     1.3990 C.3   1 <1>   0.1710 
 25 C       -9.1180   -11.5920     0.5230 C.2   1 <1>   0.5690 
 26 O       -8.9190   -12.6830     1.0110 O.2   1 <1>  -0.5700 
 27 N       -9.6190   -11.4580    -0.7560 N.am  1 <1>  -0.6600 
 28 C       -9.8000   -10.1390    -1.4260 C.3   1 <1>   0.0600 
 29 C       -9.8930   -12.6370    -1.6210 C.3   1 <1>   0.0600 
 30 H       -2.3410    -0.8230    -0.0200 H     1 <1>   0.1500 
 31 H       -0.4640    -5.2490    -1.0340 H     1 <1>   0.1500 
 32 H       -3.5980    -2.8390     0.5620 H     1 <1>   0.1500 
 33 H        2.7670    -2.8300    -2.6630 H     1 <1>   0.0800 
 34 H        2.2150    -1.7640    -1.3770 H     1 <1>   0.0800 
 35 H        1.3740    -1.7890    -2.9380 H     1 <1>   0.0800 
 36 H       -7.0220    -6.7900     0.2550 H     1 <1>   0.0800 
 37 H       -6.5250    -6.4110     1.8870 H     1 <1>   0.0800 
 38 H       -4.5200    -9.5430    -0.0590 H     1 <1>   0.0800 
 39 H       -5.7770    -8.7160    -0.9400 H     1 <1>   0.0800 
 40 H       -8.6100    -7.7240     1.8290 H     1 <1>   0.0800 
 41 H       -7.3330    -8.5400     2.6940 H     1 <1>   0.0800 
 42 H       -6.1250   -10.4330     1.5260 H     1 <1>   0.0800 
 43 H       -6.6130   -10.8450    -0.0950 H     1 <1>   0.0800 
 44 H       -9.7270    -9.8580     1.5870 H     1 <1>   0.0800 
 45 H       -8.4300   -10.7230     2.3450 H     1 <1>   0.0800 
 46 H      -10.0580    -9.3790    -0.7100 H     1 <1>   0.0800 
 47 H      -10.5870   -10.1970    -2.1570 H     1 <1>   0.0800 
 48 H       -8.8830    -9.8550    -1.9130 H     1 <1>   0.0800 
 49 H       -9.7120   -13.5560    -1.0890 H     1 <1>   0.0800 
 50 H       -9.2530   -12.6090    -2.4850 H     1 <1>   0.0800 
 51 H      -10.9210   -12.6230    -1.9390 H     1 <1>   0.0800 
@<TRIPOS>BOND
  1   1   2  1   
  2   2   3  ar  
  3   2   4  ar  
  4   3   5  1   
  5   3   6  ar  
  6   4   7  ar  
  7   4  30  1   
  8   5   8  1   
  9   6   9  ar  
 10   6  31  1   
 11   7   9  ar  
 12   7  32  1   
 13   8  33  1   
 14   8  34  1   
 15   8  35  1   
 16   9  10  1   
 17  10  11  1   
 18  10  12  2   
 19  11  13  1   
 20  12  14  1   
 21  12  15  1   
 22  13  14  2   
 23  14  16  1   
 24  15  17  ar  
 25  15  18  ar  
 26  16  19  1   
 27  16  20  1   
 28  19  21  1   
 29  19  36  1   
 30  19  37  1   
 31  20  22  1   
 32  20  38  1   
 33  20  39  1   
 34  21  23  1   
 35  21  40  1   
 36  21  41  1   
 37  22  23  1   
 38  22  42  1   
 39  22  43  1   
 40  23  24  1   
 41  24  25  1   
 42  24  44  1   
 43  24  45  1   
 44  25  26  2   
 45  25  27  am  
 46  27  28  1   
 47  27  29  1   
 48  28  46  1   
 49  28  47  1   
 50  28  48  1   
 51  29  49  1   
 52  29  50  1   
 53  29  51  1   
@<TRIPOS>SUBSTRUCTURE
  1 ****  14 GROUP 4 **** **** 0

# MOE 2024.06 (io_trps.svl 2023.06)
