@<TRIPOS>MOLECULE
NONAME
49 52 1 0 0 
SMALL
USER_CHARGES


@<TRIPOS>ATOM
  1 S       -0.0860     0.3010     2.1960 S.3   1 <1>  -0.0800 
  2 C        1.0250    -0.7810     1.3690 C.2   1 <1>  -0.1400 
  3 C        0.7670     1.7060     1.5890 C.2   1 <1>  -0.1100 
  4 C        1.9580    -0.0730     0.7040 C.2   1 <1>  -0.1500 
  5 C        0.8020    -2.2690     1.5220 C.3   1 <1>   0.5230 
  6 C        1.8160     1.3500     0.8200 C.2   1 <1>   0.0190 
  7 N       -0.1240    -2.7240     0.4490 N.4   1 <1>  -0.9590 
  8 C        2.7240     2.2410     0.1660 C.1   1 <1>  -0.0190 
  9 C       -0.0840    -4.2250     0.2850 C.3   1 <1>   0.3430 
 10 C       -1.5420    -2.2550     0.6900 C.3   1 <1>   0.3430 
 11 C        3.4820     2.9820    -0.3750 C.1   1 <1>  -0.2000 
 12 C       -1.1780    -4.7680    -0.6650 C.3   1 <1>   0.3430 
 13 C       -2.5630    -2.8930    -0.2800 C.3   1 <1>   0.2950 
 14 C        4.4330     3.9130    -1.0390 C.3   1 <1>   0.3200 
 15 O       -2.4300    -4.2830    -0.2680 O.3   1 <1>  -0.5600 
 16 C       -1.1750    -6.2880    -0.6140 C.ar  1 <1>  -0.1440 
 17 C       -3.9960    -2.5650     0.1420 C.3   1 <1>  -0.1950 
 18 O        3.7260     5.0430    -1.3900 O.3   1 <1>  -0.6800 
 19 C       -0.4430    -7.0060    -1.5510 C.ar  1 <1>  -0.1500 
 20 C       -1.8750    -6.9780     0.3680 C.ar  1 <1>  -0.1500 
 21 C       -5.1200    -2.6150    -0.8430 C.3   1 <1>  -0.2000 
 22 C       -4.6590    -1.2950    -0.2930 C.3   1 <1>  -0.2000 
 23 C       -0.4050    -8.3890    -1.5000 C.ar  1 <1>  -0.1500 
 24 C       -1.8360    -8.3600     0.4180 C.ar  1 <1>  -0.1500 
 25 C       -1.0990    -9.0660    -0.5150 C.ar  1 <1>  -0.1500 
 26 H        0.3990     2.6770     1.8720 H     1 <1>   0.1500 
 27 H        2.7710    -0.4740     0.1220 H     1 <1>   0.1500 
 28 H        0.4010    -2.4910     2.4980 H     1 <1>   0.0800 
 29 H        1.7500    -2.7700     1.4190 H     1 <1>   0.0800 
 30 H        0.2040    -2.2810    -0.4200 H     1 <1>   0.4500 
 31 H        0.8790    -4.5330    -0.0860 H     1 <1>   0.0800 
 32 H       -0.2290    -4.6980     1.2420 H     1 <1>   0.0800 
 33 H       -1.8410    -2.5040     1.6940 H     1 <1>   0.0800 
 34 H       -1.5990    -1.1830     0.5910 H     1 <1>   0.0800 
 35 H       -0.9990    -4.4440    -1.6760 H     1 <1>   0.0800 
 36 H       -2.3970    -2.5440    -1.2850 H     1 <1>   0.0800 
 37 H        4.8400     3.4740    -1.9340 H     1 <1>   0.0800 
 38 H        5.2300     4.2020    -0.3760 H     1 <1>   0.0800 
 39 H       -4.2170    -2.9140     1.1360 H     1 <1>   0.1000 
 40 H        2.8530     4.7770    -1.7320 H     1 <1>   0.4000 
 41 H        0.1010    -6.5050    -2.3320 H     1 <1>   0.1500 
 42 H       -2.4640    -6.4470     1.0970 H     1 <1>   0.1500 
 43 H       -4.9070    -2.8560    -1.8710 H     1 <1>   0.1000 
 44 H       -6.0690    -3.0100    -0.5210 H     1 <1>   0.1000 
 45 H       -5.3100    -0.7800     0.3940 H     1 <1>   0.1000 
 46 H       -4.1660    -0.6190    -0.9720 H     1 <1>   0.1000 
 47 H        0.1620    -8.9420    -2.2300 H     1 <1>   0.1500 
 48 H       -2.3840    -8.8880     1.1800 H     1 <1>   0.1500 
 49 H       -1.0710   -10.1420    -0.4770 H     1 <1>   0.1500 
@<TRIPOS>BOND
  1   1   2  1   
  2   1   3  1   
  3   2   4  2   
  4   2   5  1   
  5   3   6  2   
  6   3  26  1   
  7   4   6  1   
  8   4  27  1   
  9   5   7  1   
 10   5  28  1   
 11   5  29  1   
 12   6   8  1   
 13   7   9  1   
 14   7  10  1   
 15   7  30  1   
 16   8  11  3   
 17   9  12  1   
 18   9  31  1   
 19   9  32  1   
 20  10  13  1   
 21  10  33  1   
 22  10  34  1   
 23  11  14  1   
 24  12  15  1   
 25  12  16  1   
 26  12  35  1   
 27  13  15  1   
 28  13  17  1   
 29  13  36  1   
 30  14  18  1   
 31  14  37  1   
 32  14  38  1   
 33  16  19  ar  
 34  16  20  ar  
 35  17  21  1   
 36  17  22  1   
 37  17  39  1   
 38  18  40  1   
 39  19  23  ar  
 40  19  41  1   
 41  20  24  ar  
 42  20  42  1   
 43  21  22  1   
 44  21  43  1   
 45  21  44  1   
 46  22  45  1   
 47  22  46  1   
 48  23  25  ar  
 49  23  47  1   
 50  24  25  ar  
 51  24  48  1   
 52  25  49  1   
@<TRIPOS>SUBSTRUCTURE
  1 ****   7 GROUP 4 **** **** 0

# MOE 2024.06 (io_trps.svl 2023.06)
