@<TRIPOS>MOLECULE
NONAME
39 41 1 0 0 
SMALL
USER_CHARGES


@<TRIPOS>ATOM
  1 CL       0.1880     0.0670    -0.2020 Cl    1 <1>  -0.1770 
  2 C        0.0890    -1.6600     0.0160 C.ar  1 <1>   0.1770 
  3 C       -0.5820    -2.4420    -0.9070 C.ar  1 <1>   0.1600 
  4 C        0.6790    -2.2480     1.1090 C.ar  1 <1>  -0.1500 
  5 N       -0.7070    -3.7570    -0.8190 N.ar  1 <1>  -0.6200 
  6 C        0.5550    -3.6180     1.2060 C.ar  1 <1>  -0.1500 
  7 C       -0.1370    -4.3660     0.2430 C.ar  1 <1>   0.3960 
  8 C       -0.2170    -5.8260     0.4120 C.2   1 <1>   0.5440 
  9 O        0.6230    -6.3940     1.0920 O.2   1 <1>  -0.5700 
 10 N       -1.2070    -6.6230    -0.1350 N.am  1 <1>  -0.6600 
 11 C       -2.4640    -6.1650    -0.7830 C.3   1 <1>   0.1400 
 12 C       -1.1950    -8.1070    -0.0490 C.3   1 <1>   0.1400 
 13 C       -3.4230    -7.3420    -0.6170 C.3   1 <1>   0.2000 
 14 C       -2.5040    -8.5630    -0.7030 C.3   1 <1>  -0.0800 
 15 O       -3.9750    -7.2650     0.6540 O.3   1 <1>  -0.6800 
 16 C       -3.0740    -9.8650    -0.1110 C.3   1 <1>   0.0210 
 17 C       -2.0860   -11.0040    -0.2650 C.2   1 <1>   0.1080 
 18 N       -1.7690   -11.5100    -1.4160 N.2   1 <1>  -0.7070 
 19 C       -1.4110   -11.6200     0.7840 C.2   1 <1>  -0.1500 
 20 N       -0.8740   -12.4740    -1.1280 N.pl3 1 <1>   0.3000 
 21 C       -0.6400   -12.5590     0.1980 C.2   1 <1>  -0.3320 
 22 C        0.3210   -13.5470     0.8330 C.3   1 <1>  -0.0600 
 23 H       -1.0320    -1.9530    -1.7540 H     1 <1>   0.1500 
 24 H        1.2070    -1.6630     1.8410 H     1 <1>   0.1500 
 25 H        1.0020    -4.1300     2.0400 H     1 <1>   0.1500 
 26 H       -2.8540    -5.2700    -0.3290 H     1 <1>   0.0800 
 27 H       -2.2730    -5.9880    -1.8270 H     1 <1>   0.0800 
 28 H       -0.3390    -8.5120    -0.5640 H     1 <1>   0.0800 
 29 H       -1.1550    -8.4000     0.9860 H     1 <1>   0.0800 
 30 H       -4.2200    -7.3500    -1.3410 H     1 <1>   0.0800 
 31 H       -2.2930    -8.7400    -1.7430 H     1 <1>   0.0800 
 32 H       -3.2490    -7.1110     1.2930 H     1 <1>   0.4000 
 33 H       -3.9820   -10.1250    -0.6230 H     1 <1>   0.0800 
 34 H       -3.3050    -9.7400     0.9310 H     1 <1>   0.0800 
 35 H       -1.5030   -11.3770     1.8280 H     1 <1>   0.1500 
 36 H       -0.4440   -13.0550    -1.8580 H     1 <1>   0.2700 
 37 H        0.3330   -13.4160     1.9010 H     1 <1>   0.0800 
 38 H        1.3170   -13.3900     0.4590 H     1 <1>   0.0800 
 39 H        0.0170   -14.5550     0.6150 H     1 <1>   0.0800 
@<TRIPOS>BOND
  1   1   2  1   
  2   2   3  ar  
  3   2   4  ar  
  4   3   5  ar  
  5   3  23  1   
  6   4   6  ar  
  7   4  24  1   
  8   5   7  ar  
  9   6   7  ar  
 10   6  25  1   
 11   7   8  1   
 12   8   9  2   
 13   8  10  am  
 14  10  11  1   
 15  10  12  1   
 16  11  13  1   
 17  11  26  1   
 18  11  27  1   
 19  12  14  1   
 20  12  28  1   
 21  12  29  1   
 22  13  14  1   
 23  13  15  1   
 24  13  30  1   
 25  14  16  1   
 26  14  31  1   
 27  15  32  1   
 28  16  17  1   
 29  16  33  1   
 30  16  34  1   
 31  17  18  2   
 32  17  19  1   
 33  18  20  1   
 34  19  21  2   
 35  19  35  1   
 36  20  21  1   
 37  20  36  1   
 38  21  22  1   
 39  22  37  1   
 40  22  38  1   
 41  22  39  1   
@<TRIPOS>SUBSTRUCTURE
  1 ****  10 GROUP 4 **** **** 0

# MOE 2024.06 (io_trps.svl 2023.06)
