@<TRIPOS>MOLECULE
NONAME
50 52 1 0 0 
SMALL
USER_CHARGES


@<TRIPOS>ATOM
  1 CL      -1.2410     0.0890    -1.7090 Cl    1 <1>  -0.1770 
  2 C       -2.1020     0.9250    -0.4300 C.ar  1 <1>   0.1770 
  3 C       -1.5490     1.9550     0.3450 C.ar  1 <1>   0.0830 
  4 C       -3.4020     0.5060    -0.2250 C.ar  1 <1>  -0.1500 
  5 O       -0.2970     2.4770     0.2710 O.3   1 <1>  -0.3630 
  6 C       -2.3520     2.5330     1.3170 C.ar  1 <1>  -0.1500 
  7 C       -4.2120     1.0920     0.7440 C.ar  1 <1>   0.0860 
  8 C        0.7460     1.9590    -0.5180 C.3   1 <1>   0.1200 
  9 C       -3.6530     2.1100     1.5160 C.ar  1 <1>  -0.1500 
 10 C       -5.5780     0.6470     0.9340 C.2   1 <1>   0.5440 
 11 C        2.0140     2.7430    -0.1940 C.3   1 <1>  -0.2400 
 12 O       -5.7860    -0.5340     1.1410 O.2   1 <1>  -0.5700 
 13 N       -6.6440     1.5230     0.8760 N.am  1 <1>  -0.6600 
 14 C       -8.0410     1.0700     1.1540 C.3   1 <1>   0.1400 
 15 C       -6.5220     2.9110     0.3340 C.3   1 <1>   0.1400 
 16 C       -8.9180     1.0750    -0.1300 C.3   1 <1>   0.0000 
 17 C       -7.8310     3.3910    -0.3120 C.3   1 <1>  -0.1600 
 18 C      -10.4010     1.0730     0.3080 C.3   1 <1>   0.2000 
 19 C       -8.5150     2.2470    -1.0730 C.3   1 <1>  -0.1600 
 20 C       -8.7890    -0.2780    -0.8500 C.3   1 <1>  -0.1600 
 21 O      -11.2320     1.3810    -0.7760 O.3   1 <1>  -0.5600 
 22 C      -10.6790    -0.3790     0.7160 C.3   1 <1>  -0.1600 
 23 C       -9.7350    -1.2470    -0.1280 C.3   1 <1>  -0.1600 
 24 C      -12.4750     1.9080    -0.4390 C.3   1 <1>   0.0400 
 25 H       -3.8040    -0.2910    -0.8250 H     1 <1>   0.1500 
 26 H       -1.9420     3.3210     1.9250 H     1 <1>   0.1500 
 27 H        0.8740     0.9180    -0.2770 H     1 <1>   0.0800 
 28 H        0.4840     2.0810    -1.5550 H     1 <1>   0.0800 
 29 H       -4.2510     2.5670     2.2850 H     1 <1>   0.1500 
 30 H        2.2610     2.6320     0.8470 H     1 <1>   0.0800 
 31 H        1.8730     3.7840    -0.4210 H     1 <1>   0.0800 
 32 H        2.8320     2.3710    -0.7830 H     1 <1>   0.0800 
 33 H       -8.0370     0.0930     1.6040 H     1 <1>   0.0800 
 34 H       -8.4600     1.7450     1.8790 H     1 <1>   0.0800 
 35 H       -6.2410     3.5830     1.1260 H     1 <1>   0.0800 
 36 H       -5.7470     2.9250    -0.4140 H     1 <1>   0.0800 
 37 H       -8.4930     3.7710     0.4460 H     1 <1>   0.0800 
 38 H       -7.6140     4.2010    -0.9860 H     1 <1>   0.0800 
 39 H      -10.5850     1.7750     1.1040 H     1 <1>   0.0800 
 40 H       -7.8150     1.8810    -1.8040 H     1 <1>   0.0800 
 41 H       -9.3590     2.6280    -1.6180 H     1 <1>   0.0800 
 42 H       -9.1270    -0.1710    -1.8670 H     1 <1>   0.0800 
 43 H       -7.7750    -0.6390    -0.8600 H     1 <1>   0.0800 
 44 H      -10.4350    -0.5060     1.7550 H     1 <1>   0.0800 
 45 H      -11.7080    -0.6550     0.5710 H     1 <1>   0.0800 
 46 H       -9.1760    -1.9140     0.5070 H     1 <1>   0.0800 
 47 H      -10.2870    -1.8270    -0.8460 H     1 <1>   0.0800 
 48 H      -13.0250     2.0710    -1.3490 H     1 <1>   0.0800 
 49 H      -12.3360     2.8450     0.0710 H     1 <1>   0.0800 
 50 H      -13.0070     1.2110     0.1840 H     1 <1>   0.0800 
@<TRIPOS>BOND
  1   1   2  1   
  2   2   3  ar  
  3   2   4  ar  
  4   3   5  1   
  5   3   6  ar  
  6   4   7  ar  
  7   4  25  1   
  8   5   8  1   
  9   6   9  ar  
 10   6  26  1   
 11   7   9  ar  
 12   7  10  1   
 13   8  11  1   
 14   8  27  1   
 15   8  28  1   
 16   9  29  1   
 17  10  12  2   
 18  10  13  am  
 19  11  30  1   
 20  11  31  1   
 21  11  32  1   
 22  13  14  1   
 23  13  15  1   
 24  14  16  1   
 25  14  33  1   
 26  14  34  1   
 27  15  17  1   
 28  15  35  1   
 29  15  36  1   
 30  16  18  1   
 31  16  19  1   
 32  16  20  1   
 33  17  19  1   
 34  17  37  1   
 35  17  38  1   
 36  18  21  1   
 37  18  22  1   
 38  18  39  1   
 39  19  40  1   
 40  19  41  1   
 41  20  23  1   
 42  20  42  1   
 43  20  43  1   
 44  21  24  1   
 45  22  23  1   
 46  22  44  1   
 47  22  45  1   
 48  23  46  1   
 49  23  47  1   
 50  24  48  1   
 51  24  49  1   
 52  24  50  1   
@<TRIPOS>SUBSTRUCTURE
  1 ****  10 GROUP 4 **** **** 0

# MOE 2024.06 (io_trps.svl 2023.06)
