@<TRIPOS>MOLECULE
NONAME
56 60 1 0 0 
SMALL
USER_CHARGES


@<TRIPOS>ATOM
  1 O        0.2540    -0.5190     0.8100 O.3   1 <1>  -0.5600 
  2 C        1.4920    -0.9560     0.2880 C.3   1 <1>   0.4600 
  3 C       -0.9250    -0.9560     0.1770 C.3   1 <1>   0.1200 
  4 C        1.3740    -2.4170    -0.1270 C.2   1 <1>  -0.3320 
  5 C        1.8780    -0.0800    -0.9090 C.3   1 <1>  -0.1600 
  6 C        2.5140    -0.8140     1.4170 C.3   1 <1>  -0.1600 
  7 C       -1.0790    -2.4840     0.2800 C.3   1 <1>   0.0210 
  8 N        2.3970    -3.2190    -0.5490 N.pl3 1 <1>   0.0330 
  9 C        0.2250    -3.1200    -0.1310 C.2   1 <1>  -0.1810 
 10 C        2.0680     1.3760    -0.4950 C.3   1 <1>   0.2090 
 11 C        2.7420     0.6480     1.7980 C.3   1 <1>   0.2090 
 12 C        1.8760    -4.4620    -0.8200 C.ar  1 <1>  -0.1520 
 13 C        0.5080    -4.4320    -0.5630 C.ar  1 <1>   0.0000 
 14 N        3.0740     1.4480     0.5900 N.pl3 1 <1>  -0.8380 
 15 C        2.4940    -5.6290    -1.2750 C.ar  1 <1>  -0.1500 
 16 C       -0.2580    -5.5850    -0.7600 C.ar  1 <1>  -0.1500 
 17 C        4.3890     1.7060     0.2660 C.ar  1 <1>   0.4100 
 18 C        1.7280    -6.7560    -1.4660 C.ar  1 <1>  -0.1500 
 19 C        0.3520    -6.7350    -1.2080 C.ar  1 <1>  -0.1500 
 20 N        5.1900     0.6600     0.2030 N.ar  1 <1>  -0.6200 
 21 C        4.8550     2.9900     0.0010 C.ar  1 <1>  -0.1430 
 22 C        6.4380     0.9030    -0.1330 C.ar  1 <1>   0.4770 
 23 C        6.1780     3.1000    -0.3450 C.ar  1 <1>   0.1600 
 24 C        3.9660     4.2330     0.0920 C.3   1 <1>   0.0630 
 25 N        6.9900     2.0650    -0.4210 N.ar  1 <1>  -0.6200 
 26 C        7.3530    -0.2940    -0.2060 C.3   1 <1>  -0.0970 
 27 C        3.8120     4.8930    -1.2830 C.3   1 <1>  -0.2400 
 28 C        4.5230     5.2350     1.1100 C.3   1 <1>  -0.2400 
 29 H       -0.8910    -0.6540    -0.8550 H     1 <1>   0.0800 
 30 H       -1.7550    -0.4670     0.6540 H     1 <1>   0.0800 
 31 H        1.1350    -0.1550    -1.6790 H     1 <1>   0.0800 
 32 H        2.8040    -0.4350    -1.3220 H     1 <1>   0.0800 
 33 H        3.4530    -1.2310     1.1100 H     1 <1>   0.0800 
 34 H        2.1770    -1.3680     2.2730 H     1 <1>   0.0800 
 35 H       -1.8720    -2.8130    -0.3660 H     1 <1>   0.0800 
 36 H       -1.3180    -2.7620     1.2900 H     1 <1>   0.0800 
 37 H        3.3820    -2.9510    -0.6410 H     1 <1>   0.2700 
 38 H        1.1380     1.7880    -0.1450 H     1 <1>   0.0800 
 39 H        2.4020     1.9530    -1.3410 H     1 <1>   0.0800 
 40 H        3.5470     0.7180     2.5110 H     1 <1>   0.0800 
 41 H        1.8530     1.0510     2.2520 H     1 <1>   0.0800 
 42 H        3.5520    -5.6360    -1.4700 H     1 <1>   0.1500 
 43 H       -1.3120    -5.5530    -0.5570 H     1 <1>   0.1500 
 44 H        2.1810    -7.6680    -1.8160 H     1 <1>   0.1500 
 45 H       -0.2240    -7.6300    -1.3650 H     1 <1>   0.1500 
 46 H        6.5990     4.0640    -0.5680 H     1 <1>   0.1500 
 47 H        2.9840     3.9540     0.4320 H     1 <1>   0.0800 
 48 H        6.9400    -1.1160     0.3490 H     1 <1>   0.0800 
 49 H        8.3130    -0.0430     0.2070 H     1 <1>   0.0800 
 50 H        7.4750    -0.5840    -1.2320 H     1 <1>   0.0800 
 51 H        4.7570     5.2530    -1.6460 H     1 <1>   0.0800 
 52 H        3.1300     5.7230    -1.2220 H     1 <1>   0.0800 
 53 H        3.4220     4.1820    -1.9890 H     1 <1>   0.0800 
 54 H        5.4780     5.6180     0.8000 H     1 <1>   0.0800 
 55 H        4.6380     4.7540     2.0660 H     1 <1>   0.0800 
 56 H        3.8440     6.0610     1.2270 H     1 <1>   0.0800 
@<TRIPOS>BOND
  1   1   2  1   
  2   1   3  1   
  3   2   4  1   
  4   2   5  1   
  5   2   6  1   
  6   3   7  1   
  7   3  29  1   
  8   3  30  1   
  9   4   8  1   
 10   4   9  2   
 11   5  10  1   
 12   5  31  1   
 13   5  32  1   
 14   6  11  1   
 15   6  33  1   
 16   6  34  1   
 17   7   9  1   
 18   7  35  1   
 19   7  36  1   
 20   8  12  1   
 21   8  37  1   
 22   9  13  1   
 23  10  14  1   
 24  10  38  1   
 25  10  39  1   
 26  11  14  1   
 27  11  40  1   
 28  11  41  1   
 29  12  13  ar  
 30  12  15  ar  
 31  13  16  ar  
 32  14  17  1   
 33  15  18  ar  
 34  15  42  1   
 35  16  19  ar  
 36  16  43  1   
 37  17  20  ar  
 38  17  21  ar  
 39  18  19  ar  
 40  18  44  1   
 41  19  45  1   
 42  20  22  ar  
 43  21  23  ar  
 44  21  24  1   
 45  22  25  ar  
 46  22  26  1   
 47  23  25  ar  
 48  23  46  1   
 49  24  27  1   
 50  24  28  1   
 51  24  47  1   
 52  26  48  1   
 53  26  49  1   
 54  26  50  1   
 55  27  51  1   
 56  27  52  1   
 57  27  53  1   
 58  28  54  1   
 59  28  55  1   
 60  28  56  1   
@<TRIPOS>SUBSTRUCTURE
  1 ****   5 GROUP 4 **** **** 0

# MOE 2024.06 (io_trps.svl 2023.06)
