@<TRIPOS>MOLECULE
NONAME
31 32 1 0 0 
SMALL
USER_CHARGES


@<TRIPOS>ATOM
  1 S       -0.2870    -0.1230     0.9660 S.3   1 <1>  -0.0800 
  2 C       -1.0200     0.9020    -0.2540 C.2   1 <1>   0.4620 
  3 C       -1.7090    -1.1280     0.9320 C.2   1 <1>  -0.1100 
  4 N       -2.1830     0.5270    -0.6320 N.2   1 <1>  -0.5650 
  5 N       -0.3370     1.9820    -0.6990 N.pl3 1 <1>  -0.8840 
  6 C       -2.5760    -0.6240     0.0360 C.2   1 <1>   0.0460 
  7 C       -3.9480    -1.1930    -0.3090 C.3   1 <1>   0.3900 
  8 N       -4.1030    -2.5770     0.1980 N.pl3 1 <1>  -0.8690 
  9 C       -5.2580    -3.2550     0.0390 C.ar  1 <1>   0.7200 
 10 N       -5.0960    -4.5610    -0.0760 N.ar  1 <1>  -0.6200 
 11 N       -6.3870    -2.5550     0.0060 N.ar  1 <1>  -0.6200 
 12 C       -6.1950    -5.2800    -0.2220 C.ar  1 <1>   0.4100 
 13 C       -7.4820    -3.2750    -0.1470 C.ar  1 <1>   0.1600 
 14 N       -6.0320    -6.6610    -0.3270 N.pl3 1 <1>  -0.8380 
 15 C       -7.4320    -4.6360    -0.2640 C.ar  1 <1>   0.1900 
 16 C       -6.9020    -7.5960     0.4380 C.3   1 <1>   0.1290 
 17 C       -4.7450    -7.2430    -0.8000 C.3   1 <1>   0.1290 
 18 F       -8.5580    -5.3010    -0.4280 F     1 <1>  -0.1900 
 19 H       -1.7450    -1.9810     1.5850 H     1 <1>   0.1500 
 20 H       -0.7770     2.6090    -1.3730 H     1 <1>   0.4000 
 21 H        0.5620     2.2590    -0.3060 H     1 <1>   0.4000 
 22 H       -4.0690    -1.1960    -1.3790 H     1 <1>   0.0800 
 23 H       -4.7060    -0.5580     0.1160 H     1 <1>   0.0800 
 24 H       -3.3060    -3.1790     0.0020 H     1 <1>   0.4000 
 25 H       -8.4290    -2.7680    -0.1800 H     1 <1>   0.1500 
 26 H       -7.5190    -7.0550     1.1340 H     1 <1>   0.0800 
 27 H       -6.2990    -8.2940     0.9920 H     1 <1>   0.0800 
 28 H       -7.5340    -8.1390    -0.2430 H     1 <1>   0.0800 
 29 H       -4.2830    -6.5860    -1.5160 H     1 <1>   0.0800 
 30 H       -4.9220    -8.1930    -1.2710 H     1 <1>   0.0800 
 31 H       -4.0780    -7.3740     0.0340 H     1 <1>   0.0800 
@<TRIPOS>BOND
  1   1   2  1   
  2   1   3  1   
  3   2   4  2   
  4   2   5  1   
  5   3   6  2   
  6   3  19  1   
  7   4   6  1   
  8   5  20  1   
  9   5  21  1   
 10   6   7  1   
 11   7   8  1   
 12   7  22  1   
 13   7  23  1   
 14   8   9  1   
 15   8  24  1   
 16   9  10  ar  
 17   9  11  ar  
 18  10  12  ar  
 19  11  13  ar  
 20  12  14  1   
 21  12  15  ar  
 22  13  15  ar  
 23  13  25  1   
 24  14  16  1   
 25  14  17  1   
 26  15  18  1   
 27  16  26  1   
 28  16  27  1   
 29  16  28  1   
 30  17  29  1   
 31  17  30  1   
 32  17  31  1   
@<TRIPOS>SUBSTRUCTURE
  1 ****   8 GROUP 4 **** **** 0

# MOE 2024.06 (io_trps.svl 2023.06)
