@<TRIPOS>MOLECULE
NONAME
47 49 1 0 0 
SMALL
USER_CHARGES


@<TRIPOS>ATOM
  1 O       -0.5860    -0.3190     0.6280 O.3   1 <1>  -0.5600 
  2 C       -1.4240    -0.9080    -0.3080 C.3   1 <1>   0.1200 
  3 C       -0.3380     1.0310     0.4130 C.3   1 <1>   0.1200 
  4 C       -1.6250    -2.3660     0.1170 C.3   1 <1>   0.3430 
  5 C        0.5980     1.5050     1.5170 C.3   1 <1>  -0.2400 
  6 N       -2.2480    -3.2120    -0.9590 N.4   1 <1>  -0.9590 
  7 C       -3.6500    -2.8040    -1.2750 C.3   1 <1>   0.3430 
  8 C       -2.3690    -4.6190    -0.4830 C.3   1 <1>   0.3430 
  9 C       -4.5340    -3.5010    -0.2360 C.3   1 <1>   0.2000 
 10 C       -3.7770    -4.7850     0.1200 C.3   1 <1>  -0.0800 
 11 O       -4.6010    -2.6960     0.8940 O.3   1 <1>  -0.6800 
 12 C       -4.4840    -6.0430    -0.4220 C.3   1 <1>  -0.0170 
 13 C       -3.6830    -7.2990    -0.1210 C.ar  1 <1>   0.1670 
 14 N       -2.6710    -7.5510    -0.8940 N.ar  1 <1>  -0.6200 
 15 C       -4.0580    -8.1100     0.9620 C.ar  1 <1>  -0.1500 
 16 C       -1.9430    -8.6710    -0.6380 C.ar  1 <1>   0.3100 
 17 C       -3.3390    -9.2300     1.2480 C.ar  1 <1>  -0.1500 
 18 C       -2.2370    -9.5410     0.4350 C.ar  1 <1>   0.0000 
 19 C       -0.8520    -8.9770    -1.4670 C.ar  1 <1>  -0.1500 
 20 C       -1.4230   -10.6720     0.6420 C.ar  1 <1>  -0.1500 
 21 C       -0.0740   -10.0830    -1.2490 C.ar  1 <1>  -0.1500 
 22 C       -0.3630   -10.9380    -0.1810 C.ar  1 <1>  -0.1500 
 23 H       -2.3610    -0.3780    -0.3110 H     1 <1>   0.0800 
 24 H       -0.9440    -0.8490    -1.2690 H     1 <1>   0.0800 
 25 H        0.1230     1.1560    -0.5530 H     1 <1>   0.0800 
 26 H       -1.2700     1.5710     0.4510 H     1 <1>   0.0800 
 27 H       -2.2390    -2.3850     1.0030 H     1 <1>   0.0800 
 28 H       -0.6590    -2.7720     0.3690 H     1 <1>   0.0800 
 29 H        1.5210     0.9560     1.4810 H     1 <1>   0.0800 
 30 H        0.1360     1.3690     2.4780 H     1 <1>   0.0800 
 31 H        0.8150     2.5500     1.3870 H     1 <1>   0.0800 
 32 H       -1.6520    -3.1810    -1.7970 H     1 <1>   0.4500 
 33 H       -3.7870    -1.7360    -1.2470 H     1 <1>   0.0800 
 34 H       -3.9130    -3.1690    -2.2540 H     1 <1>   0.0800 
 35 H       -2.2620    -5.2830    -1.3260 H     1 <1>   0.0800 
 36 H       -1.6060    -4.8630     0.2380 H     1 <1>   0.0800 
 37 H       -5.5360    -3.6620    -0.5990 H     1 <1>   0.0800 
 38 H       -3.6830    -4.8890     1.1870 H     1 <1>   0.0800 
 39 H       -5.2580    -3.0350     1.5390 H     1 <1>   0.4000 
 40 H       -4.6150    -5.9690    -1.4880 H     1 <1>   0.0800 
 41 H       -5.4620    -6.1290     0.0180 H     1 <1>   0.0800 
 42 H       -4.9100    -7.8420     1.5610 H     1 <1>   0.1500 
 43 H       -3.5920    -9.8770     2.0700 H     1 <1>   0.1500 
 44 H       -0.6440    -8.3140    -2.2860 H     1 <1>   0.1500 
 45 H       -1.6510   -11.3280     1.4630 H     1 <1>   0.1500 
 46 H        0.7610   -10.3090    -1.8910 H     1 <1>   0.1500 
 47 H        0.2570   -11.8040    -0.0210 H     1 <1>   0.1500 
@<TRIPOS>BOND
  1   1   2  1   
  2   1   3  1   
  3   2   4  1   
  4   2  23  1   
  5   2  24  1   
  6   3   5  1   
  7   3  25  1   
  8   3  26  1   
  9   4   6  1   
 10   4  27  1   
 11   4  28  1   
 12   5  29  1   
 13   5  30  1   
 14   5  31  1   
 15   6   7  1   
 16   6   8  1   
 17   6  32  1   
 18   7   9  1   
 19   7  33  1   
 20   7  34  1   
 21   8  10  1   
 22   8  35  1   
 23   8  36  1   
 24   9  10  1   
 25   9  11  1   
 26   9  37  1   
 27  10  12  1   
 28  10  38  1   
 29  11  39  1   
 30  12  13  1   
 31  12  40  1   
 32  12  41  1   
 33  13  14  ar  
 34  13  15  ar  
 35  14  16  ar  
 36  15  17  ar  
 37  15  42  1   
 38  16  18  ar  
 39  16  19  ar  
 40  17  18  ar  
 41  17  43  1   
 42  18  20  ar  
 43  19  21  ar  
 44  19  44  1   
 45  20  22  ar  
 46  20  45  1   
 47  21  22  ar  
 48  21  46  1   
 49  22  47  1   
@<TRIPOS>SUBSTRUCTURE
  1 ****   8 GROUP 4 **** **** 0

# MOE 2024.06 (io_trps.svl 2023.06)
