@<TRIPOS>MOLECULE
NONAME
53 55 1 0 0 
SMALL
USER_CHARGES


@<TRIPOS>ATOM
  1 O        1.5090     0.0190     1.6640 O.co2 1 <1>  -0.9000 
  2 C        2.3290    -0.5160     0.9080 C.2   1 <1>   0.9060 
  3 O        2.2980    -1.7290     0.6540 O.co2 1 <1>  -0.9000 
  4 C        3.3590     0.3620     0.2100 C.3   1 <1>   0.0140 
  5 O        4.6730     0.2190     0.7490 O.3   1 <1>  -0.3630 
  6 C        5.7080     0.5250    -0.0680 C.ar  1 <1>   0.0830 
  7 C        6.6230    -0.4380    -0.5230 C.ar  1 <1>   0.0820 
  8 C        5.8710     1.8560    -0.4240 C.ar  1 <1>  -0.1500 
  9 O        6.5850    -1.7770    -0.2620 O.3   1 <1>  -0.3630 
 10 C        7.6800    -0.0260    -1.3190 C.ar  1 <1>  -0.1500 
 11 C        6.9330     2.2550    -1.2220 C.ar  1 <1>  -0.1440 
 12 C        5.3910    -2.4260     0.1340 C.3   1 <1>   0.0400 
 13 C        7.8360     1.3040    -1.6690 C.ar  1 <1>  -0.1500 
 14 C        7.1140     3.7210    -1.5860 C.3   1 <1>   0.2530 
 15 N        8.3820     4.2440    -1.0370 N.3   1 <1>  -0.8100 
 16 C        8.4580     4.1730     0.4680 C.3   1 <1>   0.1900 
 17 C        8.7480     5.5350    -1.6570 C.3   1 <1>   0.1100 
 18 C        7.8320     5.3870     1.1800 C.3   1 <1>   0.1200 
 19 C        9.9150     3.9450     0.9430 C.3   1 <1>   0.3430 
 20 C        9.7580     6.3940    -0.8650 C.3   1 <1>  -0.0800 
 21 O        8.7690     6.4070     1.3610 O.3   1 <1>  -0.5600 
 22 N       10.8690     4.2160    -0.1740 N.4   1 <1>  -0.9590 
 23 C        9.0680     7.1920     0.2550 C.3   1 <1>   0.1200 
 24 C       11.0400     5.6830    -0.3800 C.3   1 <1>   0.3430 
 25 C       12.2120     3.5690     0.1220 C.3   1 <1>   0.2370 
 26 C       12.9520     4.1570     1.3290 C.2   1 <1>   0.9060 
 27 O       12.7710     3.6380     2.4330 O.co2 1 <1>  -0.9000 
 28 O       13.6080     5.1890     1.1540 O.co2 1 <1>  -0.9000 
 29 H        3.0630     1.3870     0.3070 H     1 <1>   0.0800 
 30 H        3.3830     0.0850    -0.8270 H     1 <1>   0.0800 
 31 H        5.1610     2.5740    -0.0570 H     1 <1>   0.1500 
 32 H        8.3810    -0.7630    -1.6660 H     1 <1>   0.1500 
 33 H        5.5490    -3.4870     0.0880 H     1 <1>   0.0800 
 34 H        4.5960    -2.1480    -0.5360 H     1 <1>   0.0800 
 35 H        5.1470    -2.1420     1.1420 H     1 <1>   0.0800 
 36 H        8.6650     1.5980    -2.2870 H     1 <1>   0.1500 
 37 H        6.2870     4.3030    -1.2170 H     1 <1>   0.0800 
 38 H        7.1270     3.8020    -2.6600 H     1 <1>   0.0800 
 39 H        7.9050     3.3140     0.8060 H     1 <1>   0.0800 
 40 H        9.1600     5.3270    -2.6300 H     1 <1>   0.0800 
 41 H        7.8570     6.1220    -1.8120 H     1 <1>   0.0800 
 42 H        7.5220     5.0870     2.1650 H     1 <1>   0.0800 
 43 H        6.9720     5.7640     0.6560 H     1 <1>   0.0800 
 44 H       10.0150     2.9190     1.2550 H     1 <1>   0.0800 
 45 H       10.1460     4.5630     1.7960 H     1 <1>   0.0800 
 46 H       10.0950     7.1500    -1.5520 H     1 <1>   0.0800 
 47 H       10.3900     3.8290    -1.0010 H     1 <1>   0.4500 
 48 H        8.1600     7.6550    -0.0920 H     1 <1>   0.0800 
 49 H        9.7270     7.9700     0.6020 H     1 <1>   0.0800 
 50 H       11.3830     6.1390     0.5360 H     1 <1>   0.0800 
 51 H       11.8140     5.8320    -1.1150 H     1 <1>   0.0800 
 52 H       12.0770     2.5210     0.3130 H     1 <1>   0.0800 
 53 H       12.8610     3.6790    -0.7260 H     1 <1>   0.0800 
@<TRIPOS>BOND
  1   1   2  ar  
  2   2   3  ar  
  3   2   4  1   
  4   4   5  1   
  5   4  29  1   
  6   4  30  1   
  7   5   6  1   
  8   6   7  ar  
  9   6   8  ar  
 10   7   9  1   
 11   7  10  ar  
 12   8  11  ar  
 13   8  31  1   
 14   9  12  1   
 15  10  13  ar  
 16  10  32  1   
 17  11  13  ar  
 18  11  14  1   
 19  12  33  1   
 20  12  34  1   
 21  12  35  1   
 22  13  36  1   
 23  14  15  1   
 24  14  37  1   
 25  14  38  1   
 26  15  16  1   
 27  15  17  1   
 28  16  18  1   
 29  16  19  1   
 30  16  39  1   
 31  17  20  1   
 32  17  40  1   
 33  17  41  1   
 34  18  21  1   
 35  18  42  1   
 36  18  43  1   
 37  19  22  1   
 38  19  44  1   
 39  19  45  1   
 40  20  23  1   
 41  20  24  1   
 42  20  46  1   
 43  21  23  1   
 44  22  24  1   
 45  22  25  1   
 46  22  47  1   
 47  23  48  1   
 48  23  49  1   
 49  24  50  1   
 50  24  51  1   
 51  25  26  1   
 52  25  52  1   
 53  25  53  1   
 54  26  27  ar  
 55  26  28  ar  
@<TRIPOS>SUBSTRUCTURE
  1 ****  11 GROUP 4 **** **** 0

# MOE 2024.06 (io_trps.svl 2023.06)
