@<TRIPOS>MOLECULE
NONAME
41 43 1 0 0 
SMALL
USER_CHARGES


@<TRIPOS>ATOM
  1 O       -0.3600    -0.3060    -0.2870 O.2   1 <1>  -0.5700 
  2 C       -1.4270    -0.8590    -0.0890 C.2   1 <1>   0.5410 
  3 C       -1.5260    -2.2480     0.1710 C.2   1 <1>  -0.1360 
  4 C       -2.6560    -0.1480    -0.1090 C.2   1 <1>  -0.1360 
  5 C       -2.7270    -2.8620     0.3760 C.2   1 <1>   0.0910 
  6 C       -3.8240    -0.7930     0.1060 C.2   1 <1>  -0.0620 
  7 O       -3.8460    -2.1090     0.3400 O.3   1 <1>  -0.1530 
  8 C       -2.8790    -4.2800     0.6560 C.2   1 <1>   0.6160 
  9 C       -5.1920    -0.1400     0.1110 C.3   1 <1>  -0.1020 
 10 O       -1.9180    -4.8880     1.0910 O.2   1 <1>  -0.5700 
 11 N       -4.0400    -5.0000     0.4440 N.am  1 <1>  -0.6600 
 12 C       -5.2100    -4.5750    -0.3750 C.3   1 <1>   0.1400 
 13 C       -4.1130    -6.4640     0.7020 C.3   1 <1>   0.1400 
 14 C       -6.1790    -5.7560    -0.3210 C.3   1 <1>   0.2000 
 15 C       -5.2660    -6.9750    -0.1680 C.3   1 <1>  -0.0800 
 16 O       -6.9630    -5.6170     0.8150 O.3   1 <1>  -0.6800 
 17 C       -5.9540    -8.2380     0.3820 C.3   1 <1>   0.0200 
 18 C       -5.0490    -9.4590     0.3840 C.2   1 <1>  -0.0400 
 19 O       -5.4770   -10.5530     0.9560 O.3   1 <1>  -0.0190 
 20 C       -3.8210    -9.7080    -0.1010 C.2   1 <1>  -0.1500 
 21 N       -4.6040   -11.5160     0.8850 N.2   1 <1>  -0.4100 
 22 C       -3.5950   -11.0350     0.2530 C.2   1 <1>   0.1080 
 23 C       -2.3370   -11.8130    -0.0580 C.3   1 <1>  -0.0590 
 24 H       -0.6010    -2.7930     0.2000 H     1 <1>   0.1500 
 25 H       -2.5910     0.9060    -0.3000 H     1 <1>   0.1500 
 26 H       -5.6620    -0.2830     1.0680 H     1 <1>   0.0800 
 27 H       -5.8120    -0.5780    -0.6500 H     1 <1>   0.0800 
 28 H       -5.1090     0.9160    -0.0770 H     1 <1>   0.0800 
 29 H       -5.6760    -3.6860     0.0110 H     1 <1>   0.0800 
 30 H       -4.8880    -4.4080    -1.3880 H     1 <1>   0.0800 
 31 H       -3.1850    -6.9480     0.4500 H     1 <1>   0.0800 
 32 H       -4.3190    -6.6230     1.7470 H     1 <1>   0.0800 
 33 H       -6.8280    -5.8100    -1.1780 H     1 <1>   0.0800 
 34 H       -4.8660    -7.2010    -1.1410 H     1 <1>   0.0800 
 35 H       -6.3850    -5.4100     1.5780 H     1 <1>   0.4000 
 36 H       -6.8220    -8.4600    -0.2140 H     1 <1>   0.0800 
 37 H       -6.2900    -8.0660     1.3900 H     1 <1>   0.0800 
 38 H       -3.1400    -9.0760    -0.6380 H     1 <1>   0.1500 
 39 H       -2.1750   -11.8370    -1.1200 H     1 <1>   0.0800 
 40 H       -2.4310   -12.8220     0.3020 H     1 <1>   0.0800 
 41 H       -1.4940   -11.3500     0.4200 H     1 <1>   0.0800 
@<TRIPOS>BOND
  1   1   2  2   
  2   2   3  1   
  3   2   4  1   
  4   3   5  2   
  5   3  24  1   
  6   4   6  2   
  7   4  25  1   
  8   5   7  1   
  9   5   8  1   
 10   6   7  1   
 11   6   9  1   
 12   8  10  2   
 13   8  11  am  
 14   9  26  1   
 15   9  27  1   
 16   9  28  1   
 17  11  12  1   
 18  11  13  1   
 19  12  14  1   
 20  12  29  1   
 21  12  30  1   
 22  13  15  1   
 23  13  31  1   
 24  13  32  1   
 25  14  15  1   
 26  14  16  1   
 27  14  33  1   
 28  15  17  1   
 29  15  34  1   
 30  16  35  1   
 31  17  18  1   
 32  17  36  1   
 33  17  37  1   
 34  18  19  1   
 35  18  20  2   
 36  19  21  1   
 37  20  22  1   
 38  20  38  1   
 39  21  22  2   
 40  22  23  1   
 41  23  39  1   
 42  23  40  1   
 43  23  41  1   
@<TRIPOS>SUBSTRUCTURE
  1 ****  11 GROUP 4 **** **** 0

# MOE 2024.06 (io_trps.svl 2023.06)
