@<TRIPOS>MOLECULE
NONAME
53 57 1 0 0 
SMALL
USER_CHARGES


@<TRIPOS>ATOM
  1 S        0.4930    -0.2320     1.2530 S.3   1 <1>  -0.0800 
  2 C        1.9850    -0.6990     0.4830 C.2   1 <1>  -0.1400 
  3 C        1.4200     0.4490     2.5680 C.2   1 <1>   0.2280 
  4 C        3.0100    -0.3120     1.2620 C.2   1 <1>   0.0460 
  5 C        1.8880    -1.4210    -0.8500 C.3   1 <1>   0.3200 
  6 N        2.6810     0.3330     2.4410 N.2   1 <1>  -0.5650 
  7 C        4.4890    -0.5050     1.0040 C.3   1 <1>  -0.0590 
  8 N        1.2780    -2.7720    -0.6740 N.am  1 <1>  -0.6600 
  9 C        0.2210    -3.1550    -1.4610 C.2   1 <1>   0.5690 
 10 C        1.9140    -3.6380     0.3680 C.3   1 <1>   0.1400 
 11 O       -0.1800    -2.4380    -2.3470 O.2   1 <1>  -0.5700 
 12 C       -0.5390    -4.4610    -1.2870 C.3   1 <1>  -0.0990 
 13 C        2.4300    -5.0020    -0.1640 C.3   1 <1>   0.2800 
 14 C        0.1260    -5.5930    -0.5040 C.3   1 <1>   0.1200 
 15 O        1.4570    -5.7070    -0.8950 O.3   1 <1>  -0.5600 
 16 C        2.8770    -5.8940     1.0100 C.3   1 <1>  -0.1600 
 17 C        3.6010    -4.7740    -1.1370 C.3   1 <1>  -0.1600 
 18 C        3.5370    -7.1880     0.5330 C.3   1 <1>   0.2090 
 19 C        4.2490    -6.0850    -1.5800 C.3   1 <1>   0.2090 
 20 N        4.6580    -6.8340    -0.3680 N.pl3 1 <1>  -0.8220 
 21 C        5.9730    -7.0340    -0.0100 C.2   1 <1>   0.5620 
 22 O        6.9370    -6.6470    -0.8390 O.3   1 <1>  -0.2800 
 23 N        6.3840    -7.5660     1.0910 N.2   1 <1>  -0.5650 
 24 C        8.0640    -6.9570    -0.2300 C.ar  1 <1>   0.1400 
 25 C        7.7330    -7.5300     0.9710 C.ar  1 <1>   0.2270 
 26 C        9.3780    -6.7800    -0.6360 C.ar  1 <1>  -0.1500 
 27 C        8.7400    -7.9560     1.8310 C.ar  1 <1>  -0.1500 
 28 C       10.3790    -7.2040     0.2200 C.ar  1 <1>  -0.1500 
 29 C       10.0590    -7.7890     1.4490 C.ar  1 <1>  -0.1500 
 30 H        0.8690     0.9050     3.3720 H     1 <1>   0.1500 
 31 H        2.8660    -1.5380    -1.2790 H     1 <1>   0.0800 
 32 H        1.3060    -0.8170    -1.5240 H     1 <1>   0.0800 
 33 H        4.6600    -1.0220     0.0790 H     1 <1>   0.0800 
 34 H        4.9230    -1.0730     1.8060 H     1 <1>   0.0800 
 35 H        4.9730     0.4540     0.9610 H     1 <1>   0.0800 
 36 H        1.2160    -3.7840     1.1720 H     1 <1>   0.0800 
 37 H        2.7560    -3.1260     0.7980 H     1 <1>   0.0800 
 38 H       -0.7550    -4.8340    -2.2710 H     1 <1>   0.0800 
 39 H       -1.4830    -4.2340    -0.8290 H     1 <1>   0.0800 
 40 H       -0.3580    -6.5240    -0.7450 H     1 <1>   0.0800 
 41 H        0.0560    -5.4510     0.5590 H     1 <1>   0.0800 
 42 H        2.0410    -6.1310     1.6400 H     1 <1>   0.0800 
 43 H        3.5940    -5.3630     1.6110 H     1 <1>   0.0800 
 44 H        4.3550    -4.1730    -0.6640 H     1 <1>   0.0800 
 45 H        3.2520    -4.2410    -2.0020 H     1 <1>   0.0800 
 46 H        2.8270    -7.7920    -0.0060 H     1 <1>   0.0800 
 47 H        3.8890    -7.7560     1.3770 H     1 <1>   0.0800 
 48 H        5.0940    -5.8840    -2.2150 H     1 <1>   0.0800 
 49 H        3.5430    -6.6760    -2.1400 H     1 <1>   0.0800 
 50 H        9.5920    -6.3280    -1.5870 H     1 <1>   0.1500 
 51 H        8.4710    -8.4040     2.7700 H     1 <1>   0.1500 
 52 H       11.4120    -7.0840    -0.0570 H     1 <1>   0.1500 
 53 H       10.8520    -8.1130     2.1020 H     1 <1>   0.1500 
@<TRIPOS>BOND
  1   1   2  1   
  2   1   3  1   
  3   2   4  2   
  4   2   5  1   
  5   3   6  2   
  6   3  30  1   
  7   4   6  1   
  8   4   7  1   
  9   5   8  1   
 10   5  31  1   
 11   5  32  1   
 12   7  33  1   
 13   7  34  1   
 14   7  35  1   
 15   8   9  am  
 16   8  10  1   
 17   9  11  2   
 18   9  12  1   
 19  10  13  1   
 20  10  36  1   
 21  10  37  1   
 22  12  14  1   
 23  12  38  1   
 24  12  39  1   
 25  13  15  1   
 26  13  16  1   
 27  13  17  1   
 28  14  15  1   
 29  14  40  1   
 30  14  41  1   
 31  16  18  1   
 32  16  42  1   
 33  16  43  1   
 34  17  19  1   
 35  17  44  1   
 36  17  45  1   
 37  18  20  1   
 38  18  46  1   
 39  18  47  1   
 40  19  20  1   
 41  19  48  1   
 42  19  49  1   
 43  20  21  1   
 44  21  22  1   
 45  21  23  2   
 46  22  24  1   
 47  23  25  1   
 48  24  25  ar  
 49  24  26  ar  
 50  25  27  ar  
 51  26  28  ar  
 52  26  50  1   
 53  27  29  ar  
 54  27  51  1   
 55  28  29  ar  
 56  28  52  1   
 57  29  53  1   
@<TRIPOS>SUBSTRUCTURE
  1 ****  17 GROUP 4 **** **** 0

# MOE 2024.06 (io_trps.svl 2023.06)
