@<TRIPOS>MOLECULE
F6572-0916
22 22 1 0 0 
SMALL
USER_CHARGES


@<TRIPOS>ATOM
  1 F        0.6860     0.2620    -0.5710 F     1 <1>  -0.3400 
  2 C        0.7130     1.5830    -0.4380 C.3   1 <1>   1.1640 
  3 F        1.6170     1.8430     0.4990 F     1 <1>  -0.3400 
  4 F        1.2030     2.0640    -1.5720 F     1 <1>  -0.3400 
  5 C       -0.6560     2.1830    -0.1030 C.ar  1 <1>  -0.1440 
  6 C       -1.8410     1.5010    -0.3010 C.ar  1 <1>  -0.1500 
  7 C       -0.7840     3.4630     0.4150 C.ar  1 <1>  -0.1500 
  8 C       -3.0630     2.0870     0.0150 C.ar  1 <1>   0.4100 
  9 C       -2.0410     3.9660     0.6970 C.ar  1 <1>   0.1600 
 10 N       -3.1730     3.3130     0.5110 N.ar  1 <1>  -0.6200 
 11 N       -4.2270     1.3710    -0.1830 N.pl3 1 <1>  -0.8380 
 12 C       -5.4480     2.1130    -0.5980 C.3   1 <1>   0.1290 
 13 C       -4.4970     0.2420     0.7440 C.3   1 <1>   0.1290 
 14 H       -1.8570     0.5070    -0.7070 H     1 <1>   0.1500 
 15 H        0.0840     4.0730     0.6000 H     1 <1>   0.1500 
 16 H       -2.1210     4.9620     1.0980 H     1 <1>   0.1500 
 17 H       -5.1810     2.8980    -1.2860 H     1 <1>   0.0800 
 18 H       -5.9190     2.5550     0.2630 H     1 <1>   0.0800 
 19 H       -6.1380     1.4460    -1.0840 H     1 <1>   0.0800 
 20 H       -3.5730    -0.1710     1.1100 H     1 <1>   0.0800 
 21 H       -5.0430    -0.5280     0.2290 H     1 <1>   0.0800 
 22 H       -5.0750     0.5900     1.5830 H     1 <1>   0.0800 
@<TRIPOS>BOND
  1   1   2  1   
  2   2   3  1   
  3   2   4  1   
  4   2   5  1   
  5   5   6  ar  
  6   5   7  ar  
  7   6   8  ar  
  8   6  14  1   
  9   7   9  ar  
 10   7  15  1   
 11   8  10  ar  
 12   8  11  1   
 13   9  10  ar  
 14   9  16  1   
 15  11  12  1   
 16  11  13  1   
 17  12  17  1   
 18  12  18  1   
 19  12  19  1   
 20  13  20  1   
 21  13  21  1   
 22  13  22  1   
@<TRIPOS>SUBSTRUCTURE
  1 ****   6 GROUP 4 **** **** 0

# MOE 2024.06 (io_trps.svl 2023.06)
