@<TRIPOS>MOLECULE
NONAME
46 48 1 0 0 
SMALL
USER_CHARGES


@<TRIPOS>ATOM
  1 O       -0.4770    -0.1980     0.0510 O.3   1 <1>  -0.2800 
  2 C       -1.4670    -0.8380     0.6390 C.2   1 <1>  -0.0400 
  3 C       -0.6990     1.0960     0.1670 C.2   1 <1>  -0.0400 
  4 C       -2.3550     0.0450     1.1520 C.2   1 <1>  -0.1500 
  5 C       -1.4160    -2.3540     0.6230 C.3   1 <1>   0.5230 
  6 C       -1.8500     1.3120     0.8400 C.2   1 <1>  -0.1500 
  7 C        0.3160     2.0510    -0.4390 C.3   1 <1>   0.0200 
  8 N       -2.7740    -2.9270     0.8290 N.4   1 <1>  -0.9590 
  9 C       -0.0650     3.5240    -0.2380 C.3   1 <1>  -0.1600 
 10 C       -3.7470    -2.5880    -0.2420 C.3   1 <1>   0.3430 
 11 C       -2.8110    -4.4090     0.9550 C.3   1 <1>   0.3430 
 12 C        0.9740     4.4640    -0.8590 C.3   1 <1>  -0.2400 
 13 C       -4.8890    -3.5720     0.0040 C.3   1 <1>   0.2000 
 14 C       -4.1660    -4.8700     0.3780 C.3   1 <1>  -0.0800 
 15 O       -5.5870    -3.1330     1.1230 O.3   1 <1>  -0.6800 
 16 C       -3.9890    -5.7920    -0.8470 C.3   1 <1>  -0.0170 
 17 C       -3.3140    -7.1090    -0.4880 C.ar  1 <1>   0.1670 
 18 N       -2.0200    -7.0490    -0.2130 N.ar  1 <1>  -0.6200 
 19 C       -4.0520    -8.2930    -0.4650 C.ar  1 <1>   0.1600 
 20 C       -1.5170    -8.2420     0.0710 C.ar  1 <1>   0.1600 
 21 N       -3.5520    -9.4780    -0.1680 N.ar  1 <1>  -0.6200 
 22 C       -2.2590    -9.4170     0.0940 C.ar  1 <1>   0.1600 
 23 H       -3.2680    -0.1210     1.6970 H     1 <1>   0.1500 
 24 H       -0.7450    -2.6910     1.3950 H     1 <1>   0.0800 
 25 H       -1.0270    -2.6790    -0.3270 H     1 <1>   0.0800 
 26 H       -2.3110     2.2490     1.1030 H     1 <1>   0.1500 
 27 H        1.2740     1.8630     0.0120 H     1 <1>   0.0800 
 28 H        0.3980     1.8420    -1.4910 H     1 <1>   0.0800 
 29 H       -3.1740    -2.5350     1.6930 H     1 <1>   0.4500 
 30 H       -1.0240     3.7100    -0.6900 H     1 <1>   0.0800 
 31 H       -0.1440     3.7320     0.8150 H     1 <1>   0.0800 
 32 H       -4.0860    -1.5670    -0.1780 H     1 <1>   0.0800 
 33 H       -3.3100    -2.7660    -1.2110 H     1 <1>   0.0800 
 34 H       -2.0020    -4.8410     0.3900 H     1 <1>   0.0800 
 35 H       -2.7130    -4.7080     1.9860 H     1 <1>   0.0800 
 36 H        1.0560     4.2910    -1.9180 H     1 <1>   0.0800 
 37 H        1.9390     4.3120    -0.4070 H     1 <1>   0.0800 
 38 H        0.6830     5.4880    -0.7040 H     1 <1>   0.0800 
 39 H       -5.5680    -3.6510    -0.8290 H     1 <1>   0.0800 
 40 H       -4.7160    -5.4130     1.1280 H     1 <1>   0.0800 
 41 H       -6.4260    -3.6280     1.2420 H     1 <1>   0.4000 
 42 H       -3.4000    -5.3050    -1.6050 H     1 <1>   0.0800 
 43 H       -4.9540    -6.0000    -1.2770 H     1 <1>   0.0800 
 44 H       -5.1010    -8.2640    -0.7010 H     1 <1>   0.1500 
 45 H       -0.4660    -8.2980     0.2980 H     1 <1>   0.1500 
 46 H       -1.7620   -10.3400     0.3390 H     1 <1>   0.1500 
@<TRIPOS>BOND
  1   1   2  1   
  2   1   3  1   
  3   2   4  2   
  4   2   5  1   
  5   3   6  2   
  6   3   7  1   
  7   4   6  1   
  8   4  23  1   
  9   5   8  1   
 10   5  24  1   
 11   5  25  1   
 12   6  26  1   
 13   7   9  1   
 14   7  27  1   
 15   7  28  1   
 16   8  10  1   
 17   8  11  1   
 18   8  29  1   
 19   9  12  1   
 20   9  30  1   
 21   9  31  1   
 22  10  13  1   
 23  10  32  1   
 24  10  33  1   
 25  11  14  1   
 26  11  34  1   
 27  11  35  1   
 28  12  36  1   
 29  12  37  1   
 30  12  38  1   
 31  13  14  1   
 32  13  15  1   
 33  13  39  1   
 34  14  16  1   
 35  14  40  1   
 36  15  41  1   
 37  16  17  1   
 38  16  42  1   
 39  16  43  1   
 40  17  18  ar  
 41  17  19  ar  
 42  18  20  ar  
 43  19  21  ar  
 44  19  44  1   
 45  20  22  ar  
 46  20  45  1   
 47  21  22  ar  
 48  22  46  1   
@<TRIPOS>SUBSTRUCTURE
  1 ****   8 GROUP 4 **** **** 0

# MOE 2024.06 (io_trps.svl 2023.06)
