@<TRIPOS>MOLECULE
NONAME
60 62 1 0 0 
SMALL
USER_CHARGES


@<TRIPOS>ATOM
  1 O        0.5530     0.2180    -1.3230 O.3   1 <1>  -0.6800 
  2 C        0.0470    -0.9210    -0.7000 C.3   1 <1>   0.1200 
  3 C        1.2540    -1.7230    -0.0130 C.3   1 <1>   0.0000 
  4 C        2.4180    -2.5150     0.7610 C.3   1 <1>   0.4230 
  5 C        1.2740    -0.6520     1.1980 C.3   1 <1>  -0.1600 
  6 C        1.2490    -2.7260    -1.2800 C.3   1 <1>  -0.1600 
  7 N        2.3900    -4.0340     0.7110 N.4   1 <1>  -0.9590 
  8 C        3.8010    -1.8430     0.5030 C.3   1 <1>   0.3430 
  9 C        2.5670     0.1960     1.3150 C.3   1 <1>   0.3430 
 10 C        2.4310    -3.6420    -1.6770 C.3   1 <1>  -0.1600 
 11 C        2.8490    -4.5990    -0.5770 C.3   1 <1>   0.3430 
 12 C        3.0820    -4.7040     1.8630 C.3   1 <1>   0.2630 
 13 N        3.7200    -0.3440     0.5200 N.4   1 <1>  -0.9590 
 14 C        3.7310     0.2430    -0.8580 C.3   1 <1>   0.4860 
 15 C        4.1130     1.7010    -0.7310 C.ar  1 <1>  -0.1440 
 16 C        5.4200     2.0660    -0.4540 C.ar  1 <1>  -0.1500 
 17 C        3.1570     2.6910    -0.8840 C.ar  1 <1>  -0.1500 
 18 C        5.7550     3.4000    -0.3140 C.ar  1 <1>  -0.1500 
 19 C        3.4990     4.0230    -0.7440 C.ar  1 <1>  -0.1500 
 20 C        4.8050     4.4070    -0.4520 C.ar  1 <1>  -0.1440 
 21 C        5.2330     5.8830    -0.2870 C.3   1 <1>   0.1430 
 22 C        4.0710     6.8750    -0.4610 C.3   1 <1>  -0.2400 
 23 C        6.2970     6.2290    -1.3400 C.3   1 <1>  -0.2400 
 24 C        5.8170     6.0970     1.1170 C.3   1 <1>  -0.2400 
 25 H       -0.1630     0.6970    -1.7980 H     1 <1>   0.4000 
 26 H       -0.7320    -0.6250    -0.0140 H     1 <1>   0.0800 
 27 H       -0.5410    -1.4400    -1.4440 H     1 <1>   0.0800 
 28 H        2.2890    -2.3580     1.8160 H     1 <1>   0.0800 
 29 H        1.0540    -1.1140     2.1480 H     1 <1>   0.0800 
 30 H        0.5310     0.1310     1.2200 H     1 <1>   0.0800 
 31 H        0.3860    -3.3710    -1.1950 H     1 <1>   0.0800 
 32 H        1.1410    -2.1840    -2.2120 H     1 <1>   0.0800 
 33 H        1.3910    -4.2900     0.7770 H     1 <1>   0.4500 
 34 H        4.1990    -2.1640    -0.4430 H     1 <1>   0.0800 
 35 H        4.4790    -2.1640     1.2750 H     1 <1>   0.0800 
 36 H        2.8450     0.2600     2.3550 H     1 <1>   0.0800 
 37 H        2.3520     1.2030     0.9910 H     1 <1>   0.0800 
 38 H        3.2740    -3.0520    -1.9900 H     1 <1>   0.0800 
 39 H        2.1530    -4.2280    -2.5380 H     1 <1>   0.0800 
 40 H        3.9200    -4.7270    -0.5890 H     1 <1>   0.0800 
 41 H        2.3900    -5.5640    -0.7350 H     1 <1>   0.0800 
 42 H        4.1420    -4.5040     1.8410 H     1 <1>   0.0800 
 43 H        2.9380    -5.7720     1.8140 H     1 <1>   0.0800 
 44 H        2.6810    -4.3540     2.8010 H     1 <1>   0.0800 
 45 H        4.5750     0.0540     0.9410 H     1 <1>   0.4500 
 46 H        4.4640    -0.2530    -1.4730 H     1 <1>   0.0800 
 47 H        2.7700     0.1460    -1.3300 H     1 <1>   0.0800 
 48 H        6.1990     1.3300    -0.3490 H     1 <1>   0.1500 
 49 H        2.1360     2.4410    -1.1170 H     1 <1>   0.1500 
 50 H        6.7780     3.6530    -0.0990 H     1 <1>   0.1500 
 51 H        2.7200     4.7520    -0.8720 H     1 <1>   0.1500 
 52 H        4.4150     7.8860    -0.3350 H     1 <1>   0.0800 
 53 H        3.3040     6.6920     0.2710 H     1 <1>   0.0800 
 54 H        3.6450     6.7910    -1.4450 H     1 <1>   0.0800 
 55 H        6.5830     7.2630    -1.2650 H     1 <1>   0.0800 
 56 H        5.9090     6.0520    -2.3270 H     1 <1>   0.0800 
 57 H        7.1800     5.6300    -1.2120 H     1 <1>   0.0800 
 58 H        6.0900     7.1270     1.2610 H     1 <1>   0.0800 
 59 H        6.6950     5.4970     1.2700 H     1 <1>   0.0800 
 60 H        5.0900     5.8290     1.8630 H     1 <1>   0.0800 
@<TRIPOS>BOND
  1   1   2  1   
  2   1  25  1   
  3   2   3  1   
  4   2  26  1   
  5   2  27  1   
  6   3   4  1   
  7   3   5  1   
  8   3   6  1   
  9   4   7  1   
 10   4   8  1   
 11   4  28  1   
 12   5   9  1   
 13   5  29  1   
 14   5  30  1   
 15   6  10  1   
 16   6  31  1   
 17   6  32  1   
 18   7  11  1   
 19   7  12  1   
 20   7  33  1   
 21   8  13  1   
 22   8  34  1   
 23   8  35  1   
 24   9  13  1   
 25   9  36  1   
 26   9  37  1   
 27  10  11  1   
 28  10  38  1   
 29  10  39  1   
 30  11  40  1   
 31  11  41  1   
 32  12  42  1   
 33  12  43  1   
 34  12  44  1   
 35  13  14  1   
 36  13  45  1   
 37  14  15  1   
 38  14  46  1   
 39  14  47  1   
 40  15  16  ar  
 41  15  17  ar  
 42  16  18  ar  
 43  16  48  1   
 44  17  19  ar  
 45  17  49  1   
 46  18  20  ar  
 47  18  50  1   
 48  19  20  ar  
 49  19  51  1   
 50  20  21  1   
 51  21  22  1   
 52  21  23  1   
 53  21  24  1   
 54  22  52  1   
 55  22  53  1   
 56  22  54  1   
 57  23  55  1   
 58  23  56  1   
 59  23  57  1   
 60  24  58  1   
 61  24  59  1   
 62  24  60  1   
@<TRIPOS>SUBSTRUCTURE
  1 ****  14 GROUP 4 **** **** 0

# MOE 2024.06 (io_trps.svl 2023.06)
