@<TRIPOS>MOLECULE
NONAME
51 52 1 0 0 
SMALL
USER_CHARGES


@<TRIPOS>ATOM
  1 S        0.2510    -0.2350     0.8030 S.o2  1 <1>   1.3330 
  2 O       -0.2890    -0.2280     2.1440 O.2   1 <1>  -0.6500 
  3 O        1.6220     0.1440     0.5570 O.2   1 <1>  -0.6500 
  4 N       -0.7560     0.7120    -0.1840 N.am  1 <1>  -0.8490 
  5 C       -0.0160    -1.8870     0.1510 C.3   1 <1>  -0.0550 
  6 C       -1.2740     1.8870     0.5270 C.3   1 <1>   0.1160 
  7 C       -0.1000     1.1500    -1.4240 C.3   1 <1>   0.1160 
  8 C       -1.4750    -2.3630     0.2970 C.3   1 <1>  -0.1600 
  9 C       -1.6570    -3.7920    -0.2100 C.3   1 <1>   0.3430 
 10 N       -3.0290    -4.2770     0.1020 N.4   1 <1>  -0.9590 
 11 C       -3.0970    -5.7720    -0.0670 C.3   1 <1>   0.3430 
 12 C       -4.0780    -3.5950    -0.7190 C.3   1 <1>   0.3430 
 13 C       -4.4790    -6.3470     0.2920 C.3   1 <1>   0.2000 
 14 C       -5.4660    -4.0950    -0.3090 C.3   1 <1>  -0.1600 
 15 O       -4.4640    -7.6820    -0.0910 O.3   1 <1>  -0.5600 
 16 C       -5.6020    -5.6180    -0.4590 C.3   1 <1>  -0.1600 
 17 C       -5.4190    -8.5090     0.5310 C.3   1 <1>   0.2630 
 18 C       -5.1420    -9.9820     0.2530 C.ar  1 <1>   0.1670 
 19 N       -5.4840   -10.8220     1.2210 N.ar  1 <1>  -0.6200 
 20 C       -4.5760   -10.3830    -0.9500 C.ar  1 <1>  -0.1500 
 21 C       -5.2500   -12.1030     0.9830 C.ar  1 <1>   0.1600 
 22 C       -4.3390   -11.7210    -1.1850 C.ar  1 <1>  -0.1500 
 23 C       -4.6900   -12.5980    -0.1820 C.ar  1 <1>  -0.1500 
 24 H        0.6300    -2.5630     0.6790 H     1 <1>   0.0800 
 25 H        0.2690    -1.9030    -0.8830 H     1 <1>   0.0800 
 26 H       -1.8530     1.5790     1.3820 H     1 <1>   0.0800 
 27 H       -1.9120     2.4660    -0.1180 H     1 <1>   0.0800 
 28 H       -0.4610     2.5070     0.8680 H     1 <1>   0.0800 
 29 H        0.2740     0.3020    -1.9690 H     1 <1>   0.0800 
 30 H        0.7260     1.8070    -1.2010 H     1 <1>   0.0800 
 31 H       -0.8020     1.6740    -2.0500 H     1 <1>   0.0800 
 32 H       -2.1070    -1.6870    -0.2510 H     1 <1>   0.0800 
 33 H       -1.7440    -2.3140     1.3390 H     1 <1>   0.0800 
 34 H       -0.9340    -4.4270     0.2780 H     1 <1>   0.0800 
 35 H       -1.4790    -3.8350    -1.2730 H     1 <1>   0.0800 
 36 H       -3.2210    -4.0650     1.0910 H     1 <1>   0.4500 
 37 H       -2.3570    -6.2460     0.5560 H     1 <1>   0.0800 
 38 H       -2.8890    -6.0220    -1.0940 H     1 <1>   0.0800 
 39 H       -3.9170    -3.8030    -1.7640 H     1 <1>   0.0800 
 40 H       -4.0300    -2.5280    -0.5740 H     1 <1>   0.0800 
 41 H       -4.6200    -6.2900     1.3590 H     1 <1>   0.0800 
 42 H       -6.2040    -3.6130    -0.9270 H     1 <1>   0.0800 
 43 H       -5.6650    -3.8040     0.7090 H     1 <1>   0.0800 
 44 H       -6.5610    -5.9250    -0.0800 H     1 <1>   0.0800 
 45 H       -5.5540    -5.8750    -1.5050 H     1 <1>   0.0800 
 46 H       -6.3970    -8.2560     0.1650 H     1 <1>   0.0800 
 47 H       -5.3810    -8.3460     1.5940 H     1 <1>   0.0800 
 48 H       -4.3230    -9.6560    -1.7000 H     1 <1>   0.1500 
 49 H       -5.5210   -12.7980     1.7590 H     1 <1>   0.1500 
 50 H       -3.9010   -12.0640    -2.1060 H     1 <1>   0.1500 
 51 H       -4.5320   -13.6540    -0.2990 H     1 <1>   0.1500 
@<TRIPOS>BOND
  1   1   2  2   
  2   1   3  2   
  3   1   4  am  
  4   1   5  1   
  5   4   6  1   
  6   4   7  1   
  7   5   8  1   
  8   5  24  1   
  9   5  25  1   
 10   6  26  1   
 11   6  27  1   
 12   6  28  1   
 13   7  29  1   
 14   7  30  1   
 15   7  31  1   
 16   8   9  1   
 17   8  32  1   
 18   8  33  1   
 19   9  10  1   
 20   9  34  1   
 21   9  35  1   
 22  10  11  1   
 23  10  12  1   
 24  10  36  1   
 25  11  13  1   
 26  11  37  1   
 27  11  38  1   
 28  12  14  1   
 29  12  39  1   
 30  12  40  1   
 31  13  15  1   
 32  13  16  1   
 33  13  41  1   
 34  14  16  1   
 35  14  42  1   
 36  14  43  1   
 37  15  17  1   
 38  16  44  1   
 39  16  45  1   
 40  17  18  1   
 41  17  46  1   
 42  17  47  1   
 43  18  19  ar  
 44  18  20  ar  
 45  19  21  ar  
 46  20  22  ar  
 47  20  48  1   
 48  21  23  ar  
 49  21  49  1   
 50  22  23  ar  
 51  22  50  1   
 52  23  51  1   
@<TRIPOS>SUBSTRUCTURE
  1 ****  11 GROUP 4 **** **** 0

# MOE 2024.06 (io_trps.svl 2023.06)
