@<TRIPOS>MOLECULE
NONAME
44 47 1 0 0 
SMALL
USER_CHARGES


@<TRIPOS>ATOM
  1 CL      -1.1400    -1.4780    -0.2990 Cl    1 <1>  -0.1770 
  2 C       -2.1820    -0.0850    -0.1150 C.ar  1 <1>   0.1770 
  3 C       -3.3280    -0.1870     0.6740 C.ar  1 <1>  -0.1440 
  4 C       -1.8410     1.0840    -0.7770 C.ar  1 <1>  -0.1500 
  5 C       -4.1640     0.9190     0.8100 C.ar  1 <1>  -0.1500 
  6 C       -3.6630    -1.4850     1.3810 C.3   1 <1>   0.4870 
  7 C       -2.6920     2.1600    -0.6260 C.ar  1 <1>   0.0820 
  8 C       -3.8170     2.0780     0.1420 C.ar  1 <1>   0.0820 
  9 N       -4.0540    -2.5090     0.3730 N.4   1 <1>  -0.9590 
 10 O       -2.5870     3.3810    -1.1570 O.3   1 <1>  -0.3630 
 11 O       -4.4710     3.2430     0.1270 O.3   1 <1>  -0.3620 
 12 C       -5.3330    -2.1270    -0.3110 C.3   1 <1>   0.3430 
 13 C       -4.2890    -3.8310     1.0350 C.3   1 <1>   0.3430 
 14 C       -3.7080     4.1310    -0.6910 C.3   1 <1>   0.4000 
 15 C       -6.4260    -2.9560     0.3680 C.3   1 <1>   0.2000 
 16 C       -5.7160    -4.2700     0.6780 C.3   1 <1>  -0.0800 
 17 O       -6.7500    -2.3450     1.5750 O.3   1 <1>  -0.6800 
 18 C       -5.7350    -5.2350    -0.5250 C.3   1 <1>  -0.0160 
 19 C       -4.8200    -6.4230    -0.2780 C.ar  1 <1>  -0.1430 
 20 C       -5.1040    -7.3730     0.6830 C.ar  1 <1>  -0.1500 
 21 C       -3.6560    -6.6130    -0.9980 C.ar  1 <1>  -0.1500 
 22 C       -4.2260    -8.4240     0.8880 C.ar  1 <1>   0.1600 
 23 C       -2.8460    -7.7000    -0.7150 C.ar  1 <1>   0.1600 
 24 N       -3.1000    -8.6010     0.2180 N.ar  1 <1>  -0.6200 
 25 H       -0.9560     1.1590    -1.3830 H     1 <1>   0.1500 
 26 H       -5.0580     0.9020     1.4100 H     1 <1>   0.1500 
 27 H       -4.4730    -1.3260     2.0760 H     1 <1>   0.0800 
 28 H       -2.8000    -1.8220     1.9330 H     1 <1>   0.0800 
 29 H       -3.2850    -2.5720    -0.3090 H     1 <1>   0.4500 
 30 H       -5.5450    -1.0730    -0.2380 H     1 <1>   0.0800 
 31 H       -5.2780    -2.4020    -1.3510 H     1 <1>   0.0800 
 32 H       -3.5610    -4.5610     0.7200 H     1 <1>   0.0800 
 33 H       -4.2200    -3.7190     2.1050 H     1 <1>   0.0800 
 34 H       -3.3650     4.9620    -0.0990 H     1 <1>   0.0800 
 35 H       -4.3010     4.4550    -1.5270 H     1 <1>   0.0800 
 36 H       -7.3180    -3.0530    -0.2300 H     1 <1>   0.0800 
 37 H       -6.1690    -4.7680     1.5180 H     1 <1>   0.0800 
 38 H       -7.5780    -2.7150     1.9510 H     1 <1>   0.4000 
 39 H       -5.4250    -4.7320    -1.4250 H     1 <1>   0.0800 
 40 H       -6.7370    -5.5940    -0.6860 H     1 <1>   0.0800 
 41 H       -5.9990    -7.3160     1.2770 H     1 <1>   0.1500 
 42 H       -3.3650    -5.9370    -1.7810 H     1 <1>   0.1500 
 43 H       -4.4600    -9.1570     1.6420 H     1 <1>   0.1500 
 44 H       -1.9420    -7.8380    -1.2850 H     1 <1>   0.1500 
@<TRIPOS>BOND
  1   1   2  1   
  2   2   3  ar  
  3   2   4  ar  
  4   3   5  ar  
  5   3   6  1   
  6   4   7  ar  
  7   4  25  1   
  8   5   8  ar  
  9   5  26  1   
 10   6   9  1   
 11   6  27  1   
 12   6  28  1   
 13   7   8  ar  
 14   7  10  1   
 15   8  11  1   
 16   9  12  1   
 17   9  13  1   
 18   9  29  1   
 19  10  14  1   
 20  11  14  1   
 21  12  15  1   
 22  12  30  1   
 23  12  31  1   
 24  13  16  1   
 25  13  32  1   
 26  13  33  1   
 27  14  34  1   
 28  14  35  1   
 29  15  16  1   
 30  15  17  1   
 31  15  36  1   
 32  16  18  1   
 33  16  37  1   
 34  17  38  1   
 35  18  19  1   
 36  18  39  1   
 37  18  40  1   
 38  19  20  ar  
 39  19  21  ar  
 40  20  22  ar  
 41  20  41  1   
 42  21  23  ar  
 43  21  42  1   
 44  22  24  ar  
 45  22  43  1   
 46  23  24  ar  
 47  23  44  1   
@<TRIPOS>SUBSTRUCTURE
  1 ****   9 GROUP 4 **** **** 0

# MOE 2024.06 (io_trps.svl 2023.06)
