@<TRIPOS>MOLECULE
NONAME
40 42 1 0 0 
SMALL
USER_CHARGES


@<TRIPOS>ATOM
  1 CL      -1.4120    -2.4740    -1.0320 Cl    1 <1>  -0.1770 
  2 C       -2.0930    -0.8960    -0.7240 C.ar  1 <1>   0.1770 
  3 C       -2.9760    -0.7300     0.3360 C.ar  1 <1>  -0.1440 
  4 C       -1.7290     0.1540    -1.5510 C.ar  1 <1>  -0.1500 
  5 C       -3.4970     0.5370     0.5740 C.ar  1 <1>  -0.1500 
  6 C       -3.3490    -1.9100     1.2120 C.3   1 <1>   0.4870 
  7 C       -2.2550     1.4140    -1.3190 C.ar  1 <1>  -0.1500 
  8 C       -3.1290     1.5780    -0.2590 C.ar  1 <1>   0.1900 
  9 N       -4.4370    -2.6890     0.5630 N.4   1 <1>  -0.9590 
 10 F       -3.6290     2.7620    -0.0340 F     1 <1>  -0.1900 
 11 C       -5.7040    -1.9260     0.3060 C.3   1 <1>   0.3430 
 12 C       -4.8120    -3.9340     1.2780 C.3   1 <1>   0.3430 
 13 C       -6.8550    -2.8370     0.7600 C.3   1 <1>   0.2000 
 14 C       -6.2400    -4.2360     0.8080 C.3   1 <1>  -0.0800 
 15 O       -7.2620    -2.4750     2.0390 O.3   1 <1>  -0.6800 
 16 C       -6.3310    -4.9120    -0.5890 C.3   1 <1>  -0.0160 
 17 C       -5.0420    -5.5550    -1.0820 C.ar  1 <1>   0.1670 
 18 N       -4.1140    -4.7230    -1.5390 N.ar  1 <1>  -0.6200 
 19 C       -4.8890    -6.9400    -1.0450 C.ar  1 <1>   0.1600 
 20 C       -3.0450    -5.3740    -1.9810 C.ar  1 <1>   0.1600 
 21 N       -3.8100    -7.5800    -1.4550 N.ar  1 <1>  -0.6200 
 22 C       -2.8970    -6.7550    -1.9370 C.ar  1 <1>   0.1600 
 23 H       -1.0420    -0.0120    -2.3630 H     1 <1>   0.1500 
 24 H       -4.1750     0.7370     1.3860 H     1 <1>   0.1500 
 25 H       -3.6730    -1.5560     2.1770 H     1 <1>   0.0800 
 26 H       -2.4840    -2.5370     1.3540 H     1 <1>   0.0800 
 27 H       -1.9950     2.2540    -1.9410 H     1 <1>   0.1500 
 28 H       -4.0840    -3.0190    -0.3610 H     1 <1>   0.4500 
 29 H       -5.7340    -0.9960     0.8480 H     1 <1>   0.0800 
 30 H       -5.7900    -1.7240    -0.7490 H     1 <1>   0.0800 
 31 H       -4.1300    -4.7400     1.0550 H     1 <1>   0.0800 
 32 H       -4.8140    -3.7600     2.3410 H     1 <1>   0.0800 
 33 H       -7.7150    -2.7590     0.1140 H     1 <1>   0.0800 
 34 H       -6.7430    -4.8630     1.5240 H     1 <1>   0.0800 
 35 H       -6.6070    -2.6740     2.7340 H     1 <1>   0.4000 
 36 H       -6.6270    -4.1980    -1.3390 H     1 <1>   0.0800 
 37 H       -7.1120    -5.6520    -0.5630 H     1 <1>   0.0800 
 38 H       -5.6900    -7.5480    -0.6610 H     1 <1>   0.1500 
 39 H       -2.2430    -4.7930    -2.4020 H     1 <1>   0.1500 
 40 H       -1.9900    -7.1930    -2.3150 H     1 <1>   0.1500 
@<TRIPOS>BOND
  1   1   2  1   
  2   2   3  ar  
  3   2   4  ar  
  4   3   5  ar  
  5   3   6  1   
  6   4   7  ar  
  7   4  23  1   
  8   5   8  ar  
  9   5  24  1   
 10   6   9  1   
 11   6  25  1   
 12   6  26  1   
 13   7   8  ar  
 14   7  27  1   
 15   8  10  1   
 16   9  11  1   
 17   9  12  1   
 18   9  28  1   
 19  11  13  1   
 20  11  29  1   
 21  11  30  1   
 22  12  14  1   
 23  12  31  1   
 24  12  32  1   
 25  13  14  1   
 26  13  15  1   
 27  13  33  1   
 28  14  16  1   
 29  14  34  1   
 30  15  35  1   
 31  16  17  1   
 32  16  36  1   
 33  16  37  1   
 34  17  18  ar  
 35  17  19  ar  
 36  18  20  ar  
 37  19  21  ar  
 38  19  38  1   
 39  20  22  ar  
 40  20  39  1   
 41  21  22  ar  
 42  22  40  1   
@<TRIPOS>SUBSTRUCTURE
  1 ****   9 GROUP 4 **** **** 0

# MOE 2024.06 (io_trps.svl 2023.06)
