@<TRIPOS>MOLECULE
NONAME
48 51 1 0 0 
SMALL
USER_CHARGES


@<TRIPOS>ATOM
  1 S        1.7260    -0.0900     1.2990 S.3   1 <1>  -0.3320 
  2 C        1.2160    -1.7050     0.6780 C.ar  1 <1>   0.1020 
  3 C        2.0430     1.0040    -0.1570 C.3   1 <1>   0.1500 
  4 C        1.1160    -2.7220     1.6100 C.ar  1 <1>  -0.1500 
  5 C        0.9260    -1.9380    -0.6580 C.ar  1 <1>  -0.1500 
  6 C        3.3700     0.5970    -0.8000 C.3   1 <1>  -0.1600 
  7 C        2.1050     2.4460     0.3450 C.3   1 <1>  -0.1600 
  8 C        0.7310    -3.9930     1.2130 C.ar  1 <1>  -0.1430 
  9 C        0.5410    -3.2070    -1.0540 C.ar  1 <1>  -0.1500 
 10 C        3.7570     1.5900    -1.8970 C.3   1 <1>   0.1100 
 11 C        2.5280     3.3860    -0.7850 C.3   1 <1>   0.1100 
 12 C        0.4440    -4.2280    -0.1230 C.ar  1 <1>  -0.1500 
 13 C        0.6190    -5.1150     2.2280 C.3   1 <1>  -0.0970 
 14 N        3.8210     2.9500    -1.3420 N.3   1 <1>  -0.8100 
 15 C        4.3380     3.9100    -2.3470 C.3   1 <1>   0.2900 
 16 C        4.6050     5.3000    -1.7760 C.2   1 <1>   0.2980 
 17 O        5.4680     5.4410    -0.8120 O.3   1 <1>  -0.2800 
 18 N        4.0460     6.3810    -2.1590 N.2   1 <1>  -0.3380 
 19 C        5.3850     6.7330    -0.6080 C.2   1 <1>   0.4250 
 20 N        4.5540     7.3220    -1.3990 N.2   1 <1>  -0.3380 
 21 C        6.1850     7.3520     0.4230 C.ar  1 <1>   0.0530 
 22 C        6.9770     6.5930     1.2860 C.ar  1 <1>   0.1600 
 23 C        6.2030     8.7300     0.6080 C.ar  1 <1>  -0.1500 
 24 N        7.7430     7.0650     2.2580 N.ar  1 <1>  -0.6200 
 25 C        6.9920     9.2430     1.6140 C.ar  1 <1>  -0.1500 
 26 C        7.7340     8.3800     2.4000 C.ar  1 <1>   0.1600 
 27 H        1.2200     0.8920    -0.8390 H     1 <1>   0.0800 
 28 H        1.3410    -2.5120     2.6400 H     1 <1>   0.1500 
 29 H        0.9900    -1.1610    -1.3900 H     1 <1>   0.1500 
 30 H        3.2950    -0.3900    -1.2170 H     1 <1>   0.0800 
 31 H        4.1460     0.5860    -0.0540 H     1 <1>   0.0800 
 32 H        2.8190     2.5240     1.1460 H     1 <1>   0.0800 
 33 H        1.1430     2.7410     0.7210 H     1 <1>   0.0800 
 34 H        0.3130    -3.4030    -2.0880 H     1 <1>   0.1500 
 35 H        3.0370     1.5530    -2.6980 H     1 <1>   0.0800 
 36 H        4.7220     1.3150    -2.2910 H     1 <1>   0.0800 
 37 H        2.6140     4.3830    -0.3840 H     1 <1>   0.0800 
 38 H        1.7770     3.3970    -1.5580 H     1 <1>   0.0800 
 39 H        0.1410    -5.2100    -0.4430 H     1 <1>   0.1500 
 40 H        1.2260    -4.9080     3.0910 H     1 <1>   0.0800 
 41 H        0.9490    -6.0430     1.7960 H     1 <1>   0.0800 
 42 H       -0.4040    -5.2210     2.5410 H     1 <1>   0.0800 
 43 H        3.6360     3.9960    -3.1590 H     1 <1>   0.0800 
 44 H        5.2650     3.5380    -2.7450 H     1 <1>   0.0800 
 45 H        6.9770     5.5230     1.1660 H     1 <1>   0.1500 
 46 H        5.6150     9.3780    -0.0200 H     1 <1>   0.1500 
 47 H        7.0350    10.3030     1.7890 H     1 <1>   0.1500 
 48 H        8.3490     8.7890     3.1840 H     1 <1>   0.1500 
@<TRIPOS>BOND
  1   1   2  1   
  2   1   3  1   
  3   2   4  ar  
  4   2   5  ar  
  5   3   6  1   
  6   3   7  1   
  7   3  27  1   
  8   4   8  ar  
  9   4  28  1   
 10   5   9  ar  
 11   5  29  1   
 12   6  10  1   
 13   6  30  1   
 14   6  31  1   
 15   7  11  1   
 16   7  32  1   
 17   7  33  1   
 18   8  12  ar  
 19   8  13  1   
 20   9  12  ar  
 21   9  34  1   
 22  10  14  1   
 23  10  35  1   
 24  10  36  1   
 25  11  14  1   
 26  11  37  1   
 27  11  38  1   
 28  12  39  1   
 29  13  40  1   
 30  13  41  1   
 31  13  42  1   
 32  14  15  1   
 33  15  16  1   
 34  15  43  1   
 35  15  44  1   
 36  16  17  1   
 37  16  18  2   
 38  17  19  1   
 39  18  20  1   
 40  19  20  2   
 41  19  21  1   
 42  21  22  ar  
 43  21  23  ar  
 44  22  24  ar  
 45  22  45  1   
 46  23  25  ar  
 47  23  46  1   
 48  24  26  ar  
 49  25  26  ar  
 50  25  47  1   
 51  26  48  1   
@<TRIPOS>SUBSTRUCTURE
  1 ****  14 GROUP 4 **** **** 0

# MOE 2024.06 (io_trps.svl 2023.06)
