@<TRIPOS>MOLECULE
NONAME
43 46 1 0 0 
SMALL
USER_CHARGES


@<TRIPOS>ATOM
  1 O        0.2230     1.5330    -1.4290 O.2   1 <1>  -0.5700 
  2 C       -0.1390     2.6860    -1.4820 C.2   1 <1>   0.5690 
  3 N       -0.7630     3.3350    -0.4490 N.am  1 <1>  -0.5090 
  4 C        0.1240     3.4640    -2.7650 C.3   1 <1>   0.1810 
  5 C       -1.1990     4.7630    -0.5890 C.3   1 <1>   0.3640 
  6 C       -0.8010     2.7660     0.9220 C.3   1 <1>   0.0490 
  7 O        0.4340     4.8030    -2.4800 O.3   1 <1>  -0.5600 
  8 C       -2.7240     4.8360    -0.6730 C.ar  1 <1>  -0.1440 
  9 C       -0.5960     5.5170    -1.8120 C.3   1 <1>   0.2610 
 10 C       -1.4620     1.4400     1.1310 C.3   1 <1>  -0.2000 
 11 C       -2.0890     2.6780     1.6850 C.3   1 <1>  -0.2000 
 12 C       -3.3990     5.8490    -0.0040 C.ar  1 <1>   0.1600 
 13 C       -3.4650     3.9230    -1.4040 C.ar  1 <1>  -0.1500 
 14 C       -0.0870     6.8940    -1.3710 C.2   1 <1>   0.5690 
 15 N       -4.7120     6.0150    -0.0040 N.ar  1 <1>  -0.6200 
 16 C       -4.8340     4.0850    -1.4140 C.ar  1 <1>  -0.1500 
 17 O       -0.7740     7.5820    -0.6540 O.2   1 <1>  -0.5700 
 18 N        1.1370     7.3140    -1.7770 N.am  1 <1>  -0.7300 
 19 C       -5.3980     5.1310    -0.7070 C.ar  1 <1>   0.1600 
 20 C        1.7870     8.5790    -1.3660 C.3   1 <1>   0.3210 
 21 C        2.7450     8.3220    -0.2170 C.2   1 <1>   0.1080 
 22 N        4.0280     8.3120    -0.3230 N.2   1 <1>  -0.4100 
 23 C        2.3570     8.0590     1.0950 C.2   1 <1>  -0.1500 
 24 O        4.4880     8.0540     0.8680 O.3   1 <1>  -0.0190 
 25 C        3.5240     7.8980     1.7350 C.2   1 <1>  -0.0100 
 26 H       -0.7370     3.4300    -3.4070 H     1 <1>   0.0800 
 27 H        0.9640     3.0330    -3.2780 H     1 <1>   0.0800 
 28 H       -0.8890     5.2710     0.3090 H     1 <1>   0.0800 
 29 H        0.1080     2.9580     1.4680 H     1 <1>   0.1000 
 30 H       -1.3730     5.6870    -2.5360 H     1 <1>   0.0800 
 31 H       -1.9160     0.9560     0.2850 H     1 <1>   0.1000 
 32 H       -1.0080     0.7410     1.8120 H     1 <1>   0.1000 
 33 H       -2.0700     2.8150     2.7520 H     1 <1>   0.1000 
 34 H       -3.0210     2.9890     1.2510 H     1 <1>   0.1000 
 35 H       -2.8330     6.5700     0.5640 H     1 <1>   0.1500 
 36 H       -3.0090     3.1090    -1.9400 H     1 <1>   0.1500 
 37 H       -5.4610     3.4050    -1.9610 H     1 <1>   0.1500 
 38 H        1.7310     6.6450    -2.2790 H     1 <1>   0.3700 
 39 H       -6.4690     5.2470    -0.7200 H     1 <1>   0.1500 
 40 H        2.3250     8.9920    -2.2010 H     1 <1>   0.0800 
 41 H        1.0420     9.2930    -1.0570 H     1 <1>   0.0800 
 42 H        1.3480     8.0060     1.4620 H     1 <1>   0.1500 
 43 H        3.7610     7.6790     2.7600 H     1 <1>   0.1500 
@<TRIPOS>BOND
  1   1   2  2   
  2   2   3  am  
  3   2   4  1   
  4   3   5  1   
  5   3   6  1   
  6   4   7  1   
  7   4  26  1   
  8   4  27  1   
  9   5   8  1   
 10   5   9  1   
 11   5  28  1   
 12   6  10  1   
 13   6  11  1   
 14   6  29  1   
 15   7   9  1   
 16   8  12  ar  
 17   8  13  ar  
 18   9  14  1   
 19   9  30  1   
 20  10  11  1   
 21  10  31  1   
 22  10  32  1   
 23  11  33  1   
 24  11  34  1   
 25  12  15  ar  
 26  12  35  1   
 27  13  16  ar  
 28  13  36  1   
 29  14  17  2   
 30  14  18  am  
 31  15  19  ar  
 32  16  19  ar  
 33  16  37  1   
 34  18  20  1   
 35  18  38  1   
 36  19  39  1   
 37  20  21  1   
 38  20  40  1   
 39  20  41  1   
 40  21  22  2   
 41  21  23  1   
 42  22  24  1   
 43  23  25  2   
 44  23  42  1   
 45  24  25  1   
 46  25  43  1   
@<TRIPOS>SUBSTRUCTURE
  1 ****   5 GROUP 4 **** **** 0

# MOE 2024.06 (io_trps.svl 2023.06)
