@<TRIPOS>MOLECULE
NONAME
52 54 1 0 0 
SMALL
USER_CHARGES


@<TRIPOS>ATOM
  1 O       -1.2250    -0.0970     0.4680 O.2   1 <1>  -0.5700 
  2 C       -1.6080     1.0100     0.1330 C.2   1 <1>   0.7160 
  3 N       -2.9510     1.1930    -0.1390 N.am  1 <1>  -0.6600 
  4 C       -0.6460     2.0810     0.0250 C.2   1 <1>  -0.0860 
  5 C       -3.7900    -0.0250    -0.3890 C.3   1 <1>   0.1400 
  6 C       -3.5920     2.5410    -0.0320 C.3   1 <1>   0.1400 
  7 C       -0.6120     3.0740    -0.9580 C.2   1 <1>   0.1390 
  8 C        0.4360     2.3770     0.7980 C.2   1 <1>  -0.3020 
  9 C       -5.0960     0.2270    -1.1530 C.3   1 <1>   0.1400 
 10 C       -4.8620     2.5540     0.8240 C.3   1 <1>  -0.1600 
 11 N        0.3640     3.9110    -0.8040 N.2   1 <1>  -0.7070 
 12 N        1.0190     3.4700     0.2860 N.pl3 1 <1>   0.3000 
 13 N       -6.1630     0.7210    -0.2340 N.am  1 <1>  -0.6600 
 14 C       -6.1260     2.1790     0.0470 C.3   1 <1>   0.1400 
 15 C       -7.1160    -0.0810     0.3490 C.2   1 <1>   0.5690 
 16 O       -7.9920     0.3790     1.0440 O.2   1 <1>  -0.5700 
 17 C       -7.0930    -1.5890     0.1280 C.3   1 <1>  -0.0990 
 18 C       -8.0000    -2.3760     1.0850 C.3   1 <1>  -0.0170 
 19 C       -7.8970    -3.8710     0.7980 C.ar  1 <1>  -0.1430 
 20 C       -8.7680    -4.5350    -0.0630 C.ar  1 <1>  -0.1430 
 21 C       -6.8850    -4.5850     1.4210 C.ar  1 <1>  -0.1500 
 22 C       -8.6070    -5.8960    -0.2790 C.ar  1 <1>  -0.1500 
 23 C       -9.9040    -3.8160    -0.7770 C.3   1 <1>  -0.0970 
 24 C       -6.7320    -5.9410     1.1980 C.ar  1 <1>  -0.1500 
 25 C       -7.5940    -6.6050     0.3430 C.ar  1 <1>  -0.1430 
 26 C       -7.4370    -8.0940     0.0940 C.3   1 <1>  -0.0970 
 27 H       -4.0090    -0.5020     0.5510 H     1 <1>   0.0800 
 28 H       -3.2030    -0.7180    -0.9680 H     1 <1>   0.0800 
 29 H       -3.8070     2.9150    -1.0180 H     1 <1>   0.0800 
 30 H       -2.8990     3.2250     0.4280 H     1 <1>   0.0800 
 31 H       -1.3210     3.1410    -1.7660 H     1 <1>   0.1500 
 32 H        0.7990     1.8560     1.6650 H     1 <1>   0.1500 
 33 H       -5.4120    -0.6940    -1.6100 H     1 <1>   0.0800 
 34 H       -4.9310     0.9310    -1.9490 H     1 <1>   0.0800 
 35 H       -5.0020     3.5620     1.1720 H     1 <1>   0.0800 
 36 H       -4.7490     1.9330     1.6950 H     1 <1>   0.0800 
 37 H        1.8610     3.9390     0.6440 H     1 <1>   0.2700 
 38 H       -6.1740     2.7240    -0.8800 H     1 <1>   0.0800 
 39 H       -6.9850     2.4660     0.6300 H     1 <1>   0.0800 
 40 H       -6.0890    -1.9450     0.2560 H     1 <1>   0.0800 
 41 H       -7.3970    -1.7870    -0.8830 H     1 <1>   0.0800 
 42 H       -9.0170    -2.0390     0.9930 H     1 <1>   0.0800 
 43 H       -7.7000    -2.1830     2.1000 H     1 <1>   0.0800 
 44 H       -6.2060    -4.0860     2.0900 H     1 <1>   0.1500 
 45 H       -9.2780    -6.4150    -0.9390 H     1 <1>   0.1500 
 46 H       -9.5290    -2.9630    -1.3130 H     1 <1>   0.0800 
 47 H      -10.6350    -3.4870    -0.0600 H     1 <1>   0.0800 
 48 H      -10.3910    -4.4650    -1.4810 H     1 <1>   0.0800 
 49 H       -5.9410    -6.4750     1.6940 H     1 <1>   0.1500 
 50 H       -7.6780    -8.3290    -0.9270 H     1 <1>   0.0800 
 51 H       -8.0980    -8.6410     0.7420 H     1 <1>   0.0800 
 52 H       -6.4260    -8.4060     0.2850 H     1 <1>   0.0800 
@<TRIPOS>BOND
  1   1   2  2   
  2   2   3  am  
  3   2   4  1   
  4   3   5  1   
  5   3   6  1   
  6   4   7  1   
  7   4   8  2   
  8   5   9  1   
  9   5  27  1   
 10   5  28  1   
 11   6  10  1   
 12   6  29  1   
 13   6  30  1   
 14   7  11  2   
 15   7  31  1   
 16   8  12  1   
 17   8  32  1   
 18   9  13  1   
 19   9  33  1   
 20   9  34  1   
 21  10  14  1   
 22  10  35  1   
 23  10  36  1   
 24  11  12  1   
 25  12  37  1   
 26  13  14  1   
 27  13  15  am  
 28  14  38  1   
 29  14  39  1   
 30  15  16  2   
 31  15  17  1   
 32  17  18  1   
 33  17  40  1   
 34  17  41  1   
 35  18  19  1   
 36  18  42  1   
 37  18  43  1   
 38  19  20  ar  
 39  19  21  ar  
 40  20  22  ar  
 41  20  23  1   
 42  21  24  ar  
 43  21  44  1   
 44  22  25  ar  
 45  22  45  1   
 46  23  46  1   
 47  23  47  1   
 48  23  48  1   
 49  24  25  ar  
 50  24  49  1   
 51  25  26  1   
 52  26  50  1   
 53  26  51  1   
 54  26  52  1   
@<TRIPOS>SUBSTRUCTURE
  1 ****   5 GROUP 4 **** **** 0

# MOE 2024.06 (io_trps.svl 2023.06)
