@<TRIPOS>MOLECULE
NONAME
47 49 1 0 0 
SMALL
USER_CHARGES


@<TRIPOS>ATOM
  1 O        3.3110    -3.1830     1.8580 O.2   1 <1>  -0.5700 
  2 C        2.2930    -2.9040     1.2460 C.2   1 <1>   0.5440 
  3 N        2.4180    -2.0600     0.1590 N.am  1 <1>  -0.6600 
  4 C        1.0190    -3.4570     1.7040 C.ar  1 <1>   0.3960 
  5 C        1.3040    -1.4720    -0.6180 C.3   1 <1>   0.1400 
  6 C        3.7200    -1.5170    -0.2890 C.3   1 <1>   0.1400 
  7 N        0.0550    -3.7940     0.8300 N.ar  1 <1>  -0.6200 
  8 C        0.8460    -3.6410     3.0770 C.ar  1 <1>   0.1600 
  9 C        1.9360    -0.3210    -1.3920 C.3   1 <1>  -0.1600 
 10 C        3.4000    -0.7210    -1.5490 C.3   1 <1>  -0.1600 
 11 C       -1.0390    -4.2920     1.3810 C.ar  1 <1>   0.4100 
 12 N       -0.2370    -4.1340     3.6590 N.ar  1 <1>  -0.6200 
 13 N       -2.0480    -4.6710     0.4980 N.pl3 1 <1>  -0.8380 
 14 C       -1.1600    -4.4470     2.7740 C.ar  1 <1>   0.1600 
 15 C       -1.7860    -4.9690    -0.9500 C.3   1 <1>   0.3890 
 16 C       -3.4360    -5.0010     0.9370 C.3   1 <1>   0.1290 
 17 C       -1.9380    -6.4580    -1.2210 C.2   1 <1>   0.0070 
 18 N       -2.9380    -6.9740    -1.8550 N.2   1 <1>  -0.3380 
 19 N       -1.0660    -7.3950    -0.8280 N.pl3 1 <1>   0.0480 
 20 N       -2.7430    -8.2920    -1.8880 N.2   1 <1>  -0.3380 
 21 C       -1.6340    -8.5180    -1.2740 C.2   1 <1>   0.0360 
 22 C        0.2070    -7.2500    -0.0750 C.3   1 <1>   0.1760 
 23 C        1.3540    -7.9630    -0.8010 C.3   1 <1>  -0.2400 
 24 C        0.0410    -7.7890     1.3500 C.3   1 <1>  -0.2400 
 25 H        0.5150    -1.1280     0.0290 H     1 <1>   0.0800 
 26 H        0.9200    -2.2140    -1.2970 H     1 <1>   0.0800 
 27 H        4.4190    -2.3130    -0.4850 H     1 <1>   0.0800 
 28 H        4.1140    -0.8730     0.4790 H     1 <1>   0.0800 
 29 H        1.6580    -3.3610     3.7280 H     1 <1>   0.1500 
 30 H        1.8640     0.5770    -0.8030 H     1 <1>   0.0800 
 31 H        1.4490    -0.1590    -2.3370 H     1 <1>   0.0800 
 32 H        3.5140    -1.3640    -2.4050 H     1 <1>   0.0800 
 33 H        4.0500     0.1290    -1.6600 H     1 <1>   0.0800 
 34 H       -2.0700    -4.8630     3.1600 H     1 <1>   0.1500 
 35 H       -0.8060    -4.6520    -1.2560 H     1 <1>   0.0800 
 36 H       -2.4960    -4.4290    -1.5500 H     1 <1>   0.0800 
 37 H       -3.7350    -4.3710     1.7560 H     1 <1>   0.0800 
 38 H       -3.4880    -6.0340     1.2390 H     1 <1>   0.0800 
 39 H       -4.1290    -4.8480     0.1270 H     1 <1>   0.0800 
 40 H       -1.2030    -9.4910    -1.1300 H     1 <1>   0.1500 
 41 H        0.4510    -6.2060    -0.0210 H     1 <1>   0.0800 
 42 H        1.1880    -9.0250    -0.8410 H     1 <1>   0.0800 
 43 H        2.2790    -7.7860    -0.2830 H     1 <1>   0.0800 
 44 H        1.4530    -7.5810    -1.8020 H     1 <1>   0.0800 
 45 H       -0.1590    -8.8460     1.3410 H     1 <1>   0.0800 
 46 H       -0.7680    -7.2820     1.8450 H     1 <1>   0.0800 
 47 H        0.9400    -7.6150     1.9150 H     1 <1>   0.0800 
@<TRIPOS>BOND
  1   1   2  2   
  2   2   3  am  
  3   2   4  1   
  4   3   5  1   
  5   3   6  1   
  6   4   7  ar  
  7   4   8  ar  
  8   5   9  1   
  9   5  25  1   
 10   5  26  1   
 11   6  10  1   
 12   6  27  1   
 13   6  28  1   
 14   7  11  ar  
 15   8  12  ar  
 16   8  29  1   
 17   9  10  1   
 18   9  30  1   
 19   9  31  1   
 20  10  32  1   
 21  10  33  1   
 22  11  13  1   
 23  11  14  ar  
 24  12  14  ar  
 25  13  15  1   
 26  13  16  1   
 27  14  34  1   
 28  15  17  1   
 29  15  35  1   
 30  15  36  1   
 31  16  37  1   
 32  16  38  1   
 33  16  39  1   
 34  17  18  2   
 35  17  19  1   
 36  18  20  1   
 37  19  21  1   
 38  19  22  1   
 39  20  21  2   
 40  21  40  1   
 41  22  23  1   
 42  22  24  1   
 43  22  41  1   
 44  23  42  1   
 45  23  43  1   
 46  23  44  1   
 47  24  45  1   
 48  24  46  1   
 49  24  47  1   
@<TRIPOS>SUBSTRUCTURE
  1 ****   7 GROUP 4 **** **** 0

# MOE 2024.06 (io_trps.svl 2023.06)
