@<TRIPOS>MOLECULE
NONAME
44 46 1 0 0 
SMALL
USER_CHARGES


@<TRIPOS>ATOM
  1 O        0.7980     0.5510     0.2840 O.3   1 <1>  -0.6800 
  2 C        1.7460    -0.0460    -0.5370 C.3   1 <1>   0.2000 
  3 C        2.3120    -1.2950     0.1560 C.3   1 <1>  -0.0800 
  4 C        2.9460     0.8920    -0.6480 C.3   1 <1>   0.1100 
  5 C        3.7400    -0.9130     0.5780 C.3   1 <1>   0.1100 
  6 C        2.2910    -2.5320    -0.7590 C.3   1 <1>   0.0210 
  7 N        3.7810     0.5460     0.5080 N.3   1 <1>  -0.8100 
  8 C        3.0190    -3.7110    -0.1380 C.2   1 <1>   0.1080 
  9 C        5.1290     1.1540     0.5310 C.3   1 <1>   0.2540 
 10 N        2.8610    -4.0700     1.0980 N.2   1 <1>  -0.7070 
 11 C        3.9280    -4.5230    -0.8070 C.2   1 <1>  -0.1500 
 12 C        5.0590     2.5920     1.0660 C.cat 1 <1>   0.6560 
 13 N        3.6670    -5.1370     1.2500 N.pl3 1 <1>   0.3000 
 14 C        4.3280    -5.4290     0.1100 C.2   1 <1>  -0.3320 
 15 N        3.9850     3.0990     1.6210 N.pl3 1 <1>  -0.7000 
 16 N        5.9900     3.5310     1.0700 N.pl3 1 <1>  -0.4570 
 17 C        5.3110    -6.5750    -0.0350 C.3   1 <1>  -0.0600 
 18 C        4.2920     4.3720     1.9620 C.2   1 <1>   0.5030 
 19 N        5.5030     4.6680     1.6410 N.2   1 <1>  -0.2600 
 20 C        7.3810     3.4700     0.5610 C.3   1 <1>   0.3540 
 21 C        7.4010     3.8510    -0.9170 C.3   1 <1>  -0.2400 
 22 H        0.1110    -0.0980     0.5320 H     1 <1>   0.4000 
 23 H        1.2920    -0.2450    -1.4930 H     1 <1>   0.0800 
 24 H        1.7470    -1.5220     1.0440 H     1 <1>   0.0800 
 25 H        2.6380     1.9240    -0.6400 H     1 <1>   0.0800 
 26 H        3.4780     0.6800    -1.5600 H     1 <1>   0.0800 
 27 H        4.4600    -1.3340    -0.1050 H     1 <1>   0.0800 
 28 H        3.9510    -1.2630     1.5760 H     1 <1>   0.0800 
 29 H        2.7500    -2.2990    -1.7030 H     1 <1>   0.0800 
 30 H        1.2730    -2.8240    -0.9450 H     1 <1>   0.0800 
 31 H        5.7600     0.5860     1.1920 H     1 <1>   0.0800 
 32 H        5.5600     1.1390    -0.4540 H     1 <1>   0.0800 
 33 H        4.2280    -4.4320    -1.8360 H     1 <1>   0.1500 
 34 H        3.7410    -5.6450     2.1400 H     1 <1>   0.2700 
 35 H        3.1170     2.5580     1.7260 H     1 <1>   0.4500 
 36 H        5.7040    -6.6010    -1.0360 H     1 <1>   0.0800 
 37 H        4.8220    -7.5130     0.1640 H     1 <1>   0.0800 
 38 H        6.1300    -6.4540     0.6510 H     1 <1>   0.0800 
 39 H        3.5950     5.0430     2.4410 H     1 <1>   0.1500 
 40 H        7.9930     4.1570     1.1230 H     1 <1>   0.0800 
 41 H        7.7780     2.4790     0.6960 H     1 <1>   0.0800 
 42 H        7.0220     4.8500    -1.0480 H     1 <1>   0.0800 
 43 H        6.8120     3.1660    -1.5000 H     1 <1>   0.0800 
 44 H        8.4120     3.8250    -1.2830 H     1 <1>   0.0800 
@<TRIPOS>BOND
  1   1   2  1   
  2   1  22  1   
  3   2   3  1   
  4   2   4  1   
  5   2  23  1   
  6   3   5  1   
  7   3   6  1   
  8   3  24  1   
  9   4   7  1   
 10   4  25  1   
 11   4  26  1   
 12   5   7  1   
 13   5  27  1   
 14   5  28  1   
 15   6   8  1   
 16   6  29  1   
 17   6  30  1   
 18   7   9  1   
 19   8  10  2   
 20   8  11  1   
 21   9  12  1   
 22   9  31  1   
 23   9  32  1   
 24  10  13  1   
 25  11  14  2   
 26  11  33  1   
 27  12  15  ar  
 28  12  16  ar  
 29  13  14  1   
 30  13  34  1   
 31  14  17  1   
 32  15  18  1   
 33  15  35  1   
 34  16  19  1   
 35  16  20  1   
 36  17  36  1   
 37  17  37  1   
 38  17  38  1   
 39  18  19  2   
 40  18  39  1   
 41  20  21  1   
 42  20  40  1   
 43  20  41  1   
 44  21  42  1   
 45  21  43  1   
 46  21  44  1   
@<TRIPOS>SUBSTRUCTURE
  1 ****   5 GROUP 4 **** **** 0

# MOE 2024.06 (io_trps.svl 2023.06)
