@<TRIPOS>MOLECULE
NONAME
22 23 1 0 0 
SMALL
USER_CHARGES


@<TRIPOS>ATOM
  1 N       -0.9530    -4.2920     0.3630 N.2   1 <1>  -0.7070 
  2 N        0.2890    -4.4040    -0.1290 N.pl3 1 <1>   0.3140 
  3 C       -1.3010    -5.4930     0.6930 C.2   1 <1>   0.1390 
  4 C        0.7040    -5.6880    -0.1110 C.2   1 <1>  -0.3020 
  5 C        1.0330    -3.2280    -0.5980 C.3   1 <1>   0.0160 
  6 C       -0.3040    -6.4210     0.4130 C.2   1 <1>  -0.1620 
  7 C       -0.4040    -7.9140     0.6650 C.3   1 <1>   0.1620 
  8 C        0.7370    -8.7550     0.0520 C.3   1 <1>   0.4720 
  9 C       -1.3210    -8.6370    -0.3450 C.3   1 <1>   0.4720 
 10 N       -0.3010    -9.7380    -0.4080 N.4   1 <1>  -0.8440 
 11 H       -2.2600    -5.7160     1.1340 H     1 <1>   0.1500 
 12 H        1.6770    -5.9740    -0.4660 H     1 <1>   0.1500 
 13 H        0.4740    -2.7540    -1.3840 H     1 <1>   0.0800 
 14 H        1.9970    -3.5270    -0.9640 H     1 <1>   0.0800 
 15 H        1.1490    -2.5420     0.2200 H     1 <1>   0.0800 
 16 H       -0.6170    -8.1720     1.6880 H     1 <1>   0.0000 
 17 H        1.4130    -9.1810     0.7710 H     1 <1>   0.0000 
 18 H        1.2140    -8.2790    -0.7870 H     1 <1>   0.0000 
 19 H       -1.3960    -8.1270    -1.2890 H     1 <1>   0.0000 
 20 H       -2.2580    -8.9700     0.0620 H     1 <1>   0.0000 
 21 H       -0.4750   -10.4820     0.2760 H     1 <1>   0.4500 
 22 H       -0.1390   -10.0900    -1.3580 H     1 <1>   0.4500 
@<TRIPOS>BOND
  1   1   2  1   
  2   1   3  2   
  3   2   4  1   
  4   2   5  1   
  5   3   6  1   
  6   3  11  1   
  7   4   6  2   
  8   4  12  1   
  9   5  13  1   
 10   5  14  1   
 11   5  15  1   
 12   6   7  1   
 13   7   8  1   
 14   7   9  1   
 15   7  16  1   
 16   8  10  1   
 17   8  17  1   
 18   8  18  1   
 19   9  10  1   
 20   9  19  1   
 21   9  20  1   
 22  10  21  1   
 23  10  22  1   
@<TRIPOS>SUBSTRUCTURE
  1 ****   6 GROUP 4 **** **** 0

# MOE 2024.06 (io_trps.svl 2023.06)
