@<TRIPOS>MOLECULE
NONAME
40 41 1 0 0 
SMALL
USER_CHARGES


@<TRIPOS>ATOM
  1 F        1.1420     0.5630    -1.5290 F     1 <1>  -0.1900 
  2 C        1.9470     1.2680    -0.7620 C.ar  1 <1>   0.1900 
  3 C        3.2250     0.8270    -0.4240 C.ar  1 <1>   0.4100 
  4 C        1.5200     2.4770    -0.2910 C.ar  1 <1>   0.1600 
  5 N        4.0010     1.5690     0.3350 N.ar  1 <1>  -0.6200 
  6 N        3.8150    -0.3550    -0.8140 N.pl3 1 <1>  -0.8690 
  7 N        2.2920     3.2280     0.4720 N.ar  1 <1>  -0.6200 
  8 C        3.4870     2.7220     0.7580 C.ar  1 <1>   0.7200 
  9 C        3.0610    -1.5800    -1.1860 C.3   1 <1>   0.1290 
 10 N        4.3010     3.5080     1.5450 N.pl3 1 <1>  -0.8380 
 11 C        5.5020     2.9130     2.2050 C.3   1 <1>   0.2090 
 12 C        4.5010     4.9300     1.1380 C.3   1 <1>   0.2090 
 13 C        6.7190     3.0050     1.2600 C.3   1 <1>   0.3430 
 14 C        5.7210     5.0390     0.1980 C.3   1 <1>   0.3430 
 15 N        6.9700     4.4150     0.7820 N.4   1 <1>  -0.9590 
 16 C        8.0800     4.4680    -0.1910 C.3   1 <1>   0.4810 
 17 C        8.5920     5.9000    -0.3130 C.2   1 <1>  -0.2760 
 18 C        8.3260     6.9350     0.4990 C.2   1 <1>  -0.3000 
 19 C        9.5130     6.0740    -1.5130 C.3   1 <1>  -0.1020 
 20 H        0.5370     2.8360    -0.5410 H     1 <1>   0.1500 
 21 H        4.6970    -0.5360    -0.3290 H     1 <1>   0.4000 
 22 H        2.2370    -1.7290    -0.5080 H     1 <1>   0.0800 
 23 H        3.7100    -2.4370    -1.1410 H     1 <1>   0.0800 
 24 H        2.6810    -1.4840    -2.1890 H     1 <1>   0.0800 
 25 H        5.3140     1.8830     2.4620 H     1 <1>   0.0800 
 26 H        5.7040     3.4390     3.1210 H     1 <1>   0.0800 
 27 H        4.6540     5.5350     2.0150 H     1 <1>   0.0800 
 28 H        3.6290     5.3120     0.6340 H     1 <1>   0.0800 
 29 H        6.5240     2.3650     0.4140 H     1 <1>   0.0800 
 30 H        7.5900     2.6260     1.7690 H     1 <1>   0.0800 
 31 H        5.9010     6.0770    -0.0290 H     1 <1>   0.0800 
 32 H        5.4700     4.5420    -0.7240 H     1 <1>   0.0800 
 33 H        7.2680     4.9860     1.5800 H     1 <1>   0.4500 
 34 H        7.7360     4.1180    -1.1510 H     1 <1>   0.0800 
 35 H        8.8900     3.8340     0.1310 H     1 <1>   0.0800 
 36 H        8.7340     7.9230     0.3470 H     1 <1>   0.1500 
 37 H        7.7050     6.9250     1.3760 H     1 <1>   0.1500 
 38 H       10.3700     5.4280    -1.4290 H     1 <1>   0.0800 
 39 H        9.8700     7.0880    -1.5800 H     1 <1>   0.0800 
 40 H        8.9940     5.8450    -2.4270 H     1 <1>   0.0800 
@<TRIPOS>BOND
  1   1   2  1   
  2   2   3  ar  
  3   2   4  ar  
  4   3   5  ar  
  5   3   6  1   
  6   4   7  ar  
  7   4  20  1   
  8   5   8  ar  
  9   6   9  1   
 10   6  21  1   
 11   7   8  ar  
 12   8  10  1   
 13   9  22  1   
 14   9  23  1   
 15   9  24  1   
 16  10  11  1   
 17  10  12  1   
 18  11  13  1   
 19  11  25  1   
 20  11  26  1   
 21  12  14  1   
 22  12  27  1   
 23  12  28  1   
 24  13  15  1   
 25  13  29  1   
 26  13  30  1   
 27  14  15  1   
 28  14  31  1   
 29  14  32  1   
 30  15  16  1   
 31  15  33  1   
 32  16  17  1   
 33  16  34  1   
 34  16  35  1   
 35  17  18  2   
 36  17  19  1   
 37  18  36  1   
 38  18  37  1   
 39  19  38  1   
 40  19  39  1   
 41  19  40  1   
@<TRIPOS>SUBSTRUCTURE
  1 ****   8 GROUP 4 **** **** 0

# MOE 2024.06 (io_trps.svl 2023.06)
