@<TRIPOS>MOLECULE
NONAME
51 53 1 0 0 
SMALL
USER_CHARGES


@<TRIPOS>ATOM
  1 CL      -5.8980    -0.2950     1.0350 Cl    1 <1>  -0.1770 
  2 C       -4.6180    -1.3840     0.5640 C.ar  1 <1>   0.1770 
  3 C       -4.8940    -2.7310     0.4260 C.ar  1 <1>  -0.1500 
  4 C       -3.3510    -0.8820     0.3380 C.ar  1 <1>  -0.1500 
  5 C       -3.8810    -3.6020     0.0540 C.ar  1 <1>  -0.1440 
  6 C       -2.3390    -1.7510    -0.0340 C.ar  1 <1>  -0.1500 
  7 C       -2.6060    -3.1040    -0.1750 C.ar  1 <1>  -0.1500 
  8 C       -4.1600    -5.0880    -0.1000 C.3   1 <1>  -0.0160 
  9 C       -3.7650    -5.8380     1.1720 C.3   1 <1>   0.1400 
 10 N       -4.0950    -7.2720     1.0270 N.am  1 <1>  -0.7300 
 11 C       -3.2360    -8.2570     0.6580 C.2   1 <1>   0.5690 
 12 O       -2.0720    -8.0380     0.4200 O.2   1 <1>  -0.5700 
 13 C       -3.7800    -9.6840     0.5310 C.3   1 <1>   0.1710 
 14 N       -5.2270    -9.7620     0.1670 N.3   1 <1>  -0.8100 
 15 C       -5.4850    -9.2820    -1.2020 C.3   1 <1>   0.1100 
 16 C       -5.7450   -11.1440     0.2120 C.3   1 <1>   0.1100 
 17 C       -6.8370    -9.8880    -1.5540 C.3   1 <1>   0.2000 
 18 C       -6.7000   -11.2990    -0.9830 C.3   1 <1>  -0.0800 
 19 O       -7.7920    -9.1880    -0.8380 O.3   1 <1>  -0.6800 
 20 C       -8.0210   -12.0120    -0.6420 C.3   1 <1>   0.0210 
 21 C       -7.7690   -13.4120    -0.1120 C.2   1 <1>   0.1080 
 22 N       -7.1600   -14.3300    -0.7980 N.2   1 <1>  -0.7070 
 23 C       -8.1520   -13.8640     1.1460 C.2   1 <1>  -0.1500 
 24 N       -7.1460   -15.4060     0.0120 N.pl3 1 <1>   0.3000 
 25 C       -7.7380   -15.1470     1.1970 C.2   1 <1>  -0.3320 
 26 C       -7.8770   -16.1590     2.3190 C.3   1 <1>  -0.0600 
 27 H       -5.8930    -3.0840     0.6110 H     1 <1>   0.1500 
 28 H       -3.1630     0.1700     0.4510 H     1 <1>   0.1500 
 29 H       -1.3460    -1.3770    -0.2150 H     1 <1>   0.1500 
 30 H       -1.8110    -3.7720    -0.4640 H     1 <1>   0.1500 
 31 H       -3.5950    -5.4750    -0.9300 H     1 <1>   0.0800 
 32 H       -5.2050    -5.2420    -0.3010 H     1 <1>   0.0800 
 33 H       -4.2890    -5.4330     2.0200 H     1 <1>   0.0800 
 34 H       -2.7070    -5.7260     1.3430 H     1 <1>   0.0800 
 35 H       -5.0760    -7.5500     1.1320 H     1 <1>   0.3700 
 36 H       -3.6340   -10.1670     1.4810 H     1 <1>   0.0800 
 37 H       -3.1910   -10.2100    -0.1990 H     1 <1>   0.0800 
 38 H       -5.5020    -8.2060    -1.2570 H     1 <1>   0.0800 
 39 H       -4.7370    -9.6620    -1.8780 H     1 <1>   0.0800 
 40 H       -4.9500   -11.8670     0.1310 H     1 <1>   0.0800 
 41 H       -6.2590   -11.2990     1.1450 H     1 <1>   0.0800 
 42 H       -7.0790    -9.8560    -2.6020 H     1 <1>   0.0800 
 43 H       -6.1890   -11.8960    -1.7190 H     1 <1>   0.0800 
 44 H       -7.4380    -9.1060     0.0730 H     1 <1>   0.4000 
 45 H       -8.6260   -12.0850    -1.5270 H     1 <1>   0.0800 
 46 H       -8.5720   -11.4540     0.0920 H     1 <1>   0.0800 
 47 H       -8.6680   -13.2910     1.8960 H     1 <1>   0.1500 
 48 H       -6.7310   -16.3010    -0.2750 H     1 <1>   0.2700 
 49 H       -8.3850   -15.7140     3.1570 H     1 <1>   0.0800 
 50 H       -6.9070   -16.4920     2.6440 H     1 <1>   0.0800 
 51 H       -8.4470   -17.0080     1.9860 H     1 <1>   0.0800 
@<TRIPOS>BOND
  1   1   2  1   
  2   2   3  ar  
  3   2   4  ar  
  4   3   5  ar  
  5   3  27  1   
  6   4   6  ar  
  7   4  28  1   
  8   5   7  ar  
  9   5   8  1   
 10   6   7  ar  
 11   6  29  1   
 12   7  30  1   
 13   8   9  1   
 14   8  31  1   
 15   8  32  1   
 16   9  10  1   
 17   9  33  1   
 18   9  34  1   
 19  10  11  am  
 20  10  35  1   
 21  11  12  2   
 22  11  13  1   
 23  13  14  1   
 24  13  36  1   
 25  13  37  1   
 26  14  15  1   
 27  14  16  1   
 28  15  17  1   
 29  15  38  1   
 30  15  39  1   
 31  16  18  1   
 32  16  40  1   
 33  16  41  1   
 34  17  18  1   
 35  17  19  1   
 36  17  42  1   
 37  18  20  1   
 38  18  43  1   
 39  19  44  1   
 40  20  21  1   
 41  20  45  1   
 42  20  46  1   
 43  21  22  2   
 44  21  23  1   
 45  22  24  1   
 46  23  25  2   
 47  23  47  1   
 48  24  25  1   
 49  24  48  1   
 50  25  26  1   
 51  26  49  1   
 52  26  50  1   
 53  26  51  1   
@<TRIPOS>SUBSTRUCTURE
  1 ****  14 GROUP 4 **** **** 0

# MOE 2024.06 (io_trps.svl 2023.06)
