@<TRIPOS>MOLECULE
NONAME
49 51 1 0 0 
SMALL
USER_CHARGES


@<TRIPOS>ATOM
  1 S        0.0160    -0.3040     0.2080 S.3   1 <1>  -0.0800 
  2 C       -1.0420    -1.0050    -0.9710 C.2   1 <1>   0.4420 
  3 C       -0.0910     1.1830    -0.6750 C.2   1 <1>   0.1980 
  4 N       -1.3720    -0.1650    -1.8840 N.2   1 <1>  -0.3380 
  5 N       -1.3680    -2.3320    -0.7830 N.am  1 <1>  -0.4940 
  6 N       -0.8280     1.0770    -1.7090 N.2   1 <1>  -0.3380 
  7 C        0.6930     2.3880    -0.1520 C.3   1 <1>   0.3800 
  8 C       -2.2070    -3.1500    -1.5010 C.2   1 <1>   0.5440 
  9 O        0.5260     2.4820     1.2360 O.3   1 <1>  -0.5600 
 10 C        0.2270     3.7060    -0.7810 C.3   1 <1>  -0.2400 
 11 O       -2.8920    -2.6910    -2.3900 O.2   1 <1>  -0.5700 
 12 C       -2.2880    -4.5550    -1.1650 C.ar  1 <1>   0.0860 
 13 C        1.5690     3.0860     1.9360 C.3   1 <1>   0.0400 
 14 C       -3.4820    -5.2610    -1.3240 C.ar  1 <1>  -0.1500 
 15 C       -1.1920    -5.2700    -0.6700 C.ar  1 <1>  -0.1500 
 16 C       -3.5870    -6.5960    -0.9890 C.ar  1 <1>  -0.1500 
 17 C       -1.2960    -6.6040    -0.3330 C.ar  1 <1>  -0.1500 
 18 C       -2.4940    -7.2920    -0.4810 C.ar  1 <1>   0.1000 
 19 N       -2.5780    -8.6310    -0.1330 N.pl3 1 <1>  -0.8380 
 20 C       -1.8000    -9.6360    -0.9150 C.3   1 <1>   0.2090 
 21 C       -3.7810    -9.1570     0.5770 C.3   1 <1>   0.2090 
 22 C       -1.4640   -10.8650    -0.0430 C.3   1 <1>   0.3430 
 23 C       -3.4120   -10.3880     1.4300 C.3   1 <1>   0.3430 
 24 N       -2.6810   -11.4490     0.6390 N.4   1 <1>  -0.9590 
 25 C       -2.3060   -12.6050     1.5080 C.3   1 <1>   0.2630 
 26 H       -0.9590    -2.7530     0.0450 H     1 <1>   0.3700 
 27 H        1.7360     2.2230    -0.3640 H     1 <1>   0.0800 
 28 H       -0.8060     3.8800    -0.5380 H     1 <1>   0.0800 
 29 H        0.3170     3.6490    -1.8500 H     1 <1>   0.0800 
 30 H        0.8220     4.5310    -0.4380 H     1 <1>   0.0800 
 31 H        1.3180     3.0740     2.9820 H     1 <1>   0.0800 
 32 H        1.6860     4.1040     1.6090 H     1 <1>   0.0800 
 33 H        2.4760     2.5290     1.7770 H     1 <1>   0.0800 
 34 H       -4.3390    -4.7420    -1.7210 H     1 <1>   0.1500 
 35 H       -0.2420    -4.7790    -0.5550 H     1 <1>   0.1500 
 36 H       -4.5220    -7.1030    -1.1330 H     1 <1>   0.1500 
 37 H       -0.4410    -7.1270     0.0550 H     1 <1>   0.1500 
 38 H       -0.8880    -9.1910    -1.2740 H     1 <1>   0.0800 
 39 H       -2.3740    -9.9410    -1.7730 H     1 <1>   0.0800 
 40 H       -4.5370    -9.4230    -0.1420 H     1 <1>   0.0800 
 41 H       -4.1840    -8.3880     1.2150 H     1 <1>   0.0800 
 42 H       -0.7500   -10.5560     0.7020 H     1 <1>   0.0800 
 43 H       -0.9940   -11.6130    -0.6590 H     1 <1>   0.0800 
 44 H       -4.3110   -10.8020     1.8560 H     1 <1>   0.0800 
 45 H       -2.7880   -10.0530     2.2420 H     1 <1>   0.0800 
 46 H       -3.3190   -11.7780    -0.0990 H     1 <1>   0.4500 
 47 H       -1.6370   -12.2840     2.2900 H     1 <1>   0.0800 
 48 H       -1.8160   -13.3690     0.9260 H     1 <1>   0.0800 
 49 H       -3.1860   -13.0330     1.9620 H     1 <1>   0.0800 
@<TRIPOS>BOND
  1   1   2  1   
  2   1   3  1   
  3   2   4  2   
  4   2   5  1   
  5   3   6  2   
  6   3   7  1   
  7   4   6  1   
  8   5   8  am  
  9   5  26  1   
 10   7   9  1   
 11   7  10  1   
 12   7  27  1   
 13   8  11  2   
 14   8  12  1   
 15   9  13  1   
 16  10  28  1   
 17  10  29  1   
 18  10  30  1   
 19  12  14  ar  
 20  12  15  ar  
 21  13  31  1   
 22  13  32  1   
 23  13  33  1   
 24  14  16  ar  
 25  14  34  1   
 26  15  17  ar  
 27  15  35  1   
 28  16  18  ar  
 29  16  36  1   
 30  17  18  ar  
 31  17  37  1   
 32  18  19  1   
 33  19  20  1   
 34  19  21  1   
 35  20  22  1   
 36  20  38  1   
 37  20  39  1   
 38  21  23  1   
 39  21  40  1   
 40  21  41  1   
 41  22  24  1   
 42  22  42  1   
 43  22  43  1   
 44  23  24  1   
 45  23  44  1   
 46  23  45  1   
 47  24  25  1   
 48  24  46  1   
 49  25  47  1   
 50  25  48  1   
 51  25  49  1   
@<TRIPOS>SUBSTRUCTURE
  1 ****  12 GROUP 4 **** **** 0

# MOE 2024.06 (io_trps.svl 2023.06)
