@<TRIPOS>MOLECULE
NONAME
49 51 1 0 0 
SMALL
USER_CHARGES


@<TRIPOS>ATOM
  1 F       -1.0610     3.1500     2.2050 F     1 <1>  -0.1900 
  2 C       -1.2850     3.6000     0.9950 C.ar  1 <1>   0.1900 
  3 C       -0.6830     4.7840     0.5920 C.ar  1 <1>   0.0820 
  4 C       -2.1140     2.8790     0.1570 C.ar  1 <1>  -0.1500 
  5 O        0.1190     5.4790     1.4200 O.3   1 <1>  -0.5330 
  6 C       -0.9200     5.2520    -0.6880 C.ar  1 <1>  -0.1500 
  7 C       -2.3560     3.3570    -1.1250 C.ar  1 <1>  -0.1440 
  8 C       -1.7510     4.5390    -1.5400 C.ar  1 <1>  -0.1500 
  9 C       -3.2810     2.5910    -2.0700 C.3   1 <1>   0.0440 
 10 C       -4.5730     2.1140    -1.4140 C.2   1 <1>   0.5690 
 11 O       -4.7630     0.9190    -1.3900 O.2   1 <1>  -0.5700 
 12 N       -5.4780     3.0010    -0.8810 N.am  1 <1>  -0.6600 
 13 C       -5.2730     4.4830    -0.8730 C.3   1 <1>   0.1400 
 14 C       -6.7000     2.5030    -0.1800 C.3   1 <1>   0.1400 
 15 C       -6.6040     5.2110    -0.6880 C.3   1 <1>  -0.1600 
 16 C       -7.0000     3.3770     1.0400 C.3   1 <1>  -0.1600 
 17 C       -7.2640     4.8550     0.6630 C.3   1 <1>   0.2800 
 18 O       -6.5660     5.6220     1.6230 O.3   1 <1>  -0.5600 
 19 C       -8.7950     5.1650     0.6860 C.3   1 <1>   0.2000 
 20 C       -7.2600     6.5430     2.4160 C.3   1 <1>   0.1200 
 21 O       -9.4910     4.4980    -0.3290 O.3   1 <1>  -0.6800 
 22 C       -9.1270     6.6870     0.7100 C.3   1 <1>   0.2800 
 23 C       -8.0720     7.4710     1.5100 C.3   1 <1>  -0.1600 
 24 O      -10.3330     6.8190     1.3750 O.3   1 <1>  -0.6800 
 25 C       -9.3580     7.3380    -0.6630 C.3   1 <1>  -0.2400 
 26 H       -2.5620     1.9660     0.5090 H     1 <1>   0.1500 
 27 H        0.1980     5.0440     2.2920 H     1 <1>   0.4500 
 28 H       -0.4550     6.1670    -1.0100 H     1 <1>   0.1500 
 29 H       -1.9230     4.9160    -2.5330 H     1 <1>   0.1500 
 30 H       -2.7500     1.7330    -2.4400 H     1 <1>   0.0800 
 31 H       -3.5390     3.1950    -2.9180 H     1 <1>   0.0800 
 32 H       -4.6070     4.7420    -0.0660 H     1 <1>   0.0800 
 33 H       -4.8250     4.7980    -1.7990 H     1 <1>   0.0800 
 34 H       -7.5330     2.5240    -0.8620 H     1 <1>   0.0800 
 35 H       -6.5550     1.4850     0.1400 H     1 <1>   0.0800 
 36 H       -7.2460     4.9380    -1.5060 H     1 <1>   0.0800 
 37 H       -6.4370     6.2700    -0.7450 H     1 <1>   0.0800 
 38 H       -6.1560     3.3090     1.7040 H     1 <1>   0.0800 
 39 H       -7.8470     2.9630     1.5540 H     1 <1>   0.0800 
 40 H       -9.1680     4.7530     1.6070 H     1 <1>   0.0800 
 41 H       -7.8910     6.0060     3.1040 H     1 <1>   0.0800 
 42 H       -6.5310     7.1020     2.9760 H     1 <1>   0.0800 
 43 H      -10.4400     4.7190    -0.2410 H     1 <1>   0.4000 
 44 H       -7.3760     7.9460     0.8410 H     1 <1>   0.0800 
 45 H       -8.5300     8.2460     2.0970 H     1 <1>   0.0800 
 46 H      -10.6230     7.7500     1.3450 H     1 <1>   0.4000 
 47 H       -8.4880     7.2300    -1.2810 H     1 <1>   0.0800 
 48 H       -9.5590     8.3890    -0.5570 H     1 <1>   0.0800 
 49 H      -10.1830     6.8740    -1.1740 H     1 <1>   0.0800 
@<TRIPOS>BOND
  1   1   2  1   
  2   2   3  ar  
  3   2   4  ar  
  4   3   5  1   
  5   3   6  ar  
  6   4   7  ar  
  7   4  26  1   
  8   5  27  1   
  9   6   8  ar  
 10   6  28  1   
 11   7   8  ar  
 12   7   9  1   
 13   8  29  1   
 14   9  10  1   
 15   9  30  1   
 16   9  31  1   
 17  10  11  2   
 18  10  12  am  
 19  12  13  1   
 20  12  14  1   
 21  13  15  1   
 22  13  32  1   
 23  13  33  1   
 24  14  16  1   
 25  14  34  1   
 26  14  35  1   
 27  15  17  1   
 28  15  36  1   
 29  15  37  1   
 30  16  17  1   
 31  16  38  1   
 32  16  39  1   
 33  17  18  1   
 34  17  19  1   
 35  18  20  1   
 36  19  21  1   
 37  19  22  1   
 38  19  40  1   
 39  20  23  1   
 40  20  41  1   
 41  20  42  1   
 42  21  43  1   
 43  22  23  1   
 44  22  24  1   
 45  22  25  1   
 46  23  44  1   
 47  23  45  1   
 48  24  46  1   
 49  25  47  1   
 50  25  48  1   
 51  25  49  1   
@<TRIPOS>SUBSTRUCTURE
  1 ****  13 GROUP 4 **** **** 0

# MOE 2024.06 (io_trps.svl 2023.06)
