@<TRIPOS>MOLECULE
NONAME
40 42 1 0 0 
SMALL
USER_CHARGES


@<TRIPOS>ATOM
  1 F       -2.7270     0.1110    -1.8000 F     1 <1>  -0.1900 
  2 C       -2.7400     0.7590    -0.6680 C.ar  1 <1>   0.1900 
  3 C       -2.7820     0.0470     0.5340 C.ar  1 <1>   0.0860 
  4 C       -2.7040     2.1390    -0.7330 C.ar  1 <1>  -0.1500 
  5 C       -2.8270    -1.3980     0.5940 C.2   1 <1>   0.5440 
  6 C       -2.7680     0.8010     1.7130 C.ar  1 <1>  -0.1500 
  7 C       -2.7030     2.8300     0.4610 C.ar  1 <1>   0.1900 
  8 O       -2.0030    -1.9890     1.2650 O.2   1 <1>  -0.5700 
  9 N       -3.8040    -2.1320    -0.0370 N.am  1 <1>  -0.6600 
 10 C       -2.7320     2.1850     1.6850 C.ar  1 <1>  -0.1500 
 11 F       -2.6720     4.1330     0.4360 F     1 <1>  -0.1900 
 12 C       -5.0780    -1.6000    -0.5840 C.3   1 <1>   0.1400 
 13 C       -3.8530    -3.6170     0.0030 C.3   1 <1>   0.1400 
 14 C       -6.0820    -2.7230    -0.3370 C.3   1 <1>   0.2000 
 15 C       -5.2440    -3.9910    -0.5220 C.3   1 <1>  -0.0800 
 16 O       -6.5040    -2.6320     0.9820 O.3   1 <1>  -0.6800 
 17 C       -5.8240    -5.2690     0.1090 C.3   1 <1>   0.0210 
 18 C       -4.9130    -6.4540    -0.1450 C.2   1 <1>   0.1080 
 19 N       -4.6780    -6.9190    -1.3320 N.2   1 <1>  -0.7070 
 20 C       -4.2270    -7.1560     0.8410 C.2   1 <1>  -0.1500 
 21 N       -3.8280    -7.9440    -1.1330 N.pl3 1 <1>   0.3000 
 22 C       -3.5380    -8.1060     0.1750 C.2   1 <1>  -0.3320 
 23 C       -2.6060    -9.1750     0.7160 C.3   1 <1>  -0.0600 
 24 H       -2.6740     2.6560    -1.6740 H     1 <1>   0.1500 
 25 H       -2.7810     0.2820     2.6570 H     1 <1>   0.1500 
 26 H       -2.7240     2.7610     2.5950 H     1 <1>   0.1500 
 27 H       -5.3800    -0.6840    -0.1060 H     1 <1>   0.0800 
 28 H       -4.9640    -1.4380    -1.6410 H     1 <1>   0.0800 
 29 H       -3.0770    -4.0400    -0.6130 H     1 <1>   0.0800 
 30 H       -3.7180    -3.9510     1.0180 H     1 <1>   0.0800 
 31 H       -6.9440    -2.6760    -0.9810 H     1 <1>   0.0800 
 32 H       -5.1450    -4.1630    -1.5800 H     1 <1>   0.0800 
 33 H       -5.7110    -2.5720     1.5530 H     1 <1>   0.4000 
 34 H       -6.7870    -5.4780    -0.3210 H     1 <1>   0.0800 
 35 H       -5.9530    -5.1470     1.1690 H     1 <1>   0.0800 
 36 H       -4.2570    -6.9610     1.8980 H     1 <1>   0.1500 
 37 H       -3.4640    -8.5090    -1.9090 H     1 <1>   0.2700 
 38 H       -2.5390    -9.0980     1.7870 H     1 <1>   0.0800 
 39 H       -1.6210    -9.0540     0.3020 H     1 <1>   0.0800 
 40 H       -2.9760   -10.1530     0.4660 H     1 <1>   0.0800 
@<TRIPOS>BOND
  1   1   2  1   
  2   2   3  ar  
  3   2   4  ar  
  4   3   5  1   
  5   3   6  ar  
  6   4   7  ar  
  7   4  24  1   
  8   5   8  2   
  9   5   9  am  
 10   6  10  ar  
 11   6  25  1   
 12   7  10  ar  
 13   7  11  1   
 14   9  12  1   
 15   9  13  1   
 16  10  26  1   
 17  12  14  1   
 18  12  27  1   
 19  12  28  1   
 20  13  15  1   
 21  13  29  1   
 22  13  30  1   
 23  14  15  1   
 24  14  16  1   
 25  14  31  1   
 26  15  17  1   
 27  15  32  1   
 28  16  33  1   
 29  17  18  1   
 30  17  34  1   
 31  17  35  1   
 32  18  19  2   
 33  18  20  1   
 34  19  21  1   
 35  20  22  2   
 36  20  36  1   
 37  21  22  1   
 38  21  37  1   
 39  22  23  1   
 40  23  38  1   
 41  23  39  1   
 42  23  40  1   
@<TRIPOS>SUBSTRUCTURE
  1 ****   9 GROUP 4 **** **** 0

# MOE 2024.06 (io_trps.svl 2023.06)
