@<TRIPOS>MOLECULE
NONAME
48 51 1 0 0 
SMALL
USER_CHARGES


@<TRIPOS>ATOM
  1 O       -0.6780    -1.3640    -1.4520 O.2   1 <1>  -0.5700 
  2 C       -1.1470    -0.2950    -1.1100 C.2   1 <1>   0.4690 
  3 C       -2.4590    -0.1720    -0.5380 C.ar  1 <1>   0.0860 
  4 C       -0.4000     0.9000    -1.2570 C.2   1 <1>  -0.1360 
  5 C       -2.9040     1.1010    -0.1620 C.ar  1 <1>   0.0830 
  6 C       -3.3200    -1.2520    -0.3350 C.ar  1 <1>  -0.1500 
  7 C       -0.8790     2.1120    -0.8710 C.2   1 <1>   0.0910 
  8 O       -2.1130     2.1840    -0.3320 O.3   1 <1>  -0.1590 
  9 C       -4.1640     1.2790     0.3920 C.ar  1 <1>  -0.1500 
 10 C       -4.5710    -1.0710     0.2180 C.ar  1 <1>  -0.1500 
 11 C       -0.1620     3.3650    -0.9900 C.2   1 <1>   0.6160 
 12 C       -5.0020     0.1970     0.5850 C.ar  1 <1>  -0.1440 
 13 O        0.9800     3.4080    -1.4110 O.2   1 <1>  -0.5700 
 14 N       -0.6930     4.5610    -0.5810 N.am  1 <1>  -0.6600 
 15 C       -6.3840     0.3730     1.1900 C.3   1 <1>  -0.0970 
 16 C       -0.6160     4.8820     0.8870 C.3   1 <1>   0.2200 
 17 C       -0.7560     5.6830    -1.5700 C.3   1 <1>   0.1400 
 18 C       -1.6430     5.9390     1.3240 C.3   1 <1>   0.1200 
 19 C        0.8210     5.3080     1.2920 C.3   1 <1>   0.3430 
 20 C       -0.2070     7.0320    -1.0660 C.3   1 <1>  -0.0800 
 21 O       -1.1240     7.2240     1.1610 O.3   1 <1>  -0.5600 
 22 N        1.6650     5.7260     0.1170 N.4   1 <1>  -0.9590 
 23 C       -1.1900     7.7440    -0.1230 C.3   1 <1>   0.1200 
 24 C        1.2340     7.0150    -0.5120 C.3   1 <1>   0.3430 
 25 C        3.1150     5.7400     0.4590 C.3   1 <1>   0.2630 
 26 H        0.5760     0.7900    -1.6950 H     1 <1>   0.1500 
 27 H       -2.9940    -2.2400    -0.6180 H     1 <1>   0.1500 
 28 H       -4.4810     2.2680     0.6680 H     1 <1>   0.1500 
 29 H       -5.2170    -1.9200     0.3650 H     1 <1>   0.1500 
 30 H       -7.1300    -0.0020     0.5130 H     1 <1>   0.0800 
 31 H       -6.5910     1.4090     1.3860 H     1 <1>   0.0800 
 32 H       -6.4500    -0.1710     2.1150 H     1 <1>   0.0800 
 33 H       -0.8580     3.9850     1.4310 H     1 <1>   0.0800 
 34 H       -0.2100     5.4000    -2.4550 H     1 <1>   0.0800 
 35 H       -1.7830     5.8090    -1.8690 H     1 <1>   0.0800 
 36 H       -1.8410     5.8230     2.3760 H     1 <1>   0.0800 
 37 H       -2.5750     5.8400     0.7940 H     1 <1>   0.0800 
 38 H        1.2870     4.4660     1.7740 H     1 <1>   0.0800 
 39 H        0.7700     6.1060     2.0150 H     1 <1>   0.0800 
 40 H       -0.1740     7.6650    -1.9350 H     1 <1>   0.0800 
 41 H        1.5050     4.9780    -0.5960 H     1 <1>   0.4500 
 42 H       -2.2050     7.6790    -0.4780 H     1 <1>   0.0800 
 43 H       -0.9310     8.7870    -0.0480 H     1 <1>   0.0800 
 44 H        1.3400     7.8160     0.2030 H     1 <1>   0.0800 
 45 H        1.9020     7.2250    -1.3310 H     1 <1>   0.0800 
 46 H        3.3170     6.4890     1.2070 H     1 <1>   0.0800 
 47 H        3.7020     5.9590    -0.4190 H     1 <1>   0.0800 
 48 H        3.4170     4.7770     0.8380 H     1 <1>   0.0800 
@<TRIPOS>BOND
  1   1   2  2   
  2   2   3  1   
  3   2   4  1   
  4   3   5  ar  
  5   3   6  ar  
  6   4   7  2   
  7   4  26  1   
  8   5   8  1   
  9   5   9  ar  
 10   6  10  ar  
 11   6  27  1   
 12   7   8  1   
 13   7  11  1   
 14   9  12  ar  
 15   9  28  1   
 16  10  12  ar  
 17  10  29  1   
 18  11  13  2   
 19  11  14  am  
 20  12  15  1   
 21  14  16  1   
 22  14  17  1   
 23  15  30  1   
 24  15  31  1   
 25  15  32  1   
 26  16  18  1   
 27  16  19  1   
 28  16  33  1   
 29  17  20  1   
 30  17  34  1   
 31  17  35  1   
 32  18  21  1   
 33  18  36  1   
 34  18  37  1   
 35  19  22  1   
 36  19  38  1   
 37  19  39  1   
 38  20  23  1   
 39  20  24  1   
 40  20  40  1   
 41  21  23  1   
 42  22  24  1   
 43  22  25  1   
 44  22  41  1   
 45  23  42  1   
 46  23  43  1   
 47  24  44  1   
 48  24  45  1   
 49  25  46  1   
 50  25  47  1   
 51  25  48  1   
@<TRIPOS>SUBSTRUCTURE
  1 ****   8 GROUP 4 **** **** 0

# MOE 2024.06 (io_trps.svl 2023.06)
