@<TRIPOS>MOLECULE
NONAME
40 42 1 0 0 
SMALL
USER_CHARGES


@<TRIPOS>ATOM
  1 CL      -0.5510    -0.4800     2.1810 Cl    1 <1>  -0.1230 
  2 C       -1.2100    -1.8780     1.3510 C.2   1 <1>   0.1230 
  3 C       -0.6020    -3.1190     1.2410 C.2   1 <1>   0.1390 
  4 C       -2.3840    -1.9690     0.7020 C.2   1 <1>  -0.3020 
  5 N       -1.3480    -3.9470     0.5640 N.2   1 <1>  -0.7070 
  6 N       -2.4470    -3.2320     0.2320 N.pl3 1 <1>   0.3140 
  7 C       -3.5390    -3.8280    -0.5550 C.3   1 <1>   0.0960 
  8 C       -3.6100    -5.3260    -0.2420 C.3   1 <1>   0.3430 
  9 N       -4.5960    -6.0820    -1.0960 N.4   1 <1>  -0.9590 
 10 C       -6.0100    -5.6350    -0.9120 C.3   1 <1>   0.3430 
 11 C       -4.6160    -7.5080    -0.6600 C.3   1 <1>   0.3430 
 12 C       -6.5020    -6.3300     0.3620 C.3   1 <1>   0.2000 
 13 C       -5.7040    -7.6400     0.4220 C.3   1 <1>  -0.0800 
 14 O       -6.1480    -5.5410     1.4500 O.3   1 <1>  -0.6800 
 15 C       -6.6000    -8.8760     0.2010 C.3   1 <1>  -0.0160 
 16 C       -5.8100   -10.1770     0.2540 C.ar  1 <1>   0.1670 
 17 N       -5.0070   -10.4150    -0.7720 N.ar  1 <1>  -0.6200 
 18 C       -5.9550   -11.0440     1.3370 C.ar  1 <1>   0.1600 
 19 C       -4.3740   -11.5730    -0.6480 C.ar  1 <1>   0.1600 
 20 N       -5.3120   -12.1910     1.4650 N.ar  1 <1>  -0.6200 
 21 C       -4.5200   -12.4310     0.4350 C.ar  1 <1>   0.1600 
 22 H        0.3590    -3.3660     1.6600 H     1 <1>   0.1500 
 23 H       -3.1440    -1.2230     0.5590 H     1 <1>   0.1500 
 24 H       -4.4550    -3.3390    -0.2850 H     1 <1>   0.0800 
 25 H       -3.3220    -3.6680    -1.5940 H     1 <1>   0.0800 
 26 H       -3.8630    -5.4450     0.7990 H     1 <1>   0.0800 
 27 H       -2.6280    -5.7490    -0.3890 H     1 <1>   0.0800 
 28 H       -4.3090    -6.0290    -2.0840 H     1 <1>   0.4500 
 29 H       -6.1020    -4.5650    -0.8310 H     1 <1>   0.0800 
 30 H       -6.6020    -5.9780    -1.7450 H     1 <1>   0.0800 
 31 H       -4.8780    -8.1310    -1.5020 H     1 <1>   0.0800 
 32 H       -3.6550    -7.8290    -0.2900 H     1 <1>   0.0800 
 33 H       -7.5720    -6.4580     0.3650 H     1 <1>   0.0800 
 34 H       -5.2220    -7.7450     1.3800 H     1 <1>   0.0800 
 35 H       -6.5590    -5.8670     2.2800 H     1 <1>   0.4000 
 36 H       -7.0900    -8.8160    -0.7570 H     1 <1>   0.0800 
 37 H       -7.3690    -8.8980     0.9530 H     1 <1>   0.0800 
 38 H       -6.6280   -10.7830     2.1340 H     1 <1>   0.1500 
 39 H       -3.7050   -11.8600    -1.4410 H     1 <1>   0.1500 
 40 H       -3.9620   -13.3510     0.4480 H     1 <1>   0.1500 
@<TRIPOS>BOND
  1   1   2  1   
  2   2   3  1   
  3   2   4  2   
  4   3   5  2   
  5   3  22  1   
  6   4   6  1   
  7   4  23  1   
  8   5   6  1   
  9   6   7  1   
 10   7   8  1   
 11   7  24  1   
 12   7  25  1   
 13   8   9  1   
 14   8  26  1   
 15   8  27  1   
 16   9  10  1   
 17   9  11  1   
 18   9  28  1   
 19  10  12  1   
 20  10  29  1   
 21  10  30  1   
 22  11  13  1   
 23  11  31  1   
 24  11  32  1   
 25  12  13  1   
 26  12  14  1   
 27  12  33  1   
 28  13  15  1   
 29  13  34  1   
 30  14  35  1   
 31  15  16  1   
 32  15  36  1   
 33  15  37  1   
 34  16  17  ar  
 35  16  18  ar  
 36  17  19  ar  
 37  18  20  ar  
 38  18  38  1   
 39  19  21  ar  
 40  19  39  1   
 41  20  21  ar  
 42  21  40  1   
@<TRIPOS>SUBSTRUCTURE
  1 ****  11 GROUP 4 **** **** 0

# MOE 2024.06 (io_trps.svl 2023.06)
