@<TRIPOS>MOLECULE
NONAME
53 55 1 0 0 
SMALL
USER_CHARGES


@<TRIPOS>ATOM
  1 O        2.1040     3.9080    -3.0100 O.3   1 <1>  -0.6800 
  2 C        1.7870     4.1420    -1.6880 C.3   1 <1>   0.2000 
  3 C        0.3350     4.6170    -1.6070 C.3   1 <1>  -0.1600 
  4 C        2.7520     5.1970    -1.1500 C.3   1 <1>  -0.1600 
  5 C       -0.0210     5.0150    -0.1730 C.3   1 <1>   0.2090 
  6 C        2.3770     5.5790     0.2810 C.3   1 <1>   0.2090 
  7 N        0.9590     6.0190     0.3160 N.pl3 1 <1>  -0.8380 
  8 C        0.5780     6.9320     1.2790 C.ar  1 <1>   0.4100 
  9 N       -0.3330     6.5640     2.1600 N.ar  1 <1>  -0.6200 
 10 C        1.1390     8.1830     1.3210 C.ar  1 <1>  -0.1500 
 11 C       -0.6310     7.4720     3.0690 C.ar  1 <1>   0.4700 
 12 C        0.7490     9.0550     2.3100 C.ar  1 <1>   0.4100 
 13 N       -0.1500     8.6910     3.2090 N.ar  1 <1>  -0.6200 
 14 N        1.2760    10.3350     2.3970 N.pl3 1 <1>  -0.8380 
 15 C        1.4050    11.1570     1.1700 C.3   1 <1>   0.2090 
 16 C        1.2030    11.0940     3.6760 C.3   1 <1>   0.1290 
 17 C        2.8750    11.2160     0.7530 C.3   1 <1>  -0.1600 
 18 C        3.0340    11.8130    -0.6480 C.3   1 <1>   0.0210 
 19 C        4.4510    11.5960    -1.1490 C.2   1 <1>  -0.1810 
 20 C        5.5310    12.4670    -1.0240 C.2   1 <1>   0.1080 
 21 C        4.9460    10.5240    -1.8060 C.2   1 <1>  -0.3320 
 22 N        6.6100    11.9910    -1.5600 N.2   1 <1>  -0.7070 
 23 C        5.5040    13.8220    -0.3530 C.3   1 <1>  -0.0590 
 24 N        6.2480    10.7900    -2.0430 N.pl3 1 <1>   0.3000 
 25 C        4.2730     9.2290    -2.2340 C.3   1 <1>  -0.0600 
 26 H        1.4860     3.2600    -3.3970 H     1 <1>   0.4000 
 27 H        1.9090     3.2190    -1.1450 H     1 <1>   0.0800 
 28 H       -0.3290     3.8360    -1.9270 H     1 <1>   0.0800 
 29 H        0.1950     5.4750    -2.2410 H     1 <1>   0.0800 
 30 H        2.7110     6.0780    -1.7650 H     1 <1>   0.0800 
 31 H        3.7550     4.8110    -1.1640 H     1 <1>   0.0800 
 32 H        0.0010     4.1540     0.4740 H     1 <1>   0.0800 
 33 H       -1.0130     5.4330    -0.1470 H     1 <1>   0.0800 
 34 H        3.0230     6.3670     0.6300 H     1 <1>   0.0800 
 35 H        2.4980     4.7320     0.9340 H     1 <1>   0.0800 
 36 H        1.8650     8.4620     0.5910 H     1 <1>   0.1500 
 37 H       -1.3680     7.1770     3.7960 H     1 <1>   0.1500 
 38 H        1.0260    12.1490     1.3470 H     1 <1>   0.0800 
 39 H        0.8150    10.7150     0.3840 H     1 <1>   0.0800 
 40 H        1.3170    10.4230     4.5090 H     1 <1>   0.0800 
 41 H        0.2490    11.5860     3.7530 H     1 <1>   0.0800 
 42 H        1.9900    11.8270     3.7160 H     1 <1>   0.0800 
 43 H        3.2840    10.2220     0.7510 H     1 <1>   0.0800 
 44 H        3.4310    11.8010     1.4620 H     1 <1>   0.0800 
 45 H        2.8020    12.8630    -0.6370 H     1 <1>   0.0800 
 46 H        2.3550    11.3340    -1.3310 H     1 <1>   0.0800 
 47 H        5.0230    13.7480     0.6040 H     1 <1>   0.0800 
 48 H        4.9720    14.5200    -0.9710 H     1 <1>   0.0800 
 49 H        6.5080    14.1770    -0.2110 H     1 <1>   0.0800 
 50 H        6.9120    10.1770    -2.5280 H     1 <1>   0.2700 
 51 H        3.2500     9.2030    -1.9040 H     1 <1>   0.0800 
 52 H        4.7860     8.3860    -1.8070 H     1 <1>   0.0800 
 53 H        4.2880     9.1410    -3.3060 H     1 <1>   0.0800 
@<TRIPOS>BOND
  1   1   2  1   
  2   1  26  1   
  3   2   3  1   
  4   2   4  1   
  5   2  27  1   
  6   3   5  1   
  7   3  28  1   
  8   3  29  1   
  9   4   6  1   
 10   4  30  1   
 11   4  31  1   
 12   5   7  1   
 13   5  32  1   
 14   5  33  1   
 15   6   7  1   
 16   6  34  1   
 17   6  35  1   
 18   7   8  1   
 19   8   9  ar  
 20   8  10  ar  
 21   9  11  ar  
 22  10  12  ar  
 23  10  36  1   
 24  11  13  ar  
 25  11  37  1   
 26  12  13  ar  
 27  12  14  1   
 28  14  15  1   
 29  14  16  1   
 30  15  17  1   
 31  15  38  1   
 32  15  39  1   
 33  16  40  1   
 34  16  41  1   
 35  16  42  1   
 36  17  18  1   
 37  17  43  1   
 38  17  44  1   
 39  18  19  1   
 40  18  45  1   
 41  18  46  1   
 42  19  20  1   
 43  19  21  2   
 44  20  22  2   
 45  20  23  1   
 46  21  24  1   
 47  21  25  1   
 48  22  24  1   
 49  23  47  1   
 50  23  48  1   
 51  23  49  1   
 52  24  50  1   
 53  25  51  1   
 54  25  52  1   
 55  25  53  1   
@<TRIPOS>SUBSTRUCTURE
  1 ****  10 GROUP 4 **** **** 0

# MOE 2024.06 (io_trps.svl 2023.06)
