@<TRIPOS>MOLECULE
NONAME
46 49 1 0 0 
SMALL
USER_CHARGES


@<TRIPOS>ATOM
  1 S        2.3910    -2.2540    -1.6920 S.3   1 <1>  -0.0800 
  2 C        1.2970    -2.3040    -0.3300 C.2   1 <1>   0.1980 
  3 C        2.6390    -0.5600    -1.3880 C.2   1 <1>  -0.1100 
  4 N        1.1440    -1.1880     0.2700 N.2   1 <1>  -0.5650 
  5 C        0.6540    -3.6450    -0.0040 C.3   1 <1>   0.5230 
  6 C        1.9040    -0.1950    -0.3260 C.2   1 <1>   0.0460 
  7 N       -0.3670    -3.4800     1.0850 N.4   1 <1>  -0.9590 
  8 C        1.8300     1.1910     0.2770 C.3   1 <1>  -0.0590 
  9 C       -1.5950    -2.7700     0.5920 C.3   1 <1>   0.3430 
 10 C       -0.7940    -4.7920     1.6480 C.3   1 <1>   0.3430 
 11 C       -2.7870    -3.6580     0.9790 C.3   1 <1>   0.2000 
 12 C       -2.1910    -5.0610     1.0780 C.3   1 <1>  -0.0800 
 13 O       -3.2700    -3.2880     2.2280 O.3   1 <1>  -0.6800 
 14 C       -2.1640    -5.7400    -0.3120 C.3   1 <1>  -0.0160 
 15 C       -1.1440    -6.8620    -0.3970 C.ar  1 <1>   0.1670 
 16 N        0.0660    -6.5340    -0.7420 N.ar  1 <1>  -0.6200 
 17 C       -1.5450    -8.1720    -0.0930 C.ar  1 <1>  -0.1500 
 18 C        0.9850    -7.5350    -0.8350 C.ar  1 <1>   0.3100 
 19 C       -0.6390    -9.1860    -0.1550 C.ar  1 <1>  -0.1500 
 20 C        0.6780    -8.8810    -0.5340 C.ar  1 <1>   0.0000 
 21 C        2.2930    -7.2230    -1.2400 C.ar  1 <1>  -0.1500 
 22 C        1.6930    -9.8530    -0.6300 C.ar  1 <1>  -0.1500 
 23 C        3.2650    -8.1850    -1.3290 C.ar  1 <1>  -0.1500 
 24 C        2.9600    -9.5140    -1.0170 C.ar  1 <1>  -0.1500 
 25 H        3.3080    -0.0200    -2.0350 H     1 <1>   0.1500 
 26 H        1.4240    -4.3280     0.3150 H     1 <1>   0.0800 
 27 H        0.1950    -4.0510    -0.8900 H     1 <1>   0.0800 
 28 H        0.0910    -2.8830     1.7910 H     1 <1>   0.4500 
 29 H        2.4590     1.8710    -0.2670 H     1 <1>   0.0800 
 30 H        2.1540     1.1600     1.3010 H     1 <1>   0.0800 
 31 H        0.8180     1.5500     0.2420 H     1 <1>   0.0800 
 32 H       -1.6880    -1.7860     1.0220 H     1 <1>   0.0800 
 33 H       -1.5550    -2.6770    -0.4800 H     1 <1>   0.0800 
 34 H       -0.0950    -5.5800     1.4200 H     1 <1>   0.0800 
 35 H       -0.8680    -4.7090     2.7200 H     1 <1>   0.0800 
 36 H       -3.6020    -3.5850     0.2780 H     1 <1>   0.0800 
 37 H       -2.7540    -5.6860     1.7500 H     1 <1>   0.0800 
 38 H       -2.5810    -3.2650     2.9200 H     1 <1>   0.4000 
 39 H       -1.9300    -5.0260    -1.0830 H     1 <1>   0.0800 
 40 H       -3.1430    -6.1260    -0.5390 H     1 <1>   0.0800 
 41 H       -2.5650    -8.3670     0.1850 H     1 <1>   0.1500 
 42 H       -0.9050   -10.2040     0.0710 H     1 <1>   0.1500 
 43 H        2.5180    -6.2040    -1.4880 H     1 <1>   0.1500 
 44 H        1.4530   -10.8760    -0.3950 H     1 <1>   0.1500 
 45 H        4.2660    -7.9370    -1.6400 H     1 <1>   0.1500 
 46 H        3.7340   -10.2600    -1.0910 H     1 <1>   0.1500 
@<TRIPOS>BOND
  1   1   2  1   
  2   1   3  1   
  3   2   4  2   
  4   2   5  1   
  5   3   6  2   
  6   3  25  1   
  7   4   6  1   
  8   5   7  1   
  9   5  26  1   
 10   5  27  1   
 11   6   8  1   
 12   7   9  1   
 13   7  10  1   
 14   7  28  1   
 15   8  29  1   
 16   8  30  1   
 17   8  31  1   
 18   9  11  1   
 19   9  32  1   
 20   9  33  1   
 21  10  12  1   
 22  10  34  1   
 23  10  35  1   
 24  11  12  1   
 25  11  13  1   
 26  11  36  1   
 27  12  14  1   
 28  12  37  1   
 29  13  38  1   
 30  14  15  1   
 31  14  39  1   
 32  14  40  1   
 33  15  16  ar  
 34  15  17  ar  
 35  16  18  ar  
 36  17  19  ar  
 37  17  41  1   
 38  18  20  ar  
 39  18  21  ar  
 40  19  20  ar  
 41  19  42  1   
 42  20  22  ar  
 43  21  23  ar  
 44  21  43  1   
 45  22  24  ar  
 46  22  44  1   
 47  23  24  ar  
 48  23  45  1   
 49  24  46  1   
@<TRIPOS>SUBSTRUCTURE
  1 ****   5 GROUP 4 **** **** 0

# MOE 2024.06 (io_trps.svl 2023.06)
