@<TRIPOS>MOLECULE
NONAME
48 50 1 0 0 
SMALL
USER_CHARGES


@<TRIPOS>ATOM
  1 O        1.5970    -0.5560    -2.2380 O.co2 1 <1>  -0.9000 
  2 C        2.7680    -0.5250    -1.8660 C.2   1 <1>   0.9060 
  3 O        3.6190    -1.3590    -2.1980 O.co2 1 <1>  -0.9000 
  4 C        3.1880     0.5760    -0.9190 C.3   1 <1>  -0.1860 
  5 C        3.8380    -0.0360     0.3250 C.3   1 <1>   0.2000 
  6 C        4.1000     1.6290    -1.6030 C.3   1 <1>  -0.1600 
  7 O        4.9820    -0.7140    -0.0630 O.3   1 <1>  -0.6800 
  8 C        4.2410     1.0630     1.3270 C.3   1 <1>   0.3430 
  9 C        5.2430     2.1200    -0.7100 C.3   1 <1>   0.3430 
 10 N        4.7450     2.3340     0.6830 N.4   1 <1>  -0.9590 
 11 C        5.7490     3.0020     1.5410 C.3   1 <1>   0.4860 
 12 C        5.9760     4.4070     1.0190 C.ar  1 <1>  -0.1430 
 13 C        5.0400     5.3660     1.3210 C.ar  1 <1>   0.0820 
 14 C        7.1170     4.7110     0.2360 C.ar  1 <1>   0.0000 
 15 O        3.9590     4.9940     2.0560 O.3   1 <1>  -0.3630 
 16 C        5.2140     6.6830     0.8580 C.ar  1 <1>  -0.1500 
 17 C        7.2730     6.0340    -0.2350 C.ar  1 <1>   0.0000 
 18 C        8.1110     3.7690    -0.1190 C.ar  1 <1>  -0.1500 
 19 C        3.0430     5.9450     2.5620 C.3   1 <1>   0.0400 
 20 C        6.3050     6.9990     0.1000 C.ar  1 <1>  -0.1500 
 21 C        8.3890     6.3560    -1.0320 C.ar  1 <1>  -0.1500 
 22 C        9.1840     4.0990    -0.8990 C.ar  1 <1>   0.0820 
 23 C        9.3260     5.4180    -1.3630 C.ar  1 <1>  -0.1500 
 24 O       10.0660     3.1120    -1.1870 O.3   1 <1>  -0.3630 
 25 C       11.2240     3.3510    -1.9570 C.3   1 <1>   0.0400 
 26 H        2.2860     1.0680    -0.6050 H     1 <1>   0.0800 
 27 H        3.1800    -0.7550     0.7860 H     1 <1>   0.0800 
 28 H        3.5050     2.4600    -1.9330 H     1 <1>   0.0800 
 29 H        4.5450     1.1950    -2.4830 H     1 <1>   0.0800 
 30 H        4.7300    -1.2070    -0.9060 H     1 <1>   0.4000 
 31 H        4.9940     0.6480     1.9750 H     1 <1>   0.0800 
 32 H        3.3820     1.3020     1.9310 H     1 <1>   0.0800 
 33 H        5.6490     3.0310    -1.1180 H     1 <1>   0.0800 
 34 H        6.0240     1.3750    -0.7000 H     1 <1>   0.0800 
 35 H        3.9590     2.9930     0.6090 H     1 <1>   0.4500 
 36 H        5.3740     3.0690     2.5490 H     1 <1>   0.0800 
 37 H        6.6650     2.4370     1.5630 H     1 <1>   0.0800 
 38 H        4.4980     7.4500     1.0870 H     1 <1>   0.1500 
 39 H        8.0500     2.7530     0.2170 H     1 <1>   0.1500 
 40 H        2.3240     5.4290     3.1730 H     1 <1>   0.0800 
 41 H        2.5420     6.4240     1.7390 H     1 <1>   0.0800 
 42 H        3.5760     6.6650     3.1580 H     1 <1>   0.0800 
 43 H        6.4410     8.0050    -0.2580 H     1 <1>   0.1500 
 44 H        8.4930     7.3680    -1.3820 H     1 <1>   0.1500 
 45 H       10.1630     5.6970    -1.9750 H     1 <1>   0.1500 
 46 H       11.7680     2.4270    -2.0380 H     1 <1>   0.0800 
 47 H       11.8290     4.0880    -1.4580 H     1 <1>   0.0800 
 48 H       10.9300     3.6890    -2.9350 H     1 <1>   0.0800 
@<TRIPOS>BOND
  1   1   2  ar  
  2   2   3  ar  
  3   2   4  1   
  4   4   5  1   
  5   4   6  1   
  6   4  26  1   
  7   5   7  1   
  8   5   8  1   
  9   5  27  1   
 10   6   9  1   
 11   6  28  1   
 12   6  29  1   
 13   7  30  1   
 14   8  10  1   
 15   8  31  1   
 16   8  32  1   
 17   9  10  1   
 18   9  33  1   
 19   9  34  1   
 20  10  11  1   
 21  10  35  1   
 22  11  12  1   
 23  11  36  1   
 24  11  37  1   
 25  12  13  ar  
 26  12  14  ar  
 27  13  15  1   
 28  13  16  ar  
 29  14  17  ar  
 30  14  18  ar  
 31  15  19  1   
 32  16  20  ar  
 33  16  38  1   
 34  17  20  ar  
 35  17  21  ar  
 36  18  22  ar  
 37  18  39  1   
 38  19  40  1   
 39  19  41  1   
 40  19  42  1   
 41  20  43  1   
 42  21  23  ar  
 43  21  44  1   
 44  22  23  ar  
 45  22  24  1   
 46  23  45  1   
 47  24  25  1   
 48  25  46  1   
 49  25  47  1   
 50  25  48  1   
@<TRIPOS>SUBSTRUCTURE
  1 ****   9 GROUP 4 **** **** 0

# MOE 2024.06 (io_trps.svl 2023.06)
