@<TRIPOS>MOLECULE
NONAME
51 54 1 0 0 
SMALL
USER_CHARGES


@<TRIPOS>ATOM
  1 O       -0.5660    -0.4560    -0.9220 O.3   1 <1>  -0.6800 
  2 C       -1.3790    -1.3170    -0.2020 C.3   1 <1>   0.2000 
  3 C       -1.9050    -2.4310    -1.1260 C.3   1 <1>   0.2090 
  4 C       -2.5300    -0.4920     0.3810 C.3   1 <1>  -0.1600 
  5 N       -2.8930    -3.2980    -0.3980 N.pl3 1 <1>  -0.8380 
  6 C       -3.5630    -1.4080     1.0580 C.3   1 <1>  -0.1600 
  7 C       -2.8340    -4.6540    -0.3270 C.ar  1 <1>   0.4100 
  8 C       -4.0590    -2.5160     0.1200 C.3   1 <1>   0.2090 
  9 N       -3.9730    -5.3150    -0.2510 N.ar  1 <1>  -0.6200 
 10 C       -1.6010    -5.3350    -0.3330 C.ar  1 <1>  -0.1500 
 11 C       -3.9480    -6.6380    -0.2020 C.ar  1 <1>   0.7710 
 12 C       -1.5930    -6.6870    -0.2880 C.ar  1 <1>   0.2110 
 13 N       -2.7890    -7.3220    -0.2290 N.ar  1 <1>  -0.1790 
 14 N       -5.1230    -7.3190    -0.1280 N.pl3 1 <1>  -0.8380 
 15 C       -5.2890    -8.7840     0.1980 C.3   1 <1>   0.2090 
 16 C       -6.4330    -6.5790    -0.3040 C.3   1 <1>   0.2090 
 17 C       -6.6570    -9.1150     0.8350 C.3   1 <1>   0.2090 
 18 C       -7.5580    -7.4700    -0.8670 C.3   1 <1>   0.2090 
 19 N       -7.8080    -8.7030    -0.0380 N.pl3 1 <1>  -0.8380 
 20 C       -9.0010    -9.3610    -0.0540 C.ar  1 <1>   0.1000 
 21 C       -9.8510    -9.3200    -1.1700 C.ar  1 <1>  -0.1500 
 22 C       -9.4510   -10.1150     1.0410 C.ar  1 <1>  -0.1500 
 23 C      -11.0500    -9.9850    -1.1760 C.ar  1 <1>   0.2110 
 24 C      -10.6540   -10.7700     1.0070 C.ar  1 <1>   0.2110 
 25 N      -11.4410   -10.7020    -0.0950 N.ar  1 <1>  -0.1790 
 26 H        0.2990    -0.8660    -1.1160 H     1 <1>   0.4000 
 27 H       -0.7910    -1.7450     0.5920 H     1 <1>   0.0800 
 28 H       -1.0860    -3.0100    -1.5060 H     1 <1>   0.0800 
 29 H       -2.4070    -1.9760    -1.9630 H     1 <1>   0.0800 
 30 H       -3.0110     0.0550    -0.4110 H     1 <1>   0.0800 
 31 H       -2.1430     0.2100     1.0980 H     1 <1>   0.0800 
 32 H       -4.4030    -0.8200     1.3840 H     1 <1>   0.0800 
 33 H       -3.1280    -1.8650     1.9300 H     1 <1>   0.0800 
 34 H       -4.7410    -3.1500     0.6610 H     1 <1>   0.0800 
 35 H       -4.5920    -2.0830    -0.7100 H     1 <1>   0.0800 
 36 H       -0.6880    -4.7720    -0.3590 H     1 <1>   0.1500 
 37 H       -0.6840    -7.2680    -0.2930 H     1 <1>   0.1500 
 38 H       -2.8680    -8.3310    -0.2290 H     1 <1>   0.4570 
 39 H       -4.5230    -9.0990     0.8840 H     1 <1>   0.0800 
 40 H       -5.1970    -9.3620    -0.7070 H     1 <1>   0.0800 
 41 H       -6.3050    -5.7470    -0.9780 H     1 <1>   0.0800 
 42 H       -6.7460    -6.1810     0.6460 H     1 <1>   0.0800 
 43 H       -6.7340    -8.6120     1.7840 H     1 <1>   0.0800 
 44 H       -6.7040   -10.1750     1.0140 H     1 <1>   0.0800 
 45 H       -7.2940    -7.7650    -1.8680 H     1 <1>   0.0800 
 46 H       -8.4610    -6.8870    -0.9200 H     1 <1>   0.0800 
 47 H       -9.5500    -8.7640    -2.0390 H     1 <1>   0.1500 
 48 H       -8.8450   -10.1680     1.9270 H     1 <1>   0.1500 
 49 H      -11.6980    -9.9500    -2.0390 H     1 <1>   0.1500 
 50 H      -10.9950   -11.3460     1.8540 H     1 <1>   0.1500 
 51 H      -12.3410   -11.1970    -0.1100 H     1 <1>   0.4570 
@<TRIPOS>BOND
  1   1   2  1   
  2   1  26  1   
  3   2   3  1   
  4   2   4  1   
  5   2  27  1   
  6   3   5  1   
  7   3  28  1   
  8   3  29  1   
  9   4   6  1   
 10   4  30  1   
 11   4  31  1   
 12   5   7  1   
 13   5   8  1   
 14   6   8  1   
 15   6  32  1   
 16   6  33  1   
 17   7   9  ar  
 18   7  10  ar  
 19   8  34  1   
 20   8  35  1   
 21   9  11  ar  
 22  10  12  ar  
 23  10  36  1   
 24  11  13  ar  
 25  11  14  1   
 26  12  13  ar  
 27  12  37  1   
 28  13  38  1   
 29  14  15  1   
 30  14  16  1   
 31  15  17  1   
 32  15  39  1   
 33  15  40  1   
 34  16  18  1   
 35  16  41  1   
 36  16  42  1   
 37  17  19  1   
 38  17  43  1   
 39  17  44  1   
 40  18  19  1   
 41  18  45  1   
 42  18  46  1   
 43  19  20  1   
 44  20  21  ar  
 45  20  22  ar  
 46  21  23  ar  
 47  21  47  1   
 48  22  24  ar  
 49  22  48  1   
 50  23  25  ar  
 51  23  49  1   
 52  24  25  ar  
 53  24  50  1   
 54  25  51  1   
@<TRIPOS>SUBSTRUCTURE
  1 ****  14 GROUP 4 **** **** 0

# MOE 2024.06 (io_trps.svl 2023.06)
