@<TRIPOS>MOLECULE
NONAME
48 49 1 0 0 
SMALL
USER_CHARGES


@<TRIPOS>ATOM
  1 F        0.0080     1.6580     0.7130 F     1 <1>  -0.1900 
  2 C        1.2620     2.0200     0.6740 C.ar  1 <1>   0.1900 
  3 C        1.9990     1.7470    -0.4620 C.ar  1 <1>  -0.1500 
  4 C        1.8050     2.6620     1.7690 C.ar  1 <1>  -0.1500 
  5 C        3.3290     2.1330    -0.4970 C.ar  1 <1>  -0.1500 
  6 C        3.1360     3.0420     1.7220 C.ar  1 <1>  -0.1500 
  7 C        3.9010     2.7780     0.5920 C.ar  1 <1>  -0.1430 
  8 C        5.3620     3.1990     0.5470 C.3   1 <1>  -0.0160 
  9 C        5.4950     4.6260     0.0040 C.3   1 <1>  -0.1600 
 10 C        6.9680     5.0780    -0.0610 C.3   1 <1>  -0.0990 
 11 C        7.1730     6.4870    -0.6090 C.2   1 <1>   0.5690 
 12 O        6.2060     7.2010    -0.7460 O.2   1 <1>  -0.5700 
 13 N        8.4370     6.9220    -0.9300 N.am  1 <1>  -0.6600 
 14 C        8.6350     8.2580    -1.5540 C.3   1 <1>   0.1400 
 15 C        9.6870     6.1330    -0.7360 C.3   1 <1>   0.0600 
 16 C        8.8740     9.3060    -0.4660 C.3   1 <1>  -0.1600 
 17 C        9.1290    10.6930    -1.0790 C.3   1 <1>  -0.1600 
 18 C        9.2820    11.7840    -0.0160 C.3   1 <1>   0.2000 
 19 O        9.5180    12.9910    -0.6530 O.3   1 <1>  -0.5600 
 20 C       10.4760    11.6170     0.9150 C.3   1 <1>  -0.1600 
 21 C       10.1250    13.8890     0.2200 C.3   1 <1>   0.1200 
 22 C       10.8130    13.0490     1.2940 C.3   1 <1>  -0.1600 
 23 H        1.5410     1.2480    -1.2960 H     1 <1>   0.1500 
 24 H        1.1990     2.8590     2.6350 H     1 <1>   0.1500 
 25 H        3.9170     1.9310    -1.3760 H     1 <1>   0.1500 
 26 H        3.5740     3.5470     2.5650 H     1 <1>   0.1500 
 27 H        5.9120     2.5170    -0.0770 H     1 <1>   0.0800 
 28 H        5.7800     3.1450     1.5370 H     1 <1>   0.0800 
 29 H        4.9420     5.3000     0.6360 H     1 <1>   0.0800 
 30 H        5.0640     4.6750    -0.9810 H     1 <1>   0.0800 
 31 H        7.5080     4.3920    -0.6870 H     1 <1>   0.0800 
 32 H        7.3890     5.0440     0.9260 H     1 <1>   0.0800 
 33 H        7.7610     8.5250    -2.1260 H     1 <1>   0.0800 
 34 H        9.4720     8.2220    -2.2300 H     1 <1>   0.0800 
 35 H        9.5620     5.3870     0.0280 H     1 <1>   0.0800 
 36 H       10.4890     6.7850    -0.4370 H     1 <1>   0.0800 
 37 H        9.9560     5.6520    -1.6600 H     1 <1>   0.0800 
 38 H        9.7190     9.0140     0.1310 H     1 <1>   0.0800 
 39 H        8.0040     9.3510     0.1660 H     1 <1>   0.0800 
 40 H        8.2980    10.9560    -1.7100 H     1 <1>   0.0800 
 41 H       10.0180    10.6630    -1.6840 H     1 <1>   0.0800 
 42 H        8.3740    11.8910     0.5540 H     1 <1>   0.0800 
 43 H       11.2960    11.1740     0.3790 H     1 <1>   0.0800 
 44 H       10.2350    11.0080     1.7680 H     1 <1>   0.0800 
 45 H        9.3590    14.5160     0.6430 H     1 <1>   0.0800 
 46 H       10.8240    14.4850    -0.3400 H     1 <1>   0.0800 
 47 H       11.8750    13.2190     1.3010 H     1 <1>   0.0800 
 48 H       10.4100    13.2990     2.2590 H     1 <1>   0.0800 
@<TRIPOS>BOND
  1   1   2  1   
  2   2   3  ar  
  3   2   4  ar  
  4   3   5  ar  
  5   3  23  1   
  6   4   6  ar  
  7   4  24  1   
  8   5   7  ar  
  9   5  25  1   
 10   6   7  ar  
 11   6  26  1   
 12   7   8  1   
 13   8   9  1   
 14   8  27  1   
 15   8  28  1   
 16   9  10  1   
 17   9  29  1   
 18   9  30  1   
 19  10  11  1   
 20  10  31  1   
 21  10  32  1   
 22  11  12  2   
 23  11  13  am  
 24  13  14  1   
 25  13  15  1   
 26  14  16  1   
 27  14  33  1   
 28  14  34  1   
 29  15  35  1   
 30  15  36  1   
 31  15  37  1   
 32  16  17  1   
 33  16  38  1   
 34  16  39  1   
 35  17  18  1   
 36  17  40  1   
 37  17  41  1   
 38  18  19  1   
 39  18  20  1   
 40  18  42  1   
 41  19  21  1   
 42  20  22  1   
 43  20  43  1   
 44  20  44  1   
 45  21  22  1   
 46  21  45  1   
 47  21  46  1   
 48  22  47  1   
 49  22  48  1   
@<TRIPOS>SUBSTRUCTURE
  1 ****  12 GROUP 4 **** **** 0

# MOE 2024.06 (io_trps.svl 2023.06)
