@<TRIPOS>MOLECULE
NONAME
54 57 1 0 0 
SMALL
USER_CHARGES


@<TRIPOS>ATOM
  1 O        4.2080     2.6100     1.5110 O.co2 1 <1>  -0.9000 
  2 C        4.0660     1.4600     1.0800 C.2   1 <1>   0.9060 
  3 O        4.5640     0.5070     1.7090 O.co2 1 <1>  -0.9000 
  4 C        3.2560     1.1820    -0.2100 C.3   1 <1>  -0.1060 
  5 C        3.6950    -0.1860    -0.7900 C.3   1 <1>   0.4230 
  6 C        3.4950     2.2760    -1.3060 C.3   1 <1>  -0.1600 
  7 C        1.7460     1.1470     0.1320 C.3   1 <1>  -0.1600 
  8 N        3.3580    -1.2920     0.1770 N.4   1 <1>  -0.9590 
  9 C        5.1980    -0.1680    -1.2330 C.3   1 <1>   0.2090 
 10 C        4.6700     1.9840    -2.2600 C.3   1 <1>   0.2090 
 11 C        1.4090    -0.0330     1.0550 C.3   1 <1>  -0.1600 
 12 C        1.9050    -1.3630     0.4880 C.3   1 <1>   0.3430 
 13 C        3.9140    -2.6330    -0.1530 C.3   1 <1>   0.2630 
 14 N        5.7160     1.2280    -1.5090 N.pl3 1 <1>  -0.8380 
 15 C        6.6050     1.8700    -0.6880 C.ar  1 <1>   0.1000 
 16 C        6.7770     3.2890    -0.6870 C.ar  1 <1>   0.0000 
 17 C        7.1690     1.2120     0.4080 C.ar  1 <1>  -0.1500 
 18 C        6.7700     3.9470     0.5550 C.ar  1 <1>   0.3610 
 19 C        6.9670     4.0760    -1.8320 C.ar  1 <1>  -0.1500 
 20 C        7.2540     1.8680     1.6080 C.ar  1 <1>   0.2110 
 21 N        6.9430     3.1740     1.6810 N.ar  1 <1>  -0.1790 
 22 C        6.6860     5.3530     0.6240 C.ar  1 <1>  -0.1430 
 23 C        6.9720     5.4430    -1.7580 C.ar  1 <1>  -0.1500 
 24 C        6.8000     6.0970    -0.5340 C.ar  1 <1>  -0.1430 
 25 C        6.4750     6.0120     1.9910 C.3   1 <1>  -0.0970 
 26 C        6.7610     7.6210    -0.5550 C.3   1 <1>  -0.0970 
 27 H        3.1160    -0.3470    -1.6830 H     1 <1>   0.0800 
 28 H        3.6650     3.2280    -0.8340 H     1 <1>   0.0800 
 29 H        2.6190     2.4010    -1.9160 H     1 <1>   0.0800 
 30 H        1.4680     2.0700     0.6160 H     1 <1>   0.0800 
 31 H        1.1620     1.0590    -0.7680 H     1 <1>   0.0800 
 32 H        3.8240    -0.9270     1.0520 H     1 <1>   0.4500 
 33 H        5.3050    -0.7530    -2.1290 H     1 <1>   0.0800 
 34 H        5.7750    -0.6420    -0.4670 H     1 <1>   0.0800 
 35 H        5.0320     2.8990    -2.6840 H     1 <1>   0.0800 
 36 H        4.3290     1.3810    -3.0850 H     1 <1>   0.0800 
 37 H        0.3440    -0.0830     1.1930 H     1 <1>   0.0800 
 38 H        1.8470     0.1230     2.0270 H     1 <1>   0.0800 
 39 H        1.3550    -1.5980    -0.4080 H     1 <1>   0.0800 
 40 H        1.7250    -2.1410     1.2130 H     1 <1>   0.0800 
 41 H        3.5050    -2.9900    -1.0840 H     1 <1>   0.0800 
 42 H        3.6680    -3.3360     0.6260 H     1 <1>   0.0800 
 43 H        4.9870    -2.5870    -0.2360 H     1 <1>   0.0800 
 44 H        7.4220     0.1720     0.3630 H     1 <1>   0.1500 
 45 H        7.1010     3.5810    -2.7790 H     1 <1>   0.1500 
 46 H        7.5080     1.3390     2.5100 H     1 <1>   0.1500 
 47 H        6.7150     3.6000     2.5770 H     1 <1>   0.4570 
 48 H        7.1000     6.0210    -2.6580 H     1 <1>   0.1500 
 49 H        6.1750     7.0400     1.9040 H     1 <1>   0.0800 
 50 H        7.3820     5.9780     2.5680 H     1 <1>   0.0800 
 51 H        5.6890     5.5090     2.5280 H     1 <1>   0.0800 
 52 H        7.0210     8.0050    -1.5250 H     1 <1>   0.0800 
 53 H        7.4600     8.0230     0.1560 H     1 <1>   0.0800 
 54 H        5.7720     7.9660    -0.3120 H     1 <1>   0.0800 
@<TRIPOS>BOND
  1   1   2  ar  
  2   2   3  ar  
  3   2   4  1   
  4   4   5  1   
  5   4   6  1   
  6   4   7  1   
  7   5   8  1   
  8   5   9  1   
  9   5  27  1   
 10   6  10  1   
 11   6  28  1   
 12   6  29  1   
 13   7  11  1   
 14   7  30  1   
 15   7  31  1   
 16   8  12  1   
 17   8  13  1   
 18   8  32  1   
 19   9  14  1   
 20   9  33  1   
 21   9  34  1   
 22  10  14  1   
 23  10  35  1   
 24  10  36  1   
 25  11  12  1   
 26  11  37  1   
 27  11  38  1   
 28  12  39  1   
 29  12  40  1   
 30  13  41  1   
 31  13  42  1   
 32  13  43  1   
 33  14  15  1   
 34  15  16  ar  
 35  15  17  ar  
 36  16  18  ar  
 37  16  19  ar  
 38  17  20  ar  
 39  17  44  1   
 40  18  21  ar  
 41  18  22  ar  
 42  19  23  ar  
 43  19  45  1   
 44  20  21  ar  
 45  20  46  1   
 46  21  47  1   
 47  22  24  ar  
 48  22  25  1   
 49  23  24  ar  
 50  23  48  1   
 51  24  26  1   
 52  25  49  1   
 53  25  50  1   
 54  25  51  1   
 55  26  52  1   
 56  26  53  1   
 57  26  54  1   
@<TRIPOS>SUBSTRUCTURE
  1 ****  15 GROUP 4 **** **** 0

# MOE 2024.06 (io_trps.svl 2023.06)
