@<TRIPOS>MOLECULE
NONAME
27 27 1 0 0 
SMALL
USER_CHARGES


@<TRIPOS>ATOM
  1 O       -1.9590    -0.1490     1.9210 O.co2 1 <1>  -0.9000 
  2 C       -1.8040     0.2970     0.7760 C.2   1 <1>   0.9060 
  3 O       -0.9360    -0.1470     0.0120 O.co2 1 <1>  -0.9000 
  4 C       -2.6330     1.4940     0.3330 C.3   1 <1>   0.0140 
  5 O       -3.8540     1.1350    -0.3130 O.3   1 <1>  -0.3420 
  6 C       -4.6410     2.1760    -0.7250 C.2   1 <1>   0.0620 
  7 C       -5.8650     2.0270    -1.3630 C.2   1 <1>   0.1390 
  8 C       -4.4450     3.5070    -0.6280 C.2   1 <1>  -0.3020 
  9 N       -6.4070     3.1770    -1.6500 N.2   1 <1>  -0.7070 
 10 N       -5.5260     4.0920    -1.1890 N.pl3 1 <1>   0.3140 
 11 C       -5.7590     5.5430    -1.3350 C.3   1 <1>   0.0960 
 12 C       -5.9640     6.2450     0.0230 C.3   1 <1>  -0.0800 
 13 C       -7.2120     5.7250     0.7530 C.3   1 <1>  -0.2400 
 14 C       -6.0840     7.7600    -0.1810 C.3   1 <1>  -0.2400 
 15 H       -2.0470     2.0730    -0.3530 H     1 <1>   0.0800 
 16 H       -2.8710     2.0770     1.2010 H     1 <1>   0.0800 
 17 H       -6.3050     1.0730    -1.5900 H     1 <1>   0.1500 
 18 H       -3.6250     4.0530    -0.2050 H     1 <1>   0.1500 
 19 H       -6.6260     5.6820    -1.9540 H     1 <1>   0.0800 
 20 H       -4.9100     5.9620    -1.8420 H     1 <1>   0.0800 
 21 H       -5.0990     6.0600     0.6400 H     1 <1>   0.0800 
 22 H       -8.0930     5.8770     0.1550 H     1 <1>   0.0800 
 23 H       -7.3390     6.2370     1.6910 H     1 <1>   0.0800 
 24 H       -7.1190     4.6720     0.9590 H     1 <1>   0.0800 
 25 H       -6.9400     7.9950    -0.7900 H     1 <1>   0.0800 
 26 H       -5.2030     8.1480    -0.6620 H     1 <1>   0.0800 
 27 H       -6.1940     8.2570     0.7670 H     1 <1>   0.0800 
@<TRIPOS>BOND
  1   1   2  ar  
  2   2   3  ar  
  3   2   4  1   
  4   4   5  1   
  5   4  15  1   
  6   4  16  1   
  7   5   6  1   
  8   6   7  1   
  9   6   8  2   
 10   7   9  2   
 11   7  17  1   
 12   8  10  1   
 13   8  18  1   
 14   9  10  1   
 15  10  11  1   
 16  11  12  1   
 17  11  19  1   
 18  11  20  1   
 19  12  13  1   
 20  12  14  1   
 21  12  21  1   
 22  13  22  1   
 23  13  23  1   
 24  13  24  1   
 25  14  25  1   
 26  14  26  1   
 27  14  27  1   
@<TRIPOS>SUBSTRUCTURE
  1 ****   8 GROUP 4 **** **** 0

# MOE 2024.06 (io_trps.svl 2023.06)
