@<TRIPOS>MOLECULE
NONAME
45 46 1 0 0 
SMALL
USER_CHARGES


@<TRIPOS>ATOM
  1 O        1.4830    -1.5040     0.6890 O.3   1 <1>  -0.3630 
  2 C        1.8730    -0.2220     0.4710 C.ar  1 <1>   0.0830 
  3 C        0.9250    -2.2210    -0.3840 C.3   1 <1>   0.1200 
  4 C        1.0020     0.7770     0.0140 C.ar  1 <1>   0.0830 
  5 C        3.1970     0.0790     0.7420 C.ar  1 <1>  -0.1500 
  6 C       -0.3920    -2.8180     0.1080 C.3   1 <1>  -0.1600 
  7 O       -0.3130     0.4700    -0.2060 O.3   1 <1>  -0.3630 
  8 C        1.5040     2.0610    -0.1910 C.ar  1 <1>  -0.1500 
  9 C        3.6800     1.3600     0.5410 C.ar  1 <1>  -0.1500 
 10 C       -1.1590    -3.4420    -1.0510 C.3   1 <1>   0.3430 
 11 C       -1.2800     1.4950    -0.3000 C.3   1 <1>   0.0400 
 12 C        2.8330     2.3480     0.0710 C.ar  1 <1>  -0.1500 
 13 N       -2.4100    -4.0820    -0.5560 N.4   1 <1>  -0.9590 
 14 C       -2.9840    -5.0050    -1.5710 C.3   1 <1>   0.5240 
 15 C       -3.4280    -3.0830    -0.0900 C.3   1 <1>   0.2630 
 16 C       -4.0460    -5.8310    -0.8870 C.2   1 <1>  -0.1810 
 17 C       -5.4160    -5.7120    -1.0900 C.2   1 <1>   0.1390 
 18 C       -3.9210    -6.8140     0.0340 C.2   1 <1>  -0.3020 
 19 N       -6.0860    -6.5330    -0.3490 N.2   1 <1>  -0.7070 
 20 N       -5.1680    -7.2260     0.3400 N.pl3 1 <1>   0.3140 
 21 C       -5.5560    -8.2850     1.2810 C.3   1 <1>   0.0160 
 22 H        1.6270    -2.9870    -0.6650 H     1 <1>   0.0800 
 23 H        0.7740    -1.5580    -1.2200 H     1 <1>   0.0800 
 24 H        3.8490    -0.6930     1.1090 H     1 <1>   0.1500 
 25 H       -0.9690    -2.0250     0.5490 H     1 <1>   0.0800 
 26 H       -0.1720    -3.5600     0.8550 H     1 <1>   0.0800 
 27 H        0.8810     2.8550    -0.5550 H     1 <1>   0.1500 
 28 H        4.7110     1.5860     0.7510 H     1 <1>   0.1500 
 29 H       -0.5330    -4.1840    -1.5210 H     1 <1>   0.0800 
 30 H       -1.3940    -2.6850    -1.7830 H     1 <1>   0.0800 
 31 H       -2.2540     1.0410    -0.3150 H     1 <1>   0.0800 
 32 H       -1.1210     2.0450    -1.2110 H     1 <1>   0.0800 
 33 H       -1.1920     2.1390     0.5580 H     1 <1>   0.0800 
 34 H        3.2100     3.3430    -0.0880 H     1 <1>   0.1500 
 35 H       -2.1760    -4.6790     0.2490 H     1 <1>   0.4500 
 36 H       -2.2190    -5.6620    -1.9520 H     1 <1>   0.0800 
 37 H       -3.4090    -4.4520    -2.3920 H     1 <1>   0.0800 
 38 H       -3.7210    -2.4370    -0.9020 H     1 <1>   0.0800 
 39 H       -3.0260    -2.4770     0.7050 H     1 <1>   0.0800 
 40 H       -4.3050    -3.5880     0.2830 H     1 <1>   0.0800 
 41 H       -5.8930    -5.0260    -1.7710 H     1 <1>   0.1500 
 42 H       -3.0460    -7.2480     0.4840 H     1 <1>   0.1500 
 43 H       -4.6810    -8.7780     1.6580 H     1 <1>   0.0800 
 44 H       -6.1800    -8.9930     0.7680 H     1 <1>   0.0800 
 45 H       -6.1080    -7.8460     2.0920 H     1 <1>   0.0800 
@<TRIPOS>BOND
  1   1   2  1   
  2   1   3  1   
  3   2   4  ar  
  4   2   5  ar  
  5   3   6  1   
  6   3  22  1   
  7   3  23  1   
  8   4   7  1   
  9   4   8  ar  
 10   5   9  ar  
 11   5  24  1   
 12   6  10  1   
 13   6  25  1   
 14   6  26  1   
 15   7  11  1   
 16   8  12  ar  
 17   8  27  1   
 18   9  12  ar  
 19   9  28  1   
 20  10  13  1   
 21  10  29  1   
 22  10  30  1   
 23  11  31  1   
 24  11  32  1   
 25  11  33  1   
 26  12  34  1   
 27  13  14  1   
 28  13  15  1   
 29  13  35  1   
 30  14  16  1   
 31  14  36  1   
 32  14  37  1   
 33  15  38  1   
 34  15  39  1   
 35  15  40  1   
 36  16  17  1   
 37  16  18  2   
 38  17  19  2   
 39  17  41  1   
 40  18  20  1   
 41  18  42  1   
 42  19  20  1   
 43  20  21  1   
 44  21  43  1   
 45  21  44  1   
 46  21  45  1   
@<TRIPOS>SUBSTRUCTURE
  1 ****   6 GROUP 4 **** **** 0

# MOE 2024.06 (io_trps.svl 2023.06)
