@<TRIPOS>MOLECULE
NONAME
54 56 1 0 0 
SMALL
USER_CHARGES


@<TRIPOS>ATOM
  1 O       -0.2960     0.7220    -0.2970 O.2   1 <1>  -0.5700 
  2 C       -0.3460     1.9230    -0.1690 C.2   1 <1>   0.5690 
  3 N       -1.4810     2.5990     0.2080 N.am  1 <1>  -0.6600 
  4 C        0.9360     2.7020    -0.4650 C.3   1 <1>   0.1810 
  5 C       -1.4660     4.0970     0.3520 C.3   1 <1>   0.3640 
  6 C       -2.7150     1.9390     0.7260 C.3   1 <1>   0.2200 
  7 O        0.9800     3.9530     0.1720 O.3   1 <1>  -0.5600 
  8 C       -2.6220     4.7080    -0.4470 C.ar  1 <1>  -0.1440 
  9 C       -0.1430     4.7680    -0.1030 C.3   1 <1>   0.2610 
 10 C       -2.4020     1.1670     2.0080 C.3   1 <1>  -0.2400 
 11 C       -3.3610     1.0480    -0.3350 C.3   1 <1>  -0.2400 
 12 C       -2.8690     4.3270    -1.7600 C.ar  1 <1>  -0.1500 
 13 C       -3.4360     5.6660     0.1390 C.ar  1 <1>  -0.1500 
 14 C        0.0410     6.1680     0.5140 C.2   1 <1>   0.5690 
 15 C       -3.9120     4.8920    -2.4720 C.ar  1 <1>  -0.1500 
 16 C       -4.4790     6.2330    -0.5720 C.ar  1 <1>  -0.1500 
 17 O       -0.6310     6.4800     1.4730 O.2   1 <1>  -0.5700 
 18 N        0.9580     7.0530    -0.0100 N.am  1 <1>  -0.6600 
 19 C       -4.7180     5.8470    -1.8790 C.ar  1 <1>  -0.1500 
 20 C        2.0110     6.7030    -1.0140 C.3   1 <1>   0.1400 
 21 C        1.1700     8.4040     0.5960 C.3   1 <1>   0.1400 
 22 C        3.4020     6.7720    -0.3690 C.3   1 <1>   0.1400 
 23 C        2.5640     8.4970     1.2380 C.3   1 <1>   0.1400 
 24 N        3.6290     8.1120     0.2570 N.am  1 <1>  -0.6600 
 25 C        4.6920     8.8930    -0.1130 C.2   1 <1>   0.5690 
 26 O        5.4640     8.5540    -0.9760 O.2   1 <1>  -0.5700 
 27 C        4.9360    10.2280     0.5500 C.3   1 <1>  -0.1790 
 28 H        1.0280     2.8510    -1.5250 H     1 <1>   0.0800 
 29 H        1.7800     2.1320    -0.1210 H     1 <1>   0.0800 
 30 H       -1.6150     4.3070     1.3970 H     1 <1>   0.0800 
 31 H       -3.4340     2.7000     0.9810 H     1 <1>   0.0800 
 32 H       -0.1880     4.8960    -1.1680 H     1 <1>   0.0800 
 33 H       -1.7510     0.3360     1.8070 H     1 <1>   0.0800 
 34 H       -3.3120     0.7830     2.4310 H     1 <1>   0.0800 
 35 H       -1.9390     1.8160     2.7290 H     1 <1>   0.0800 
 36 H       -2.7370     0.2070    -0.5720 H     1 <1>   0.0800 
 37 H       -3.5520     1.6120    -1.2290 H     1 <1>   0.0800 
 38 H       -4.2990     0.6730     0.0320 H     1 <1>   0.0800 
 39 H       -2.2550     3.5800    -2.2330 H     1 <1>   0.1500 
 40 H       -3.2610     5.9830     1.1540 H     1 <1>   0.1500 
 41 H       -4.0990     4.5880    -3.4880 H     1 <1>   0.1500 
 42 H       -5.1030     6.9770    -0.1080 H     1 <1>   0.1500 
 43 H       -5.5300     6.2870    -2.4310 H     1 <1>   0.1500 
 44 H        1.8630     5.7200    -1.4180 H     1 <1>   0.0800 
 45 H        1.9680     7.4020    -1.8320 H     1 <1>   0.0800 
 46 H        1.0810     9.1530    -0.1720 H     1 <1>   0.0800 
 47 H        0.4220     8.6120     1.3410 H     1 <1>   0.0800 
 48 H        4.1490     6.5690    -1.1180 H     1 <1>   0.0800 
 49 H        3.4810     6.0100     0.3870 H     1 <1>   0.0800 
 50 H        2.6050     7.8270     2.0800 H     1 <1>   0.0800 
 51 H        2.7140     9.4950     1.6050 H     1 <1>   0.0800 
 52 H        5.0210    10.0990     1.6130 H     1 <1>   0.0800 
 53 H        4.1320    10.9010     0.3230 H     1 <1>   0.0800 
 54 H        5.8530    10.6510     0.1830 H     1 <1>   0.0800 
@<TRIPOS>BOND
  1   1   2  2   
  2   2   3  am  
  3   2   4  1   
  4   3   5  1   
  5   3   6  1   
  6   4   7  1   
  7   4  28  1   
  8   4  29  1   
  9   5   8  1   
 10   5   9  1   
 11   5  30  1   
 12   6  10  1   
 13   6  11  1   
 14   6  31  1   
 15   7   9  1   
 16   8  12  ar  
 17   8  13  ar  
 18   9  14  1   
 19   9  32  1   
 20  10  33  1   
 21  10  34  1   
 22  10  35  1   
 23  11  36  1   
 24  11  37  1   
 25  11  38  1   
 26  12  15  ar  
 27  12  39  1   
 28  13  16  ar  
 29  13  40  1   
 30  14  17  2   
 31  14  18  am  
 32  15  19  ar  
 33  15  41  1   
 34  16  19  ar  
 35  16  42  1   
 36  18  20  1   
 37  18  21  1   
 38  19  43  1   
 39  20  22  1   
 40  20  44  1   
 41  20  45  1   
 42  21  23  1   
 43  21  46  1   
 44  21  47  1   
 45  22  24  1   
 46  22  48  1   
 47  22  49  1   
 48  23  24  1   
 49  23  50  1   
 50  23  51  1   
 51  24  25  am  
 52  25  26  2   
 53  25  27  1   
 54  27  52  1   
 55  27  53  1   
 56  27  54  1   
@<TRIPOS>SUBSTRUCTURE
  1 ****   9 GROUP 4 **** **** 0

# MOE 2024.06 (io_trps.svl 2023.06)
