@<TRIPOS>MOLECULE
NONAME
19 18 1 0 0 
SMALL
USER_CHARGES


@<TRIPOS>ATOM
  1 O        8.5740    -0.1780    -1.9070 O.co2 1 <1>  -0.9000 
  2 C        9.0790     0.2380    -0.8520 C.2   1 <1>   0.9060 
  3 O       10.2870     0.3130    -0.6390 O.co2 1 <1>  -0.9000 
  4 C        8.0850     0.6240     0.2440 C.3   1 <1>   0.2370 
  5 N        6.7170     0.0310    -0.0410 N.4   1 <1>  -0.9590 
  6 C        5.6060     0.9420     0.3020 C.3   1 <1>   0.3430 
  7 C        6.6300    -1.3550     0.4980 C.3   1 <1>   0.2630 
  8 C        4.3240     0.4650    -0.3690 C.3   1 <1>  -0.2400 
  9 H        8.0330     1.6970     0.2530 H     1 <1>   0.0800 
 10 H        8.4660     0.2860     1.1900 H     1 <1>   0.0800 
 11 H        6.7950    -0.0710    -1.0840 H     1 <1>   0.4500 
 12 H        5.8390     1.9340    -0.0510 H     1 <1>   0.0800 
 13 H        5.4780     0.9820     1.3710 H     1 <1>   0.0800 
 14 H        6.6400    -1.3400     1.5740 H     1 <1>   0.0800 
 15 H        7.4710    -1.9340     0.1480 H     1 <1>   0.0800 
 16 H        5.7260    -1.8320     0.1590 H     1 <1>   0.0800 
 17 H        4.4630     0.3900    -1.4330 H     1 <1>   0.0800 
 18 H        3.5420     1.1790    -0.1830 H     1 <1>   0.0800 
 19 H        4.0080    -0.4830     0.0240 H     1 <1>   0.0800 
@<TRIPOS>BOND
  1   1   2  ar  
  2   2   3  ar  
  3   2   4  1   
  4   4   5  1   
  5   4   9  1   
  6   4  10  1   
  7   5   6  1   
  8   5   7  1   
  9   5  11  1   
 10   6   8  1   
 11   6  12  1   
 12   6  13  1   
 13   7  14  1   
 14   7  15  1   
 15   7  16  1   
 16   8  17  1   
 17   8  18  1   
 18   8  19  1   
@<TRIPOS>SUBSTRUCTURE
  1 ****   5 GROUP 4 **** **** 0

# MOE 2024.06 (io_trps.svl 2023.06)
