@<TRIPOS>MOLECULE
NONAME
43 44 1 0 0 
SMALL
USER_CHARGES


@<TRIPOS>ATOM
  1 S       -0.7780     0.8020     1.4220 S.o2  1 <1>   1.4470 
  2 O       -1.4280     2.0230     1.8560 O.2   1 <1>  -0.6500 
  3 O       -0.6470    -0.2800     2.3720 O.2   1 <1>  -0.6500 
  4 N       -1.6350     0.2600     0.0580 N.am  1 <1>  -0.8490 
  5 C        0.8570     1.2400     0.7640 C.ar  1 <1>  -0.0090 
  6 C       -1.0900    -0.9250    -0.6370 C.3   1 <1>   0.1960 
  7 C       -3.0890     0.1960     0.2330 C.3   1 <1>   0.1960 
  8 C        1.8910     0.3120     0.7370 C.ar  1 <1>  -0.1500 
  9 C        1.1110     2.5030     0.2460 C.ar  1 <1>  -0.1500 
 10 C       -1.4950    -2.2520     0.0150 C.3   1 <1>  -0.1860 
 11 C       -3.5300    -1.0890     0.9390 C.3   1 <1>  -0.1600 
 12 C        3.1390     0.6180     0.2180 C.ar  1 <1>  -0.1440 
 13 C        2.3520     2.8340    -0.2690 C.ar  1 <1>  -0.1500 
 14 C       -1.0090    -3.4160    -0.8200 C.2   1 <1>   0.9060 
 15 C       -3.0120    -2.3020     0.1750 C.3   1 <1>   0.2000 
 16 C        3.3780     1.8940    -0.2850 C.ar  1 <1>   0.0820 
 17 C        4.2130    -0.4640     0.2120 C.3   1 <1>  -0.0170 
 18 O       -0.2370    -3.2080    -1.7610 O.co2 1 <1>  -0.9000 
 19 O       -1.4110    -4.5520    -0.5380 O.co2 1 <1>  -0.9000 
 20 O       -3.3520    -3.4380     0.8720 O.3   1 <1>  -0.6800 
 21 O        4.6150     2.1680    -0.7750 O.3   1 <1>  -0.3630 
 22 C        5.0490    -0.3990     1.4920 C.3   1 <1>  -0.2400 
 23 C        4.9430     3.4290    -1.3130 C.3   1 <1>   0.0400 
 24 H       -1.4590    -0.9210    -1.6500 H     1 <1>   0.0800 
 25 H       -0.0180    -0.8670    -0.7040 H     1 <1>   0.0800 
 26 H       -3.4370     1.0550     0.7830 H     1 <1>   0.0800 
 27 H       -3.5490     0.2310    -0.7410 H     1 <1>   0.0800 
 28 H        1.7080    -0.6750     1.1300 H     1 <1>   0.1500 
 29 H        0.3220     3.2370     0.2490 H     1 <1>   0.1500 
 30 H       -1.0250    -2.3380     0.9740 H     1 <1>   0.0800 
 31 H       -4.6020    -1.1240     0.9770 H     1 <1>   0.0800 
 32 H       -3.1520    -1.0990     1.9450 H     1 <1>   0.0800 
 33 H        2.4970     3.8260    -0.6510 H     1 <1>   0.1500 
 34 H       -3.4770    -2.3650    -0.7950 H     1 <1>   0.0800 
 35 H        3.7510    -1.4330     0.1330 H     1 <1>   0.0800 
 36 H        4.8520    -0.3470    -0.6460 H     1 <1>   0.0800 
 37 H       -2.7690    -4.1630     0.4970 H     1 <1>   0.4000 
 38 H        4.4200    -0.5380     2.3530 H     1 <1>   0.0800 
 39 H        5.5320     0.5600     1.5660 H     1 <1>   0.0800 
 40 H        5.8010    -1.1670     1.4820 H     1 <1>   0.0800 
 41 H        5.9680     3.3980    -1.6330 H     1 <1>   0.0800 
 42 H        4.8200     4.1760    -0.5500 H     1 <1>   0.0800 
 43 H        4.3030     3.6250    -2.1550 H     1 <1>   0.0800 
@<TRIPOS>BOND
  1   1   2  2   
  2   1   3  2   
  3   1   4  am  
  4   1   5  1   
  5   4   6  1   
  6   4   7  1   
  7   5   8  ar  
  8   5   9  ar  
  9   6  10  1   
 10   6  24  1   
 11   6  25  1   
 12   7  11  1   
 13   7  26  1   
 14   7  27  1   
 15   8  12  ar  
 16   8  28  1   
 17   9  13  ar  
 18   9  29  1   
 19  10  14  1   
 20  10  15  1   
 21  10  30  1   
 22  11  15  1   
 23  11  31  1   
 24  11  32  1   
 25  12  16  ar  
 26  12  17  1   
 27  13  16  ar  
 28  13  33  1   
 29  14  18  ar  
 30  14  19  ar  
 31  15  20  1   
 32  15  34  1   
 33  16  21  1   
 34  17  22  1   
 35  17  35  1   
 36  17  36  1   
 37  20  37  1   
 38  21  23  1   
 39  22  38  1   
 40  22  39  1   
 41  22  40  1   
 42  23  41  1   
 43  23  42  1   
 44  23  43  1   
@<TRIPOS>SUBSTRUCTURE
  1 ****   5 GROUP 4 **** **** 0

# MOE 2024.06 (io_trps.svl 2023.06)
