@<TRIPOS>MOLECULE
NONAME
48 50 1 0 0 
SMALL
USER_CHARGES


@<TRIPOS>ATOM
  1 O       -1.4170     0.1570     1.4660 O.2   1 <1>  -0.5700 
  2 C       -1.5030     0.5740     0.3250 C.2   1 <1>   0.7160 
  3 N       -1.7140    -0.3150    -0.7040 N.am  1 <1>  -0.6600 
  4 C       -1.4310     1.9710     0.0690 C.2   1 <1>  -0.0860 
  5 C       -2.4210    -1.6160    -0.4450 C.3   1 <1>   0.2010 
  6 C       -1.5920     0.0700    -2.1390 C.3   1 <1>   0.0600 
  7 C       -2.5520     2.7950    -0.0200 C.2   1 <1>   0.3720 
  8 C       -0.3920     2.8000    -0.2040 C.2   1 <1>   0.0870 
  9 C       -3.9230    -1.5740    -0.7500 C.2   1 <1>   0.5690 
 10 N       -2.2160     3.9930    -0.3460 N.2   1 <1>  -0.4100 
 11 N       -3.8640     2.3520     0.2180 N.pl3 1 <1>  -0.8210 
 12 O       -0.9100     3.9790    -0.4460 O.3   1 <1>  -0.0190 
 13 C        1.0300     2.5820    -0.2830 C.ar  1 <1>   0.0530 
 14 O       -4.4830    -2.5890    -1.0760 O.2   1 <1>  -0.5700 
 15 N       -4.6270    -0.4240    -0.6670 N.am  1 <1>  -0.8000 
 16 C       -4.1310     2.0070     1.6470 C.3   1 <1>   0.2090 
 17 C       -4.9700     3.2210    -0.2720 C.3   1 <1>   0.2090 
 18 C        1.8370     3.3900    -1.0860 C.ar  1 <1>  -0.1500 
 19 C        1.6580     1.5590     0.4300 C.ar  1 <1>  -0.1500 
 20 C       -5.4470     2.6850     2.0110 C.3   1 <1>  -0.1600 
 21 C       -6.1270     2.9530     0.6770 C.3   1 <1>  -0.1600 
 22 C        3.1990     3.1780    -1.1820 C.ar  1 <1>  -0.1500 
 23 C        3.0190     1.3400     0.3380 C.ar  1 <1>  -0.1500 
 24 C        3.8040     2.1520    -0.4760 C.ar  1 <1>   0.0830 
 25 O        5.1410     2.0070    -0.6250 O.3   1 <1>  -0.3630 
 26 C        5.8570     1.0050     0.0630 C.3   1 <1>   0.0400 
 27 H       -2.3000    -1.9080     0.5820 H     1 <1>   0.0800 
 28 H       -1.9730    -2.3840    -1.0490 H     1 <1>   0.0800 
 29 H       -0.8370     0.8270    -2.2650 H     1 <1>   0.0800 
 30 H       -2.5330     0.4510    -2.4970 H     1 <1>   0.0800 
 31 H       -1.3120    -0.7860    -2.7280 H     1 <1>   0.0800 
 32 H       -5.6230    -0.4230    -0.8790 H     1 <1>   0.3700 
 33 H       -4.2160     0.4890    -0.4140 H     1 <1>   0.3700 
 34 H       -3.3350     2.3450     2.2910 H     1 <1>   0.0800 
 35 H       -4.2250     0.9390     1.7430 H     1 <1>   0.0800 
 36 H       -5.2260     2.9770    -1.2890 H     1 <1>   0.0800 
 37 H       -4.6930     4.2610    -0.2130 H     1 <1>   0.0800 
 38 H        1.3910     4.1940    -1.6440 H     1 <1>   0.1500 
 39 H        1.0770     0.9240     1.0760 H     1 <1>   0.1500 
 40 H       -5.2320     3.6160     2.5060 H     1 <1>   0.0800 
 41 H       -6.0440     2.0720     2.6630 H     1 <1>   0.0800 
 42 H       -6.6580     2.0770     0.3480 H     1 <1>   0.0800 
 43 H       -6.8080     3.7850     0.7210 H     1 <1>   0.0800 
 44 H        3.8070     3.8080    -1.8060 H     1 <1>   0.1500 
 45 H        3.4520     0.5380     0.9050 H     1 <1>   0.1500 
 46 H        6.8930     1.0890    -0.2100 H     1 <1>   0.0800 
 47 H        5.4780     0.0420    -0.2290 H     1 <1>   0.0800 
 48 H        5.7440     1.1600     1.1210 H     1 <1>   0.0800 
@<TRIPOS>BOND
  1   1   2  2   
  2   2   3  am  
  3   2   4  1   
  4   3   5  1   
  5   3   6  1   
  6   4   7  1   
  7   4   8  2   
  8   5   9  1   
  9   5  27  1   
 10   5  28  1   
 11   6  29  1   
 12   6  30  1   
 13   6  31  1   
 14   7  10  2   
 15   7  11  1   
 16   8  12  1   
 17   8  13  1   
 18   9  14  2   
 19   9  15  am  
 20  10  12  1   
 21  11  16  1   
 22  11  17  1   
 23  13  18  ar  
 24  13  19  ar  
 25  15  32  1   
 26  15  33  1   
 27  16  20  1   
 28  16  34  1   
 29  16  35  1   
 30  17  21  1   
 31  17  36  1   
 32  17  37  1   
 33  18  22  ar  
 34  18  38  1   
 35  19  23  ar  
 36  19  39  1   
 37  20  21  1   
 38  20  40  1   
 39  20  41  1   
 40  21  42  1   
 41  21  43  1   
 42  22  24  ar  
 43  22  44  1   
 44  23  24  ar  
 45  23  45  1   
 46  24  25  1   
 47  25  26  1   
 48  26  46  1   
 49  26  47  1   
 50  26  48  1   
@<TRIPOS>SUBSTRUCTURE
  1 ****   4 GROUP 4 **** **** 0

# MOE 2024.06 (io_trps.svl 2023.06)
