@<TRIPOS>MOLECULE
NONAME
41 43 1 0 0 
SMALL
USER_CHARGES


@<TRIPOS>ATOM
  1 CL      -0.6600    -0.2660    -1.3250 Cl    1 <1>  -0.1230 
  2 C       -1.2460    -1.7010    -0.5160 C.2   1 <1>   0.4120 
  3 N       -2.1750    -1.6940     0.3690 N.2   1 <1>  -0.4100 
  4 C       -0.7560    -2.9750    -0.7650 C.2   1 <1>  -0.1500 
  5 O       -2.3120    -2.9440     0.7190 O.3   1 <1>  -0.0190 
  6 C       -1.4900    -3.7320     0.0660 C.2   1 <1>  -0.0400 
  7 C       -1.4990    -5.2270     0.3280 C.3   1 <1>   0.0200 
  8 C       -2.8720    -5.8340     0.0020 C.3   1 <1>  -0.0990 
  9 C       -2.9210    -7.3430     0.1800 C.2   1 <1>   0.5690 
 10 O       -1.9640    -7.9150     0.6450 O.2   1 <1>  -0.5700 
 11 N       -4.0430    -8.0280    -0.1880 N.am  1 <1>  -0.6600 
 12 C       -5.3340    -7.4570    -0.6520 C.3   1 <1>   0.1400 
 13 C       -4.1520    -9.5040    -0.0630 C.3   1 <1>   0.1400 
 14 C       -6.3600    -8.5400    -0.3240 C.3   1 <1>   0.2000 
 15 C       -5.5780    -9.8460    -0.5100 C.3   1 <1>  -0.0800 
 16 O       -6.7210    -8.4000     1.0070 O.3   1 <1>  -0.6800 
 17 C       -6.1740   -11.0790     0.1940 C.3   1 <1>  -0.0170 
 18 C       -5.3730   -12.3300    -0.1300 C.ar  1 <1>  -0.1430 
 19 C       -4.3960   -12.8150     0.7160 C.ar  1 <1>  -0.1500 
 20 C       -5.5820   -13.0450    -1.2920 C.ar  1 <1>  -0.1500 
 21 C       -3.6920   -13.9560     0.3670 C.ar  1 <1>   0.1600 
 22 C       -4.8240   -14.1760    -1.5460 C.ar  1 <1>   0.1600 
 23 N       -3.8830   -14.6480    -0.7450 N.ar  1 <1>  -0.6200 
 24 H        0.0190    -3.2350    -1.4610 H     1 <1>   0.1500 
 25 H       -0.7420    -5.6980    -0.2750 H     1 <1>   0.0800 
 26 H       -1.2580    -5.4050     1.3620 H     1 <1>   0.0800 
 27 H       -3.1230    -5.6020    -1.0160 H     1 <1>   0.0800 
 28 H       -3.6110    -5.3920     0.6440 H     1 <1>   0.0800 
 29 H       -5.5720    -6.5280    -0.1630 H     1 <1>   0.0800 
 30 H       -5.2880    -7.3070    -1.7170 H     1 <1>   0.0800 
 31 H       -3.4170    -9.9940    -0.6790 H     1 <1>   0.0800 
 32 H       -3.9910    -9.7800     0.9660 H     1 <1>   0.0800 
 33 H       -7.2490    -8.4810    -0.9290 H     1 <1>   0.0800 
 34 H       -5.5380   -10.0500    -1.5660 H     1 <1>   0.0800 
 35 H       -5.9080    -8.3340     1.5480 H     1 <1>   0.4000 
 36 H       -7.1930   -11.2160    -0.1260 H     1 <1>   0.0800 
 37 H       -6.1920   -10.9320     1.2600 H     1 <1>   0.0800 
 38 H       -4.1720   -12.3190     1.6420 H     1 <1>   0.1500 
 39 H       -6.3270   -12.7360    -2.0010 H     1 <1>   0.1500 
 40 H       -2.9330   -14.3180     1.0380 H     1 <1>   0.1500 
 41 H       -5.0020   -14.7220    -2.4570 H     1 <1>   0.1500 
@<TRIPOS>BOND
  1   1   2  1   
  2   2   3  2   
  3   2   4  1   
  4   3   5  1   
  5   4   6  2   
  6   4  24  1   
  7   5   6  1   
  8   6   7  1   
  9   7   8  1   
 10   7  25  1   
 11   7  26  1   
 12   8   9  1   
 13   8  27  1   
 14   8  28  1   
 15   9  10  2   
 16   9  11  am  
 17  11  12  1   
 18  11  13  1   
 19  12  14  1   
 20  12  29  1   
 21  12  30  1   
 22  13  15  1   
 23  13  31  1   
 24  13  32  1   
 25  14  15  1   
 26  14  16  1   
 27  14  33  1   
 28  15  17  1   
 29  15  34  1   
 30  16  35  1   
 31  17  18  1   
 32  17  36  1   
 33  17  37  1   
 34  18  19  ar  
 35  18  20  ar  
 36  19  21  ar  
 37  19  38  1   
 38  20  22  ar  
 39  20  39  1   
 40  21  23  ar  
 41  21  40  1   
 42  22  23  ar  
 43  22  41  1   
@<TRIPOS>SUBSTRUCTURE
  1 ****  11 GROUP 4 **** **** 0

# MOE 2024.06 (io_trps.svl 2023.06)
