@<TRIPOS>MOLECULE
NONAME
55 57 1 0 0 
SMALL
USER_CHARGES


@<TRIPOS>ATOM
  1 O       -3.3060     2.4440     0.7110 O.co2 1 <1>  -0.9000 
  2 C       -2.4550     2.5530    -0.1870 C.2   1 <1>   0.9060 
  3 O       -2.7830     2.4830    -1.3770 O.co2 1 <1>  -0.9000 
  4 C       -0.9820     2.7480     0.2030 C.3   1 <1>  -0.1060 
  5 C       -0.8830     3.7140     1.4120 C.3   1 <1>   0.2000 
  6 C       -0.1820     3.3840    -0.9700 C.3   1 <1>   0.1400 
  7 C       -0.4240     1.3330     0.5260 C.3   1 <1>  -0.0650 
  8 O       -1.5530     3.1890     2.4990 O.3   1 <1>  -0.6800 
  9 C       -1.4780     5.1050     1.1230 C.3   1 <1>  -0.1600 
 10 N       -0.1840     4.8870    -0.9580 N.am  1 <1>  -0.6600 
 11 C        1.0260     1.2750     1.0390 C.3   1 <1>  -0.1950 
 12 C       -1.4080     5.4800    -0.3610 C.3   1 <1>   0.1400 
 13 C        0.9060     5.6050    -1.3890 C.2   1 <1>   0.5690 
 14 C        2.1920     1.1010     0.1170 C.3   1 <1>  -0.2000 
 15 C        1.7650    -0.0250     1.0120 C.3   1 <1>  -0.2000 
 16 O        1.8910     5.0640    -1.8410 O.2   1 <1>  -0.5700 
 17 C        0.9180     7.1300    -1.3490 C.3   1 <1>   0.1810 
 18 O        0.8850     7.6160    -0.0150 O.3   1 <1>  -0.3630 
 19 C        1.2050     8.9200     0.1390 C.ar  1 <1>   0.0830 
 20 C        2.5440     9.3090     0.2050 C.ar  1 <1>  -0.1430 
 21 C        0.1770     9.8530     0.2310 C.ar  1 <1>  -0.1430 
 22 C        2.8480    10.6630     0.3140 C.ar  1 <1>  -0.1430 
 23 C        3.6610     8.2640     0.1660 C.3   1 <1>  -0.0970 
 24 C        0.4990    11.1930     0.3490 C.ar  1 <1>  -0.1500 
 25 C       -1.2830     9.4270     0.2100 C.3   1 <1>  -0.0970 
 26 C        1.8220    11.5930     0.3850 C.ar  1 <1>  -0.1500 
 27 C        4.2850    11.1660     0.3630 C.3   1 <1>  -0.0970 
 28 H        0.1480     3.8360     1.6920 H     1 <1>   0.0800 
 29 H       -0.5530     3.0380    -1.9200 H     1 <1>   0.0800 
 30 H        0.8400     3.0670    -0.9070 H     1 <1>   0.0800 
 31 H       -1.0530     0.8840     1.2750 H     1 <1>   0.0800 
 32 H       -0.5150     0.7220    -0.3560 H     1 <1>   0.0800 
 33 H       -2.4140     2.8380     2.1230 H     1 <1>   0.4000 
 34 H       -2.5100     5.1400     1.4240 H     1 <1>   0.0800 
 35 H       -0.9360     5.8350     1.6950 H     1 <1>   0.0800 
 36 H        1.1690     1.8630     1.9300 H     1 <1>   0.1000 
 37 H       -1.4330     6.5470    -0.4700 H     1 <1>   0.0800 
 38 H       -2.2660     5.0840    -0.8790 H     1 <1>   0.0800 
 39 H        2.0150     1.0100    -0.9410 H     1 <1>   0.1000 
 40 H        3.0960     1.6410     0.3380 H     1 <1>   0.1000 
 41 H        2.3810    -0.2820     1.8560 H     1 <1>   0.1000 
 42 H        1.2890    -0.8840     0.5710 H     1 <1>   0.1000 
 43 H        0.0680     7.5200    -1.8750 H     1 <1>   0.0800 
 44 H        1.8150     7.4870    -1.8210 H     1 <1>   0.0800 
 45 H        4.4290     8.5040     0.8770 H     1 <1>   0.0800 
 46 H        4.0920     8.2270    -0.8170 H     1 <1>   0.0800 
 47 H        3.2950     7.2850     0.4160 H     1 <1>   0.0800 
 48 H       -0.2770    11.9350     0.4160 H     1 <1>   0.1500 
 49 H       -1.9270    10.2430     0.4840 H     1 <1>   0.0800 
 50 H       -1.4390     8.6250     0.9100 H     1 <1>   0.0800 
 51 H       -1.5530     9.0900    -0.7740 H     1 <1>   0.0800 
 52 H        2.0460    12.6410     0.4730 H     1 <1>   0.1500 
 53 H        4.3230    12.2360     0.2690 H     1 <1>   0.0800 
 54 H        4.8550    10.7410    -0.4430 H     1 <1>   0.0800 
 55 H        4.7370    10.8910     1.2990 H     1 <1>   0.0800 
@<TRIPOS>BOND
  1   1   2  ar  
  2   2   3  ar  
  3   2   4  1   
  4   4   5  1   
  5   4   6  1   
  6   4   7  1   
  7   5   8  1   
  8   5   9  1   
  9   5  28  1   
 10   6  10  1   
 11   6  29  1   
 12   6  30  1   
 13   7  11  1   
 14   7  31  1   
 15   7  32  1   
 16   8  33  1   
 17   9  12  1   
 18   9  34  1   
 19   9  35  1   
 20  10  12  1   
 21  10  13  am  
 22  11  14  1   
 23  11  15  1   
 24  11  36  1   
 25  12  37  1   
 26  12  38  1   
 27  13  16  2   
 28  13  17  1   
 29  14  15  1   
 30  14  39  1   
 31  14  40  1   
 32  15  41  1   
 33  15  42  1   
 34  17  18  1   
 35  17  43  1   
 36  17  44  1   
 37  18  19  1   
 38  19  20  ar  
 39  19  21  ar  
 40  20  22  ar  
 41  20  23  1   
 42  21  24  ar  
 43  21  25  1   
 44  22  26  ar  
 45  22  27  1   
 46  23  45  1   
 47  23  46  1   
 48  23  47  1   
 49  24  26  ar  
 50  24  48  1   
 51  25  49  1   
 52  25  50  1   
 53  25  51  1   
 54  26  52  1   
 55  27  53  1   
 56  27  54  1   
 57  27  55  1   
@<TRIPOS>SUBSTRUCTURE
  1 ****  10 GROUP 4 **** **** 0

# MOE 2024.06 (io_trps.svl 2023.06)
