@<TRIPOS>MOLECULE
NONAME
51 54 1 0 0 
SMALL
USER_CHARGES


@<TRIPOS>ATOM
  1 S       -0.4110    -0.0030    -1.1530 S.3   1 <1>  -0.0800 
  2 C        0.3380     1.5150    -0.7460 C.2   1 <1>   0.1240 
  3 C        1.0840    -0.8950    -0.8030 C.2   1 <1>  -0.0450 
  4 N       -0.2720     2.7210    -0.7900 N.pl3 1 <1>  -0.5340 
  5 C        1.6300     1.3620    -0.3670 C.2   1 <1>  -0.0860 
  6 C        2.0480    -0.0120    -0.4170 C.2   1 <1>  -0.1810 
  7 C        1.0700    -2.3210    -0.9910 C.2   1 <1>   0.7150 
  8 C        0.4500     3.8240    -0.4330 C.2   1 <1>   0.4400 
  9 C        2.3150     2.5670     0.0040 C.2   1 <1>   0.8670 
 10 C        3.4760    -0.4070    -0.0660 C.3   1 <1>  -0.0590 
 11 O        1.8700    -2.8460    -1.7410 O.2   1 <1>  -0.5700 
 12 N        0.1680    -3.1380    -0.3330 N.am  1 <1>  -0.6600 
 13 N        1.6740     3.7860    -0.0500 N.2   1 <1>  -0.6610 
 14 O        3.4740     2.5550     0.3870 O.2   1 <1>  -0.5700 
 15 C       -0.5330    -2.7500     0.9300 C.3   1 <1>   0.1400 
 16 C        0.0130    -4.5780    -0.7050 C.3   1 <1>   0.1400 
 17 C       -2.0220    -3.1620     0.9090 C.3   1 <1>   0.4230 
 18 C       -1.4720    -4.9830    -0.7310 C.3   1 <1>   0.3430 
 19 N       -2.2020    -4.6270     0.5470 N.4   1 <1>  -0.9590 
 20 C       -2.8320    -2.2560    -0.0460 C.3   1 <1>   0.1200 
 21 C       -3.6740    -4.9390     0.4970 C.3   1 <1>   0.4230 
 22 O       -4.1780    -2.6300    -0.0460 O.3   1 <1>  -0.5600 
 23 C       -4.4310    -3.9540    -0.4280 C.3   1 <1>   0.1200 
 24 C       -3.9040    -6.4110     0.1180 C.3   1 <1>  -0.1600 
 25 C       -5.3380    -6.8770     0.4170 C.3   1 <1>  -0.1600 
 26 C       -5.5030    -8.3660     0.1030 C.3   1 <1>  -0.2400 
 27 H       -1.2400     2.8190    -1.1060 H     1 <1>   0.4000 
 28 H       -0.0600     4.7700    -0.4830 H     1 <1>   0.0600 
 29 H        4.1660     0.0980    -0.7200 H     1 <1>   0.0800 
 30 H        3.6280    -1.4660    -0.1720 H     1 <1>   0.0800 
 31 H        3.7010    -0.1280     0.9480 H     1 <1>   0.0800 
 32 H       -0.0470    -3.2390     1.7570 H     1 <1>   0.0800 
 33 H       -0.4550    -1.6920     1.1050 H     1 <1>   0.0800 
 34 H        0.4350    -4.7610    -1.6790 H     1 <1>   0.0800 
 35 H        0.5510    -5.1880     0.0000 H     1 <1>   0.0800 
 36 H       -2.4160    -2.9970     1.8980 H     1 <1>   0.0800 
 37 H       -1.5340    -6.0450    -0.9060 H     1 <1>   0.0800 
 38 H       -1.9400    -4.4880    -1.5650 H     1 <1>   0.0800 
 39 H       -1.7960    -5.1870     1.3060 H     1 <1>   0.4500 
 40 H       -2.4570    -2.3060    -1.0540 H     1 <1>   0.0800 
 41 H       -2.7840    -1.2330     0.2840 H     1 <1>   0.0800 
 42 H       -4.0780    -4.8010     1.4870 H     1 <1>   0.0800 
 43 H       -5.4930    -4.1070    -0.3510 H     1 <1>   0.0800 
 44 H       -4.1450    -4.0780    -1.4580 H     1 <1>   0.0800 
 45 H       -3.7080    -6.5630    -0.9290 H     1 <1>   0.0800 
 46 H       -3.2310    -7.0300     0.6870 H     1 <1>   0.0800 
 47 H       -5.5720    -6.7140     1.4560 H     1 <1>   0.0800 
 48 H       -6.0480    -6.3250    -0.1750 H     1 <1>   0.0800 
 49 H       -4.8360    -8.9610     0.7030 H     1 <1>   0.0800 
 50 H       -5.3040    -8.5640    -0.9360 H     1 <1>   0.0800 
 51 H       -6.5120    -8.6760     0.3160 H     1 <1>   0.0800 
@<TRIPOS>BOND
  1   1   2  1   
  2   1   3  1   
  3   2   4  1   
  4   2   5  2   
  5   3   6  2   
  6   3   7  1   
  7   4   8  1   
  8   4  27  1   
  9   5   6  1   
 10   5   9  1   
 11   6  10  1   
 12   7  11  2   
 13   7  12  am  
 14   8  13  2   
 15   8  28  1   
 16   9  13  1   
 17   9  14  2   
 18  10  29  1   
 19  10  30  1   
 20  10  31  1   
 21  12  15  1   
 22  12  16  1   
 23  15  17  1   
 24  15  32  1   
 25  15  33  1   
 26  16  18  1   
 27  16  34  1   
 28  16  35  1   
 29  17  19  1   
 30  17  20  1   
 31  17  36  1   
 32  18  19  1   
 33  18  37  1   
 34  18  38  1   
 35  19  21  1   
 36  19  39  1   
 37  20  22  1   
 38  20  40  1   
 39  20  41  1   
 40  21  23  1   
 41  21  24  1   
 42  21  42  1   
 43  22  23  1   
 44  23  43  1   
 45  23  44  1   
 46  24  25  1   
 47  24  45  1   
 48  24  46  1   
 49  25  26  1   
 50  25  47  1   
 51  25  48  1   
 52  26  49  1   
 53  26  50  1   
 54  26  51  1   
@<TRIPOS>SUBSTRUCTURE
  1 ****  15 GROUP 4 **** **** 0

# MOE 2024.06 (io_trps.svl 2023.06)
