@<TRIPOS>MOLECULE
NONAME
49 51 1 0 0 
SMALL
USER_CHARGES


@<TRIPOS>ATOM
  1 O        1.9430    -1.0010    -1.3010 O.3   1 <1>  -0.0190 
  2 N        2.2820     0.2410    -1.4900 N.2   1 <1>  -0.4100 
  3 C        1.7640    -1.2690    -0.0360 C.2   1 <1>  -0.0400 
  4 C        2.3210     0.7860    -0.3240 C.2   1 <1>   0.1080 
  5 C        1.9950    -0.1450     0.6600 C.2   1 <1>  -0.1500 
  6 C        1.3690    -2.6710     0.3960 C.3   1 <1>   0.2900 
  7 C        2.6740     2.2440    -0.0500 C.3   1 <1>   0.1010 
  8 N        0.0420    -3.0540    -0.1390 N.3   1 <1>  -0.8100 
  9 C        1.6620     3.1910    -0.7170 C.3   1 <1>  -0.1600 
 10 C        4.1050     2.5630    -0.5160 C.3   1 <1>  -0.1600 
 11 C       -0.2360    -4.4890     0.0400 C.3   1 <1>   0.1100 
 12 C       -1.0240    -2.1910     0.4010 C.3   1 <1>   0.0300 
 13 C        2.0170     4.6650    -0.4700 C.3   1 <1>  -0.1600 
 14 C        4.4650     4.0360    -0.2690 C.3   1 <1>  -0.1600 
 15 C       -1.1990    -4.9920    -1.0470 C.3   1 <1>   0.3540 
 16 C        3.4480     4.9730    -0.9320 C.3   1 <1>  -0.1600 
 17 N       -1.4040    -6.4660    -0.9320 N.pl3 1 <1>  -0.7640 
 18 C       -2.4010    -7.1200    -0.3480 C.cat 1 <1>   0.6560 
 19 C       -0.5560    -7.4080    -1.4690 C.2   1 <1>   0.2000 
 20 N       -2.2240    -8.4230    -0.4800 N.pl3 1 <1>  -0.7000 
 21 C       -3.5720    -6.4870     0.3660 C.3   1 <1>  -0.0960 
 22 C       -1.0660    -8.6240    -1.1860 C.2   1 <1>   0.2000 
 23 H        1.9520     0.0340     1.7180 H     1 <1>   0.1500 
 24 H        1.3610    -2.7290     1.4700 H     1 <1>   0.0800 
 25 H        2.1180    -3.3490     0.0250 H     1 <1>   0.0800 
 26 H        2.6270     2.4030     1.0130 H     1 <1>   0.0800 
 27 H        0.6760     2.9880    -0.3380 H     1 <1>   0.0800 
 28 H        1.6500     3.0020    -1.7780 H     1 <1>   0.0800 
 29 H        4.1880     2.3500    -1.5680 H     1 <1>   0.0800 
 30 H        4.8010     1.9280     0.0020 H     1 <1>   0.0800 
 31 H       -0.6450    -4.6660     1.0200 H     1 <1>   0.0800 
 32 H        0.6820    -5.0420    -0.0550 H     1 <1>   0.0800 
 33 H       -0.8310    -1.1620     0.1460 H     1 <1>   0.0800 
 34 H       -1.0770    -2.2780     1.4730 H     1 <1>   0.0800 
 35 H       -1.9770    -2.4540    -0.0210 H     1 <1>   0.0800 
 36 H        1.9260     4.8840     0.5800 H     1 <1>   0.0800 
 37 H        1.3240     5.2950    -1.0010 H     1 <1>   0.0800 
 38 H        5.4480     4.2360    -0.6610 H     1 <1>   0.0800 
 39 H        4.4880     4.2260     0.7910 H     1 <1>   0.0800 
 40 H       -0.7850    -4.7640    -2.0150 H     1 <1>   0.0800 
 41 H       -2.1430    -4.4850    -0.9590 H     1 <1>   0.0800 
 42 H        3.6910     5.9950    -0.6970 H     1 <1>   0.0800 
 43 H        3.5070     4.8590    -2.0020 H     1 <1>   0.0800 
 44 H        0.3430    -7.1610    -2.0120 H     1 <1>   0.1500 
 45 H       -2.8440    -9.1570    -0.1260 H     1 <1>   0.4500 
 46 H       -3.2180    -5.8080     1.1190 H     1 <1>   0.0800 
 47 H       -4.1750    -7.2410     0.8380 H     1 <1>   0.0800 
 48 H       -4.1780    -5.9490    -0.3390 H     1 <1>   0.0800 
 49 H       -0.6840    -9.6010    -1.4410 H     1 <1>   0.1500 
@<TRIPOS>BOND
  1   1   2  1   
  2   1   3  1   
  3   2   4  2   
  4   3   5  2   
  5   3   6  1   
  6   4   5  1   
  7   4   7  1   
  8   5  23  1   
  9   6   8  1   
 10   6  24  1   
 11   6  25  1   
 12   7   9  1   
 13   7  10  1   
 14   7  26  1   
 15   8  11  1   
 16   8  12  1   
 17   9  13  1   
 18   9  27  1   
 19   9  28  1   
 20  10  14  1   
 21  10  29  1   
 22  10  30  1   
 23  11  15  1   
 24  11  31  1   
 25  11  32  1   
 26  12  33  1   
 27  12  34  1   
 28  12  35  1   
 29  13  16  1   
 30  13  36  1   
 31  13  37  1   
 32  14  16  1   
 33  14  38  1   
 34  14  39  1   
 35  15  17  1   
 36  15  40  1   
 37  15  41  1   
 38  16  42  1   
 39  16  43  1   
 40  17  18  ar  
 41  17  19  1   
 42  18  20  ar  
 43  18  21  1   
 44  19  22  2   
 45  19  44  1   
 46  20  22  1   
 47  20  45  1   
 48  21  46  1   
 49  21  47  1   
 50  21  48  1   
 51  22  49  1   
@<TRIPOS>SUBSTRUCTURE
  1 ****   3 GROUP 4 **** **** 0

# MOE 2024.06 (io_trps.svl 2023.06)
