@<TRIPOS>MOLECULE
NONAME
39 41 1 0 0 
SMALL
USER_CHARGES


@<TRIPOS>ATOM
  1 S        0.1190    -0.1100     1.7860 S.3   1 <1>  -0.0800 
  2 C        1.2330    -0.9010     0.6600 C.2   1 <1>  -0.0450 
  3 C        0.7730     1.4730     1.4440 C.2   1 <1>  -0.1100 
  4 C        2.0310     0.0520     0.1030 C.2   1 <1>  -0.1810 
  5 C        1.1740    -2.3390     0.5190 C.2   1 <1>   0.7150 
  6 C        1.7670     1.3830     0.5430 C.2   1 <1>  -0.1500 
  7 C        3.1380    -0.1900    -0.9090 C.3   1 <1>  -0.0590 
  8 O        2.2050    -2.9820     0.4310 O.2   1 <1>  -0.5700 
  9 N       -0.0200    -3.0260     0.4500 N.am  1 <1>  -0.6600 
 10 C       -1.3110    -2.4280     0.0250 C.3   1 <1>   0.1400 
 11 C       -0.0720    -4.5050     0.3440 C.3   1 <1>   0.1400 
 12 C       -2.0750    -3.5800    -0.6250 C.3   1 <1>   0.2000 
 13 C       -1.5320    -4.8430     0.0380 C.3   1 <1>  -0.0800 
 14 O       -3.4400    -3.4760    -0.4140 O.3   1 <1>  -0.6800 
 15 C       -1.7050    -6.0980    -0.8290 C.3   1 <1>   0.0200 
 16 C       -1.0760    -7.3080    -0.1660 C.2   1 <1>  -0.0400 
 17 O       -1.5220    -7.7260     0.9880 O.3   1 <1>  -0.0190 
 18 C       -0.0670    -8.1110    -0.5340 C.2   1 <1>  -0.1500 
 19 N       -0.8630    -8.7640     1.4150 N.2   1 <1>  -0.4100 
 20 C        0.0200    -9.0190     0.5170 C.2   1 <1>   0.1080 
 21 C        1.0160   -10.1550     0.6020 C.3   1 <1>  -0.0590 
 22 H        0.3440     2.3140     1.9590 H     1 <1>   0.1500 
 23 H        2.3340     2.2170     0.1670 H     1 <1>   0.1500 
 24 H        2.9660     0.4010    -1.7910 H     1 <1>   0.0800 
 25 H        3.1830    -1.2240    -1.1970 H     1 <1>   0.0800 
 26 H        4.0860     0.0860    -0.4840 H     1 <1>   0.0800 
 27 H       -1.8340    -2.0690     0.8930 H     1 <1>   0.0800 
 28 H       -1.1520    -1.6260    -0.6760 H     1 <1>   0.0800 
 29 H        0.5740    -4.8240    -0.4580 H     1 <1>   0.0800 
 30 H        0.2540    -4.9640     1.2630 H     1 <1>   0.0800 
 31 H       -1.8940    -3.5820    -1.6860 H     1 <1>   0.0800 
 32 H       -2.0260    -4.9920     0.9830 H     1 <1>   0.0800 
 33 H       -3.6450    -3.5250     0.5400 H     1 <1>   0.4000 
 34 H       -1.2500    -5.9460    -1.7920 H     1 <1>   0.0800 
 35 H       -2.7530    -6.2880    -0.9830 H     1 <1>   0.0800 
 36 H        0.5490    -8.0890    -1.4140 H     1 <1>   0.1500 
 37 H        0.8950   -10.8100    -0.2410 H     1 <1>   0.0800 
 38 H        0.8560   -10.7160     1.5050 H     1 <1>   0.0800 
 39 H        2.0160    -9.7630     0.6080 H     1 <1>   0.0800 
@<TRIPOS>BOND
  1   1   2  1   
  2   1   3  1   
  3   2   4  2   
  4   2   5  1   
  5   3   6  2   
  6   3  22  1   
  7   4   6  1   
  8   4   7  1   
  9   5   8  2   
 10   5   9  am  
 11   6  23  1   
 12   7  24  1   
 13   7  25  1   
 14   7  26  1   
 15   9  10  1   
 16   9  11  1   
 17  10  12  1   
 18  10  27  1   
 19  10  28  1   
 20  11  13  1   
 21  11  29  1   
 22  11  30  1   
 23  12  13  1   
 24  12  14  1   
 25  12  31  1   
 26  13  15  1   
 27  13  32  1   
 28  14  33  1   
 29  15  16  1   
 30  15  34  1   
 31  15  35  1   
 32  16  17  1   
 33  16  18  2   
 34  17  19  1   
 35  18  20  1   
 36  18  36  1   
 37  19  20  2   
 38  20  21  1   
 39  21  37  1   
 40  21  38  1   
 41  21  39  1   
@<TRIPOS>SUBSTRUCTURE
  1 ****  11 GROUP 4 **** **** 0

# MOE 2024.06 (io_trps.svl 2023.06)
