@<TRIPOS>MOLECULE
NONAME
48 50 1 0 0 
SMALL
USER_CHARGES


@<TRIPOS>ATOM
  1 F       -1.3680    -0.5260     1.8690 F     1 <1>  -0.1900 
  2 C       -2.4440    -0.8630     1.2030 C.ar  1 <1>   0.1900 
  3 C       -3.5740    -1.2190     1.8980 C.ar  1 <1>  -0.1500 
  4 C       -2.3800    -0.8400    -0.1940 C.ar  1 <1>  -0.1500 
  5 C       -4.6990    -1.5710     1.1560 C.ar  1 <1>   0.2270 
  6 C       -3.4950    -1.1890    -0.9250 C.ar  1 <1>  -0.1500 
  7 N       -5.9310    -1.9590     1.5870 N.2   1 <1>  -0.5650 
  8 C       -4.6530    -1.5540    -0.2280 C.ar  1 <1>  -0.1520 
  9 C       -6.5980    -2.1680     0.5070 C.2   1 <1>   0.0060 
 10 N       -5.8900    -1.9430    -0.6290 N.pl3 1 <1>   0.0330 
 11 C       -8.0440    -2.6250     0.4850 C.3   1 <1>   0.0200 
 12 C       -8.1630    -4.0590    -0.0440 C.3   1 <1>  -0.1600 
 13 C       -9.6160    -4.5280    -0.0440 C.3   1 <1>   0.1400 
 14 N       -9.6790    -5.8730    -0.6410 N.am  1 <1>  -0.7300 
 15 C      -10.1970    -6.1890    -1.8560 C.2   1 <1>   0.5690 
 16 O      -10.6380    -5.3490    -2.6060 O.2   1 <1>  -0.5700 
 17 C      -10.2100    -7.6570    -2.2820 C.3   1 <1>   0.2010 
 18 N      -10.9870    -8.5330    -1.3380 N.am  1 <1>  -0.6600 
 19 C      -10.4130    -8.9530    -0.1700 C.2   1 <1>   0.5690 
 20 C      -12.4320    -8.6850    -1.6460 C.3   1 <1>   0.1400 
 21 O       -9.2800    -8.6470     0.1220 O.2   1 <1>  -0.5700 
 22 C      -11.2000    -9.7870     0.8230 C.3   1 <1>  -0.0990 
 23 C      -13.2930    -7.9440    -0.6170 C.3   1 <1>  -0.1600 
 24 C      -12.2920    -8.9740     1.5360 C.3   1 <1>  -0.1600 
 25 C      -13.5420    -8.7390     0.6750 C.3   1 <1>  -0.1600 
 26 H       -3.6110    -1.2330     2.9690 H     1 <1>   0.1500 
 27 H       -1.4620    -0.5500    -0.6730 H     1 <1>   0.1500 
 28 H       -3.4830    -1.1830    -2.0010 H     1 <1>   0.1500 
 29 H       -6.2150    -2.0510    -1.5920 H     1 <1>   0.2700 
 30 H       -8.6200    -1.9530    -0.1260 H     1 <1>   0.0800 
 31 H       -8.4350    -2.5780     1.4880 H     1 <1>   0.0800 
 32 H       -7.5750    -4.7130     0.5780 H     1 <1>   0.0800 
 33 H       -7.7810    -4.1030    -1.0480 H     1 <1>   0.0800 
 34 H      -10.2240    -3.8500    -0.6200 H     1 <1>   0.0800 
 35 H      -10.0020    -4.5660     0.9600 H     1 <1>   0.0800 
 36 H       -9.3380    -6.6590    -0.0630 H     1 <1>   0.3700 
 37 H       -9.1930    -8.0000    -2.3270 H     1 <1>   0.0800 
 38 H      -10.6190    -7.7300    -3.2730 H     1 <1>   0.0800 
 39 H      -12.6920    -9.7290    -1.6740 H     1 <1>   0.0800 
 40 H      -12.6330    -8.2750    -2.6220 H     1 <1>   0.0800 
 41 H      -10.5100   -10.1560     1.5600 H     1 <1>   0.0800 
 42 H      -11.6230   -10.6400     0.3260 H     1 <1>   0.0800 
 43 H      -14.2520    -7.7590    -1.0700 H     1 <1>   0.0800 
 44 H      -12.8580    -6.9840    -0.3970 H     1 <1>   0.0800 
 45 H      -11.8850    -8.0280     1.8530 H     1 <1>   0.0800 
 46 H      -12.5910    -9.5080     2.4210 H     1 <1>   0.0800 
 47 H      -13.9880    -9.6870     0.4300 H     1 <1>   0.0800 
 48 H      -14.2590    -8.1980     1.2700 H     1 <1>   0.0800 
@<TRIPOS>BOND
  1   1   2  1   
  2   2   3  ar  
  3   2   4  ar  
  4   3   5  ar  
  5   3  26  1   
  6   4   6  ar  
  7   4  27  1   
  8   5   7  1   
  9   5   8  ar  
 10   6   8  ar  
 11   6  28  1   
 12   7   9  2   
 13   8  10  1   
 14   9  10  1   
 15   9  11  1   
 16  10  29  1   
 17  11  12  1   
 18  11  30  1   
 19  11  31  1   
 20  12  13  1   
 21  12  32  1   
 22  12  33  1   
 23  13  14  1   
 24  13  34  1   
 25  13  35  1   
 26  14  15  am  
 27  14  36  1   
 28  15  16  2   
 29  15  17  1   
 30  17  18  1   
 31  17  37  1   
 32  17  38  1   
 33  18  19  am  
 34  18  20  1   
 35  19  21  2   
 36  19  22  1   
 37  20  23  1   
 38  20  39  1   
 39  20  40  1   
 40  22  24  1   
 41  22  41  1   
 42  22  42  1   
 43  23  25  1   
 44  23  43  1   
 45  23  44  1   
 46  24  25  1   
 47  24  45  1   
 48  24  46  1   
 49  25  47  1   
 50  25  48  1   
@<TRIPOS>SUBSTRUCTURE
  1 ****  12 GROUP 4 **** **** 0

# MOE 2024.06 (io_trps.svl 2023.06)
