@<TRIPOS>MOLECULE
NONAME
51 54 1 0 0 
SMALL
USER_CHARGES


@<TRIPOS>ATOM
  1 O       -0.1950    -0.5830     0.5480 O.3   1 <1>  -0.5600 
  2 C        0.6140     0.5510     0.5910 C.3   1 <1>   0.1200 
  3 C       -1.5460    -0.2530     0.6800 C.3   1 <1>   0.1200 
  4 C       -0.2960     1.7160     0.2290 C.3   1 <1>   0.2890 
  5 C       -1.6240     1.2710     0.8130 C.3   1 <1>  -0.0800 
  6 N        0.1450     3.0010     0.8250 N.pl3 1 <1>  -0.8690 
  7 C       -2.8330     1.9030     0.0980 C.3   1 <1>  -0.0170 
  8 C        0.8140     4.0170     0.2840 C.ar  1 <1>   0.4100 
  9 C       -4.2160     1.5040     0.6270 C.ar  1 <1>  -0.1430 
 10 N        1.0040     5.0470     1.1070 N.ar  1 <1>  -0.6200 
 11 C        1.3010     4.0420    -1.0280 C.ar  1 <1>  -0.1500 
 12 C       -5.3770     1.7880    -0.1360 C.ar  1 <1>   0.0000 
 13 C       -4.4060     0.8850     1.8320 C.ar  1 <1>  -0.1500 
 14 C        1.6530     6.0800     0.6600 C.ar  1 <1>   0.5280 
 15 C        1.9790     5.1410    -1.4660 C.ar  1 <1>   0.2180 
 16 C       -6.6310     1.3790     0.3830 C.ar  1 <1>   0.3100 
 17 C       -5.3720     2.4630    -1.3810 C.ar  1 <1>  -0.1500 
 18 C       -5.6920     0.5320     2.2560 C.ar  1 <1>   0.1600 
 19 N        2.1450     6.1590    -0.5960 N.ar  1 <1>  -0.1790 
 20 C        1.8720     7.2610     1.5980 C.3   1 <1>  -0.0170 
 21 C        2.5460     5.2630    -2.8700 C.3   1 <1>  -0.0970 
 22 N       -6.7710     0.7520     1.5760 N.ar  1 <1>  -0.6200 
 23 C       -7.7940     1.6340    -0.3600 C.ar  1 <1>  -0.1500 
 24 C       -6.5250     2.6990    -2.0790 C.ar  1 <1>  -0.1500 
 25 C        1.2180     8.5600     1.0980 C.3   1 <1>  -0.2400 
 26 C       -7.7540     2.2780    -1.5660 C.ar  1 <1>  -0.1500 
 27 H        0.9880     0.6470     1.5950 H     1 <1>   0.0800 
 28 H        1.4240     0.4290    -0.1050 H     1 <1>   0.0800 
 29 H       -2.0530    -0.6020    -0.2040 H     1 <1>   0.0800 
 30 H       -1.9410    -0.7580     1.5440 H     1 <1>   0.0800 
 31 H       -0.3620     1.7870    -0.8420 H     1 <1>   0.0800 
 32 H       -1.6430     1.5170     1.8600 H     1 <1>   0.0800 
 33 H       -0.1150     3.1130     1.8110 H     1 <1>   0.4000 
 34 H       -2.7720     1.6270    -0.9400 H     1 <1>   0.0800 
 35 H       -2.7500     2.9740     0.1580 H     1 <1>   0.0800 
 36 H        1.1370     3.1960    -1.6660 H     1 <1>   0.1500 
 37 H       -3.6010     0.6460     2.4990 H     1 <1>   0.1500 
 38 H       -4.4450     2.8060    -1.7960 H     1 <1>   0.1500 
 39 H       -5.7900     0.0430     3.2100 H     1 <1>   0.1500 
 40 H        2.6410     7.0060    -0.8710 H     1 <1>   0.4570 
 41 H        1.4560     7.0190     2.5620 H     1 <1>   0.0800 
 42 H        2.9270     7.4140     1.7400 H     1 <1>   0.0800 
 43 H        2.3350     4.3750    -3.4410 H     1 <1>   0.0800 
 44 H        3.6140     5.3920    -2.8360 H     1 <1>   0.0800 
 45 H        2.1070     6.1010    -3.3830 H     1 <1>   0.0800 
 46 H       -8.7280     1.3040     0.0570 H     1 <1>   0.1500 
 47 H       -6.5030     3.2110    -3.0250 H     1 <1>   0.1500 
 48 H        0.1600     8.4150     0.9540 H     1 <1>   0.0800 
 49 H        1.6530     8.8990     0.1750 H     1 <1>   0.0800 
 50 H        1.3480     9.3370     1.8330 H     1 <1>   0.0800 
 51 H       -8.6540     2.4670    -2.1250 H     1 <1>   0.1500 
@<TRIPOS>BOND
  1   1   2  1   
  2   1   3  1   
  3   2   4  1   
  4   2  27  1   
  5   2  28  1   
  6   3   5  1   
  7   3  29  1   
  8   3  30  1   
  9   4   5  1   
 10   4   6  1   
 11   4  31  1   
 12   5   7  1   
 13   5  32  1   
 14   6   8  1   
 15   6  33  1   
 16   7   9  1   
 17   7  34  1   
 18   7  35  1   
 19   8  10  ar  
 20   8  11  ar  
 21   9  12  ar  
 22   9  13  ar  
 23  10  14  ar  
 24  11  15  ar  
 25  11  36  1   
 26  12  16  ar  
 27  12  17  ar  
 28  13  18  ar  
 29  13  37  1   
 30  14  19  ar  
 31  14  20  1   
 32  15  19  ar  
 33  15  21  1   
 34  16  22  ar  
 35  16  23  ar  
 36  17  24  ar  
 37  17  38  1   
 38  18  22  ar  
 39  18  39  1   
 40  19  40  1   
 41  20  25  1   
 42  20  41  1   
 43  20  42  1   
 44  21  43  1   
 45  21  44  1   
 46  21  45  1   
 47  23  26  ar  
 48  23  46  1   
 49  24  26  ar  
 50  24  47  1   
 51  25  48  1   
 52  25  49  1   
 53  25  50  1   
 54  26  51  1   
@<TRIPOS>SUBSTRUCTURE
  1 ****   7 GROUP 4 **** **** 0

# MOE 2024.06 (io_trps.svl 2023.06)
