@<TRIPOS>MOLECULE
NONAME
38 40 1 0 0 
SMALL
USER_CHARGES


@<TRIPOS>ATOM
  1 O       -1.5690     0.9180    -2.7950 O.2   1 <1>  -0.5700 
  2 C       -2.1500     1.3730    -1.8250 C.2   1 <1>   0.5440 
  3 N       -3.1110     0.6110    -1.2090 N.am  1 <1>  -0.6600 
  4 C       -1.8650     2.7170    -1.3790 C.ar  1 <1>   0.0860 
  5 C       -3.9840     1.1450    -0.1190 C.3   1 <1>   0.2350 
  6 C       -2.8690    -0.8490    -1.0300 C.3   1 <1>   0.2350 
  7 C       -0.9300     2.9980    -0.3730 C.ar  1 <1>   0.0820 
  8 C       -2.5460     3.7940    -1.9480 C.ar  1 <1>  -0.1500 
  9 C       -4.2970    -0.0240     0.7920 C.3   1 <1>  -0.2420 
 10 C       -3.6070    -1.2490     0.2360 C.3   1 <1>  -0.2420 
 11 O       -0.1920     2.0310     0.2070 O.3   1 <1>  -0.3620 
 12 C       -0.7040     4.3020     0.0390 C.ar  1 <1>  -0.1500 
 13 C       -2.3210     5.0940    -1.5360 C.ar  1 <1>  -0.1500 
 14 C       -4.4890     0.4490     2.2350 C.2   1 <1>   0.9470 
 15 C       -5.1090    -1.1860     0.2850 C.3   1 <1>  -0.2000 
 16 C       -2.8760    -2.3730     0.9680 C.2   1 <1>   0.9470 
 17 C       -0.7750     1.2810     1.2580 C.3   1 <1>   0.1200 
 18 C       -1.3970     5.3500    -0.5370 C.ar  1 <1>  -0.1500 
 19 O       -5.5740     0.2540     2.7990 O.co2 1 <1>  -0.9000 
 20 O       -3.6220     1.1720     2.7470 O.co2 1 <1>  -0.9000 
 21 O       -3.4000    -3.4950     1.0220 O.co2 1 <1>  -0.9000 
 22 O       -1.7180    -2.1840     1.3610 O.co2 1 <1>  -0.9000 
 23 C        0.3390     0.5570     2.0050 C.3   1 <1>  -0.2400 
 24 H       -3.4740     1.9160     0.4310 H     1 <1>   0.0800 
 25 H       -4.8920     1.5460    -0.5300 H     1 <1>   0.0800 
 26 H       -3.2390    -1.3990    -1.8760 H     1 <1>   0.0800 
 27 H       -1.8120    -1.0290    -0.9230 H     1 <1>   0.0800 
 28 H       -3.2630     3.5920    -2.7250 H     1 <1>   0.1500 
 29 H        0.0200     4.4830     0.8130 H     1 <1>   0.1500 
 30 H       -2.8610     5.9070    -1.9890 H     1 <1>   0.1500 
 31 H       -5.6640    -1.0870    -0.6290 H     1 <1>   0.1000 
 32 H       -5.6110    -1.8050     1.0100 H     1 <1>   0.1000 
 33 H       -1.3120     1.9440     1.9150 H     1 <1>   0.0800 
 34 H       -1.4560     0.5610     0.8460 H     1 <1>   0.0800 
 35 H       -1.2190     6.3600    -0.2090 H     1 <1>   0.1500 
 36 H        1.0260     1.2600     2.4360 H     1 <1>   0.0800 
 37 H        0.8500    -0.1110     1.3360 H     1 <1>   0.0800 
 38 H       -0.1040    -0.0330     2.7880 H     1 <1>   0.0800 
@<TRIPOS>BOND
  1   1   2  2   
  2   2   3  am  
  3   2   4  1   
  4   3   5  1   
  5   3   6  1   
  6   4   7  ar  
  7   4   8  ar  
  8   5   9  1   
  9   5  24  1   
 10   5  25  1   
 11   6  10  1   
 12   6  26  1   
 13   6  27  1   
 14   7  11  1   
 15   7  12  ar  
 16   8  13  ar  
 17   8  28  1   
 18   9  10  1   
 19   9  14  1   
 20   9  15  1   
 21  10  15  1   
 22  10  16  1   
 23  11  17  1   
 24  12  18  ar  
 25  12  29  1   
 26  13  18  ar  
 27  13  30  1   
 28  14  19  ar  
 29  14  20  ar  
 30  15  31  1   
 31  15  32  1   
 32  16  21  ar  
 33  16  22  ar  
 34  17  23  1   
 35  17  33  1   
 36  17  34  1   
 37  18  35  1   
 38  23  36  1   
 39  23  37  1   
 40  23  38  1   
@<TRIPOS>SUBSTRUCTURE
  1 ****   5 GROUP 4 **** **** 0

# MOE 2024.06 (io_trps.svl 2023.06)
