@<TRIPOS>MOLECULE
NONAME
52 54 1 0 0 
SMALL
USER_CHARGES


@<TRIPOS>ATOM
  1 O        0.8070    -0.1730    -1.2520 O.2   1 <1>  -0.5700 
  2 C        1.7620    -0.5220    -0.5840 C.2   1 <1>   0.7150 
  3 N        2.3160     0.4090     0.2880 N.am  1 <1>  -0.6600 
  4 C        2.2780    -1.8680    -0.7380 C.2   1 <1>   0.0550 
  5 C        3.2670     0.0320     1.3740 C.3   1 <1>   0.1400 
  6 C        1.8180     1.8150     0.3170 C.3   1 <1>   0.1400 
  7 O        3.5760    -2.1330    -0.6150 O.3   1 <1>  -0.2800 
  8 C        1.6340    -3.0180    -1.0340 C.2   1 <1>   0.0460 
  9 C        4.7290     0.2280     0.9260 C.3   1 <1>   0.3430 
 10 C        2.9580     2.8280     0.4680 C.3   1 <1>  -0.1600 
 11 C        3.6150    -3.4290    -0.8530 C.2   1 <1>   0.2980 
 12 N        2.5070    -4.0150    -1.0980 N.2   1 <1>  -0.5650 
 13 C        0.1650    -3.2980    -1.2840 C.3   1 <1>  -0.0590 
 14 N        5.1440     1.6590     0.6840 N.4   1 <1>  -0.9590 
 15 C        4.2420     2.4050    -0.2490 C.3   1 <1>   0.3430 
 16 C        4.9560    -4.1230    -0.8220 C.3   1 <1>  -0.0600 
 17 C        6.5370     1.7210     0.1380 C.3   1 <1>   0.3430 
 18 C        7.5990     1.3370     1.1740 C.3   1 <1>  -0.0170 
 19 C        8.9720     1.4950     0.5540 C.ar  1 <1>   0.1670 
 20 N        9.1480     2.5850    -0.1750 N.ar  1 <1>  -0.6200 
 21 C        9.9500     0.5340     0.7660 C.ar  1 <1>  -0.1500 
 22 C       10.3460     2.7350    -0.7170 C.ar  1 <1>   0.1670 
 23 C       11.1920     0.6970     0.1940 C.ar  1 <1>  -0.1500 
 24 C       11.3850     1.8300    -0.5640 C.ar  1 <1>  -0.1500 
 25 C       10.5480     3.9870    -1.5440 C.3   1 <1>  -0.0970 
 26 H        3.1170    -1.0020     1.6350 H     1 <1>   0.0800 
 27 H        3.0680     0.6080     2.2610 H     1 <1>   0.0800 
 28 H        1.1100     1.9290     1.1220 H     1 <1>   0.0800 
 29 H        1.2950     2.0330    -0.6000 H     1 <1>   0.0800 
 30 H        4.8810    -0.3410     0.0240 H     1 <1>   0.0800 
 31 H        5.3650    -0.1980     1.6830 H     1 <1>   0.0800 
 32 H        3.1450     3.0320     1.5060 H     1 <1>   0.0800 
 33 H        2.6170     3.7500     0.0320 H     1 <1>   0.0800 
 34 H       -0.4310    -2.4170    -1.1400 H     1 <1>   0.0800 
 35 H       -0.1770    -4.0610    -0.6090 H     1 <1>   0.0800 
 36 H        0.0330    -3.6450    -2.2920 H     1 <1>   0.0800 
 37 H        5.1340     2.1680     1.5770 H     1 <1>   0.4500 
 38 H        4.7470     3.2960    -0.5870 H     1 <1>   0.0800 
 39 H        4.0080     1.8060    -1.1150 H     1 <1>   0.0800 
 40 H        5.6080    -3.6890    -1.5560 H     1 <1>   0.0800 
 41 H        4.8290    -5.1670    -1.0450 H     1 <1>   0.0800 
 42 H        5.3960    -4.0270     0.1530 H     1 <1>   0.0800 
 43 H        6.7460     2.7280    -0.1890 H     1 <1>   0.0800 
 44 H        6.6280     1.0780    -0.7220 H     1 <1>   0.0800 
 45 H        7.4680     0.3220     1.4980 H     1 <1>   0.0800 
 46 H        7.5390     1.9950     2.0210 H     1 <1>   0.0800 
 47 H        9.7560    -0.3320     1.3720 H     1 <1>   0.1500 
 48 H       11.9790    -0.0250     0.3350 H     1 <1>   0.1500 
 49 H       12.3370     2.0080    -1.0310 H     1 <1>   0.1500 
 50 H        9.8490     3.9980    -2.3600 H     1 <1>   0.0800 
 51 H       11.5450     4.0340    -1.9410 H     1 <1>   0.0800 
 52 H       10.3800     4.8540    -0.9310 H     1 <1>   0.0800 
@<TRIPOS>BOND
  1   1   2  2   
  2   2   3  am  
  3   2   4  1   
  4   3   5  1   
  5   3   6  1   
  6   4   7  1   
  7   4   8  2   
  8   5   9  1   
  9   5  26  1   
 10   5  27  1   
 11   6  10  1   
 12   6  28  1   
 13   6  29  1   
 14   7  11  1   
 15   8  12  1   
 16   8  13  1   
 17   9  14  1   
 18   9  30  1   
 19   9  31  1   
 20  10  15  1   
 21  10  32  1   
 22  10  33  1   
 23  11  12  2   
 24  11  16  1   
 25  13  34  1   
 26  13  35  1   
 27  13  36  1   
 28  14  15  1   
 29  14  17  1   
 30  14  37  1   
 31  15  38  1   
 32  15  39  1   
 33  16  40  1   
 34  16  41  1   
 35  16  42  1   
 36  17  18  1   
 37  17  43  1   
 38  17  44  1   
 39  18  19  1   
 40  18  45  1   
 41  18  46  1   
 42  19  20  ar  
 43  19  21  ar  
 44  20  22  ar  
 45  21  23  ar  
 46  21  47  1   
 47  22  24  ar  
 48  22  25  1   
 49  23  24  ar  
 50  23  48  1   
 51  24  49  1   
 52  25  50  1   
 53  25  51  1   
 54  25  52  1   
@<TRIPOS>SUBSTRUCTURE
  1 ****   9 GROUP 4 **** **** 0

# MOE 2024.06 (io_trps.svl 2023.06)
