@<TRIPOS>MOLECULE
NONAME
42 44 1 0 0 
SMALL
USER_CHARGES


@<TRIPOS>ATOM
  1 O       -0.9700     0.5270    -0.4930 O.co2 1 <1>  -0.9000 
  2 C       -1.2470     1.2000     0.5110 C.2   1 <1>   0.9060 
  3 O       -1.4510     0.6750     1.6120 O.co2 1 <1>  -0.9000 
  4 C       -1.1760     2.7300     0.4330 C.3   1 <1>   0.0940 
  5 O       -2.3670     3.3730    -0.0130 O.3   1 <1>  -0.5600 
  6 C       -0.0010     3.1070    -0.4790 C.3   1 <1>   0.2090 
  7 C       -2.2850     4.7610    -0.0160 C.3   1 <1>   0.1200 
  8 N        0.1660     4.6100    -0.5840 N.pl3 1 <1>  -0.8380 
  9 C       -1.1600     5.2230    -0.9590 C.3   1 <1>   0.2090 
 10 C        1.3410     5.2470    -0.3850 C.ar  1 <1>   0.4610 
 11 N        1.3540     6.5740    -0.2760 N.ar  1 <1>  -0.1790 
 12 C        2.6010     4.6020    -0.2740 C.ar  1 <1>  -0.1500 
 13 C        2.4700     7.3580    -0.0420 C.ar  1 <1>   0.3610 
 14 C        3.7540     5.2910    -0.0470 C.ar  1 <1>  -0.1430 
 15 C        3.7140     6.7130     0.0810 C.ar  1 <1>   0.0000 
 16 C        2.3600     8.7580     0.0730 C.ar  1 <1>  -0.1430 
 17 C        5.0790     4.5450     0.0650 C.3   1 <1>  -0.0970 
 18 C        4.8400     7.5110     0.3200 C.ar  1 <1>  -0.1500 
 19 C        3.4970     9.5120     0.3070 C.ar  1 <1>  -0.1430 
 20 C        0.9800     9.4150    -0.0650 C.3   1 <1>  -0.0970 
 21 C        4.7300     8.8730     0.4290 C.ar  1 <1>  -0.1500 
 22 C        3.4870    11.0310     0.4420 C.3   1 <1>  -0.0970 
 23 H       -0.9770     3.0720     1.4310 H     1 <1>   0.0800 
 24 H       -0.1750     2.6920    -1.4590 H     1 <1>   0.0800 
 25 H        0.8710     2.6270    -0.0780 H     1 <1>   0.0800 
 26 H       -2.1130     5.0950     0.9920 H     1 <1>   0.0800 
 27 H       -3.2350     5.1370    -0.3510 H     1 <1>   0.0800 
 28 H       -1.1210     6.2950    -0.9550 H     1 <1>   0.0800 
 29 H       -1.4160     4.9120    -1.9590 H     1 <1>   0.0800 
 30 H        0.4610     7.0390    -0.3340 H     1 <1>   0.4570 
 31 H        2.6400     3.5370    -0.3890 H     1 <1>   0.1500 
 32 H        4.9400     3.4850    -0.0550 H     1 <1>   0.0800 
 33 H        5.5210     4.7150     1.0300 H     1 <1>   0.0800 
 34 H        5.7600     4.8800    -0.6980 H     1 <1>   0.0800 
 35 H        5.8110     7.0600     0.4210 H     1 <1>   0.1500 
 36 H        0.5830     9.2470    -1.0500 H     1 <1>   0.0800 
 37 H        1.0110    10.4780     0.0840 H     1 <1>   0.0800 
 38 H        0.3000     9.0200     0.6700 H     1 <1>   0.0800 
 39 H        5.6180     9.4570     0.6120 H     1 <1>   0.1500 
 40 H        2.8860    11.3260     1.2830 H     1 <1>   0.0800 
 41 H        3.0930    11.4830    -0.4510 H     1 <1>   0.0800 
 42 H        4.4780    11.4180     0.5940 H     1 <1>   0.0800 
@<TRIPOS>BOND
  1   1   2  ar  
  2   2   3  ar  
  3   2   4  1   
  4   4   5  1   
  5   4   6  1   
  6   4  23  1   
  7   5   7  1   
  8   6   8  1   
  9   6  24  1   
 10   6  25  1   
 11   7   9  1   
 12   7  26  1   
 13   7  27  1   
 14   8   9  1   
 15   8  10  1   
 16   9  28  1   
 17   9  29  1   
 18  10  11  ar  
 19  10  12  ar  
 20  11  13  ar  
 21  11  30  1   
 22  12  14  ar  
 23  12  31  1   
 24  13  15  ar  
 25  13  16  ar  
 26  14  15  ar  
 27  14  17  1   
 28  15  18  ar  
 29  16  19  ar  
 30  16  20  1   
 31  17  32  1   
 32  17  33  1   
 33  17  34  1   
 34  18  21  ar  
 35  18  35  1   
 36  19  21  ar  
 37  19  22  1   
 38  20  36  1   
 39  20  37  1   
 40  20  38  1   
 41  21  39  1   
 42  22  40  1   
 43  22  41  1   
 44  22  42  1   
@<TRIPOS>SUBSTRUCTURE
  1 ****  10 GROUP 4 **** **** 0

# MOE 2024.06 (io_trps.svl 2023.06)
