@<TRIPOS>MOLECULE
NONAME
36 39 1 0 0 
SMALL
USER_CHARGES


@<TRIPOS>ATOM
  1 O        0.0380     0.1010    -0.1110 O.2   1 <1>  -0.5700 
  2 C        1.0990    -0.4870    -0.2570 C.2   1 <1>   0.7160 
  3 N        2.2590     0.2400    -0.2860 N.am  1 <1>  -0.4930 
  4 C        1.1490    -1.9090    -0.3890 C.2   1 <1>  -0.0860 
  5 C        2.4460     1.6490    -0.2870 C.2   1 <1>   0.0630 
  6 C        0.2020    -2.8640    -0.1010 C.2   1 <1>  -0.0680 
  7 C        2.2210    -2.6820    -0.8660 C.2   1 <1>   0.1390 
  8 C        3.6310     2.2770    -0.0910 C.2   1 <1>  -0.0680 
  9 C        1.5260     2.6760    -0.5150 C.2   1 <1>   0.1390 
 10 N        0.7350    -4.0600    -0.3950 N.pl3 1 <1>   0.6010 
 11 N       -1.0810    -3.0400     0.3790 N.pl3 1 <1>  -0.5530 
 12 N        1.9990    -3.9610    -0.8710 N.2   1 <1>  -0.7070 
 13 N        3.3780     3.6040    -0.2370 N.pl3 1 <1>   0.3140 
 14 N        4.9120     1.7470     0.2070 N.pl3 1 <1>  -0.8530 
 15 N        2.0730     3.8570    -0.4880 N.2   1 <1>  -0.7070 
 16 C       -0.2090    -5.0280    -0.1070 C.2   1 <1>  -0.1810 
 17 C       -1.3120    -4.4070     0.3610 C.2   1 <1>  -0.0500 
 18 C       -2.0260    -1.9730     0.7770 C.3   1 <1>   0.1290 
 19 C        4.4090     4.6450    -0.1060 C.3   1 <1>   0.0960 
 20 C        5.9660     2.7390     0.5620 C.3   1 <1>   0.2090 
 21 C        5.8090     4.0220    -0.2680 C.3   1 <1>  -0.1600 
 22 H        3.1340    -0.2750    -0.3340 H     1 <1>   0.3700 
 23 H        3.1550    -2.2670    -1.2080 H     1 <1>   0.1500 
 24 H        0.4780     2.5130    -0.7000 H     1 <1>   0.1500 
 25 H        4.8720     0.9970     0.9070 H     1 <1>   0.4000 
 26 H        0.0100    -6.0640    -0.2710 H     1 <1>   0.1500 
 27 H       -2.2490    -4.8320     0.6850 H     1 <1>   0.1500 
 28 H       -1.5770    -1.3640     1.5420 H     1 <1>   0.0800 
 29 H       -2.9350    -2.4050     1.1530 H     1 <1>   0.0800 
 30 H       -2.2480    -1.3550    -0.0750 H     1 <1>   0.0800 
 31 H        4.3050     5.0880     0.8660 H     1 <1>   0.0800 
 32 H        4.2370     5.3970    -0.8540 H     1 <1>   0.0800 
 33 H        6.9350     2.3050     0.3760 H     1 <1>   0.0800 
 34 H        5.8940     2.9700     1.6120 H     1 <1>   0.0800 
 35 H        6.5550     4.7370     0.0260 H     1 <1>   0.0800 
 36 H        5.9740     3.7860    -1.3050 H     1 <1>   0.0800 
@<TRIPOS>BOND
  1   1   2  2   
  2   2   3  am  
  3   2   4  1   
  4   3   5  1   
  5   3  22  1   
  6   4   6  2   
  7   4   7  1   
  8   5   8  2   
  9   5   9  1   
 10   6  10  1   
 11   6  11  1   
 12   7  12  2   
 13   7  23  1   
 14   8  13  1   
 15   8  14  1   
 16   9  15  2   
 17   9  24  1   
 18  10  12  1   
 19  10  16  1   
 20  11  17  1   
 21  11  18  1   
 22  13  15  1   
 23  13  19  1   
 24  14  20  1   
 25  14  25  1   
 26  16  17  2   
 27  16  26  1   
 28  17  27  1   
 29  18  28  1   
 30  18  29  1   
 31  18  30  1   
 32  19  21  1   
 33  19  31  1   
 34  19  32  1   
 35  20  21  1   
 36  20  33  1   
 37  20  34  1   
 38  21  35  1   
 39  21  36  1   
@<TRIPOS>SUBSTRUCTURE
  1 ****   3 GROUP 4 **** **** 0

# MOE 2024.06 (io_trps.svl 2023.06)
