@<TRIPOS>MOLECULE
NONAME
47 49 1 0 0 
SMALL
USER_CHARGES


@<TRIPOS>ATOM
  1 CL      -0.5300    -1.2850    -2.2050 Cl    1 <1>  -0.1770 
  2 C       -1.9860    -0.5400    -1.5960 C.ar  1 <1>   0.1770 
  3 C       -2.8710    -1.2970    -0.8560 C.ar  1 <1>  -0.1500 
  4 C       -2.2240     0.7940    -1.8670 C.ar  1 <1>  -0.1500 
  5 C       -4.0400    -0.7220    -0.3650 C.ar  1 <1>   0.1170 
  6 C       -3.3800     1.3790    -1.3810 C.ar  1 <1>  -0.1500 
  7 N       -4.9620    -1.4850     0.3790 N.am  1 <1>  -0.4770 
  8 C       -4.2740     0.6250    -0.6390 C.ar  1 <1>  -0.1500 
  9 C       -5.7490    -1.0870     1.4230 C.2   1 <1>   0.5690 
 10 C       -5.2000    -2.9120     0.0740 C.3   1 <1>   0.1400 
 11 O       -5.7940     0.0100     1.9220 O.2   1 <1>  -0.5700 
 12 C       -6.6160    -2.2100     1.9180 C.3   1 <1>  -0.0990 
 13 C       -6.5180    -3.2450     0.7900 C.3   1 <1>  -0.0190 
 14 C       -6.5970    -4.6870     1.2870 C.2   1 <1>   0.5690 
 15 O       -5.5720    -5.1970     1.6700 O.2   1 <1>  -0.5700 
 16 N       -7.7850    -5.3750     1.3070 N.am  1 <1>  -0.6600 
 17 C       -7.8090    -6.8110     1.7020 C.3   1 <1>   0.3200 
 18 C       -9.1210    -4.7730     1.0050 C.3   1 <1>   0.1400 
 19 C       -8.0440    -7.6620     0.4720 C.2   1 <1>  -0.3320 
 20 C       -9.4700    -4.8810    -0.4860 C.3   1 <1>   0.1200 
 21 N       -8.8580    -8.7340     0.4260 N.pl3 1 <1>   0.0330 
 22 C       -7.5140    -7.5410    -0.7650 C.2   1 <1>   0.0770 
 23 O      -10.5560    -4.0600    -0.7530 O.3   1 <1>  -0.6800 
 24 C       -8.7840    -9.1820    -0.8460 C.2   1 <1>   0.0060 
 25 N       -7.9910    -8.4880    -1.5920 N.2   1 <1>  -0.5650 
 26 C       -9.5560   -10.3860    -1.3390 C.3   1 <1>  -0.0600 
 27 H       -2.6390    -2.3260    -0.6620 H     1 <1>   0.1500 
 28 H       -1.5160     1.3610    -2.4450 H     1 <1>   0.1500 
 29 H       -3.5840     2.4180    -1.5760 H     1 <1>   0.1500 
 30 H       -5.1690     1.0920    -0.2660 H     1 <1>   0.1500 
 31 H       -4.3790    -3.4880     0.4650 H     1 <1>   0.0800 
 32 H       -5.2810    -3.0700    -0.9870 H     1 <1>   0.0800 
 33 H       -7.6250    -1.8780     2.0780 H     1 <1>   0.0800 
 34 H       -6.1990    -2.5880     2.8350 H     1 <1>   0.0800 
 35 H       -7.3000    -3.0550     0.0800 H     1 <1>   0.0800 
 36 H       -8.5940    -6.9650     2.4220 H     1 <1>   0.0800 
 37 H       -6.8820    -7.1040     2.1650 H     1 <1>   0.0800 
 38 H       -9.1190    -3.7360     1.2920 H     1 <1>   0.0800 
 39 H       -9.8790    -5.2700     1.5840 H     1 <1>   0.0800 
 40 H       -9.7260    -5.8880    -0.7650 H     1 <1>   0.0800 
 41 H       -8.6510    -4.5390    -1.0940 H     1 <1>   0.0800 
 42 H       -9.4150    -9.1440     1.1810 H     1 <1>   0.2700 
 43 H       -6.8040    -6.8060    -1.1080 H     1 <1>   0.1500 
 44 H      -11.3980    -4.5140    -0.5480 H     1 <1>   0.4000 
 45 H      -10.6120   -10.2210    -1.2290 H     1 <1>   0.0800 
 46 H       -9.2700   -11.2620    -0.7860 H     1 <1>   0.0800 
 47 H       -9.3410   -10.5530    -2.3800 H     1 <1>   0.0800 
@<TRIPOS>BOND
  1   1   2  1   
  2   2   3  ar  
  3   2   4  ar  
  4   3   5  ar  
  5   3  27  1   
  6   4   6  ar  
  7   4  28  1   
  8   5   7  1   
  9   5   8  ar  
 10   6   8  ar  
 11   6  29  1   
 12   7   9  am  
 13   7  10  1   
 14   8  30  1   
 15   9  11  2   
 16   9  12  1   
 17  10  13  1   
 18  10  31  1   
 19  10  32  1   
 20  12  13  1   
 21  12  33  1   
 22  12  34  1   
 23  13  14  1   
 24  13  35  1   
 25  14  15  2   
 26  14  16  am  
 27  16  17  1   
 28  16  18  1   
 29  17  19  1   
 30  17  36  1   
 31  17  37  1   
 32  18  20  1   
 33  18  38  1   
 34  18  39  1   
 35  19  21  1   
 36  19  22  2   
 37  20  23  1   
 38  20  40  1   
 39  20  41  1   
 40  21  24  1   
 41  21  42  1   
 42  22  25  1   
 43  22  43  1   
 44  23  44  1   
 45  24  25  2   
 46  24  26  1   
 47  26  45  1   
 48  26  46  1   
 49  26  47  1   
@<TRIPOS>SUBSTRUCTURE
  1 ****  13 GROUP 4 **** **** 0

# MOE 2024.06 (io_trps.svl 2023.06)
