@<TRIPOS>MOLECULE
NONAME
39 41 1 0 0 
SMALL
USER_CHARGES


@<TRIPOS>ATOM
  1 F        1.2340     0.6950     1.0110 F     1 <1>  -0.1900 
  2 C        1.9380    -0.2600     0.4570 C.ar  1 <1>   0.1900 
  3 C        1.5770    -1.5720     0.7160 C.ar  1 <1>   0.1900 
  4 C        3.0180     0.0560    -0.3730 C.ar  1 <1>   0.0860 
  5 F        0.5630    -1.8300     1.5010 F     1 <1>  -0.1900 
  6 C        2.2640    -2.6320     0.1610 C.ar  1 <1>  -0.1500 
  7 C        3.4490     1.4110    -0.6760 C.2   1 <1>   0.5440 
  8 C        3.6970    -1.0380    -0.9280 C.ar  1 <1>  -0.1500 
  9 C        3.3360    -2.3530    -0.6700 C.ar  1 <1>  -0.1500 
 10 O        4.1200     1.6170    -1.6680 O.2   1 <1>  -0.5700 
 11 N        3.1290     2.4670     0.1440 N.am  1 <1>  -0.4940 
 12 C        3.4010     3.8500     0.0160 C.2   1 <1>  -0.0880 
 13 N        4.5940     4.4550    -0.2760 N.pl3 1 <1>   0.3140 
 14 C        2.4980     4.8440     0.1950 C.2   1 <1>  -0.1810 
 15 N        4.4510     5.8090    -0.2880 N.2   1 <1>  -0.7070 
 16 C        5.9240     3.7970    -0.5010 C.3   1 <1>   0.1760 
 17 C        3.2050     6.0210    -0.0090 C.2   1 <1>   0.1390 
 18 C        1.0210     4.7550     0.5350 C.3   1 <1>  -0.0590 
 19 C        6.3440     2.8670     0.6510 C.3   1 <1>  -0.1600 
 20 C        7.1010     4.7710    -0.6460 C.3   1 <1>  -0.1600 
 21 C        7.8660     3.0000     0.8030 C.3   1 <1>  -0.1600 
 22 C        8.3270     3.9250    -0.3220 C.3   1 <1>  -0.1600 
 23 H        1.9680    -3.6450     0.3740 H     1 <1>   0.1500 
 24 H        4.5340    -0.8510    -1.5820 H     1 <1>   0.1500 
 25 H        3.8900    -3.1610    -1.1200 H     1 <1>   0.1500 
 26 H        2.4260     2.2500     0.8530 H     1 <1>   0.3700 
 27 H        5.8660     3.2300    -1.4100 H     1 <1>   0.0800 
 28 H        2.7780     7.0070     0.0540 H     1 <1>   0.1500 
 29 H        0.6820     3.7360     0.5030 H     1 <1>   0.0800 
 30 H        0.4500     5.3270    -0.1750 H     1 <1>   0.0800 
 31 H        0.8480     5.1500     1.5200 H     1 <1>   0.0800 
 32 H        6.0770     1.8520     0.4200 H     1 <1>   0.0800 
 33 H        5.8640     3.1640     1.5680 H     1 <1>   0.0800 
 34 H        7.0230     5.5600     0.0830 H     1 <1>   0.0800 
 35 H        7.1470     5.1930    -1.6340 H     1 <1>   0.0800 
 36 H        8.3580     2.0440     0.7480 H     1 <1>   0.0800 
 37 H        8.0900     3.4530     1.7540 H     1 <1>   0.0800 
 38 H        9.1690     4.5300    -0.0300 H     1 <1>   0.0800 
 39 H        8.5950     3.3380    -1.1850 H     1 <1>   0.0800 
@<TRIPOS>BOND
  1   1   2  1   
  2   2   3  ar  
  3   2   4  ar  
  4   3   5  1   
  5   3   6  ar  
  6   4   7  1   
  7   4   8  ar  
  8   6   9  ar  
  9   6  23  1   
 10   7  10  2   
 11   7  11  am  
 12   8   9  ar  
 13   8  24  1   
 14   9  25  1   
 15  11  12  1   
 16  11  26  1   
 17  12  13  1   
 18  12  14  2   
 19  13  15  1   
 20  13  16  1   
 21  14  17  1   
 22  14  18  1   
 23  15  17  2   
 24  16  19  1   
 25  16  20  1   
 26  16  27  1   
 27  17  28  1   
 28  18  29  1   
 29  18  30  1   
 30  18  31  1   
 31  19  21  1   
 32  19  32  1   
 33  19  33  1   
 34  20  22  1   
 35  20  34  1   
 36  20  35  1   
 37  21  22  1   
 38  21  36  1   
 39  21  37  1   
 40  22  38  1   
 41  22  39  1   
@<TRIPOS>SUBSTRUCTURE
  1 ****  11 GROUP 4 **** **** 0

# MOE 2024.06 (io_trps.svl 2023.06)
