@<TRIPOS>MOLECULE
NONAME
48 50 1 0 0 
SMALL
USER_CHARGES


@<TRIPOS>ATOM
  1 O       -1.1960    -0.5880     0.8290 O.2   1 <1>  -0.5700 
  2 C       -2.0510     0.2420     0.5820 C.2   1 <1>   0.5440 
  3 N       -1.8260     1.5500     0.9580 N.am  1 <1>  -0.6600 
  4 C       -3.2630    -0.1800    -0.0790 C.ar  1 <1>   0.0860 
  5 C       -2.8930     2.5700     1.1820 C.3   1 <1>   0.1400 
  6 C       -0.4780     2.0170     1.4000 C.3   1 <1>   0.1400 
  7 C       -3.9470    -1.3090     0.3630 C.ar  1 <1>   0.1600 
  8 C       -3.7960     0.4850    -1.1790 C.ar  1 <1>  -0.1500 
  9 C       -2.4610     3.9330     0.6150 C.3   1 <1>   0.1200 
 10 C       -0.1790     3.4160     0.8350 C.3   1 <1>   0.1200 
 11 N       -5.0700    -1.7890    -0.1450 N.ar  1 <1>  -0.6200 
 12 C       -4.9580    -0.0030    -1.7250 C.ar  1 <1>  -0.1500 
 13 O       -1.2160     4.3090     1.1330 O.3   1 <1>  -0.5600 
 14 C       -5.5730    -1.1310    -1.1860 C.ar  1 <1>   0.4100 
 15 N       -6.7460    -1.6060    -1.7290 N.pl3 1 <1>  -0.8380 
 16 C       -7.0390    -3.0730    -1.6960 C.3   1 <1>   0.2090 
 17 C       -7.9530    -0.7400    -1.7430 C.3   1 <1>   0.2090 
 18 C       -7.9190    -3.4210    -0.4810 C.3   1 <1>   0.2200 
 19 C       -8.8420    -1.0720    -0.5370 C.3   1 <1>  -0.1600 
 20 N       -8.3020    -4.8500    -0.5030 N.am  1 <1>  -0.7300 
 21 C       -9.1940    -2.5680    -0.4650 C.3   1 <1>  -0.1600 
 22 C       -7.6850    -5.8860     0.1040 C.2   1 <1>   0.5690 
 23 O       -8.1260    -6.9990    -0.0130 O.2   1 <1>  -0.5700 
 24 C       -6.4400    -5.6710     0.9300 C.3   1 <1>  -0.1790 
 25 H       -3.0600     2.6740     2.2400 H     1 <1>   0.0800 
 26 H       -3.8220     2.2700     0.7330 H     1 <1>   0.0800 
 27 H        0.2830     1.3320     1.0670 H     1 <1>   0.0800 
 28 H       -0.4490     2.0510     2.4740 H     1 <1>   0.0800 
 29 H       -3.5250    -1.8450     1.1970 H     1 <1>   0.1500 
 30 H       -3.3000     1.3470    -1.5870 H     1 <1>   0.1500 
 31 H       -3.1720     4.6920     0.8890 H     1 <1>   0.0800 
 32 H       -2.3900     3.8950    -0.4580 H     1 <1>   0.0800 
 33 H       -0.0580     3.3720    -0.2330 H     1 <1>   0.0800 
 34 H        0.7250     3.8050     1.2690 H     1 <1>   0.0800 
 35 H       -5.4060     0.4670    -2.5800 H     1 <1>   0.1500 
 36 H       -6.1180    -3.6260    -1.6450 H     1 <1>   0.0800 
 37 H       -7.5480    -3.3450    -2.6030 H     1 <1>   0.0800 
 38 H       -8.4950    -0.9080    -2.6590 H     1 <1>   0.0800 
 39 H       -7.6680     0.2970    -1.7060 H     1 <1>   0.0800 
 40 H       -7.3520    -3.2150     0.4100 H     1 <1>   0.0800 
 41 H       -9.7450    -0.4900    -0.5930 H     1 <1>   0.0800 
 42 H       -8.3210    -0.7820     0.3590 H     1 <1>   0.0800 
 43 H       -9.1320    -5.0900    -1.0470 H     1 <1>   0.3700 
 44 H       -9.7450    -2.7630     0.4380 H     1 <1>   0.0800 
 45 H       -9.8100    -2.8240    -1.3090 H     1 <1>   0.0800 
 46 H       -5.6990    -5.1520     0.3520 H     1 <1>   0.0800 
 47 H       -6.0400    -6.6200     1.2360 H     1 <1>   0.0800 
 48 H       -6.6810    -5.0970     1.8040 H     1 <1>   0.0800 
@<TRIPOS>BOND
  1   1   2  2   
  2   2   3  am  
  3   2   4  1   
  4   3   5  1   
  5   3   6  1   
  6   4   7  ar  
  7   4   8  ar  
  8   5   9  1   
  9   5  25  1   
 10   5  26  1   
 11   6  10  1   
 12   6  27  1   
 13   6  28  1   
 14   7  11  ar  
 15   7  29  1   
 16   8  12  ar  
 17   8  30  1   
 18   9  13  1   
 19   9  31  1   
 20   9  32  1   
 21  10  13  1   
 22  10  33  1   
 23  10  34  1   
 24  11  14  ar  
 25  12  14  ar  
 26  12  35  1   
 27  14  15  1   
 28  15  16  1   
 29  15  17  1   
 30  16  18  1   
 31  16  36  1   
 32  16  37  1   
 33  17  19  1   
 34  17  38  1   
 35  17  39  1   
 36  18  20  1   
 37  18  21  1   
 38  18  40  1   
 39  19  21  1   
 40  19  41  1   
 41  19  42  1   
 42  20  22  am  
 43  20  43  1   
 44  21  44  1   
 45  21  45  1   
 46  22  23  2   
 47  22  24  1   
 48  24  46  1   
 49  24  47  1   
 50  24  48  1   
@<TRIPOS>SUBSTRUCTURE
  1 ****  11 GROUP 4 **** **** 0

# MOE 2024.06 (io_trps.svl 2023.06)
