@<TRIPOS>MOLECULE
NONAME
51 53 1 0 0 
SMALL
USER_CHARGES


@<TRIPOS>ATOM
  1 S        0.8790    -0.6500    -1.8870 S.3   1 <1>  -0.0800 
  2 C        0.7290    -2.3670    -1.5610 C.2   1 <1>  -0.1100 
  3 C       -0.0150    -0.2550    -0.4300 C.2   1 <1>  -0.1100 
  4 C        0.0400    -2.5830    -0.4240 C.2   1 <1>  -0.1810 
  5 C       -0.3810    -1.3740     0.2210 C.2   1 <1>  -0.1500 
  6 C       -0.2870    -3.9450     0.1630 C.3   1 <1>   0.0210 
  7 C       -1.7810    -4.2590    -0.0080 C.3   1 <1>  -0.0990 
  8 C       -2.1980    -5.6040     0.5730 C.2   1 <1>   0.5690 
  9 O       -1.3270    -6.3460     0.9640 O.2   1 <1>  -0.5700 
 10 N       -3.5270    -5.9560     0.6500 N.am  1 <1>  -0.6600 
 11 C       -4.6320    -5.1300     0.0710 C.3   1 <1>   0.2200 
 12 C       -3.8930    -7.2410     1.3260 C.3   1 <1>   0.0600 
 13 C       -5.4490    -4.4170     1.1460 C.3   1 <1>  -0.1600 
 14 C       -5.6640    -5.9200    -0.7370 C.3   1 <1>  -0.1600 
 15 C       -6.7780    -4.0780     0.4560 C.3   1 <1>  -0.0800 
 16 C       -6.9060    -5.0180    -0.7480 C.3   1 <1>  -0.0800 
 17 C       -8.0380    -4.3120     1.3040 C.3   1 <1>  -0.1600 
 18 C       -8.2490    -5.7450    -0.5740 C.3   1 <1>  -0.1600 
 19 C       -9.0950    -4.8380     0.3260 C.3   1 <1>   0.4230 
 20 N       -9.6990    -3.7150    -0.4630 N.4   1 <1>  -0.9590 
 21 C      -10.4200    -2.7230     0.3990 C.3   1 <1>   0.2630 
 22 C      -10.6470    -4.1970    -1.5200 C.3   1 <1>   0.2630 
 23 H        1.1780    -3.0430    -2.2660 H     1 <1>   0.1500 
 24 H       -0.1710     0.7860    -0.2130 H     1 <1>   0.1500 
 25 H       -0.9340    -1.4000     1.1440 H     1 <1>   0.1500 
 26 H        0.2950    -4.7000    -0.3360 H     1 <1>   0.0800 
 27 H       -0.0220    -3.9610     1.2060 H     1 <1>   0.0800 
 28 H       -2.0110    -4.2540    -1.0560 H     1 <1>   0.0800 
 29 H       -2.3510    -3.4880     0.4750 H     1 <1>   0.0800 
 30 H       -4.2320    -4.3810    -0.5890 H     1 <1>   0.0800 
 31 H       -4.8330    -7.1520     1.8390 H     1 <1>   0.0800 
 32 H       -3.1440    -7.5130     2.0500 H     1 <1>   0.0800 
 33 H       -3.9590    -8.0260     0.5940 H     1 <1>   0.0800 
 34 H       -5.6080    -5.0730     1.9810 H     1 <1>   0.0800 
 35 H       -4.9460    -3.5300     1.4880 H     1 <1>   0.0800 
 36 H       -5.3070    -6.1140    -1.7330 H     1 <1>   0.0800 
 37 H       -5.8930    -6.8530    -0.2590 H     1 <1>   0.0800 
 38 H       -6.7500    -3.0600     0.1030 H     1 <1>   0.0800 
 39 H       -6.9130    -4.4290    -1.6510 H     1 <1>   0.0800 
 40 H       -8.3250    -3.4410     1.8600 H     1 <1>   0.0800 
 41 H       -7.8480    -5.0970     2.0160 H     1 <1>   0.0800 
 42 H       -8.0930    -6.6640    -0.0370 H     1 <1>   0.0800 
 43 H       -8.7000    -6.0010    -1.5140 H     1 <1>   0.0800 
 44 H       -9.8640    -5.3950     0.8380 H     1 <1>   0.0800 
 45 H       -8.9130    -3.2350    -0.9250 H     1 <1>   0.4500 
 46 H      -11.1940    -3.2140     0.9670 H     1 <1>   0.0800 
 47 H      -10.8750    -1.9600    -0.2120 H     1 <1>   0.0800 
 48 H       -9.7410    -2.2430     1.0820 H     1 <1>   0.0800 
 49 H      -11.4350    -4.7830    -1.0770 H     1 <1>   0.0800 
 50 H      -10.1340    -4.8010    -2.2490 H     1 <1>   0.0800 
 51 H      -11.0900    -3.3580    -2.0340 H     1 <1>   0.0800 
@<TRIPOS>BOND
  1   1   2  1   
  2   1   3  1   
  3   2   4  2   
  4   2  23  1   
  5   3   5  2   
  6   3  24  1   
  7   4   5  1   
  8   4   6  1   
  9   5  25  1   
 10   6   7  1   
 11   6  26  1   
 12   6  27  1   
 13   7   8  1   
 14   7  28  1   
 15   7  29  1   
 16   8   9  2   
 17   8  10  am  
 18  10  11  1   
 19  10  12  1   
 20  11  13  1   
 21  11  14  1   
 22  11  30  1   
 23  12  31  1   
 24  12  32  1   
 25  12  33  1   
 26  13  15  1   
 27  13  34  1   
 28  13  35  1   
 29  14  16  1   
 30  14  36  1   
 31  14  37  1   
 32  15  16  1   
 33  15  17  1   
 34  15  38  1   
 35  16  18  1   
 36  16  39  1   
 37  17  19  1   
 38  17  40  1   
 39  17  41  1   
 40  18  19  1   
 41  18  42  1   
 42  18  43  1   
 43  19  20  1   
 44  19  44  1   
 45  20  21  1   
 46  20  22  1   
 47  20  45  1   
 48  21  46  1   
 49  21  47  1   
 50  21  48  1   
 51  22  49  1   
 52  22  50  1   
 53  22  51  1   
@<TRIPOS>SUBSTRUCTURE
  1 ****  11 GROUP 4 **** **** 0

# MOE 2024.06 (io_trps.svl 2023.06)
