@<TRIPOS>MOLECULE
NONAME
31 32 1 0 0 
SMALL
USER_CHARGES


@<TRIPOS>ATOM
  1 CL      -1.7210    -0.6370     2.5090 Cl    1 <1>  -0.1240 
  2 C       -1.9640    -1.7770     1.2120 C.2   1 <1>   0.2640 
  3 O       -1.9260    -3.0570     1.4850 O.3   1 <1>  -0.2800 
  4 C       -2.1980    -1.5460    -0.0940 C.2   1 <1>  -0.1500 
  5 C       -2.1360    -3.7250     0.3500 C.2   1 <1>   0.0550 
  6 C       -2.3100    -2.8180    -0.6590 C.2   1 <1>  -0.1500 
  7 C       -2.1560    -5.1720     0.3290 C.2   1 <1>   0.7150 
  8 O       -1.8770    -5.8320     1.3130 O.2   1 <1>  -0.5700 
  9 N       -2.5130    -5.8250    -0.8190 N.am  1 <1>  -0.7300 
 10 C       -2.8080    -7.2820    -0.9470 C.3   1 <1>   0.2200 
 11 C       -4.0130    -7.6950    -0.0850 C.3   1 <1>   0.2000 
 12 C       -1.5980    -8.1720    -0.6120 C.3   1 <1>   0.1200 
 13 O       -5.1460    -6.9980    -0.5240 O.3   1 <1>  -0.5600 
 14 C       -4.2580    -9.2030    -0.2040 C.3   1 <1>  -0.1600 
 15 O       -1.9520    -9.5170    -0.7790 O.3   1 <1>  -0.5600 
 16 C       -6.1040    -6.7610     0.4600 C.3   1 <1>   0.0400 
 17 C       -2.9590    -9.9690     0.0760 C.3   1 <1>   0.1200 
 18 H       -2.2810    -0.6020    -0.6010 H     1 <1>   0.1500 
 19 H       -2.4950    -3.0120    -1.7010 H     1 <1>   0.1500 
 20 H       -3.0170    -5.2720    -1.5110 H     1 <1>   0.3700 
 21 H       -3.0570    -7.4770    -1.9750 H     1 <1>   0.0800 
 22 H       -3.8110    -7.4410     0.9430 H     1 <1>   0.0800 
 23 H       -1.2680    -8.0340     0.4020 H     1 <1>   0.0800 
 24 H       -0.7860    -7.9630    -1.2840 H     1 <1>   0.0800 
 25 H       -5.0060    -9.5130     0.5010 H     1 <1>   0.0800 
 26 H       -4.5960    -9.4430    -1.1960 H     1 <1>   0.0800 
 27 H       -6.9200    -6.2240     0.0090 H     1 <1>   0.0800 
 28 H       -5.6680    -6.1660     1.2440 H     1 <1>   0.0800 
 29 H       -6.4610    -7.6980     0.8490 H     1 <1>   0.0800 
 30 H       -3.0950   -11.0210    -0.1060 H     1 <1>   0.0800 
 31 H       -2.6320    -9.8300     1.0940 H     1 <1>   0.0800 
@<TRIPOS>BOND
  1   1   2  1   
  2   2   3  1   
  3   2   4  2   
  4   3   5  1   
  5   4   6  1   
  6   4  18  1   
  7   5   6  2   
  8   5   7  1   
  9   6  19  1   
 10   7   8  2   
 11   7   9  am  
 12   9  10  1   
 13   9  20  1   
 14  10  11  1   
 15  10  12  1   
 16  10  21  1   
 17  11  13  1   
 18  11  14  1   
 19  11  22  1   
 20  12  15  1   
 21  12  23  1   
 22  12  24  1   
 23  13  16  1   
 24  14  17  1   
 25  14  25  1   
 26  14  26  1   
 27  15  17  1   
 28  16  27  1   
 29  16  28  1   
 30  16  29  1   
 31  17  30  1   
 32  17  31  1   
@<TRIPOS>SUBSTRUCTURE
  1 ****   7 GROUP 4 **** **** 0

# MOE 2024.06 (io_trps.svl 2023.06)
