@<TRIPOS>MOLECULE
NONAME
50 53 1 0 0 
SMALL
USER_CHARGES


@<TRIPOS>ATOM
  1 F       -1.4060    -1.3350    -2.7270 F     1 <1>  -0.1900 
  2 C       -2.3180    -0.8950    -1.9030 C.ar  1 <1>   0.1900 
  3 C       -3.1310    -1.8090    -1.2660 C.ar  1 <1>  -0.1500 
  4 C       -2.4300     0.4660    -1.7020 C.ar  1 <1>  -0.1500 
  5 C       -4.1160    -1.3680    -0.3810 C.ar  1 <1>   0.0530 
  6 C       -3.4000     0.9190    -0.8260 C.ar  1 <1>  -0.1500 
  7 C       -4.9850    -2.3100     0.2950 C.2   1 <1>   0.4250 
  8 C       -4.2260     0.0140    -0.1790 C.ar  1 <1>  -0.1500 
  9 O       -5.8650    -1.8820     1.1840 O.3   1 <1>  -0.2800 
 10 N       -5.0270    -3.6000     0.1370 N.2   1 <1>  -0.5650 
 11 C       -6.4960    -2.9290     1.6270 C.2   1 <1>  -0.0400 
 12 C       -5.9880    -3.9970     0.9950 C.2   1 <1>   0.0460 
 13 C       -7.5780    -2.7400     2.6710 C.3   1 <1>  -0.0600 
 14 C       -6.3570    -5.4660     1.1120 C.3   1 <1>   0.5240 
 15 N       -6.4990    -6.0150    -0.2660 N.4   1 <1>  -0.9590 
 16 C       -7.7480    -5.5040    -0.9080 C.3   1 <1>   0.3430 
 17 C       -6.5790    -7.5060    -0.2670 C.3   1 <1>   0.3430 
 18 C       -8.7900    -6.6030    -0.6880 C.3   1 <1>   0.2000 
 19 C       -7.9510    -7.8720    -0.8470 C.3   1 <1>  -0.0800 
 20 O       -9.2610    -6.5080     0.6200 O.3   1 <1>  -0.6800 
 21 C       -8.5350    -9.1680    -0.2500 C.3   1 <1>   0.0200 
 22 C       -7.5110   -10.2850    -0.3170 C.2   1 <1>  -0.0400 
 23 O       -6.8690   -10.5110    -1.4320 O.3   1 <1>  -0.0190 
 24 C       -7.0650   -11.1560     0.6000 C.2   1 <1>  -0.1500 
 25 N       -6.0070   -11.4740    -1.3060 N.2   1 <1>  -0.4100 
 26 C       -6.1080   -11.8910    -0.0950 C.2   1 <1>   0.1080 
 27 C       -5.2940   -13.0270     0.4840 C.3   1 <1>  -0.0590 
 28 H       -2.9970    -2.8570    -1.4570 H     1 <1>   0.1500 
 29 H       -1.7760     1.1460    -2.2180 H     1 <1>   0.1500 
 30 H       -3.5120     1.9760    -0.6480 H     1 <1>   0.1500 
 31 H       -4.9730     0.3900     0.4990 H     1 <1>   0.1500 
 32 H       -8.0240    -3.6800     2.9410 H     1 <1>   0.0800 
 33 H       -8.3440    -2.0890     2.2880 H     1 <1>   0.0800 
 34 H       -7.1570    -2.2900     3.5530 H     1 <1>   0.0800 
 35 H       -7.2730    -5.5840     1.6670 H     1 <1>   0.0800 
 36 H       -5.5640    -5.9790     1.6300 H     1 <1>   0.0800 
 37 H       -5.6740    -5.6520    -0.7740 H     1 <1>   0.4500 
 38 H       -8.0700    -4.5630    -0.4930 H     1 <1>   0.0800 
 39 H       -7.5810    -5.3830    -1.9660 H     1 <1>   0.0800 
 40 H       -5.7910    -7.9410    -0.8630 H     1 <1>   0.0800 
 41 H       -6.4990    -7.8820     0.7400 H     1 <1>   0.0800 
 42 H       -9.6200    -6.5330    -1.3730 H     1 <1>   0.0800 
 43 H       -7.8060    -8.0360    -1.9020 H     1 <1>   0.0800 
 44 H      -10.1270    -6.9610     0.7160 H     1 <1>   0.4000 
 45 H       -9.4090    -9.4620    -0.8050 H     1 <1>   0.0800 
 46 H       -8.8190    -9.0320     0.7780 H     1 <1>   0.0800 
 47 H       -7.3460   -11.2920     1.6290 H     1 <1>   0.1500 
 48 H       -4.7270   -12.6810     1.3280 H     1 <1>   0.0800 
 49 H       -4.6150   -13.4090    -0.2580 H     1 <1>   0.0800 
 50 H       -5.9460   -13.8220     0.7960 H     1 <1>   0.0800 
@<TRIPOS>BOND
  1   1   2  1   
  2   2   3  ar  
  3   2   4  ar  
  4   3   5  ar  
  5   3  28  1   
  6   4   6  ar  
  7   4  29  1   
  8   5   7  1   
  9   5   8  ar  
 10   6   8  ar  
 11   6  30  1   
 12   7   9  1   
 13   7  10  2   
 14   8  31  1   
 15   9  11  1   
 16  10  12  1   
 17  11  12  2   
 18  11  13  1   
 19  12  14  1   
 20  13  32  1   
 21  13  33  1   
 22  13  34  1   
 23  14  15  1   
 24  14  35  1   
 25  14  36  1   
 26  15  16  1   
 27  15  17  1   
 28  15  37  1   
 29  16  18  1   
 30  16  38  1   
 31  16  39  1   
 32  17  19  1   
 33  17  40  1   
 34  17  41  1   
 35  18  19  1   
 36  18  20  1   
 37  18  42  1   
 38  19  21  1   
 39  19  43  1   
 40  20  44  1   
 41  21  22  1   
 42  21  45  1   
 43  21  46  1   
 44  22  23  1   
 45  22  24  2   
 46  23  25  1   
 47  24  26  1   
 48  24  47  1   
 49  25  26  2   
 50  26  27  1   
 51  27  48  1   
 52  27  49  1   
 53  27  50  1   
@<TRIPOS>SUBSTRUCTURE
  1 ****  15 GROUP 4 **** **** 0

# MOE 2024.06 (io_trps.svl 2023.06)
