@<TRIPOS>MOLECULE
NONAME
48 49 1 0 0 
SMALL
USER_CHARGES


@<TRIPOS>ATOM
  1 S       -0.4490     0.9050     1.5120 S.3   1 <1>  -0.0800 
  2 C       -1.5840     0.7340     0.2020 C.2   1 <1>  -0.1400 
  3 C        0.6800    -0.0990     0.6350 C.2   1 <1>   0.2280 
  4 C       -1.0330    -0.0570    -0.7370 C.2   1 <1>   0.0460 
  5 C       -2.9140     1.4550     0.3650 C.3   1 <1>   0.2900 
  6 N        0.2530    -0.5090    -0.4900 N.2   1 <1>  -0.5650 
  7 C       -1.6590    -0.5280    -2.0340 C.3   1 <1>  -0.0590 
  8 N       -3.4170     2.0110    -0.9090 N.3   1 <1>  -0.8100 
  9 C       -4.7190     2.6780    -0.7130 C.3   1 <1>   0.2530 
 10 C       -2.4540     2.9500    -1.5600 C.3   1 <1>   0.1710 
 11 C       -5.7780     1.6940    -0.2340 C.ar  1 <1>  -0.1430 
 12 C       -1.9840     4.1360    -0.7080 C.2   1 <1>   0.5690 
 13 C       -6.0400     0.5400    -0.9570 C.ar  1 <1>  -0.1500 
 14 C       -6.4910     1.9400     0.9310 C.ar  1 <1>  -0.1500 
 15 O       -2.6760     5.1260    -0.6640 O.2   1 <1>  -0.5700 
 16 N       -0.8060     4.0180    -0.0320 N.am  1 <1>  -0.7300 
 17 C       -6.9990    -0.3590    -0.5230 C.ar  1 <1>  -0.1500 
 18 C       -7.4510     1.0420     1.3670 C.ar  1 <1>  -0.1500 
 19 C       -0.1370     4.9930     0.8320 C.3   1 <1>   0.3000 
 20 C       -7.7050    -0.1080     0.6400 C.ar  1 <1>  -0.1500 
 21 C        0.1340     6.2830     0.0570 C.3   1 <1>  -0.2400 
 22 C       -1.0010     5.2520     2.0650 C.3   1 <1>  -0.2400 
 23 C        1.1910     4.3690     1.2550 C.3   1 <1>  -0.2400 
 24 H        1.6310    -0.2930     1.0990 H     1 <1>   0.1500 
 25 H       -2.8050     2.2500     1.0840 H     1 <1>   0.0800 
 26 H       -3.6230     0.7500     0.7640 H     1 <1>   0.0800 
 27 H       -2.6830    -0.2160    -2.1040 H     1 <1>   0.0800 
 28 H       -1.6260    -1.6010    -2.0770 H     1 <1>   0.0800 
 29 H       -1.1100    -0.1300    -2.8670 H     1 <1>   0.0800 
 30 H       -5.0490     3.1000    -1.6470 H     1 <1>   0.0800 
 31 H       -4.6180     3.4840    -0.0060 H     1 <1>   0.0800 
 32 H       -2.9050     3.3460    -2.4520 H     1 <1>   0.0800 
 33 H       -1.5870     2.4010    -1.8760 H     1 <1>   0.0800 
 34 H       -5.4870     0.3420    -1.8590 H     1 <1>   0.1500 
 35 H       -6.3020     2.8310     1.5040 H     1 <1>   0.1500 
 36 H       -0.3310     3.1140    -0.0620 H     1 <1>   0.3700 
 37 H       -7.1940    -1.2520    -1.0900 H     1 <1>   0.1500 
 38 H       -8.0000     1.2390     2.2710 H     1 <1>   0.1500 
 39 H       -8.4510    -0.8050     0.9780 H     1 <1>   0.1500 
 40 H       -0.7860     6.7700    -0.2100 H     1 <1>   0.0800 
 41 H        0.6910     6.0740    -0.8390 H     1 <1>   0.0800 
 42 H        0.7030     6.9660     0.6610 H     1 <1>   0.0800 
 43 H       -1.9320     5.7110     1.7830 H     1 <1>   0.0800 
 44 H       -0.4940     5.9180     2.7390 H     1 <1>   0.0800 
 45 H       -1.2070     4.3330     2.5820 H     1 <1>   0.0800 
 46 H        1.7940     4.1430     0.3930 H     1 <1>   0.0800 
 47 H        1.0280     3.4700     1.8200 H     1 <1>   0.0800 
 48 H        1.7390     5.0550     1.8760 H     1 <1>   0.0800 
@<TRIPOS>BOND
  1   1   2  1   
  2   1   3  1   
  3   2   4  2   
  4   2   5  1   
  5   3   6  2   
  6   3  24  1   
  7   4   6  1   
  8   4   7  1   
  9   5   8  1   
 10   5  25  1   
 11   5  26  1   
 12   7  27  1   
 13   7  28  1   
 14   7  29  1   
 15   8   9  1   
 16   8  10  1   
 17   9  11  1   
 18   9  30  1   
 19   9  31  1   
 20  10  12  1   
 21  10  32  1   
 22  10  33  1   
 23  11  13  ar  
 24  11  14  ar  
 25  12  15  2   
 26  12  16  am  
 27  13  17  ar  
 28  13  34  1   
 29  14  18  ar  
 30  14  35  1   
 31  16  19  1   
 32  16  36  1   
 33  17  20  ar  
 34  17  37  1   
 35  18  20  ar  
 36  18  38  1   
 37  19  21  1   
 38  19  22  1   
 39  19  23  1   
 40  20  39  1   
 41  21  40  1   
 42  21  41  1   
 43  21  42  1   
 44  22  43  1   
 45  22  44  1   
 46  22  45  1   
 47  23  46  1   
 48  23  47  1   
 49  23  48  1   
@<TRIPOS>SUBSTRUCTURE
  1 ****   5 GROUP 4 **** **** 0

# MOE 2024.06 (io_trps.svl 2023.06)
