@<TRIPOS>MOLECULE
NONAME
47 49 1 0 0 
SMALL
USER_CHARGES


@<TRIPOS>ATOM
  1 CL      -2.7020     0.2810     0.1880 Cl    1 <1>  -0.1770 
  2 C       -1.5530     1.5650    -0.1170 C.ar  1 <1>   0.1770 
  3 C       -0.4810     1.3480    -0.9680 C.ar  1 <1>   0.1770 
  4 C       -1.7350     2.7990     0.4910 C.ar  1 <1>  -0.1440 
  5 CL      -0.2590    -0.2030    -1.7420 Cl    1 <1>  -0.1770 
  6 C        0.4270     2.3580    -1.2220 C.ar  1 <1>  -0.1500 
  7 C       -0.8170     3.8120     0.2370 C.ar  1 <1>  -0.1500 
  8 C       -2.9110     3.0350     1.4210 C.3   1 <1>   0.4870 
  9 C        0.2550     3.5920    -0.6150 C.ar  1 <1>  -0.1500 
 10 N       -3.9590     3.8080     0.7010 N.4   1 <1>  -0.9590 
 11 C       -4.9860     4.3120     1.6530 C.3   1 <1>   0.3430 
 12 C       -4.5840     2.9800    -0.3730 C.3   1 <1>   0.3430 
 13 C       -5.9780     5.2010     0.9090 C.3   1 <1>  -0.1600 
 14 C       -5.6440     3.7860    -1.1190 C.3   1 <1>  -0.1600 
 15 C       -6.7060     4.4100    -0.1900 C.3   1 <1>   0.2800 
 16 O       -7.3780     5.3410    -0.9950 O.3   1 <1>  -0.5600 
 17 C       -7.7280     3.3990     0.4260 C.3   1 <1>   0.2000 
 18 C       -8.6580     5.7480    -0.6000 C.3   1 <1>   0.1200 
 19 O       -7.1560     2.1720     0.7690 O.3   1 <1>  -0.6800 
 20 C       -8.9940     3.2080    -0.4490 C.3   1 <1>   0.2800 
 21 C       -9.6510     4.5770    -0.7080 C.3   1 <1>  -0.1600 
 22 O       -9.8750     2.4320     0.2800 O.3   1 <1>  -0.6800 
 23 C       -8.7720     2.4490    -1.7640 C.3   1 <1>  -0.2400 
 24 H        1.2570     2.1790    -1.8840 H     1 <1>   0.1500 
 25 H       -0.9180     4.7810     0.6990 H     1 <1>   0.1500 
 26 H       -2.5700     3.5910     2.2790 H     1 <1>   0.0800 
 27 H       -3.3150     2.0980     1.7690 H     1 <1>   0.0800 
 28 H        0.9630     4.3830    -0.8080 H     1 <1>   0.1500 
 29 H       -3.5050     4.6090     0.2470 H     1 <1>   0.4500 
 30 H       -5.5100     3.4820     2.1010 H     1 <1>   0.0800 
 31 H       -4.5150     4.8830     2.4370 H     1 <1>   0.0800 
 32 H       -3.8330     2.6570    -1.0760 H     1 <1>   0.0800 
 33 H       -5.0290     2.0980     0.0570 H     1 <1>   0.0800 
 34 H       -5.4540     6.0350     0.4760 H     1 <1>   0.0800 
 35 H       -6.6860     5.5910     1.6170 H     1 <1>   0.0800 
 36 H       -6.1090     3.1340    -1.8320 H     1 <1>   0.0800 
 37 H       -5.1510     4.5650    -1.6720 H     1 <1>   0.0800 
 38 H       -8.0760     3.8190     1.3540 H     1 <1>   0.0800 
 39 H       -8.6070     6.1190     0.4100 H     1 <1>   0.0800 
 40 H       -8.9620     6.5570    -1.2430 H     1 <1>   0.0800 
 41 H       -7.9060     1.5570     0.9500 H     1 <1>   0.4000 
 42 H      -10.0920     4.5980    -1.6890 H     1 <1>   0.0800 
 43 H      -10.4420     4.7570    -0.0010 H     1 <1>   0.0800 
 44 H      -10.6820     2.2700    -0.2470 H     1 <1>   0.4000 
 45 H       -8.2220     3.0580    -2.4570 H     1 <1>   0.0800 
 46 H       -9.7120     2.2090    -2.2280 H     1 <1>   0.0800 
 47 H       -8.2250     1.5390    -1.5960 H     1 <1>   0.0800 
@<TRIPOS>BOND
  1   1   2  1   
  2   2   3  ar  
  3   2   4  ar  
  4   3   5  1   
  5   3   6  ar  
  6   4   7  ar  
  7   4   8  1   
  8   6   9  ar  
  9   6  24  1   
 10   7   9  ar  
 11   7  25  1   
 12   8  10  1   
 13   8  26  1   
 14   8  27  1   
 15   9  28  1   
 16  10  11  1   
 17  10  12  1   
 18  10  29  1   
 19  11  13  1   
 20  11  30  1   
 21  11  31  1   
 22  12  14  1   
 23  12  32  1   
 24  12  33  1   
 25  13  15  1   
 26  13  34  1   
 27  13  35  1   
 28  14  15  1   
 29  14  36  1   
 30  14  37  1   
 31  15  16  1   
 32  15  17  1   
 33  16  18  1   
 34  17  19  1   
 35  17  20  1   
 36  17  38  1   
 37  18  21  1   
 38  18  39  1   
 39  18  40  1   
 40  19  41  1   
 41  20  21  1   
 42  20  22  1   
 43  20  23  1   
 44  21  42  1   
 45  21  43  1   
 46  22  44  1   
 47  23  45  1   
 48  23  46  1   
 49  23  47  1   
@<TRIPOS>SUBSTRUCTURE
  1 ****  12 GROUP 4 **** **** 0

# MOE 2024.06 (io_trps.svl 2023.06)
