@<TRIPOS>MOLECULE
NONAME
45 47 1 0 0 
SMALL
USER_CHARGES


@<TRIPOS>ATOM
  1 S        0.7670     0.3600     1.5110 S.3   1 <1>  -0.3320 
  2 C        2.0610    -0.6150     0.7510 C.ar  1 <1>   0.7220 
  3 C       -0.6890    -0.7750     1.6040 C.3   1 <1>  -0.0100 
  4 N        3.2020     0.0130     0.5990 N.ar  1 <1>  -0.6200 
  5 N        1.7220    -1.8540     0.4310 N.ar  1 <1>  -0.6200 
  6 C        4.1610    -0.7000     0.0440 C.ar  1 <1>   0.4100 
  7 C        2.6950    -2.5310    -0.1390 C.ar  1 <1>   0.1600 
  8 N        5.3670    -0.0570    -0.0630 N.pl3 1 <1>  -0.8380 
  9 C        3.9410    -2.0040    -0.3850 C.ar  1 <1>  -0.1790 
 10 C        5.5950     0.7170    -1.3030 C.3   1 <1>   0.2090 
 11 C        6.5820    -0.7000     0.4930 C.3   1 <1>   0.2090 
 12 C        4.9120    -2.8160    -1.0500 C.2   1 <1>   0.9790 
 13 C        6.6320     1.8060    -1.0310 C.3   1 <1>  -0.1600 
 14 C        7.6210     0.3780     0.7960 C.3   1 <1>  -0.1600 
 15 O        5.5140    -2.4300    -2.0680 O.co2 1 <1>  -0.9000 
 16 O        5.1370    -3.9610    -0.6260 O.co2 1 <1>  -0.9000 
 17 C        7.9320     1.2050    -0.4640 C.3   1 <1>   0.1000 
 18 C        8.9940     2.2640    -0.1720 C.2   1 <1>   0.2980 
 19 O       10.1960     1.8490     0.1470 O.3   1 <1>  -0.0190 
 20 N        8.8500     3.5300    -0.2090 N.2   1 <1>  -0.5650 
 21 N       10.8710     2.9420     0.3310 N.2   1 <1>  -0.4100 
 22 C       10.0750     3.9170     0.1220 C.2   1 <1>   0.3350 
 23 C       10.4250     5.4030     0.2160 C.3   1 <1>   0.1010 
 24 C       10.7360     5.9730    -1.1750 C.3   1 <1>  -0.2400 
 25 C       11.5990     5.6750     1.1700 C.3   1 <1>  -0.2400 
 26 H       -1.4990    -0.2350     2.0580 H     1 <1>   0.0800 
 27 H       -0.4050    -1.6240     2.2000 H     1 <1>   0.0800 
 28 H       -0.9350    -1.0750     0.6010 H     1 <1>   0.0800 
 29 H        2.5040    -3.5520    -0.4300 H     1 <1>   0.1500 
 30 H        4.6680     1.1610    -1.6250 H     1 <1>   0.0800 
 31 H        5.9410     0.0530    -2.0770 H     1 <1>   0.0800 
 32 H        6.9820    -1.4000    -0.2220 H     1 <1>   0.0800 
 33 H        6.3260    -1.2380     1.3910 H     1 <1>   0.0800 
 34 H        6.2160     2.5090    -0.3310 H     1 <1>   0.0800 
 35 H        6.8420     2.3310    -1.9450 H     1 <1>   0.0800 
 36 H        8.5160    -0.0950     1.1570 H     1 <1>   0.0800 
 37 H        7.2420     1.0190     1.5720 H     1 <1>   0.0800 
 38 H        8.3390     0.5420    -1.2080 H     1 <1>   0.0800 
 39 H        9.5590     5.9110     0.6040 H     1 <1>   0.0800 
 40 H       11.5910     5.4760    -1.5980 H     1 <1>   0.0800 
 41 H       10.9380     7.0270    -1.1150 H     1 <1>   0.0800 
 42 H        9.8950     5.8210    -1.8290 H     1 <1>   0.0800 
 43 H       12.4950     5.2020     0.8080 H     1 <1>   0.0800 
 44 H       11.3760     5.2810     2.1460 H     1 <1>   0.0800 
 45 H       11.7750     6.7320     1.2580 H     1 <1>   0.0800 
@<TRIPOS>BOND
  1   1   2  1   
  2   1   3  1   
  3   2   4  ar  
  4   2   5  ar  
  5   3  26  1   
  6   3  27  1   
  7   3  28  1   
  8   4   6  ar  
  9   5   7  ar  
 10   6   8  1   
 11   6   9  ar  
 12   7   9  ar  
 13   7  29  1   
 14   8  10  1   
 15   8  11  1   
 16   9  12  1   
 17  10  13  1   
 18  10  30  1   
 19  10  31  1   
 20  11  14  1   
 21  11  32  1   
 22  11  33  1   
 23  12  15  ar  
 24  12  16  ar  
 25  13  17  1   
 26  13  34  1   
 27  13  35  1   
 28  14  17  1   
 29  14  36  1   
 30  14  37  1   
 31  17  18  1   
 32  17  38  1   
 33  18  19  1   
 34  18  20  2   
 35  19  21  1   
 36  20  22  1   
 37  21  22  2   
 38  22  23  1   
 39  23  24  1   
 40  23  25  1   
 41  23  39  1   
 42  24  40  1   
 43  24  41  1   
 44  24  42  1   
 45  25  43  1   
 46  25  44  1   
 47  25  45  1   
@<TRIPOS>SUBSTRUCTURE
  1 ****   8 GROUP 4 **** **** 0

# MOE 2024.06 (io_trps.svl 2023.06)
