@<TRIPOS>MOLECULE
NONAME
47 47 1 0 0 
SMALL
USER_CHARGES


@<TRIPOS>ATOM
  1 O       -0.3270     0.5610    -0.3640 O.2   1 <1>  -0.5700 
  2 C       -1.4560     0.9820    -0.2580 C.2   1 <1>   0.5690 
  3 N       -2.5350     0.1750    -0.4460 N.am  1 <1>  -0.7300 
  4 C       -1.6340     2.4880     0.0780 C.3   1 <1>   0.4840 
  5 C       -2.4590    -1.2720    -0.7030 C.3   1 <1>   0.2780 
  6 N       -0.4730     3.3300    -0.4220 N.4   1 <1>  -0.9590 
  7 C       -1.7960     2.6530     1.5950 C.3   1 <1>  -0.2400 
  8 C       -3.5970    -1.9060     0.0630 C.2   1 <1>  -0.2880 
  9 C       -0.4680     4.7510     0.0420 C.3   1 <1>   0.3430 
 10 C       -0.3510     3.2180    -1.9150 C.3   1 <1>   0.2630 
 11 C       -4.6690    -2.4870    -0.4840 C.2   1 <1>  -0.3000 
 12 C        0.8700     5.4190    -0.2720 C.3   1 <1>  -0.1600 
 13 C        0.9690     6.8010     0.3830 C.3   1 <1>   0.0210 
 14 C        2.3110     7.4180     0.0440 C.2   1 <1>  -0.1810 
 15 C        2.5980     8.2520    -1.0370 C.2   1 <1>   0.1080 
 16 C        3.4860     7.2850     0.6980 C.2   1 <1>  -0.3320 
 17 N        3.8420     8.6070    -1.0630 N.2   1 <1>  -0.7070 
 18 C        1.6200     8.7300    -2.0860 C.3   1 <1>  -0.0590 
 19 N        4.3900     8.0150     0.0110 N.pl3 1 <1>   0.3000 
 20 C        3.8450     6.5090     1.9550 C.3   1 <1>  -0.0600 
 21 H       -3.5010     0.4950    -0.3330 H     1 <1>   0.3700 
 22 H       -2.5390     2.8220    -0.4000 H     1 <1>   0.0800 
 23 H       -1.5140    -1.6740    -0.3760 H     1 <1>   0.0800 
 24 H       -2.5680    -1.4560    -1.7590 H     1 <1>   0.0800 
 25 H        0.3590     2.8520    -0.0350 H     1 <1>   0.4500 
 26 H       -0.8720     2.4360     2.1020 H     1 <1>   0.0800 
 27 H       -2.5360     1.9580     1.9530 H     1 <1>   0.0800 
 28 H       -2.1400     3.6370     1.8530 H     1 <1>   0.0800 
 29 H       -3.4540    -1.8460     1.1300 H     1 <1>   0.1500 
 30 H       -0.6120     4.7860     1.1090 H     1 <1>   0.0800 
 31 H       -1.2710     5.2990    -0.4240 H     1 <1>   0.0800 
 32 H       -1.1980     3.6770    -2.3990 H     1 <1>   0.0800 
 33 H       -0.3000     2.1830    -2.2120 H     1 <1>   0.0800 
 34 H        0.5480     3.7040    -2.2570 H     1 <1>   0.0800 
 35 H       -5.4650    -2.9350     0.0880 H     1 <1>   0.1500 
 36 H       -4.8470    -2.5710    -1.5430 H     1 <1>   0.1500 
 37 H        0.9910     5.5440    -1.3330 H     1 <1>   0.0800 
 38 H        1.6790     4.8130     0.0990 H     1 <1>   0.0800 
 39 H        0.8820     6.7170     1.4530 H     1 <1>   0.0800 
 40 H        0.1810     7.4460     0.0370 H     1 <1>   0.0800 
 41 H        1.0510     7.9060    -2.4690 H     1 <1>   0.0800 
 42 H        2.1550     9.1880    -2.8980 H     1 <1>   0.0800 
 43 H        0.9580     9.4590    -1.6560 H     1 <1>   0.0800 
 44 H        5.3830     8.1310     0.2460 H     1 <1>   0.2700 
 45 H        2.9920     5.9780     2.3340 H     1 <1>   0.0800 
 46 H        4.1930     7.1840     2.7170 H     1 <1>   0.0800 
 47 H        4.6230     5.7970     1.7410 H     1 <1>   0.0800 
@<TRIPOS>BOND
  1   1   2  2   
  2   2   3  am  
  3   2   4  1   
  4   3   5  1   
  5   3  21  1   
  6   4   6  1   
  7   4   7  1   
  8   4  22  1   
  9   5   8  1   
 10   5  23  1   
 11   5  24  1   
 12   6   9  1   
 13   6  10  1   
 14   6  25  1   
 15   7  26  1   
 16   7  27  1   
 17   7  28  1   
 18   8  11  2   
 19   8  29  1   
 20   9  12  1   
 21   9  30  1   
 22   9  31  1   
 23  10  32  1   
 24  10  33  1   
 25  10  34  1   
 26  11  35  1   
 27  11  36  1   
 28  12  13  1   
 29  12  37  1   
 30  12  38  1   
 31  13  14  1   
 32  13  39  1   
 33  13  40  1   
 34  14  15  1   
 35  14  16  2   
 36  15  17  2   
 37  15  18  1   
 38  16  19  1   
 39  16  20  1   
 40  17  19  1   
 41  18  41  1   
 42  18  42  1   
 43  18  43  1   
 44  19  44  1   
 45  20  45  1   
 46  20  46  1   
 47  20  47  1   
@<TRIPOS>SUBSTRUCTURE
  1 ****   6 GROUP 4 **** **** 0

# MOE 2024.06 (io_trps.svl 2023.06)
