@<TRIPOS>MOLECULE
NONAME
45 46 1 0 0 
SMALL
USER_CHARGES


@<TRIPOS>ATOM
  1 S       -0.4910    -1.4620     0.5410 S.3   1 <1>  -0.0800 
  2 C       -2.2060    -1.4270     0.3020 C.2   1 <1>   0.4420 
  3 C       -0.6090     0.1740     1.1020 C.2   1 <1>   0.1980 
  4 N       -2.7190    -0.2960     0.6260 N.2   1 <1>  -0.3380 
  5 N       -2.7830    -2.5770    -0.1880 N.am  1 <1>  -0.4940 
  6 N       -1.8040     0.6120     1.0820 N.2   1 <1>  -0.3380 
  7 C        0.6600     0.9040     1.5370 C.3   1 <1>   0.3800 
  8 C       -4.0970    -2.8760    -0.4260 C.2   1 <1>   0.5690 
  9 O        1.6020     0.9370     0.5040 O.3   1 <1>  -0.5600 
 10 C        1.3350     0.2360     2.7340 C.3   1 <1>  -0.2400 
 11 O       -4.9960    -2.0950    -0.2230 O.2   1 <1>  -0.5700 
 12 C       -4.4160    -4.2850    -0.9840 C.3   1 <1>   0.3410 
 13 C        1.2620     1.7520    -0.5770 C.3   1 <1>   0.0400 
 14 O       -3.4070    -5.2170    -0.6070 O.3   1 <1>  -0.3630 
 15 C       -4.3500    -4.2420    -2.5170 C.3   1 <1>  -0.2400 
 16 C       -5.7930    -4.8510    -0.5800 C.3   1 <1>  -0.2400 
 17 C       -3.0550    -5.5940     0.6620 C.ar  1 <1>   0.0820 
 18 C       -2.1190    -6.6260     0.7790 C.ar  1 <1>   0.0820 
 19 C       -3.5640    -5.0020     1.8160 C.ar  1 <1>  -0.1500 
 20 O       -1.6270    -7.1740    -0.3700 O.3   1 <1>  -0.3630 
 21 C       -1.7170    -7.0540     2.0420 C.ar  1 <1>  -0.1500 
 22 C       -3.1560    -5.4350     3.0650 C.ar  1 <1>  -0.1500 
 23 C       -0.7860    -8.3060    -0.3500 C.3   1 <1>   0.0400 
 24 C       -2.2360    -6.4600     3.1780 C.ar  1 <1>  -0.1500 
 25 H       -2.1480    -3.3640    -0.3310 H     1 <1>   0.3700 
 26 H        0.4120     1.9190     1.7970 H     1 <1>   0.0800 
 27 H        1.6520    -0.7580     2.4810 H     1 <1>   0.0800 
 28 H        0.6440     0.1810     3.5560 H     1 <1>   0.0800 
 29 H        2.1880     0.8140     3.0400 H     1 <1>   0.0800 
 30 H        2.0720     1.7230    -1.2840 H     1 <1>   0.0800 
 31 H        1.1200     2.7620    -0.2330 H     1 <1>   0.0800 
 32 H        0.3650     1.3820    -1.0430 H     1 <1>   0.0800 
 33 H       -3.3820    -3.9040    -2.8410 H     1 <1>   0.0800 
 34 H       -5.0900    -3.5610    -2.8970 H     1 <1>   0.0800 
 35 H       -4.5370    -5.2180    -2.9290 H     1 <1>   0.0800 
 36 H       -5.9220    -4.8680     0.4840 H     1 <1>   0.0800 
 37 H       -5.9140    -5.8480    -0.9630 H     1 <1>   0.0800 
 38 H       -6.5720    -4.2320    -0.9870 H     1 <1>   0.0800 
 39 H       -4.2760    -4.2000     1.7810 H     1 <1>   0.1500 
 40 H       -1.0010    -7.8440     2.1630 H     1 <1>   0.1500 
 41 H       -3.5560    -4.9720     3.9500 H     1 <1>   0.1500 
 42 H       -0.5810    -8.5850    -1.3680 H     1 <1>   0.0800 
 43 H       -1.2940    -9.1090     0.1530 H     1 <1>   0.0800 
 44 H        0.1310    -8.0520     0.1510 H     1 <1>   0.0800 
 45 H       -1.9220    -6.7960     4.1520 H     1 <1>   0.1500 
@<TRIPOS>BOND
  1   1   2  1   
  2   1   3  1   
  3   2   4  2   
  4   2   5  1   
  5   3   6  2   
  6   3   7  1   
  7   4   6  1   
  8   5   8  am  
  9   5  25  1   
 10   7   9  1   
 11   7  10  1   
 12   7  26  1   
 13   8  11  2   
 14   8  12  1   
 15   9  13  1   
 16  10  27  1   
 17  10  28  1   
 18  10  29  1   
 19  12  14  1   
 20  12  15  1   
 21  12  16  1   
 22  13  30  1   
 23  13  31  1   
 24  13  32  1   
 25  14  17  1   
 26  15  33  1   
 27  15  34  1   
 28  15  35  1   
 29  16  36  1   
 30  16  37  1   
 31  16  38  1   
 32  17  18  ar  
 33  17  19  ar  
 34  18  20  1   
 35  18  21  ar  
 36  19  22  ar  
 37  19  39  1   
 38  20  23  1   
 39  21  24  ar  
 40  21  40  1   
 41  22  24  ar  
 42  22  41  1   
 43  23  42  1   
 44  23  43  1   
 45  23  44  1   
 46  24  45  1   
@<TRIPOS>SUBSTRUCTURE
  1 ****   5 GROUP 4 **** **** 0

# MOE 2024.06 (io_trps.svl 2023.06)
