@<TRIPOS>MOLECULE
NONAME
48 52 1 0 0 
SMALL
USER_CHARGES


@<TRIPOS>ATOM
  1 O        0.4970    -0.2330     1.3040 O.3   1 <1>  -0.0190 
  2 N       -0.0790    -1.3430     1.6500 N.2   1 <1>  -0.4100 
  3 C        1.5310    -0.6170     0.5950 C.2   1 <1>   0.2980 
  4 C        0.6060    -2.2960     1.1480 C.2   1 <1>   0.3350 
  5 N        1.6650    -1.8750     0.4620 N.2   1 <1>  -0.5650 
  6 C        2.4630     0.4330     0.0020 C.3   1 <1>   0.1000 
  7 C        0.2760    -3.7820     1.3060 C.3   1 <1>   0.3900 
  8 C        3.1030     1.3550     1.0390 C.3   1 <1>  -0.1600 
  9 C        1.7730     1.4010    -0.9600 C.3   1 <1>  -0.1600 
 10 N       -0.5570    -4.3280     0.1720 N.pl3 1 <1>  -0.8380 
 11 C        3.5470     2.5910     0.2520 C.3   1 <1>  -0.1600 
 12 C        2.6910     2.6250    -1.0210 C.3   1 <1>  -0.1600 
 13 C       -0.4640    -5.7670     0.1000 C.2   1 <1>   0.1460 
 14 C       -1.9260    -3.6810     0.1750 C.3   1 <1>   0.2090 
 15 C        0.7150    -6.3820    -0.2510 C.2   1 <1>   0.1000 
 16 C       -1.6870    -6.4970     0.3840 C.2   1 <1>   0.1810 
 17 C       -3.0650    -4.5580    -0.3770 C.3   1 <1>   0.0200 
 18 N        0.8530    -7.7900    -0.1500 N.pl3 1 <1>  -0.6000 
 19 C        1.8930    -5.7170    -0.7450 C.2   1 <1>  -0.1500 
 20 N       -1.8390    -7.7660     0.8620 N.2   1 <1>  -0.5650 
 21 C       -2.9080    -5.9600     0.1630 C.2   1 <1>  -0.3320 
 22 C        2.0300    -8.4660    -0.4390 C.2   1 <1>  -0.0500 
 23 C        3.0430    -6.3730    -1.0410 C.2   1 <1>  -0.1500 
 24 C       -3.1200    -7.9440     0.9020 C.2   1 <1>   0.0360 
 25 N       -3.8330    -6.8770     0.4840 N.pl3 1 <1>   0.0330 
 26 C        3.1150    -7.7870    -0.8740 C.2   1 <1>  -0.1500 
 27 H        3.2490    -0.0710    -0.5330 H     1 <1>   0.0800 
 28 H       -0.2540    -3.9230     2.2310 H     1 <1>   0.0800 
 29 H        1.2010    -4.3230     1.3860 H     1 <1>   0.0800 
 30 H        3.9250     0.8790     1.5440 H     1 <1>   0.0800 
 31 H        2.3670     1.6490     1.7690 H     1 <1>   0.0800 
 32 H        0.8190     1.6950    -0.5570 H     1 <1>   0.0800 
 33 H        1.6220     0.9580    -1.9290 H     1 <1>   0.0800 
 34 H        4.5860     2.5000    -0.0160 H     1 <1>   0.0800 
 35 H        3.4180     3.4860     0.8370 H     1 <1>   0.0800 
 36 H        2.1140     3.5320    -1.0820 H     1 <1>   0.0800 
 37 H        3.3290     2.5630    -1.8860 H     1 <1>   0.0800 
 38 H       -1.8770    -2.7700    -0.3960 H     1 <1>   0.0800 
 39 H       -2.1850    -3.4140     1.1860 H     1 <1>   0.0800 
 40 H       -3.0090    -4.5790    -1.4510 H     1 <1>   0.0800 
 41 H       -4.0120    -4.1380    -0.0900 H     1 <1>   0.0800 
 42 H        0.0080    -8.2720     0.2030 H     1 <1>   0.4000 
 43 H        1.8210    -4.6540    -0.8860 H     1 <1>   0.1500 
 44 H        2.0280    -9.5340    -0.2990 H     1 <1>   0.1500 
 45 H        3.9130    -5.8590    -1.4070 H     1 <1>   0.1500 
 46 H       -3.5940    -8.8520     1.2330 H     1 <1>   0.1500 
 47 H       -4.8520    -6.7960     0.4250 H     1 <1>   0.2700 
 48 H        4.0410    -8.2800    -1.1070 H     1 <1>   0.1500 
@<TRIPOS>BOND
  1   1   2  1   
  2   1   3  1   
  3   2   4  2   
  4   3   5  2   
  5   3   6  1   
  6   4   5  1   
  7   4   7  1   
  8   6   8  1   
  9   6   9  1   
 10   6  27  1   
 11   7  10  1   
 12   7  28  1   
 13   7  29  1   
 14   8  11  1   
 15   8  30  1   
 16   8  31  1   
 17   9  12  1   
 18   9  32  1   
 19   9  33  1   
 20  10  13  1   
 21  10  14  1   
 22  11  12  1   
 23  11  34  1   
 24  11  35  1   
 25  12  36  1   
 26  12  37  1   
 27  13  15  2   
 28  13  16  1   
 29  14  17  1   
 30  14  38  1   
 31  14  39  1   
 32  15  18  1   
 33  15  19  1   
 34  16  20  1   
 35  16  21  2   
 36  17  21  1   
 37  17  40  1   
 38  17  41  1   
 39  18  22  1   
 40  18  42  1   
 41  19  23  2   
 42  19  43  1   
 43  20  24  2   
 44  21  25  1   
 45  22  26  2   
 46  22  44  1   
 47  23  26  1   
 48  23  45  1   
 49  24  25  1   
 50  24  46  1   
 51  25  47  1   
 52  26  48  1   
@<TRIPOS>SUBSTRUCTURE
  1 ****  10 GROUP 4 **** **** 0

# MOE 2024.06 (io_trps.svl 2023.06)
