@<TRIPOS>MOLECULE
NONAME
24 25 1 0 0 
SMALL
USER_CHARGES


@<TRIPOS>ATOM
  1 O        0.2350     0.1400    -0.0010 O.2   1 <1>  -0.5700 
  2 C        1.3460     0.6660     0.0240 C.2   1 <1>   0.6160 
  3 N        1.4290     2.0560     0.0910 N.am  1 <1>  -0.2980 
  4 C        2.5740    -0.0480    -0.0100 C.2   1 <1>   0.0470 
  5 N        2.5990     2.7640     0.1250 N.2   1 <1>  -0.5120 
  6 C        0.1830     2.8550     0.1290 C.3   1 <1>   0.0600 
  7 C        3.7520     0.6670     0.0250 C.2   1 <1>  -0.1240 
  8 C        2.5160    -1.4720    -0.0780 C.2   1 <1>   0.7040 
  9 C        3.7000     2.0850     0.0930 C.2   1 <1>   0.3750 
 10 C        5.1130    -0.0410    -0.0090 C.3   1 <1>  -0.1020 
 11 N        2.5670    -2.1500    -1.1830 N.2   1 <1>  -0.6190 
 12 N        2.5620    -2.2550     0.9600 N.2   1 <1>  -0.6190 
 13 C        4.9850     2.8930     0.1320 C.3   1 <1>  -0.1790 
 14 N        2.6330    -3.3840    -0.8360 N.2   1 <1>  -0.2500 
 15 N        2.6300    -3.4480     0.4670 N.2   1 <1>  -0.2500 
 16 H       -0.3920     2.5760     0.9930 H     1 <1>   0.0800 
 17 H       -0.3920     2.6610    -0.7580 H     1 <1>   0.0800 
 18 H        0.4180     3.9030     0.1800 H     1 <1>   0.0800 
 19 H        5.6720     0.2710    -0.8720 H     1 <1>   0.0800 
 20 H        5.0190    -1.1120    -0.0590 H     1 <1>   0.0800 
 21 H        5.6730     0.1890     0.8790 H     1 <1>   0.0800 
 22 H        5.5600     2.6290     0.9990 H     1 <1>   0.0800 
 23 H        4.7630     3.9440     0.1810 H     1 <1>   0.0800 
 24 H        5.5620     2.7120    -0.7550 H     1 <1>   0.0800 
@<TRIPOS>BOND
  1   1   2  2   
  2   2   3  am  
  3   2   4  1   
  4   3   5  1   
  5   3   6  1   
  6   4   7  2   
  7   4   8  1   
  8   5   9  2   
  9   6  16  1   
 10   6  17  1   
 11   6  18  1   
 12   7   9  1   
 13   7  10  1   
 14   8  11  1   
 15   8  12  2   
 16   9  13  1   
 17  10  19  1   
 18  10  20  1   
 19  10  21  1   
 20  11  14  1   
 21  12  15  1   
 22  13  22  1   
 23  13  23  1   
 24  13  24  1   
 25  14  15  2   
@<TRIPOS>SUBSTRUCTURE
  1 ****   4 GROUP 4 **** **** 0

# MOE 2024.06 (io_trps.svl 2023.06)
