@<TRIPOS>MOLECULE
NONAME
47 49 1 0 0 
SMALL
USER_CHARGES


@<TRIPOS>ATOM
  1 S       -0.7150    -1.0660    -0.1970 S.3   1 <1>  -0.0800 
  2 C       -1.2670     0.3710    -1.0210 C.2   1 <1>   0.1980 
  3 C        0.4720    -0.1050     0.6210 C.2   1 <1>  -0.1100 
  4 N       -0.6250     1.4260    -0.7160 N.2   1 <1>  -0.5650 
  5 C       -2.4210     0.2210    -1.9940 C.3   1 <1>   0.0200 
  6 C        0.3870     1.1890     0.2350 C.2   1 <1>   0.1410 
  7 C       -3.7570     0.0290    -1.2610 C.3   1 <1>  -0.1600 
  8 C        1.2450     2.2540     0.7580 C.2   1 <1>   0.7160 
  9 C       -4.9280    -0.0860    -2.2420 C.3   1 <1>  -0.2400 
 10 O        2.0370     1.9960     1.6480 O.2   1 <1>  -0.5700 
 11 N        1.2560     3.5540     0.2850 N.am  1 <1>  -0.6600 
 12 C        1.7520     4.6610     1.1880 C.3   1 <1>   0.2200 
 13 C        1.0080     3.8560    -1.1590 C.3   1 <1>   0.1400 
 14 C        0.9110     5.9420     1.0640 C.3   1 <1>   0.1200 
 15 C        3.2580     4.9440     0.9750 C.3   1 <1>   0.3430 
 16 C        1.7250     5.1090    -1.7000 C.3   1 <1>  -0.0800 
 17 O        1.3790     6.7610     0.0370 O.3   1 <1>  -0.5600 
 18 N        3.7640     4.3870    -0.3250 N.4   1 <1>  -0.9590 
 19 C        1.0260     6.4040    -1.2560 C.3   1 <1>   0.1200 
 20 C        3.2540     5.1720    -1.4940 C.3   1 <1>   0.3430 
 21 C        5.2850     4.4460    -0.3150 C.3   1 <1>   0.2370 
 22 C        5.8700     5.8590    -0.2240 C.2   1 <1>   0.9060 
 23 O        6.0320     6.4830    -1.2770 O.co2 1 <1>  -0.9000 
 24 O        6.0330     6.3460     0.8980 O.co2 1 <1>  -0.9000 
 25 H        1.1250    -0.5930     1.3220 H     1 <1>   0.1500 
 26 H       -2.4730     1.1060    -2.6030 H     1 <1>   0.0800 
 27 H       -2.2300    -0.6170    -2.6390 H     1 <1>   0.0800 
 28 H       -3.7120    -0.8610    -0.6570 H     1 <1>   0.0800 
 29 H       -3.9230     0.8660    -0.6040 H     1 <1>   0.0800 
 30 H       -4.7920    -0.9310    -2.8950 H     1 <1>   0.0800 
 31 H       -5.0110     0.8050    -2.8390 H     1 <1>   0.0800 
 32 H       -5.8480    -0.2190    -1.7010 H     1 <1>   0.0800 
 33 H        1.6310     4.3380     2.2080 H     1 <1>   0.0800 
 34 H        1.3200     3.0080    -1.7450 H     1 <1>   0.0800 
 35 H       -0.0530     3.9680    -1.3050 H     1 <1>   0.0800 
 36 H        1.0110     6.5130     1.9710 H     1 <1>   0.0800 
 37 H       -0.1320     5.7230     0.9160 H     1 <1>   0.0800 
 38 H        3.8020     4.4900     1.7860 H     1 <1>   0.0800 
 39 H        3.4470     6.0060     1.0230 H     1 <1>   0.0800 
 40 H        1.5790     5.0840    -2.7650 H     1 <1>   0.0800 
 41 H        3.4290     3.4190    -0.3750 H     1 <1>   0.4500 
 42 H       -0.0460     6.3210    -1.3150 H     1 <1>   0.0800 
 43 H        1.3350     7.2160    -1.8920 H     1 <1>   0.0800 
 44 H        3.5550     6.2040    -1.3900 H     1 <1>   0.0800 
 45 H        3.7330     4.7980    -2.3850 H     1 <1>   0.0800 
 46 H        5.6650     3.8930     0.5250 H     1 <1>   0.0800 
 47 H        5.6730     4.0040    -1.2140 H     1 <1>   0.0800 
@<TRIPOS>BOND
  1   1   2  1   
  2   1   3  1   
  3   2   4  2   
  4   2   5  1   
  5   3   6  2   
  6   3  25  1   
  7   4   6  1   
  8   5   7  1   
  9   5  26  1   
 10   5  27  1   
 11   6   8  1   
 12   7   9  1   
 13   7  28  1   
 14   7  29  1   
 15   8  10  2   
 16   8  11  am  
 17   9  30  1   
 18   9  31  1   
 19   9  32  1   
 20  11  12  1   
 21  11  13  1   
 22  12  14  1   
 23  12  15  1   
 24  12  33  1   
 25  13  16  1   
 26  13  34  1   
 27  13  35  1   
 28  14  17  1   
 29  14  36  1   
 30  14  37  1   
 31  15  18  1   
 32  15  38  1   
 33  15  39  1   
 34  16  19  1   
 35  16  20  1   
 36  16  40  1   
 37  17  19  1   
 38  18  20  1   
 39  18  21  1   
 40  18  41  1   
 41  19  42  1   
 42  19  43  1   
 43  20  44  1   
 44  20  45  1   
 45  21  22  1   
 46  21  46  1   
 47  21  47  1   
 48  22  23  ar  
 49  22  24  ar  
@<TRIPOS>SUBSTRUCTURE
  1 ****  11 GROUP 4 **** **** 0

# MOE 2024.06 (io_trps.svl 2023.06)
