@<TRIPOS>MOLECULE
NONAME
44 46 1 0 0 
SMALL
USER_CHARGES


@<TRIPOS>ATOM
  1 CL      -0.0330    -1.5160    -2.7180 Cl    1 <1>  -0.1240 
  2 C       -0.4970    -2.4730    -1.3390 C.2   1 <1>   0.1640 
  3 S       -1.1180    -4.0760    -1.6710 S.3   1 <1>  -0.0800 
  4 C       -0.4690    -2.2060    -0.0220 C.2   1 <1>  -0.1500 
  5 C       -1.3420    -4.3680     0.0530 C.2   1 <1>  -0.1400 
  6 C       -0.9540    -3.2940     0.7740 C.2   1 <1>  -0.1500 
  7 C       -1.9100    -5.7160     0.4530 C.3   1 <1>   0.5230 
  8 N       -3.2630    -5.8570    -0.1180 N.4   1 <1>  -0.9590 
  9 C       -3.7790    -7.2550     0.0310 C.3   1 <1>   0.3430 
 10 C       -4.2180    -4.8690     0.4710 C.3   1 <1>   0.3430 
 11 C       -5.0870    -7.3960    -0.7710 C.3   1 <1>   0.2000 
 12 C       -5.6070    -5.0030    -0.1680 C.3   1 <1>  -0.1600 
 13 O       -4.8190    -7.0390    -2.0990 O.3   1 <1>  -0.6800 
 14 C       -6.1520    -6.4640    -0.1590 C.3   1 <1>  -0.1060 
 15 C       -6.3120    -7.0190     1.2610 C.2   1 <1>   0.9060 
 16 C       -7.4990    -6.5580    -0.9250 C.3   1 <1>  -0.0160 
 17 O       -5.8050    -6.4170     2.2130 O.co2 1 <1>  -0.9000 
 18 O       -6.7490    -8.1630     1.3840 O.co2 1 <1>  -0.9000 
 19 C       -8.5460    -5.5610    -0.4400 C.ar  1 <1>  -0.1440 
 20 C       -9.2350    -5.7920     0.7410 C.ar  1 <1>  -0.1500 
 21 C       -8.8230    -4.4160    -1.1720 C.ar  1 <1>  -0.1500 
 22 C      -10.1810    -4.8870     1.1890 C.ar  1 <1>  -0.1500 
 23 C       -9.7710    -3.5110    -0.7270 C.ar  1 <1>  -0.1500 
 24 C      -10.4510    -3.7460     0.4550 C.ar  1 <1>  -0.1500 
 25 H       -0.1250    -1.2860     0.4180 H     1 <1>   0.1500 
 26 H       -0.9850    -3.2070     1.8480 H     1 <1>   0.1500 
 27 H       -1.9570    -5.7940     1.5270 H     1 <1>   0.0800 
 28 H       -1.2690    -6.4960     0.0780 H     1 <1>   0.0800 
 29 H       -3.2390    -5.6890    -1.1340 H     1 <1>   0.4500 
 30 H       -3.0650    -7.9640    -0.3500 H     1 <1>   0.0800 
 31 H       -3.9590    -7.4800     1.0710 H     1 <1>   0.0800 
 32 H       -4.2950    -5.0300     1.5350 H     1 <1>   0.0800 
 33 H       -3.8560    -3.8660     0.3160 H     1 <1>   0.0800 
 34 H       -5.4200    -8.4210    -0.7540 H     1 <1>   0.0800 
 35 H       -6.2800    -4.3720     0.3870 H     1 <1>   0.0800 
 36 H       -5.5690    -4.6250    -1.1730 H     1 <1>   0.0800 
 37 H       -5.6090    -7.2170    -2.6490 H     1 <1>   0.4000 
 38 H       -7.3390    -6.3870    -1.9730 H     1 <1>   0.0800 
 39 H       -7.9020    -7.5520    -0.8290 H     1 <1>   0.0800 
 40 H       -9.0320    -6.6780     1.3220 H     1 <1>   0.1500 
 41 H       -8.3010    -4.2210    -2.0920 H     1 <1>   0.1500 
 42 H      -10.7030    -5.0770     2.1100 H     1 <1>   0.1500 
 43 H       -9.9800    -2.6240    -1.2990 H     1 <1>   0.1500 
 44 H      -11.1860    -3.0430     0.8050 H     1 <1>   0.1500 
@<TRIPOS>BOND
  1   1   2  1   
  2   2   3  1   
  3   2   4  2   
  4   3   5  1   
  5   4   6  1   
  6   4  25  1   
  7   5   6  2   
  8   5   7  1   
  9   6  26  1   
 10   7   8  1   
 11   7  27  1   
 12   7  28  1   
 13   8   9  1   
 14   8  10  1   
 15   8  29  1   
 16   9  11  1   
 17   9  30  1   
 18   9  31  1   
 19  10  12  1   
 20  10  32  1   
 21  10  33  1   
 22  11  13  1   
 23  11  14  1   
 24  11  34  1   
 25  12  14  1   
 26  12  35  1   
 27  12  36  1   
 28  13  37  1   
 29  14  15  1   
 30  14  16  1   
 31  15  17  ar  
 32  15  18  ar  
 33  16  19  1   
 34  16  38  1   
 35  16  39  1   
 36  19  20  ar  
 37  19  21  ar  
 38  20  22  ar  
 39  20  40  1   
 40  21  23  ar  
 41  21  41  1   
 42  22  24  ar  
 43  22  42  1   
 44  23  24  ar  
 45  23  43  1   
 46  24  44  1   
@<TRIPOS>SUBSTRUCTURE
  1 ****  12 GROUP 4 **** **** 0

# MOE 2024.06 (io_trps.svl 2023.06)
