@<TRIPOS>MOLECULE
NONAME
46 48 1 0 0 
SMALL
USER_CHARGES


@<TRIPOS>ATOM
  1 F       -1.0450     0.2590     1.1880 F     1 <1>  -0.3400 
  2 C       -1.5620    -0.5390     0.2610 C.3   1 <1>   1.1640 
  3 F       -0.5460    -1.2330    -0.2360 F     1 <1>  -0.3400 
  4 F       -1.9870     0.2520    -0.7160 F     1 <1>  -0.3400 
  5 C       -2.6890    -1.4370     0.7990 C.ar  1 <1>  -0.1440 
  6 C       -3.0410    -2.6010     0.1260 C.ar  1 <1>  -0.1500 
  7 C       -3.3840    -1.1060     1.9570 C.ar  1 <1>  -0.1500 
  8 C       -4.0600    -3.4460     0.5690 C.ar  1 <1>   0.0860 
  9 C       -4.3970    -1.9230     2.4230 C.ar  1 <1>  -0.1500 
 10 C       -4.4020    -4.6590    -0.1620 C.2   1 <1>   0.5440 
 11 C       -4.7270    -3.0760     1.7380 C.ar  1 <1>  -0.1500 
 12 O       -3.6870    -5.0720    -1.0560 O.2   1 <1>  -0.5700 
 13 N       -5.5350    -5.3770     0.1310 N.am  1 <1>  -0.6600 
 14 C       -6.7510    -5.1840    -0.7040 C.3   1 <1>   0.2200 
 15 C       -5.3390    -6.7770     0.5980 C.3   1 <1>   0.0600 
 16 C       -8.0280    -5.4920     0.0740 C.3   1 <1>  -0.1600 
 17 C       -6.9620    -3.7400    -1.1590 C.3   1 <1>  -0.1600 
 18 C       -9.1460    -4.7760    -0.6970 C.3   1 <1>  -0.0800 
 19 C       -8.4530    -3.6550    -1.5030 C.3   1 <1>  -0.0800 
 20 C      -10.2950    -4.3060     0.2140 C.3   1 <1>   0.1400 
 21 C       -9.0550    -2.2560    -1.2700 C.3   1 <1>  -0.0990 
 22 N      -11.1440    -3.3250    -0.5080 N.am  1 <1>  -0.6600 
 23 C      -10.5690    -2.3220    -1.2400 C.2   1 <1>   0.5690 
 24 C      -12.6170    -3.4730    -0.3630 C.3   1 <1>   0.0600 
 25 O      -11.2060    -1.4950    -1.8470 O.2   1 <1>  -0.5700 
 26 H       -2.5160    -2.8740    -0.7760 H     1 <1>   0.1500 
 27 H       -3.1430    -0.2090     2.5070 H     1 <1>   0.1500 
 28 H       -4.9290    -1.6600     3.3220 H     1 <1>   0.1500 
 29 H       -5.5160    -3.7030     2.1150 H     1 <1>   0.1500 
 30 H       -6.6930    -5.8200    -1.5720 H     1 <1>   0.0800 
 31 H       -6.0340    -7.0040     1.3870 H     1 <1>   0.0800 
 32 H       -4.3370    -6.9040     0.9720 H     1 <1>   0.0800 
 33 H       -5.4860    -7.4610    -0.2200 H     1 <1>   0.0800 
 34 H       -8.2120    -6.5500     0.1340 H     1 <1>   0.0800 
 35 H       -7.9410    -5.0800     1.0640 H     1 <1>   0.0800 
 36 H       -6.7420    -3.0710    -0.3460 H     1 <1>   0.0800 
 37 H       -6.3450    -3.4970    -2.0070 H     1 <1>   0.0800 
 38 H       -9.5610    -5.4740    -1.4050 H     1 <1>   0.0800 
 39 H       -8.5730    -3.8930    -2.5480 H     1 <1>   0.0800 
 40 H       -9.9010    -3.8280     1.0940 H     1 <1>   0.0800 
 41 H      -10.8830    -5.1530     0.5220 H     1 <1>   0.0800 
 42 H       -8.7380    -1.5840    -2.0470 H     1 <1>   0.0800 
 43 H       -8.7300    -1.8570    -0.3270 H     1 <1>   0.0800 
 44 H      -12.9270    -4.4250    -0.7550 H     1 <1>   0.0800 
 45 H      -13.1290    -2.6950    -0.9040 H     1 <1>   0.0800 
 46 H      -12.8890    -3.4070     0.6750 H     1 <1>   0.0800 
@<TRIPOS>BOND
  1   1   2  1   
  2   2   3  1   
  3   2   4  1   
  4   2   5  1   
  5   5   6  ar  
  6   5   7  ar  
  7   6   8  ar  
  8   6  26  1   
  9   7   9  ar  
 10   7  27  1   
 11   8  10  1   
 12   8  11  ar  
 13   9  11  ar  
 14   9  28  1   
 15  10  12  2   
 16  10  13  am  
 17  11  29  1   
 18  13  14  1   
 19  13  15  1   
 20  14  16  1   
 21  14  17  1   
 22  14  30  1   
 23  15  31  1   
 24  15  32  1   
 25  15  33  1   
 26  16  18  1   
 27  16  34  1   
 28  16  35  1   
 29  17  19  1   
 30  17  36  1   
 31  17  37  1   
 32  18  19  1   
 33  18  20  1   
 34  18  38  1   
 35  19  21  1   
 36  19  39  1   
 37  20  22  1   
 38  20  40  1   
 39  20  41  1   
 40  21  23  1   
 41  21  42  1   
 42  21  43  1   
 43  22  23  am  
 44  22  24  1   
 45  23  25  2   
 46  24  44  1   
 47  24  45  1   
 48  24  46  1   
@<TRIPOS>SUBSTRUCTURE
  1 ****  17 GROUP 4 **** **** 0

# MOE 2024.06 (io_trps.svl 2023.06)
