@<TRIPOS>MOLECULE
NONAME
35 37 1 0 0 
SMALL
USER_CHARGES


@<TRIPOS>ATOM
  1 O       -0.3850    -0.2840     0.3830 O.3   1 <1>  -0.5600 
  2 C        0.8270    -0.8670     0.0580 C.3   1 <1>   0.5600 
  3 C       -1.4000    -1.1810     0.1190 C.3   1 <1>   0.1200 
  4 O        0.5440    -1.7910    -0.9390 O.3   1 <1>  -0.5600 
  5 C        1.7700     0.1970    -0.5040 C.3   1 <1>  -0.1600 
  6 C        1.4370    -1.5740     1.2750 C.3   1 <1>  -0.1600 
  7 C       -0.7750    -2.1890    -0.8270 C.3   1 <1>   0.1200 
  8 C        3.1630    -0.3820    -0.8280 C.3   1 <1>  -0.1600 
  9 C        2.8250    -2.1630     0.9470 C.3   1 <1>  -0.1600 
 10 C        3.8180    -1.1210     0.3690 C.3   1 <1>   0.2000 
 11 C        4.1740    -0.1310     1.4450 C.1   1 <1>   0.3570 
 12 C        5.0970    -1.8710    -0.0830 C.3   1 <1>  -0.0650 
 13 N        4.4270     0.6060     2.2750 N.1   1 <1>  -0.5570 
 14 C        6.1860    -0.9910    -0.7190 C.3   1 <1>  -0.1950 
 15 C        7.6110    -1.4440    -0.7000 C.3   1 <1>  -0.2000 
 16 C        7.1870    -0.2550     0.1130 C.3   1 <1>  -0.2000 
 17 H       -2.2250    -0.6570    -0.3320 H     1 <1>   0.0800 
 18 H       -1.7100    -1.6420     1.0400 H     1 <1>   0.0800 
 19 H        1.8690     0.9830     0.2230 H     1 <1>   0.0800 
 20 H        1.3310     0.6170    -1.3900 H     1 <1>   0.0800 
 21 H        0.7820    -2.3560     1.6100 H     1 <1>   0.0800 
 22 H        1.5310    -0.8580     2.0720 H     1 <1>   0.0800 
 23 H       -1.2300    -2.1620    -1.8010 H     1 <1>   0.0800 
 24 H       -0.8100    -3.1860    -0.4250 H     1 <1>   0.0800 
 25 H        3.7970     0.4230    -1.1570 H     1 <1>   0.0800 
 26 H        3.0590    -1.0700    -1.6500 H     1 <1>   0.0800 
 27 H        2.6880    -2.9530     0.2280 H     1 <1>   0.0800 
 28 H        3.2390    -2.6060     1.8370 H     1 <1>   0.0800 
 29 H        4.8260    -2.6260    -0.8000 H     1 <1>   0.0800 
 30 H        5.5170    -2.3810     0.7680 H     1 <1>   0.0800 
 31 H        5.8650    -0.5250    -1.6350 H     1 <1>   0.1000 
 32 H        8.2200    -1.2790    -1.5720 H     1 <1>   0.1000 
 33 H        7.8760    -2.3480    -0.1790 H     1 <1>   0.1000 
 34 H        7.1580    -0.3490     1.1860 H     1 <1>   0.1000 
 35 H        7.4900     0.7290    -0.2000 H     1 <1>   0.1000 
@<TRIPOS>BOND
  1   1   2  1   
  2   1   3  1   
  3   2   4  1   
  4   2   5  1   
  5   2   6  1   
  6   3   7  1   
  7   3  17  1   
  8   3  18  1   
  9   4   7  1   
 10   5   8  1   
 11   5  19  1   
 12   5  20  1   
 13   6   9  1   
 14   6  21  1   
 15   6  22  1   
 16   7  23  1   
 17   7  24  1   
 18   8  10  1   
 19   8  25  1   
 20   8  26  1   
 21   9  10  1   
 22   9  27  1   
 23   9  28  1   
 24  10  11  1   
 25  10  12  1   
 26  11  13  3   
 27  12  14  1   
 28  12  29  1   
 29  12  30  1   
 30  14  15  1   
 31  14  16  1   
 32  14  31  1   
 33  15  16  1   
 34  15  32  1   
 35  15  33  1   
 36  16  34  1   
 37  16  35  1   
@<TRIPOS>SUBSTRUCTURE
  1 ****  10 GROUP 4 **** **** 0

# MOE 2024.06 (io_trps.svl 2023.06)
