@<TRIPOS>MOLECULE
NONAME
57 59 1 0 0 
SMALL
USER_CHARGES


@<TRIPOS>ATOM
  1 O        0.3730    -0.0810    -1.0280 O.3   1 <1>  -0.5600 
  2 C        1.5950    -0.7670    -1.1610 C.3   1 <1>   0.2000 
  3 C        0.4440     1.3040    -1.1880 C.3   1 <1>   0.1200 
  4 C        2.6630    -0.2130    -0.1760 C.3   1 <1>   0.5660 
  5 C        1.3490    -2.2620    -0.9000 C.3   1 <1>   0.1200 
  6 C        1.3640     1.9100    -0.1150 C.3   1 <1>   0.3430 
  7 N        2.7250     1.2810    -0.1360 N.4   1 <1>  -0.9590 
  8 C        4.0560    -0.7200    -0.5260 C.ar  1 <1>  -0.1430 
  9 O        1.1870    -2.4920     0.4640 O.3   1 <1>  -0.6800 
 10 C        3.5740     1.7610     0.9810 C.3   1 <1>   0.5240 
 11 C        4.7460    -1.4820     0.4050 C.ar  1 <1>  -0.1500 
 12 C        4.6550    -0.4340    -1.7480 C.ar  1 <1>  -0.1500 
 13 C        3.8440     3.2210     0.7140 C.2   1 <1>  -0.1810 
 14 C        6.0220    -1.9450     0.1350 C.ar  1 <1>   0.0830 
 15 C        5.9360    -0.8850    -2.0190 C.ar  1 <1>  -0.1500 
 16 C        3.1930     4.3070     1.2950 C.2   1 <1>   0.1080 
 17 C        4.7390     3.7680    -0.1410 C.2   1 <1>  -0.3320 
 18 O        6.6140    -2.7030     1.0880 O.3   1 <1>  -0.3630 
 19 C        6.6350    -1.6220    -1.0800 C.ar  1 <1>   0.0830 
 20 N        3.6190     5.4280     0.8200 N.2   1 <1>  -0.7070 
 21 C        2.1130     4.2860     2.3570 C.3   1 <1>  -0.0590 
 22 N        4.5820     5.1090    -0.0570 N.pl3 1 <1>   0.3140 
 23 C        5.7690     3.0980    -1.0410 C.3   1 <1>  -0.0600 
 24 C        6.8820    -4.0480     0.7520 C.3   1 <1>   0.0400 
 25 O        7.8970    -1.9960    -1.4020 O.3   1 <1>  -0.3630 
 26 C        5.3300     6.1530    -0.7710 C.3   1 <1>   0.0160 
 27 C        8.9440    -1.4960    -0.5970 C.3   1 <1>   0.0400 
 28 H        1.9200    -0.6440    -2.1790 H     1 <1>   0.0800 
 29 H        0.7960     1.5270    -2.1800 H     1 <1>   0.0800 
 30 H       -0.5530     1.6960    -1.0820 H     1 <1>   0.0800 
 31 H        2.4040    -0.5730     0.8060 H     1 <1>   0.0800 
 32 H        2.1890    -2.8480    -1.2350 H     1 <1>   0.0800 
 33 H        0.4620    -2.5880    -1.4170 H     1 <1>   0.0800 
 34 H        0.9040     1.7580     0.8470 H     1 <1>   0.0800 
 35 H        1.4490     2.9730    -0.2780 H     1 <1>   0.0800 
 36 H        3.2100     1.5960    -0.9800 H     1 <1>   0.4500 
 37 H        0.8020    -3.3810     0.6200 H     1 <1>   0.4000 
 38 H        3.0800     1.6270     1.9290 H     1 <1>   0.0800 
 39 H        4.5110     1.2290     0.9990 H     1 <1>   0.0800 
 40 H        4.3050    -1.7410     1.3530 H     1 <1>   0.1500 
 41 H        4.1470     0.1380    -2.5060 H     1 <1>   0.1500 
 42 H        6.4080    -0.6670    -2.9620 H     1 <1>   0.1500 
 43 H        1.9910     3.3100     2.7840 H     1 <1>   0.0800 
 44 H        1.1820     4.6120     1.9310 H     1 <1>   0.0800 
 45 H        2.3820     4.9710     3.1410 H     1 <1>   0.0800 
 46 H        5.7950     2.0360    -0.8790 H     1 <1>   0.0800 
 47 H        6.7500     3.4860    -0.8290 H     1 <1>   0.0800 
 48 H        5.5430     3.2860    -2.0760 H     1 <1>   0.0800 
 49 H        7.2650    -4.5440     1.6250 H     1 <1>   0.0800 
 50 H        7.6110    -4.0840    -0.0370 H     1 <1>   0.0800 
 51 H        5.9670    -4.5170     0.4340 H     1 <1>   0.0800 
 52 H        5.2500     5.9900    -1.8290 H     1 <1>   0.0800 
 53 H        6.3590     6.1190    -0.4680 H     1 <1>   0.0800 
 54 H        4.9160     7.1140    -0.5240 H     1 <1>   0.0800 
 55 H        9.8770    -1.7770    -1.0500 H     1 <1>   0.0800 
 56 H        8.8760    -1.9220     0.3870 H     1 <1>   0.0800 
 57 H        8.8660    -0.4250    -0.5490 H     1 <1>   0.0800 
@<TRIPOS>BOND
  1   1   2  1   
  2   1   3  1   
  3   2   4  1   
  4   2   5  1   
  5   2  28  1   
  6   3   6  1   
  7   3  29  1   
  8   3  30  1   
  9   4   7  1   
 10   4   8  1   
 11   4  31  1   
 12   5   9  1   
 13   5  32  1   
 14   5  33  1   
 15   6   7  1   
 16   6  34  1   
 17   6  35  1   
 18   7  10  1   
 19   7  36  1   
 20   8  11  ar  
 21   8  12  ar  
 22   9  37  1   
 23  10  13  1   
 24  10  38  1   
 25  10  39  1   
 26  11  14  ar  
 27  11  40  1   
 28  12  15  ar  
 29  12  41  1   
 30  13  16  1   
 31  13  17  2   
 32  14  18  1   
 33  14  19  ar  
 34  15  19  ar  
 35  15  42  1   
 36  16  20  2   
 37  16  21  1   
 38  17  22  1   
 39  17  23  1   
 40  18  24  1   
 41  19  25  1   
 42  20  22  1   
 43  21  43  1   
 44  21  44  1   
 45  21  45  1   
 46  22  26  1   
 47  23  46  1   
 48  23  47  1   
 49  23  48  1   
 50  24  49  1   
 51  24  50  1   
 52  24  51  1   
 53  25  27  1   
 54  26  52  1   
 55  26  53  1   
 56  26  54  1   
 57  27  55  1   
 58  27  56  1   
 59  27  57  1   
@<TRIPOS>SUBSTRUCTURE
  1 ****   8 GROUP 4 **** **** 0

# MOE 2024.06 (io_trps.svl 2023.06)
