@<TRIPOS>MOLECULE
NONAME
47 49 1 0 0 
SMALL
USER_CHARGES


@<TRIPOS>ATOM
  1 O       -0.4630     0.3000     1.1840 O.2   1 <1>  -0.5700 
  2 C       -1.4180     0.8950     0.7240 C.2   1 <1>   0.5440 
  3 N       -2.5250     0.1740     0.3400 N.am  1 <1>  -0.6600 
  4 C       -1.3810     2.3270     0.5870 C.ar  1 <1>   0.0860 
  5 C       -3.6390     0.6910    -0.4950 C.3   1 <1>   0.1400 
  6 C       -2.5840    -1.3060     0.4370 C.3   1 <1>   0.1400 
  7 C       -0.4730     3.0070    -0.2100 C.ar  1 <1>   0.1660 
  8 C       -2.2850     3.1230     1.2620 C.ar  1 <1>   0.1600 
  9 C       -4.3440    -0.5590    -1.0250 C.3   1 <1>   0.2000 
 10 C       -3.9840    -1.6810    -0.0540 C.3   1 <1>  -0.0800 
 11 N       -0.4870     4.3120    -0.3320 N.ar  1 <1>  -0.6200 
 12 C        0.5970     2.2700    -0.9970 C.3   1 <1>  -0.0960 
 13 N       -2.3260     4.4270     1.1540 N.ar  1 <1>  -0.6200 
 14 O       -5.7200    -0.3920    -1.0670 O.3   1 <1>  -0.6800 
 15 C       -4.0770    -3.0740    -0.7020 C.3   1 <1>  -0.0160 
 16 C       -1.4150     4.9810     0.3540 C.ar  1 <1>   0.7200 
 17 C       -3.7720    -4.1840     0.2900 C.ar  1 <1>   0.1670 
 18 N       -1.4340     6.3500     0.2240 N.pl3 1 <1>  -0.8380 
 19 N       -2.4940    -4.4460     0.5100 N.ar  1 <1>  -0.6200 
 20 C       -4.8150    -4.8660     0.9160 C.ar  1 <1>   0.1600 
 21 C       -2.5520     7.1880     0.7410 C.3   1 <1>   0.1290 
 22 C       -0.3170     7.1040    -0.4120 C.3   1 <1>   0.1290 
 23 C       -2.3280    -5.4210     1.3880 C.ar  1 <1>   0.1600 
 24 N       -4.6520    -5.8400     1.7970 N.ar  1 <1>  -0.6200 
 25 C       -3.3720    -6.0950     2.0110 C.ar  1 <1>   0.1600 
 26 H       -4.3030     1.2740     0.1180 H     1 <1>   0.0800 
 27 H       -3.2600     1.2880    -1.3070 H     1 <1>   0.0800 
 28 H       -1.8240    -1.7310    -0.1980 H     1 <1>   0.0800 
 29 H       -2.4160    -1.6330     1.4500 H     1 <1>   0.0800 
 30 H       -3.0000     2.6520     1.9140 H     1 <1>   0.1500 
 31 H       -3.9980    -0.7760    -2.0220 H     1 <1>   0.0800 
 32 H       -4.6390    -1.6400     0.7980 H     1 <1>   0.0800 
 33 H        0.1920     1.3880    -1.4570 H     1 <1>   0.0800 
 34 H        1.3950     1.9850    -0.3360 H     1 <1>   0.0800 
 35 H        0.9980     2.9030    -1.7690 H     1 <1>   0.0800 
 36 H       -6.0680    -0.1880    -0.1780 H     1 <1>   0.4000 
 37 H       -3.3890    -3.1440    -1.5270 H     1 <1>   0.0800 
 38 H       -5.0680    -3.2120    -1.0990 H     1 <1>   0.0800 
 39 H       -5.8280    -4.5940     0.6800 H     1 <1>   0.1500 
 40 H       -2.6960     8.0450     0.1070 H     1 <1>   0.0800 
 41 H       -2.3210     7.5180     1.7390 H     1 <1>   0.0800 
 42 H       -3.4710     6.6270     0.7620 H     1 <1>   0.0800 
 43 H       -0.2050     8.0650     0.0570 H     1 <1>   0.0800 
 44 H       -0.5250     7.2400    -1.4590 H     1 <1>   0.0800 
 45 H        0.6110     6.5690    -0.3070 H     1 <1>   0.0800 
 46 H       -1.3180    -5.7010     1.6270 H     1 <1>   0.1500 
 47 H       -3.1370    -6.8740     2.7130 H     1 <1>   0.1500 
@<TRIPOS>BOND
  1   1   2  2   
  2   2   3  am  
  3   2   4  1   
  4   3   5  1   
  5   3   6  1   
  6   4   7  ar  
  7   4   8  ar  
  8   5   9  1   
  9   5  26  1   
 10   5  27  1   
 11   6  10  1   
 12   6  28  1   
 13   6  29  1   
 14   7  11  ar  
 15   7  12  1   
 16   8  13  ar  
 17   8  30  1   
 18   9  10  1   
 19   9  14  1   
 20   9  31  1   
 21  10  15  1   
 22  10  32  1   
 23  11  16  ar  
 24  12  33  1   
 25  12  34  1   
 26  12  35  1   
 27  13  16  ar  
 28  14  36  1   
 29  15  17  1   
 30  15  37  1   
 31  15  38  1   
 32  16  18  1   
 33  17  19  ar  
 34  17  20  ar  
 35  18  21  1   
 36  18  22  1   
 37  19  23  ar  
 38  20  24  ar  
 39  20  39  1   
 40  21  40  1   
 41  21  41  1   
 42  21  42  1   
 43  22  43  1   
 44  22  44  1   
 45  22  45  1   
 46  23  25  ar  
 47  23  46  1   
 48  24  25  ar  
 49  25  47  1   
@<TRIPOS>SUBSTRUCTURE
  1 ****   3 GROUP 4 **** **** 0

# MOE 2024.06 (io_trps.svl 2023.06)
