@<TRIPOS>MOLECULE
NONAME
39 41 1 0 0 
SMALL
USER_CHARGES


@<TRIPOS>ATOM
  1 O       -0.0670     1.5530     1.7830 O.co2 1 <1>  -0.9000 
  2 C        1.1540     1.6460     1.9810 C.2   1 <1>   0.9470 
  3 O        1.5910     2.2360     2.9810 O.co2 1 <1>  -0.9000 
  4 C        2.1390     1.1970     0.8950 C.3   1 <1>  -0.2420 
  5 C        2.9030    -0.0900     0.7490 C.3   1 <1>  -0.2420 
  6 C        3.0960     2.3180     0.5220 C.3   1 <1>   0.2050 
  7 C        1.7080     0.1800    -0.1310 C.3   1 <1>  -0.2000 
  8 C        2.9260    -1.3580     1.6140 C.2   1 <1>   0.9470 
  9 C        4.3040     0.2910     0.3110 C.3   1 <1>   0.2050 
 10 N        4.2330     1.6830    -0.1850 N.3   1 <1>  -0.8100 
 11 O        2.2050    -2.3220     1.3180 O.co2 1 <1>  -0.9000 
 12 O        3.7890    -1.4620     2.4990 O.co2 1 <1>  -0.9000 
 13 C        5.4990     2.3990     0.0700 C.3   1 <1>   0.2910 
 14 C        5.5940     3.8190    -0.5080 C.2   1 <1>   0.3350 
 15 N        4.9510     4.2910    -1.5070 N.2   1 <1>  -0.4100 
 16 N        6.4360     4.7000     0.0270 N.2   1 <1>  -0.5650 
 17 O        5.3310     5.5210    -1.6680 O.3   1 <1>  -0.0190 
 18 C        6.2130     5.7050    -0.7190 C.2   1 <1>   0.2980 
 19 C        6.8920     7.0580    -0.5960 C.3   1 <1>   0.0200 
 20 C        6.0920     8.0590     0.2610 C.3   1 <1>  -0.0800 
 21 C        4.7360     8.4120    -0.3680 C.3   1 <1>  -0.2400 
 22 C        6.9050     9.3430     0.4750 C.3   1 <1>  -0.2400 
 23 H        3.4340     2.8020     1.4240 H     1 <1>   0.0800 
 24 H        2.6110     3.0420    -0.1090 H     1 <1>   0.0800 
 25 H        1.8570     0.3880    -1.1740 H     1 <1>   0.1000 
 26 H        0.8050    -0.3740     0.0600 H     1 <1>   0.1000 
 27 H        4.6550    -0.3720    -0.4600 H     1 <1>   0.0800 
 28 H        4.9610     0.2290     1.1630 H     1 <1>   0.0800 
 29 H        5.6600     2.4560     1.1330 H     1 <1>   0.0800 
 30 H        6.3050     1.8270    -0.3510 H     1 <1>   0.0800 
 31 H        7.8530     6.9000    -0.1420 H     1 <1>   0.0800 
 32 H        7.0560     7.4580    -1.5800 H     1 <1>   0.0800 
 33 H        5.9120     7.6090     1.2240 H     1 <1>   0.0800 
 34 H        4.8650     8.8140    -1.3580 H     1 <1>   0.0800 
 35 H        4.2250     9.1430     0.2340 H     1 <1>   0.0800 
 36 H        4.1060     7.5420    -0.4280 H     1 <1>   0.0800 
 37 H        7.1050     9.8290    -0.4640 H     1 <1>   0.0800 
 38 H        7.8430     9.1190     0.9530 H     1 <1>   0.0800 
 39 H        6.3640    10.0260     1.1050 H     1 <1>   0.0800 
@<TRIPOS>BOND
  1   1   2  ar  
  2   2   3  ar  
  3   2   4  1   
  4   4   5  1   
  5   4   6  1   
  6   4   7  1   
  7   5   7  1   
  8   5   8  1   
  9   5   9  1   
 10   6  10  1   
 11   6  23  1   
 12   6  24  1   
 13   7  25  1   
 14   7  26  1   
 15   8  11  ar  
 16   8  12  ar  
 17   9  10  1   
 18   9  27  1   
 19   9  28  1   
 20  10  13  1   
 21  13  14  1   
 22  13  29  1   
 23  13  30  1   
 24  14  15  2   
 25  14  16  1   
 26  15  17  1   
 27  16  18  2   
 28  17  18  1   
 29  18  19  1   
 30  19  20  1   
 31  19  31  1   
 32  19  32  1   
 33  20  21  1   
 34  20  22  1   
 35  20  33  1   
 36  21  34  1   
 37  21  35  1   
 38  21  36  1   
 39  22  37  1   
 40  22  38  1   
 41  22  39  1   
@<TRIPOS>SUBSTRUCTURE
  1 ****   6 GROUP 4 **** **** 0

# MOE 2024.06 (io_trps.svl 2023.06)
