@<TRIPOS>MOLECULE
NONAME
40 42 1 0 0 
SMALL
USER_CHARGES


@<TRIPOS>ATOM
  1 O        0.0060     1.7620     1.7810 O.co2 1 <1>  -0.9000 
  2 C        1.1790     1.6580     2.1650 C.2   1 <1>   0.9470 
  3 O        1.5170     2.0530     3.2900 O.co2 1 <1>  -0.9000 
  4 C        2.2690     1.2530     1.1690 C.3   1 <1>  -0.2420 
  5 C        2.8990    -0.0760     0.8250 C.3   1 <1>  -0.2420 
  6 C        3.3650     2.3010     1.1380 C.3   1 <1>   0.2350 
  7 C        1.8630     0.5260    -0.0880 C.3   1 <1>  -0.2000 
  8 C        2.6650    -1.4730     1.4040 C.2   1 <1>   0.9470 
  9 C        4.3780     0.1580     0.5630 C.3   1 <1>   0.2350 
 10 N        4.5340     1.6380     0.4920 N.am  1 <1>  -0.6600 
 11 O        1.9600    -2.2800     0.7830 O.co2 1 <1>  -0.9000 
 12 O        3.3130    -1.8240     2.4000 O.co2 1 <1>  -0.9000 
 13 C        5.5570     2.2560    -0.1570 C.2   1 <1>   0.5690 
 14 O        6.4230     1.6360    -0.7320 O.2   1 <1>  -0.5700 
 15 C        5.6180     3.7760    -0.1660 C.3   1 <1>  -0.0990 
 16 C        7.0080     4.3320    -0.5040 C.3   1 <1>  -0.0160 
 17 C        7.0010     5.8510    -0.4490 C.ar  1 <1>  -0.1430 
 18 C        6.8250     6.5960    -1.6040 C.ar  1 <1>  -0.1500 
 19 C        7.1650     6.5080     0.7600 C.ar  1 <1>  -0.1500 
 20 C        6.8150     7.9790    -1.5510 C.ar  1 <1>  -0.1500 
 21 C        7.1540     7.8910     0.8140 C.ar  1 <1>  -0.1500 
 22 C        6.9810     8.6350    -0.3420 C.ar  1 <1>  -0.1430 
 23 C        6.9690    10.1510    -0.2840 C.3   1 <1>  -0.0970 
 24 H        3.6320     2.5870     2.1420 H     1 <1>   0.0800 
 25 H        3.0390     3.1630     0.5850 H     1 <1>   0.0800 
 26 H        2.1600     0.9100    -1.0460 H     1 <1>   0.1000 
 27 H        0.8900     0.0630    -0.1120 H     1 <1>   0.1000 
 28 H        4.6850    -0.3110    -0.3550 H     1 <1>   0.0800 
 29 H        4.9670    -0.2220     1.3800 H     1 <1>   0.0800 
 30 H        4.9050     4.1380    -0.8830 H     1 <1>   0.0800 
 31 H        5.3340     4.1400     0.8040 H     1 <1>   0.0800 
 32 H        7.3020     4.0020    -1.4850 H     1 <1>   0.0800 
 33 H        7.7290     3.9470     0.1970 H     1 <1>   0.0800 
 34 H        6.6960     6.1010    -2.5510 H     1 <1>   0.1500 
 35 H        7.2990     5.9430     1.6660 H     1 <1>   0.1500 
 36 H        6.6770     8.5430    -2.4570 H     1 <1>   0.1500 
 37 H        7.2810     8.3850     1.7600 H     1 <1>   0.1500 
 38 H        7.3490    10.5650    -1.2010 H     1 <1>   0.0800 
 39 H        7.5840    10.5020     0.5250 H     1 <1>   0.0800 
 40 H        5.9640    10.5020    -0.1350 H     1 <1>   0.0800 
@<TRIPOS>BOND
  1   1   2  ar  
  2   2   3  ar  
  3   2   4  1   
  4   4   5  1   
  5   4   6  1   
  6   4   7  1   
  7   5   7  1   
  8   5   8  1   
  9   5   9  1   
 10   6  10  1   
 11   6  24  1   
 12   6  25  1   
 13   7  26  1   
 14   7  27  1   
 15   8  11  ar  
 16   8  12  ar  
 17   9  10  1   
 18   9  28  1   
 19   9  29  1   
 20  10  13  am  
 21  13  14  2   
 22  13  15  1   
 23  15  16  1   
 24  15  30  1   
 25  15  31  1   
 26  16  17  1   
 27  16  32  1   
 28  16  33  1   
 29  17  18  ar  
 30  17  19  ar  
 31  18  20  ar  
 32  18  34  1   
 33  19  21  ar  
 34  19  35  1   
 35  20  22  ar  
 36  20  36  1   
 37  21  22  ar  
 38  21  37  1   
 39  22  23  1   
 40  23  38  1   
 41  23  39  1   
 42  23  40  1   
@<TRIPOS>SUBSTRUCTURE
  1 ****  10 GROUP 4 **** **** 0

# MOE 2024.06 (io_trps.svl 2023.06)
