@<TRIPOS>MOLECULE
NONAME
39 41 1 0 0 
SMALL
USER_CHARGES


@<TRIPOS>ATOM
  1 F       -0.8760     0.5740    -2.8200 F     1 <1>  -0.1900 
  2 C       -1.6210     1.1540    -1.9180 C.ar  1 <1>   0.1900 
  3 C       -1.7670     2.5240    -1.9590 C.ar  1 <1>  -0.1500 
  4 C       -2.2320     0.3730    -0.9590 C.ar  1 <1>  -0.1500 
  5 C       -2.5520     3.1670    -1.0020 C.ar  1 <1>   0.0860 
  6 C       -3.0180     1.0000    -0.0080 C.ar  1 <1>  -0.1500 
  7 C       -3.1790     2.3790    -0.0240 C.ar  1 <1>  -0.1440 
  8 C       -2.6780     4.6100    -1.0450 C.2   1 <1>   0.5440 
  9 C       -4.0570     3.0270     1.0420 C.3   1 <1>  -0.0960 
 10 O       -3.7570     5.1310    -1.2460 O.2   1 <1>  -0.5700 
 11 N       -1.5500     5.3720    -0.8500 N.am  1 <1>  -0.4940 
 12 C       -1.3940     6.7830    -0.8550 C.2   1 <1>  -0.0880 
 13 N       -0.2260     7.4440    -0.6120 N.pl3 1 <1>   0.3140 
 14 C       -2.3250     7.7390    -1.0850 C.2   1 <1>  -0.1500 
 15 N       -0.4000     8.7890    -0.6780 N.2   1 <1>  -0.7070 
 16 C        1.0850     6.8030    -0.2950 C.3   1 <1>   0.1760 
 17 C       -1.6540     8.9470    -0.9620 C.2   1 <1>   0.1390 
 18 C        1.1940     6.3970     1.1760 C.3   1 <1>  -0.1600 
 19 C        2.3140     7.6880    -0.5190 C.3   1 <1>  -0.1600 
 20 C        2.6970     6.3330     1.4790 C.3   1 <1>  -0.1600 
 21 C        3.4120     7.0180     0.3080 C.3   1 <1>  -0.1600 
 22 H       -1.2800     3.0870    -2.7340 H     1 <1>   0.1500 
 23 H       -2.0980    -0.6940    -0.9610 H     1 <1>   0.1500 
 24 H       -3.5050     0.4030     0.7440 H     1 <1>   0.1500 
 25 H       -3.5160     3.8040     1.5510 H     1 <1>   0.0800 
 26 H       -4.3810     2.3070     1.7710 H     1 <1>   0.0800 
 27 H       -4.9290     3.4590     0.5830 H     1 <1>   0.0800 
 28 H       -0.7160     4.8280    -0.6360 H     1 <1>   0.3700 
 29 H       -3.3670     7.6140    -1.3150 H     1 <1>   0.1500 
 30 H        1.1900     5.9280    -0.9110 H     1 <1>   0.0800 
 31 H       -2.1160     9.9120    -1.0860 H     1 <1>   0.1500 
 32 H        0.7100     5.4570     1.3700 H     1 <1>   0.0800 
 33 H        0.7470     7.1630     1.7880 H     1 <1>   0.0800 
 34 H        2.1390     8.6740    -0.1230 H     1 <1>   0.0800 
 35 H        2.5760     7.7590    -1.5590 H     1 <1>   0.0800 
 36 H        3.0270     5.3120     1.5660 H     1 <1>   0.0800 
 37 H        2.9090     6.8430     2.4040 H     1 <1>   0.0800 
 38 H        4.1390     7.7360     0.6480 H     1 <1>   0.0800 
 39 H        3.9110     6.2760    -0.2920 H     1 <1>   0.0800 
@<TRIPOS>BOND
  1   1   2  1   
  2   2   3  ar  
  3   2   4  ar  
  4   3   5  ar  
  5   3  22  1   
  6   4   6  ar  
  7   4  23  1   
  8   5   7  ar  
  9   5   8  1   
 10   6   7  ar  
 11   6  24  1   
 12   7   9  1   
 13   8  10  2   
 14   8  11  am  
 15   9  25  1   
 16   9  26  1   
 17   9  27  1   
 18  11  12  1   
 19  11  28  1   
 20  12  13  1   
 21  12  14  2   
 22  13  15  1   
 23  13  16  1   
 24  14  17  1   
 25  14  29  1   
 26  15  17  2   
 27  16  18  1   
 28  16  19  1   
 29  16  30  1   
 30  17  31  1   
 31  18  20  1   
 32  18  32  1   
 33  18  33  1   
 34  19  21  1   
 35  19  34  1   
 36  19  35  1   
 37  20  21  1   
 38  20  36  1   
 39  20  37  1   
 40  21  38  1   
 41  21  39  1   
@<TRIPOS>SUBSTRUCTURE
  1 ****  11 GROUP 4 **** **** 0

# MOE 2024.06 (io_trps.svl 2023.06)
