@<TRIPOS>MOLECULE
NONAME
45 47 1 0 0 
SMALL
USER_CHARGES


@<TRIPOS>ATOM
  1 O        0.9890     0.5540    -0.1540 O.2   1 <1>  -0.5700 
  2 C        1.4320     1.2940     0.6960 C.2   1 <1>   0.5440 
  3 N        1.9670     0.6960     1.7850 N.am  1 <1>  -0.8000 
  4 C        1.4090     2.7390     0.5420 C.ar  1 <1>   0.0860 
  5 C        1.3780     3.3230    -0.7240 C.ar  1 <1>  -0.1500 
  6 C        1.4180     3.6020     1.6390 C.ar  1 <1>  -0.1500 
  7 C        1.3790     4.6950    -0.8900 C.ar  1 <1>  -0.1500 
  8 C        1.4190     4.9760     1.4780 C.ar  1 <1>  -0.1500 
  9 C        1.4140     5.5370     0.2100 C.ar  1 <1>  -0.1430 
 10 C        1.4270     7.0540     0.0320 C.3   1 <1>   0.2530 
 11 N        2.7920     7.6110    -0.1320 N.3   1 <1>  -0.8100 
 12 C        3.6610     7.2930     1.0300 C.3   1 <1>   0.1100 
 13 C        3.4020     7.1820    -1.4060 C.3   1 <1>   0.1100 
 14 C        5.0270     8.0380     1.0930 C.3   1 <1>   0.4230 
 15 C        4.6370     8.0280    -1.7770 C.3   1 <1>  -0.0800 
 16 N        5.0650     9.3790     0.3870 N.4   1 <1>  -0.9590 
 17 C        6.2120     7.1380     0.6800 C.3   1 <1>   0.1200 
 18 C        5.9670     7.2640    -1.6790 C.3   1 <1>   0.1200 
 19 C        4.6470     9.3850    -1.0600 C.3   1 <1>   0.3430 
 20 C        4.2090    10.3570     1.1210 C.3   1 <1>   0.2630 
 21 O        6.0160     6.4820    -0.5330 O.3   1 <1>  -0.5600 
 22 H        1.9930    -0.3240     1.8120 H     1 <1>   0.3700 
 23 H        2.5100     1.1890     2.4920 H     1 <1>   0.3700 
 24 H        1.3520     2.6810    -1.5890 H     1 <1>   0.1500 
 25 H        1.4130     3.1920     2.6330 H     1 <1>   0.1500 
 26 H        1.3510     5.1020    -1.8860 H     1 <1>   0.1500 
 27 H        1.4200     5.6070     2.3490 H     1 <1>   0.1500 
 28 H        0.9620     7.5130     0.8880 H     1 <1>   0.0800 
 29 H        0.8290     7.3160    -0.8240 H     1 <1>   0.0800 
 30 H        3.1240     7.5380     1.9280 H     1 <1>   0.0800 
 31 H        3.8460     6.2310     1.0610 H     1 <1>   0.0800 
 32 H        3.6590     6.1360    -1.3650 H     1 <1>   0.0800 
 33 H        2.6710     7.3010    -2.1890 H     1 <1>   0.0800 
 34 H        5.1990     8.2360     2.1380 H     1 <1>   0.0800 
 35 H        4.5260     8.2610    -2.8210 H     1 <1>   0.0800 
 36 H        6.0380     9.7050     0.4210 H     1 <1>   0.4500 
 37 H        6.3310     6.3650     1.4190 H     1 <1>   0.0800 
 38 H        7.1320     7.6930     0.6330 H     1 <1>   0.0800 
 39 H        6.8200     7.9200    -1.7050 H     1 <1>   0.0800 
 40 H        6.0440     6.5830    -2.5100 H     1 <1>   0.0800 
 41 H        3.6450     9.7790    -1.1290 H     1 <1>   0.0800 
 42 H        5.2890    10.0570    -1.6030 H     1 <1>   0.0800 
 43 H        3.1780    10.0410     1.0840 H     1 <1>   0.0800 
 44 H        4.2840    11.3340     0.6720 H     1 <1>   0.0800 
 45 H        4.5130    10.4270     2.1520 H     1 <1>   0.0800 
@<TRIPOS>BOND
  1   1   2  2   
  2   2   3  am  
  3   2   4  1   
  4   3  22  1   
  5   3  23  1   
  6   4   5  ar  
  7   4   6  ar  
  8   5   7  ar  
  9   5  24  1   
 10   6   8  ar  
 11   6  25  1   
 12   7   9  ar  
 13   7  26  1   
 14   8   9  ar  
 15   8  27  1   
 16   9  10  1   
 17  10  11  1   
 18  10  28  1   
 19  10  29  1   
 20  11  12  1   
 21  11  13  1   
 22  12  14  1   
 23  12  30  1   
 24  12  31  1   
 25  13  15  1   
 26  13  32  1   
 27  13  33  1   
 28  14  16  1   
 29  14  17  1   
 30  14  34  1   
 31  15  18  1   
 32  15  19  1   
 33  15  35  1   
 34  16  19  1   
 35  16  20  1   
 36  16  36  1   
 37  17  21  1   
 38  17  37  1   
 39  17  38  1   
 40  18  21  1   
 41  18  39  1   
 42  18  40  1   
 43  19  41  1   
 44  19  42  1   
 45  20  43  1   
 46  20  44  1   
 47  20  45  1   
@<TRIPOS>SUBSTRUCTURE
  1 ****   9 GROUP 4 **** **** 0

# MOE 2024.06 (io_trps.svl 2023.06)
