@<TRIPOS>MOLECULE
NONAME
43 45 1 0 0 
SMALL
USER_CHARGES


@<TRIPOS>ATOM
  1 O       -0.0200    -0.6810     1.7710 O.2   1 <1>  -0.5700 
  2 C       -0.7110     0.1040     1.1660 C.2   1 <1>   0.5690 
  3 N       -1.5780    -0.3250     0.1840 N.am  1 <1>  -0.6600 
  4 C       -0.5980     1.5590     1.6080 C.3   1 <1>   0.1570 
  5 C       -1.8360    -1.7830     0.0100 C.3   1 <1>   0.3200 
  6 C       -2.2010     0.5540    -0.8570 C.3   1 <1>   0.1400 
  7 N       -0.1210     2.4580     0.5380 N.pl3 1 <1>   0.0480 
  8 C       -3.3190    -2.0500     0.1620 C.2   1 <1>  -0.3320 
  9 C       -3.4700     1.2450    -0.3460 C.3   1 <1>   0.1200 
 10 C       -0.7950     3.5520     0.0380 C.ar  1 <1>  -0.1520 
 11 C        0.9680     2.2410    -0.2610 C.2   1 <1>  -0.3020 
 12 N       -4.1990    -2.1290    -0.8550 N.pl3 1 <1>   0.0330 
 13 C       -4.0320    -2.2500     1.2920 C.2   1 <1>   0.0770 
 14 O       -3.8170     2.2530    -1.2330 O.3   1 <1>  -0.6800 
 15 C       -0.1270     3.9940    -1.1000 C.ar  1 <1>   0.0000 
 16 C       -1.9540     4.2050     0.4750 C.ar  1 <1>  -0.1500 
 17 C        0.9940     3.1540    -1.2600 C.2   1 <1>  -0.1500 
 18 C       -5.3950    -2.3620    -0.2730 C.2   1 <1>   0.0070 
 19 N       -5.3350    -2.4430     1.0150 N.2   1 <1>  -0.5650 
 20 C       -0.6300     5.0750    -1.8300 C.ar  1 <1>  -0.1500 
 21 C       -2.4390     5.2670    -0.2520 C.ar  1 <1>  -0.1500 
 22 C       -6.6770    -2.5100    -1.0630 C.3   1 <1>  -0.0600 
 23 C       -1.7790     5.7000    -1.4070 C.ar  1 <1>  -0.1500 
 24 H        0.0970     1.6200     2.4240 H     1 <1>   0.0800 
 25 H       -1.5520     1.8900     1.9620 H     1 <1>   0.0800 
 26 H       -1.3080    -2.3560     0.7540 H     1 <1>   0.0800 
 27 H       -1.4870    -2.1030    -0.9560 H     1 <1>   0.0800 
 28 H       -2.4550    -0.0360    -1.7200 H     1 <1>   0.0800 
 29 H       -1.4880     1.2850    -1.1860 H     1 <1>   0.0800 
 30 H       -3.3200     1.6900     0.6190 H     1 <1>   0.0800 
 31 H       -4.2920     0.5520    -0.2920 H     1 <1>   0.0800 
 32 H        1.6610     1.4380    -0.0730 H     1 <1>   0.1500 
 33 H       -4.0210    -2.0290    -1.8580 H     1 <1>   0.2700 
 34 H       -3.6700    -2.2610     2.3070 H     1 <1>   0.1500 
 35 H       -3.1600     2.9850    -1.1990 H     1 <1>   0.4000 
 36 H       -2.4600     3.8860     1.3680 H     1 <1>   0.1500 
 37 H        1.7160     3.2560    -2.0510 H     1 <1>   0.1500 
 38 H       -0.1070     5.4010    -2.7110 H     1 <1>   0.1500 
 39 H       -3.3320     5.7800     0.0620 H     1 <1>   0.1500 
 40 H       -6.6010    -3.3420    -1.7390 H     1 <1>   0.0800 
 41 H       -6.8730    -1.6120    -1.6200 H     1 <1>   0.0800 
 42 H       -7.4980    -2.6860    -0.3920 H     1 <1>   0.0800 
 43 H       -2.1790     6.5340    -1.9590 H     1 <1>   0.1500 
@<TRIPOS>BOND
  1   1   2  2   
  2   2   3  am  
  3   2   4  1   
  4   3   5  1   
  5   3   6  1   
  6   4   7  1   
  7   4  24  1   
  8   4  25  1   
  9   5   8  1   
 10   5  26  1   
 11   5  27  1   
 12   6   9  1   
 13   6  28  1   
 14   6  29  1   
 15   7  10  1   
 16   7  11  1   
 17   8  12  1   
 18   8  13  2   
 19   9  14  1   
 20   9  30  1   
 21   9  31  1   
 22  10  15  ar  
 23  10  16  ar  
 24  11  17  2   
 25  11  32  1   
 26  12  18  1   
 27  12  33  1   
 28  13  19  1   
 29  13  34  1   
 30  14  35  1   
 31  15  17  1   
 32  15  20  ar  
 33  16  21  ar  
 34  16  36  1   
 35  17  37  1   
 36  18  19  2   
 37  18  22  1   
 38  20  23  ar  
 39  20  38  1   
 40  21  23  ar  
 41  21  39  1   
 42  22  40  1   
 43  22  41  1   
 44  22  42  1   
 45  23  43  1   
@<TRIPOS>SUBSTRUCTURE
  1 ****   6 GROUP 4 **** **** 0

# MOE 2024.06 (io_trps.svl 2023.06)
