@<TRIPOS>MOLECULE
NONAME
52 54 1 0 0 
SMALL
USER_CHARGES


@<TRIPOS>ATOM
  1 O        0.2450    -0.6240    -0.6080 O.2   1 <1>  -0.5700 
  2 C        1.2600    -0.7930     0.0250 C.2   1 <1>   0.5690 
  3 N        2.2250     0.1670     0.1590 N.am  1 <1>  -0.4940 
  4 C        1.5120    -2.1390     0.7100 C.3   1 <1>  -0.0190 
  5 C        2.2300     1.5020    -0.3160 C.2   1 <1>  -0.0880 
  6 C        2.5560    -2.9690    -0.0630 C.3   1 <1>  -0.1600 
  7 C        0.2230    -2.9670     0.9020 C.3   1 <1>  -0.1600 
  8 N        3.2960     2.1050    -0.9080 N.pl3 1 <1>   0.3140 
  9 C        1.2440     2.4310    -0.2830 C.2   1 <1>  -0.1810 
 10 C        2.8110    -4.3220     0.6060 C.3   1 <1>   0.1400 
 11 C        0.5090    -4.3200     1.5580 C.3   1 <1>   0.1400 
 12 N        3.0250     3.3850    -1.2430 N.2   1 <1>  -0.7070 
 13 C        4.5950     1.4900    -1.2510 C.3   1 <1>   0.0960 
 14 C        1.7960     3.5640    -0.8700 C.2   1 <1>   0.1390 
 15 C       -0.1680     2.3240     0.2620 C.3   1 <1>  -0.0590 
 16 N        1.5230    -5.0540     0.7500 N.am  1 <1>  -0.6600 
 17 C        5.5570     1.5110    -0.0560 C.3   1 <1>  -0.2400 
 18 C        1.3290    -6.2670     0.1240 C.2   1 <1>   0.5690 
 19 O        2.2180    -6.7820    -0.5160 O.2   1 <1>  -0.5700 
 20 C       -0.0190    -7.0010     0.2110 C.3   1 <1>  -0.0190 
 21 C       -0.0020    -8.4760    -0.2050 C.3   1 <1>  -0.1600 
 22 C       -1.1000    -6.4070    -0.6980 C.3   1 <1>  -0.1600 
 23 C       -1.4690    -8.8240    -0.4570 C.3   1 <1>  -0.1600 
 24 C       -2.1440    -7.5140    -0.8790 C.3   1 <1>  -0.1600 
 25 H        3.0660    -0.1220     0.6550 H     1 <1>   0.3700 
 26 H        1.9060    -1.9290     1.6880 H     1 <1>   0.0800 
 27 H        3.4850    -2.4320    -0.1280 H     1 <1>   0.0800 
 28 H        2.2080    -3.1420    -1.0670 H     1 <1>   0.0800 
 29 H       -0.2450    -3.1400    -0.0520 H     1 <1>   0.0800 
 30 H       -0.4730    -2.4160     1.5090 H     1 <1>   0.0800 
 31 H        3.2450    -4.1820     1.5810 H     1 <1>   0.0800 
 32 H        3.5120    -4.8870     0.0140 H     1 <1>   0.0800 
 33 H       -0.4080    -4.8720     1.6450 H     1 <1>   0.0800 
 34 H        0.8970    -4.1700     2.5510 H     1 <1>   0.0800 
 35 H        5.0180     2.0440    -2.0690 H     1 <1>   0.0800 
 36 H        4.4200     0.4820    -1.5800 H     1 <1>   0.0800 
 37 H        1.2710     4.4950    -1.0040 H     1 <1>   0.1500 
 38 H       -0.2230     1.5520     1.0070 H     1 <1>   0.0800 
 39 H       -0.8450     2.0790    -0.5370 H     1 <1>   0.0800 
 40 H       -0.4690     3.2540     0.7070 H     1 <1>   0.0800 
 41 H        5.7320     2.5270     0.2520 H     1 <1>   0.0800 
 42 H        6.4980     1.0740    -0.3380 H     1 <1>   0.0800 
 43 H        5.1520     0.9550     0.7710 H     1 <1>   0.0800 
 44 H       -0.3600    -6.9740     1.2290 H     1 <1>   0.0800 
 45 H        0.4440    -9.1030     0.5480 H     1 <1>   0.0800 
 46 H        0.5460    -8.5910    -1.1250 H     1 <1>   0.0800 
 47 H       -0.6620    -6.1740    -1.6550 H     1 <1>   0.0800 
 48 H       -1.5340    -5.5120    -0.2900 H     1 <1>   0.0800 
 49 H       -1.9160    -9.1810     0.4550 H     1 <1>   0.0800 
 50 H       -1.5650    -9.5840    -1.2130 H     1 <1>   0.0800 
 51 H       -2.4670    -7.5590    -1.9050 H     1 <1>   0.0800 
 52 H       -3.0010    -7.3270    -0.2540 H     1 <1>   0.0800 
@<TRIPOS>BOND
  1   1   2  2   
  2   2   3  am  
  3   2   4  1   
  4   3   5  1   
  5   3  25  1   
  6   4   6  1   
  7   4   7  1   
  8   4  26  1   
  9   5   8  1   
 10   5   9  2   
 11   6  10  1   
 12   6  27  1   
 13   6  28  1   
 14   7  11  1   
 15   7  29  1   
 16   7  30  1   
 17   8  12  1   
 18   8  13  1   
 19   9  14  1   
 20   9  15  1   
 21  10  16  1   
 22  10  31  1   
 23  10  32  1   
 24  11  16  1   
 25  11  33  1   
 26  11  34  1   
 27  12  14  2   
 28  13  17  1   
 29  13  35  1   
 30  13  36  1   
 31  14  37  1   
 32  15  38  1   
 33  15  39  1   
 34  15  40  1   
 35  16  18  am  
 36  17  41  1   
 37  17  42  1   
 38  17  43  1   
 39  18  19  2   
 40  18  20  1   
 41  20  21  1   
 42  20  22  1   
 43  20  44  1   
 44  21  23  1   
 45  21  45  1   
 46  21  46  1   
 47  22  24  1   
 48  22  47  1   
 49  22  48  1   
 50  23  24  1   
 51  23  49  1   
 52  23  50  1   
 53  24  51  1   
 54  24  52  1   
@<TRIPOS>SUBSTRUCTURE
  1 ****   4 GROUP 4 **** **** 0

# MOE 2024.06 (io_trps.svl 2023.06)
