@<TRIPOS>MOLECULE
NONAME
40 42 1 0 0 
SMALL
USER_CHARGES


@<TRIPOS>ATOM
  1 S       -0.2210    -0.4760    -1.8220 S.3   1 <1>  -0.0800 
  2 C       -0.0310    -2.0670    -1.1120 C.2   1 <1>  -0.1100 
  3 C       -1.4420    -0.0460    -0.6400 C.2   1 <1>  -0.1100 
  4 C       -0.8640    -2.2270    -0.0650 C.2   1 <1>  -0.1810 
  5 C       -1.6630    -1.0660     0.2090 C.2   1 <1>  -0.1500 
  6 C       -0.9730    -3.4870     0.7660 C.3   1 <1>   0.5240 
  7 N       -1.9480    -4.3880     0.0950 N.4   1 <1>  -0.9590 
  8 C       -1.8840    -5.7860     0.6330 C.3   1 <1>   0.5660 
  9 C       -3.3490    -3.8440     0.1060 C.3   1 <1>   0.3430 
 10 C       -0.4830    -6.3250     0.3840 C.ar  1 <1>  -0.1430 
 11 C       -2.9770    -6.6970     0.0180 C.3   1 <1>   0.2000 
 12 C       -4.3590    -4.8470    -0.4860 C.3   1 <1>   0.1200 
 13 C        0.0110    -6.4980    -0.9040 C.ar  1 <1>  -0.1500 
 14 C        0.3250    -6.6380     1.4690 C.ar  1 <1>  -0.1500 
 15 O       -4.2410    -6.0870     0.1510 O.3   1 <1>  -0.5600 
 16 C       -3.0190    -8.0760     0.6920 C.3   1 <1>   0.1200 
 17 C        1.2970    -6.9670    -1.1000 C.ar  1 <1>  -0.1500 
 18 C        1.6110    -7.1070     1.2690 C.ar  1 <1>  -0.1500 
 19 O       -4.0730    -8.8060     0.1710 O.3   1 <1>  -0.6800 
 20 C        2.0980    -7.2700    -0.0150 C.ar  1 <1>  -0.1500 
 21 H        0.6990    -2.7130    -1.5720 H     1 <1>   0.1500 
 22 H       -1.8630     0.9430    -0.7070 H     1 <1>   0.1500 
 23 H       -2.3610    -1.0280     1.0290 H     1 <1>   0.1500 
 24 H       -1.2860    -3.2530     1.7700 H     1 <1>   0.0800 
 25 H       -0.0020    -3.9560     0.8080 H     1 <1>   0.0800 
 26 H       -1.6360    -4.4370    -0.8800 H     1 <1>   0.4500 
 27 H       -2.0540    -5.7600     1.6970 H     1 <1>   0.0800 
 28 H       -3.6480    -3.6210     1.1170 H     1 <1>   0.0800 
 29 H       -3.3920    -2.9270    -0.4600 H     1 <1>   0.0800 
 30 H       -2.7850    -6.8440    -1.0310 H     1 <1>   0.0800 
 31 H       -4.2050    -4.9810    -1.5430 H     1 <1>   0.0800 
 32 H       -5.3650    -4.4940    -0.3310 H     1 <1>   0.0800 
 33 H       -0.5850    -6.2790    -1.7740 H     1 <1>   0.1500 
 34 H       -0.0270    -6.5260     2.4810 H     1 <1>   0.1500 
 35 H       -3.1670    -7.9850     1.7540 H     1 <1>   0.0800 
 36 H       -2.1130    -8.6290     0.5070 H     1 <1>   0.0800 
 37 H        1.6810    -7.1040    -2.0980 H     1 <1>   0.1500 
 38 H        2.2380    -7.3510     2.1110 H     1 <1>   0.1500 
 39 H       -4.8960    -8.2730     0.2120 H     1 <1>   0.4000 
 40 H        3.0990    -7.6380    -0.1690 H     1 <1>   0.1500 
@<TRIPOS>BOND
  1   1   2  1   
  2   1   3  1   
  3   2   4  2   
  4   2  21  1   
  5   3   5  2   
  6   3  22  1   
  7   4   5  1   
  8   4   6  1   
  9   5  23  1   
 10   6   7  1   
 11   6  24  1   
 12   6  25  1   
 13   7   8  1   
 14   7   9  1   
 15   7  26  1   
 16   8  10  1   
 17   8  11  1   
 18   8  27  1   
 19   9  12  1   
 20   9  28  1   
 21   9  29  1   
 22  10  13  ar  
 23  10  14  ar  
 24  11  15  1   
 25  11  16  1   
 26  11  30  1   
 27  12  15  1   
 28  12  31  1   
 29  12  32  1   
 30  13  17  ar  
 31  13  33  1   
 32  14  18  ar  
 33  14  34  1   
 34  16  19  1   
 35  16  35  1   
 36  16  36  1   
 37  17  20  ar  
 38  17  37  1   
 39  18  20  ar  
 40  18  38  1   
 41  19  39  1   
 42  20  40  1   
@<TRIPOS>SUBSTRUCTURE
  1 ****   7 GROUP 4 **** **** 0

# MOE 2024.06 (io_trps.svl 2023.06)
