@<TRIPOS>MOLECULE
NONAME
52 54 1 0 0 
SMALL
USER_CHARGES


@<TRIPOS>ATOM
  1 CL      -1.0750    -0.0420    -2.1600 Cl    1 <1>  -0.1770 
  2 C       -1.8340    -0.9100    -0.8500 C.ar  1 <1>   0.1770 
  3 C       -2.0500    -2.2700    -0.9760 C.ar  1 <1>  -0.1500 
  4 C       -2.2080    -0.2240     0.2900 C.ar  1 <1>  -0.1500 
  5 C       -2.6540    -2.9660     0.0610 C.ar  1 <1>  -0.1440 
  6 C       -2.8100    -0.9180     1.3250 C.ar  1 <1>  -0.1500 
  7 C       -3.0310    -2.2820     1.2090 C.ar  1 <1>  -0.1500 
  8 C       -2.9090    -4.4600    -0.0540 C.3   1 <1>  -0.0160 
  9 C       -4.3440    -4.7120    -0.5190 C.3   1 <1>   0.1400 
 10 N       -4.6000    -6.1720    -0.6400 N.am  1 <1>  -0.7300 
 11 C       -5.1600    -6.9270     0.3480 C.2   1 <1>   0.5690 
 12 O       -5.4650    -6.4500     1.4140 O.2   1 <1>  -0.5700 
 13 C       -5.4600    -8.4200     0.1280 C.3   1 <1>   0.4040 
 14 N       -6.8990    -8.7830    -0.2160 N.4   1 <1>  -0.9590 
 15 C       -7.8520    -8.1840     0.7870 C.3   1 <1>   0.4230 
 16 C       -6.9920   -10.2670    -0.3980 C.3   1 <1>   0.2630 
 17 C       -9.1390    -8.9900     1.0050 C.3   1 <1>  -0.1600 
 18 C       -8.4040    -6.8830     0.2000 C.3   1 <1>  -0.1600 
 19 C      -10.0390    -8.6690    -0.1970 C.3   1 <1>  -0.0800 
 20 C       -9.5790    -7.2960    -0.7010 C.3   1 <1>  -0.0800 
 21 C      -11.5370    -8.5500     0.1160 C.3   1 <1>  -0.1600 
 22 C      -10.8040    -6.3740    -0.6460 C.3   1 <1>  -0.1600 
 23 C      -11.9920    -7.3260    -0.6690 C.3   1 <1>   0.2000 
 24 O      -13.0800    -6.7460    -0.0580 O.3   1 <1>  -0.6800 
 25 H       -1.7430    -2.7660    -1.8790 H     1 <1>   0.1500 
 26 H       -2.0290     0.8330     0.3620 H     1 <1>   0.1500 
 27 H       -3.1060    -0.3990     2.2210 H     1 <1>   0.1500 
 28 H       -3.5000    -2.8090     2.0230 H     1 <1>   0.1500 
 29 H       -2.7550    -4.9190     0.9060 H     1 <1>   0.0800 
 30 H       -2.2150    -4.8910    -0.7530 H     1 <1>   0.0800 
 31 H       -4.5080    -4.2350    -1.4710 H     1 <1>   0.0800 
 32 H       -5.0280    -4.2780     0.1920 H     1 <1>   0.0800 
 33 H       -4.2710    -6.5820    -1.5190 H     1 <1>   0.3700 
 34 H       -5.1830    -8.9280     1.0370 H     1 <1>   0.0800 
 35 H       -4.8080    -8.7770    -0.6500 H     1 <1>   0.0800 
 36 H       -7.1420    -8.3320    -1.1070 H     1 <1>   0.4500 
 37 H       -7.3490    -8.0080     1.7270 H     1 <1>   0.0800 
 38 H       -6.8000   -10.7720     0.5360 H     1 <1>   0.0800 
 39 H       -6.2740   -10.6040    -1.1280 H     1 <1>   0.0800 
 40 H       -7.9760   -10.5430    -0.7410 H     1 <1>   0.0800 
 41 H       -9.0020   -10.0430     1.1670 H     1 <1>   0.0800 
 42 H       -9.5960    -8.6000     1.8990 H     1 <1>   0.0800 
 43 H       -8.7640    -6.2890     1.0220 H     1 <1>   0.0800 
 44 H       -7.6790    -6.2940    -0.3300 H     1 <1>   0.0800 
 45 H       -9.8930    -9.3930    -0.9820 H     1 <1>   0.0800 
 46 H       -9.2530    -7.3940    -1.7240 H     1 <1>   0.0800 
 47 H      -11.6970    -8.3870     1.1670 H     1 <1>   0.0800 
 48 H      -12.0760    -9.4280    -0.1940 H     1 <1>   0.0800 
 49 H      -10.8310    -5.7010    -1.4850 H     1 <1>   0.0800 
 50 H      -10.8130    -5.8060     0.2680 H     1 <1>   0.0800 
 51 H      -12.2590    -7.5900    -1.6790 H     1 <1>   0.0800 
 52 H      -12.8590    -6.4810     0.8530 H     1 <1>   0.4000 
@<TRIPOS>BOND
  1   1   2  1   
  2   2   3  ar  
  3   2   4  ar  
  4   3   5  ar  
  5   3  25  1   
  6   4   6  ar  
  7   4  26  1   
  8   5   7  ar  
  9   5   8  1   
 10   6   7  ar  
 11   6  27  1   
 12   7  28  1   
 13   8   9  1   
 14   8  29  1   
 15   8  30  1   
 16   9  10  1   
 17   9  31  1   
 18   9  32  1   
 19  10  11  am  
 20  10  33  1   
 21  11  12  2   
 22  11  13  1   
 23  13  14  1   
 24  13  34  1   
 25  13  35  1   
 26  14  15  1   
 27  14  16  1   
 28  14  36  1   
 29  15  17  1   
 30  15  18  1   
 31  15  37  1   
 32  16  38  1   
 33  16  39  1   
 34  16  40  1   
 35  17  19  1   
 36  17  41  1   
 37  17  42  1   
 38  18  20  1   
 39  18  43  1   
 40  18  44  1   
 41  19  20  1   
 42  19  21  1   
 43  19  45  1   
 44  20  22  1   
 45  20  46  1   
 46  21  23  1   
 47  21  47  1   
 48  21  48  1   
 49  22  23  1   
 50  22  49  1   
 51  22  50  1   
 52  23  24  1   
 53  23  51  1   
 54  24  52  1   
@<TRIPOS>SUBSTRUCTURE
  1 ****  11 GROUP 4 **** **** 0

# MOE 2024.06 (io_trps.svl 2023.06)
