@<TRIPOS>MOLECULE
NONAME
58 61 1 0 0 
SMALL
USER_CHARGES


@<TRIPOS>ATOM
  1 O        1.2710    -2.8490    -2.0960 O.3   1 <1>  -0.6800 
  2 C        2.1560    -2.7870    -1.0370 C.3   1 <1>   0.1200 
  3 C        1.5840    -1.8840     0.1010 C.3   1 <1>   0.0000 
  4 C        2.7380    -1.3200     0.9710 C.3   1 <1>   0.4230 
  5 C        0.8010    -0.6680    -0.4700 C.3   1 <1>  -0.1600 
  6 C        0.6090    -2.7050     0.9900 C.3   1 <1>  -0.1600 
  7 N        3.5350    -2.4050     1.6980 N.4   1 <1>  -0.9590 
  8 C        3.5980    -0.3020     0.1560 C.3   1 <1>   0.3430 
  9 C        1.6630     0.2050    -1.3790 C.3   1 <1>   0.3430 
 10 C        1.2580    -3.2650     2.2700 C.3   1 <1>  -0.1600 
 11 C        2.7290    -3.6220     2.0680 C.3   1 <1>   0.3430 
 12 C        4.8120    -2.8470     1.0410 C.3   1 <1>   0.2630 
 13 N        2.8090     0.7530    -0.5910 N.4   1 <1>  -0.9590 
 14 C        3.6880     1.5760    -1.4740 C.3   1 <1>   0.5240 
 15 C        4.6890     2.3000    -0.6050 C.2   1 <1>  -0.1810 
 16 C        5.9420     1.8360    -0.1820 C.2   1 <1>   0.2350 
 17 C        4.5520     3.5230    -0.0510 C.2   1 <1>  -0.3020 
 18 N        6.4980     2.7080     0.6130 N.2   1 <1>  -0.7070 
 19 C        6.5620     0.5630    -0.4940 C.ar  1 <1>   0.0540 
 20 N        5.6650     3.7520     0.6700 N.pl3 1 <1>   0.3140 
 21 C        7.2150    -0.1560     0.5070 C.ar  1 <1>  -0.1500 
 22 C        6.5370     0.0040    -1.7720 C.ar  1 <1>  -0.1500 
 23 C        5.9880     4.9630     1.4380 C.3   1 <1>   0.0160 
 24 C        7.7780    -1.3950     0.2600 C.ar  1 <1>  -0.1500 
 25 C        7.0840    -1.2410    -2.0240 C.ar  1 <1>  -0.1500 
 26 C        7.7010    -1.9460    -1.0060 C.ar  1 <1>  -0.1500 
 27 H        1.4570    -3.6060    -2.6940 H     1 <1>   0.4000 
 28 H        2.3180    -3.7930    -0.6880 H     1 <1>   0.0800 
 29 H        3.0820    -2.4100    -1.4320 H     1 <1>   0.0800 
 30 H        2.2540    -0.7400     1.7400 H     1 <1>   0.0800 
 31 H        0.4040    -0.0600     0.3260 H     1 <1>   0.0800 
 32 H       -0.0490    -1.0110    -1.0370 H     1 <1>   0.0800 
 33 H       -0.2340    -2.1060     1.2940 H     1 <1>   0.0800 
 34 H        0.1970    -3.5170     0.4120 H     1 <1>   0.0800 
 35 H        3.8080    -1.9920     2.6060 H     1 <1>   0.4500 
 36 H        4.1860    -0.8520    -0.5590 H     1 <1>   0.0800 
 37 H        4.2770     0.1860     0.8360 H     1 <1>   0.0800 
 38 H        1.0650     1.0100    -1.7770 H     1 <1>   0.0800 
 39 H        2.0210    -0.3880    -2.2070 H     1 <1>   0.0800 
 40 H        0.7200    -4.1460     2.5770 H     1 <1>   0.0800 
 41 H        1.1740    -2.5530     3.0740 H     1 <1>   0.0800 
 42 H        2.7960    -4.3590     1.2850 H     1 <1>   0.0800 
 43 H        3.1240    -4.0640     2.9700 H     1 <1>   0.0800 
 44 H        4.6120    -3.3140     0.0910 H     1 <1>   0.0800 
 45 H        5.3260    -3.5610     1.6670 H     1 <1>   0.0800 
 46 H        5.4690    -2.0090     0.8840 H     1 <1>   0.0800 
 47 H        2.4340     1.4280     0.0920 H     1 <1>   0.4500 
 48 H        4.1860     0.9560    -2.1990 H     1 <1>   0.0800 
 49 H        3.0960     2.3060    -2.0040 H     1 <1>   0.0800 
 50 H        3.7560     4.2440    -0.1150 H     1 <1>   0.1500 
 51 H        7.2990     0.2810     1.4890 H     1 <1>   0.1500 
 52 H        6.1190     0.5580    -2.5930 H     1 <1>   0.1500 
 53 H        5.2670     5.0920     2.2220 H     1 <1>   0.0800 
 54 H        5.9740     5.8130     0.7820 H     1 <1>   0.0800 
 55 H        6.9690     4.8590     1.8650 H     1 <1>   0.0800 
 56 H        8.2960    -1.9210     1.0450 H     1 <1>   0.1500 
 57 H        7.0590    -1.6550    -3.0190 H     1 <1>   0.1500 
 58 H        8.1470    -2.9070    -1.2080 H     1 <1>   0.1500 
@<TRIPOS>BOND
  1   1   2  1   
  2   1  27  1   
  3   2   3  1   
  4   2  28  1   
  5   2  29  1   
  6   3   4  1   
  7   3   5  1   
  8   3   6  1   
  9   4   7  1   
 10   4   8  1   
 11   4  30  1   
 12   5   9  1   
 13   5  31  1   
 14   5  32  1   
 15   6  10  1   
 16   6  33  1   
 17   6  34  1   
 18   7  11  1   
 19   7  12  1   
 20   7  35  1   
 21   8  13  1   
 22   8  36  1   
 23   8  37  1   
 24   9  13  1   
 25   9  38  1   
 26   9  39  1   
 27  10  11  1   
 28  10  40  1   
 29  10  41  1   
 30  11  42  1   
 31  11  43  1   
 32  12  44  1   
 33  12  45  1   
 34  12  46  1   
 35  13  14  1   
 36  13  47  1   
 37  14  15  1   
 38  14  48  1   
 39  14  49  1   
 40  15  16  1   
 41  15  17  2   
 42  16  18  2   
 43  16  19  1   
 44  17  20  1   
 45  17  50  1   
 46  18  20  1   
 47  19  21  ar  
 48  19  22  ar  
 49  20  23  1   
 50  21  24  ar  
 51  21  51  1   
 52  22  25  ar  
 53  22  52  1   
 54  23  53  1   
 55  23  54  1   
 56  23  55  1   
 57  24  26  ar  
 58  24  56  1   
 59  25  26  ar  
 60  25  57  1   
 61  26  58  1   
@<TRIPOS>SUBSTRUCTURE
  1 ****   8 GROUP 4 **** **** 0

# MOE 2024.06 (io_trps.svl 2023.06)
