@<TRIPOS>MOLECULE
NONAME
42 44 1 0 0 
SMALL
USER_CHARGES


@<TRIPOS>ATOM
  1 O        2.5800     2.9820    -0.6080 O.3   1 <1>  -0.0190 
  2 N        3.5210     2.1250    -0.3590 N.2   1 <1>  -0.4100 
  3 C        1.4110     2.4090    -0.7150 C.2   1 <1>  -0.0400 
  4 C        2.9550     0.9710    -0.3330 C.2   1 <1>   0.1080 
  5 C        1.5850     1.0880    -0.5570 C.2   1 <1>  -0.1500 
  6 C        0.1880     3.2680    -0.9740 C.3   1 <1>   0.0200 
  7 C        3.6850    -0.3320    -0.0900 C.3   1 <1>  -0.0590 
  8 C       -0.3110     4.0030     0.2960 C.3   1 <1>  -0.0800 
  9 C       -1.0120     5.3110    -0.0820 C.3   1 <1>   0.2000 
 10 C        0.8220     4.4920     1.2020 C.3   1 <1>   0.3430 
 11 O       -1.9400     5.6250     0.9030 O.3   1 <1>  -0.6800 
 12 C        0.1020     6.3730    -0.1000 C.3   1 <1>   0.3430 
 13 N        1.2900     5.7300     0.5440 N.4   1 <1>  -0.9590 
 14 C        2.1500     6.6230     1.3550 C.3   1 <1>   0.4860 
 15 C        2.7550     7.6690     0.4430 C.ar  1 <1>  -0.1440 
 16 C        3.4400     7.2920    -0.7160 C.ar  1 <1>   0.4100 
 17 C        2.6270     9.0110     0.7340 C.ar  1 <1>  -0.1500 
 18 N        3.9580     8.1340    -1.5800 N.ar  1 <1>  -0.6200 
 19 N        3.6110     5.9950    -1.0850 N.pl3 1 <1>  -0.9000 
 20 C        3.1850     9.9010    -0.1620 C.ar  1 <1>  -0.1500 
 21 C        3.8280     9.4170    -1.2860 C.ar  1 <1>   0.1600 
 22 H        0.8720     0.2840    -0.5850 H     1 <1>   0.1500 
 23 H        0.4440     3.9670    -1.7510 H     1 <1>   0.0800 
 24 H       -0.6060     2.6470    -1.3540 H     1 <1>   0.0800 
 25 H        3.5560    -0.9850    -0.9330 H     1 <1>   0.0800 
 26 H        3.2990    -0.8110     0.7910 H     1 <1>   0.0800 
 27 H        4.7350    -0.1460     0.0470 H     1 <1>   0.0800 
 28 H       -0.9620     3.3390     0.8390 H     1 <1>   0.0800 
 29 H       -1.5410     5.2610    -1.0200 H     1 <1>   0.0800 
 30 H        1.6120     3.7680     1.3130 H     1 <1>   0.0800 
 31 H        0.4250     4.7260     2.1770 H     1 <1>   0.0800 
 32 H       -1.5910     5.5470     1.8110 H     1 <1>   0.4000 
 33 H       -0.2150     7.2510     0.4380 H     1 <1>   0.0800 
 34 H        0.3460     6.6470    -1.1140 H     1 <1>   0.0800 
 35 H        1.9310     5.4490    -0.2310 H     1 <1>   0.4500 
 36 H        1.5730     7.0930     2.1340 H     1 <1>   0.0800 
 37 H        2.9450     6.0520     1.8080 H     1 <1>   0.0800 
 38 H        2.1180     9.3720     1.6130 H     1 <1>   0.1500 
 39 H        3.8560     5.9780    -2.0830 H     1 <1>   0.4000 
 40 H        4.4030     5.5400    -0.6160 H     1 <1>   0.4000 
 41 H        3.1230    10.9620     0.0070 H     1 <1>   0.1500 
 42 H        4.2580    10.1210    -1.9800 H     1 <1>   0.1500 
@<TRIPOS>BOND
  1   1   2  1   
  2   1   3  1   
  3   2   4  2   
  4   3   5  2   
  5   3   6  1   
  6   4   5  1   
  7   4   7  1   
  8   5  22  1   
  9   6   8  1   
 10   6  23  1   
 11   6  24  1   
 12   7  25  1   
 13   7  26  1   
 14   7  27  1   
 15   8   9  1   
 16   8  10  1   
 17   8  28  1   
 18   9  11  1   
 19   9  12  1   
 20   9  29  1   
 21  10  13  1   
 22  10  30  1   
 23  10  31  1   
 24  11  32  1   
 25  12  13  1   
 26  12  33  1   
 27  12  34  1   
 28  13  14  1   
 29  13  35  1   
 30  14  15  1   
 31  14  36  1   
 32  14  37  1   
 33  15  16  ar  
 34  15  17  ar  
 35  16  18  ar  
 36  16  19  1   
 37  17  20  ar  
 38  17  38  1   
 39  18  21  ar  
 40  19  39  1   
 41  19  40  1   
 42  20  21  ar  
 43  20  41  1   
 44  21  42  1   
@<TRIPOS>SUBSTRUCTURE
  1 ****  13 GROUP 4 **** **** 0

# MOE 2024.06 (io_trps.svl 2023.06)
