@<TRIPOS>MOLECULE
NONAME
38 40 1 0 0 
SMALL
USER_CHARGES


@<TRIPOS>ATOM
  1 O        2.8690    -1.0180    -1.4170 O.2   1 <1>  -0.5700 
  2 C        2.1640    -1.0640    -0.4290 C.2   1 <1>   0.7150 
  3 N        1.8220     0.0850     0.2360 N.am  1 <1>  -0.4940 
  4 C        1.6650    -2.3240     0.0480 C.2   1 <1>  -0.2370 
  5 C        2.2190     1.4240     0.0070 C.2   1 <1>  -0.0880 
  6 N        1.3830    -2.5950     1.3600 N.pl3 1 <1>   0.0330 
  7 C        1.3990    -3.4630    -0.6660 C.2   1 <1>  -0.1500 
  8 N        3.4790     1.8940    -0.2410 N.pl3 1 <1>   0.3140 
  9 C        1.3990     2.5030     0.0110 C.2   1 <1>  -0.1810 
 10 C        0.9390    -3.8690     1.4480 C.2   1 <1>  -0.3020 
 11 C        0.9320    -4.4480     0.2090 C.2   1 <1>   0.0190 
 12 N        3.4650     3.2460    -0.3930 N.2   1 <1>  -0.7070 
 13 C        4.7560     1.1160    -0.2820 C.3   1 <1>   0.1760 
 14 C        2.2270     3.5890    -0.2440 C.2   1 <1>   0.1390 
 15 C       -0.1010     2.5830     0.2240 C.3   1 <1>  -0.0590 
 16 C        0.5400    -5.7810    -0.1580 C.1   1 <1>   0.5380 
 17 C        5.8260     1.6550     0.6790 C.3   1 <1>  -0.1600 
 18 C        5.4070     1.1170    -1.6760 C.3   1 <1>  -0.1600 
 19 N        0.2260    -6.8390    -0.4470 N.1   1 <1>  -0.5570 
 20 C        7.1520     1.2990     0.0150 C.3   1 <1>  -0.1600 
 21 C        6.8810     1.4870    -1.4750 C.3   1 <1>  -0.1600 
 22 H        0.9670    -0.0040     0.7770 H     1 <1>   0.3700 
 23 H        1.5210    -1.9530     2.1510 H     1 <1>   0.2700 
 24 H        1.5270    -3.5920    -1.7290 H     1 <1>   0.1500 
 25 H        0.6520    -4.3210     2.3820 H     1 <1>   0.1500 
 26 H        4.5540     0.1010    -0.0020 H     1 <1>   0.0800 
 27 H        1.8890     4.6100    -0.3120 H     1 <1>   0.1500 
 28 H       -0.5410     1.6030     0.2320 H     1 <1>   0.0800 
 29 H       -0.5500     3.1510    -0.5710 H     1 <1>   0.0800 
 30 H       -0.3120     3.0700     1.1590 H     1 <1>   0.0800 
 31 H        5.7390     1.2190     1.6580 H     1 <1>   0.0800 
 32 H        5.7560     2.7270     0.7550 H     1 <1>   0.0800 
 33 H        4.9310     1.8220    -2.3360 H     1 <1>   0.0800 
 34 H        5.3270     0.1320    -2.1030 H     1 <1>   0.0800 
 35 H        7.3910     0.2680     0.2110 H     1 <1>   0.0800 
 36 H        7.9580     1.9240     0.3600 H     1 <1>   0.0800 
 37 H        7.0190     2.5240    -1.7310 H     1 <1>   0.0800 
 38 H        7.5350     0.8860    -2.0830 H     1 <1>   0.0800 
@<TRIPOS>BOND
  1   1   2  2   
  2   2   3  am  
  3   2   4  1   
  4   3   5  1   
  5   3  22  1   
  6   4   6  1   
  7   4   7  2   
  8   5   8  1   
  9   5   9  2   
 10   6  10  1   
 11   6  23  1   
 12   7  11  1   
 13   7  24  1   
 14   8  12  1   
 15   8  13  1   
 16   9  14  1   
 17   9  15  1   
 18  10  11  2   
 19  10  25  1   
 20  11  16  1   
 21  12  14  2   
 22  13  17  1   
 23  13  18  1   
 24  13  26  1   
 25  14  27  1   
 26  15  28  1   
 27  15  29  1   
 28  15  30  1   
 29  16  19  3   
 30  17  20  1   
 31  17  31  1   
 32  17  32  1   
 33  18  21  1   
 34  18  33  1   
 35  18  34  1   
 36  20  21  1   
 37  20  35  1   
 38  20  36  1   
 39  21  37  1   
 40  21  38  1   
@<TRIPOS>SUBSTRUCTURE
  1 ****   2 GROUP 4 **** **** 0

# MOE 2024.06 (io_trps.svl 2023.06)
