@<TRIPOS>MOLECULE
NONAME
44 47 1 0 0 
SMALL
USER_CHARGES


@<TRIPOS>ATOM
  1 O       -0.3310    -0.2970     2.2320 O.2   1 <1>  -0.5700 
  2 C       -0.7670     0.5370     1.4560 C.2   1 <1>   0.7160 
  3 N       -1.5390     0.0920     0.4030 N.am  1 <1>  -0.6600 
  4 C       -0.4990     1.9220     1.7230 C.2   1 <1>  -0.0860 
  5 C       -2.3380     0.9550    -0.5020 C.3   1 <1>   0.1400 
  6 C       -1.9440    -1.3240     0.2440 C.3   1 <1>   0.1400 
  7 C       -0.2400     3.0120     0.9250 C.2   1 <1>  -0.0260 
  8 C       -0.4280     2.4420     3.0150 C.2   1 <1>   0.1390 
  9 C       -3.4060     0.0420    -1.1110 C.3   1 <1>   0.2000 
 10 C       -3.3660    -1.2590    -0.3090 C.3   1 <1>  -0.0800 
 11 N       -0.1340     3.1310    -0.4430 N.2   1 <1>  -0.5760 
 12 N       -0.0530     4.0740     1.7750 N.pl3 1 <1>   0.6010 
 13 N       -0.1770     3.7160     3.0650 N.2   1 <1>  -0.7070 
 14 O       -4.6680     0.6060    -1.0200 O.3   1 <1>  -0.6800 
 15 C       -3.7610    -2.4880    -1.1410 C.3   1 <1>   0.0200 
 16 C        0.1530     4.3080    -0.9030 C.2   1 <1>   0.3760 
 17 C        0.2450     5.3180     1.2690 C.2   1 <1>  -0.1810 
 18 C       -3.6290    -3.7620    -0.3300 C.2   1 <1>  -0.0400 
 19 C        0.3540     5.4540    -0.0790 C.2   1 <1>  -0.1240 
 20 O       -4.3580    -3.9330     0.7400 O.3   1 <1>  -0.0190 
 21 C       -2.8530    -4.8460    -0.4780 C.2   1 <1>  -0.1500 
 22 C        0.6830     6.7880    -0.7300 C.3   1 <1>  -0.1020 
 23 N       -4.1090    -5.0720     1.3180 N.2   1 <1>  -0.4100 
 24 C       -3.2070    -5.6450     0.6060 C.2   1 <1>   0.1080 
 25 C       -2.6150    -7.0020     0.9140 C.3   1 <1>  -0.0590 
 26 H       -2.7770     1.7690     0.0480 H     1 <1>   0.0800 
 27 H       -1.7080     1.3350    -1.2850 H     1 <1>   0.0800 
 28 H       -1.2770    -1.8000    -0.4540 H     1 <1>   0.0800 
 29 H       -1.9170    -1.8560     1.1820 H     1 <1>   0.0800 
 30 H       -0.5690     1.8380     3.8980 H     1 <1>   0.1500 
 31 H       -3.1870    -0.1250    -2.1520 H     1 <1>   0.0800 
 32 H       -4.0270    -1.1800     0.5380 H     1 <1>   0.0800 
 33 H       -4.9090     0.7440    -0.0830 H     1 <1>   0.4000 
 34 H       -3.1340    -2.5590    -2.0130 H     1 <1>   0.0800 
 35 H       -4.7810    -2.3870    -1.4710 H     1 <1>   0.0800 
 36 H        0.2470     4.4370    -1.9670 H     1 <1>   0.0600 
 37 H        0.3760     6.1030     1.9880 H     1 <1>   0.1500 
 38 H       -2.1240    -5.0770    -1.2320 H     1 <1>   0.1500 
 39 H        1.5960     6.7090    -1.2940 H     1 <1>   0.0800 
 40 H        0.8080     7.5550     0.0140 H     1 <1>   0.0800 
 41 H       -0.1100     7.0820    -1.3940 H     1 <1>   0.0800 
 42 H       -2.7790    -7.6680     0.0870 H     1 <1>   0.0800 
 43 H       -3.0800    -7.4140     1.7910 H     1 <1>   0.0800 
 44 H       -1.5590    -6.9070     1.0910 H     1 <1>   0.0800 
@<TRIPOS>BOND
  1   1   2  2   
  2   2   3  am  
  3   2   4  1   
  4   3   5  1   
  5   3   6  1   
  6   4   7  2   
  7   4   8  1   
  8   5   9  1   
  9   5  26  1   
 10   5  27  1   
 11   6  10  1   
 12   6  28  1   
 13   6  29  1   
 14   7  11  1   
 15   7  12  1   
 16   8  13  2   
 17   8  30  1   
 18   9  10  1   
 19   9  14  1   
 20   9  31  1   
 21  10  15  1   
 22  10  32  1   
 23  11  16  2   
 24  12  13  1   
 25  12  17  1   
 26  14  33  1   
 27  15  18  1   
 28  15  34  1   
 29  15  35  1   
 30  16  19  1   
 31  16  36  1   
 32  17  19  2   
 33  17  37  1   
 34  18  20  1   
 35  18  21  2   
 36  19  22  1   
 37  20  23  1   
 38  21  24  1   
 39  21  38  1   
 40  22  39  1   
 41  22  40  1   
 42  22  41  1   
 43  23  24  2   
 44  24  25  1   
 45  25  42  1   
 46  25  43  1   
 47  25  44  1   
@<TRIPOS>SUBSTRUCTURE
  1 ****   3 GROUP 4 **** **** 0

# MOE 2024.06 (io_trps.svl 2023.06)
