@<TRIPOS>MOLECULE
NONAME
52 54 1 0 0 
SMALL
USER_CHARGES


@<TRIPOS>ATOM
  1 O       -0.4990    -0.6220     2.4880 O.2   1 <1>  -0.5700 
  2 C       -1.0410     0.2790     1.8910 C.2   1 <1>   0.5690 
  3 N       -1.9920     0.0030     0.9350 N.am  1 <1>  -0.6600 
  4 C       -0.6350     1.7040     2.2530 C.3   1 <1>   0.0440 
  5 C       -2.2190    -1.3940     0.4700 C.3   1 <1>   0.1400 
  6 C       -2.8620     1.0170     0.2740 C.3   1 <1>   0.1400 
  7 C       -0.0970     2.4960     1.0640 C.ar  1 <1>  -0.1440 
  8 C       -3.6930    -1.7950     0.6950 C.3   1 <1>   0.4230 
  9 C       -4.3290     0.6330     0.5080 C.3   1 <1>  -0.1600 
 10 C       -0.5900     3.7610     0.7770 C.ar  1 <1>  -0.1500 
 11 C        0.8930     1.9560     0.2580 C.ar  1 <1>  -0.1500 
 12 N       -3.9830    -3.2610     0.3950 N.4   1 <1>  -0.9590 
 13 C       -4.6850    -0.8010     0.0220 C.3   1 <1>   0.0000 
 14 C       -0.1130     4.4770    -0.3080 C.ar  1 <1>  -0.1440 
 15 C        1.3730     2.6660    -0.8270 C.ar  1 <1>  -0.1500 
 16 C       -5.4380    -3.5700     0.2000 C.3   1 <1>   0.3430 
 17 C       -3.1810    -3.8620    -0.7220 C.3   1 <1>   0.2630 
 18 C       -6.1360    -1.1370     0.4800 C.3   1 <1>  -0.1600 
 19 C       -4.5690    -0.8880    -1.5270 C.3   1 <1>   0.1200 
 20 C        0.8700     3.9220    -1.1110 C.ar  1 <1>  -0.1500 
 21 C       -0.6670     5.8570    -0.6120 C.3   1 <1>  -0.0970 
 22 C       -6.3150    -2.5860     0.9720 C.3   1 <1>  -0.1600 
 23 O       -5.2940     0.1120    -2.1530 O.3   1 <1>  -0.6800 
 24 H       -1.4820     2.2000     2.6870 H     1 <1>   0.0800 
 25 H        0.1310     1.6620     3.0050 H     1 <1>   0.0800 
 26 H       -1.9550    -1.4450    -0.5710 H     1 <1>   0.0800 
 27 H       -1.5840    -2.0740     1.0090 H     1 <1>   0.0800 
 28 H       -2.6920     1.9980     0.6780 H     1 <1>   0.0800 
 29 H       -2.6380     1.0560    -0.7790 H     1 <1>   0.0800 
 30 H       -3.8500    -1.6700     1.7540 H     1 <1>   0.0800 
 31 H       -4.5170     0.7200     1.5650 H     1 <1>   0.0800 
 32 H       -4.9550     1.3640     0.0250 H     1 <1>   0.0800 
 33 H       -1.3500     4.1980     1.4000 H     1 <1>   0.1500 
 34 H        1.2970     0.9810     0.4720 H     1 <1>   0.1500 
 35 H       -3.7030    -3.7560     1.2550 H     1 <1>   0.4500 
 36 H        2.1410     2.2410    -1.4510 H     1 <1>   0.1500 
 37 H       -5.6890    -3.5020    -0.8460 H     1 <1>   0.0800 
 38 H       -5.6450    -4.5780     0.5250 H     1 <1>   0.0800 
 39 H       -3.3890    -3.3590    -1.6520 H     1 <1>   0.0800 
 40 H       -3.4240    -4.9070    -0.8360 H     1 <1>   0.0800 
 41 H       -2.1250    -3.7840    -0.5150 H     1 <1>   0.0800 
 42 H       -6.4390    -0.4870     1.2840 H     1 <1>   0.0800 
 43 H       -6.8290    -0.9540    -0.3230 H     1 <1>   0.0800 
 44 H       -4.9330    -1.8280    -1.9000 H     1 <1>   0.0800 
 45 H       -3.5500    -0.7670    -1.8510 H     1 <1>   0.0800 
 46 H        1.2490     4.4660    -1.9590 H     1 <1>   0.1500 
 47 H        0.0120     6.4100    -1.2360 H     1 <1>   0.0800 
 48 H       -0.8130     6.4080     0.2990 H     1 <1>   0.0800 
 49 H       -1.6090     5.7670    -1.1220 H     1 <1>   0.0800 
 50 H       -7.3480    -2.8700     0.8630 H     1 <1>   0.0800 
 51 H       -6.0810    -2.6540     2.0210 H     1 <1>   0.0800 
 52 H       -6.2540     0.0390    -1.9820 H     1 <1>   0.4000 
@<TRIPOS>BOND
  1   1   2  2   
  2   2   3  am  
  3   2   4  1   
  4   3   5  1   
  5   3   6  1   
  6   4   7  1   
  7   4  24  1   
  8   4  25  1   
  9   5   8  1   
 10   5  26  1   
 11   5  27  1   
 12   6   9  1   
 13   6  28  1   
 14   6  29  1   
 15   7  10  ar  
 16   7  11  ar  
 17   8  12  1   
 18   8  13  1   
 19   8  30  1   
 20   9  13  1   
 21   9  31  1   
 22   9  32  1   
 23  10  14  ar  
 24  10  33  1   
 25  11  15  ar  
 26  11  34  1   
 27  12  16  1   
 28  12  17  1   
 29  12  35  1   
 30  13  18  1   
 31  13  19  1   
 32  14  20  ar  
 33  14  21  1   
 34  15  20  ar  
 35  15  36  1   
 36  16  22  1   
 37  16  37  1   
 38  16  38  1   
 39  17  39  1   
 40  17  40  1   
 41  17  41  1   
 42  18  22  1   
 43  18  42  1   
 44  18  43  1   
 45  19  23  1   
 46  19  44  1   
 47  19  45  1   
 48  20  46  1   
 49  21  47  1   
 50  21  48  1   
 51  21  49  1   
 52  22  50  1   
 53  22  51  1   
 54  23  52  1   
@<TRIPOS>SUBSTRUCTURE
  1 ****   6 GROUP 4 **** **** 0

# MOE 2024.06 (io_trps.svl 2023.06)
