@<TRIPOS>MOLECULE
NONAME
59 61 1 0 0 
SMALL
USER_CHARGES


@<TRIPOS>ATOM
  1 O        0.6450     1.7800     1.5550 O.2   1 <1>  -0.5700 
  2 C        0.5020     2.5910     0.6690 C.2   1 <1>   0.5690 
  3 N       -0.6980     3.2270     0.4670 N.am  1 <1>  -0.6600 
  4 C        1.6900     2.8960    -0.2390 C.3   1 <1>  -0.0990 
  5 C       -1.8910     2.9060     1.3070 C.3   1 <1>   0.1400 
  6 C       -1.0010     4.1910    -0.6250 C.3   1 <1>   0.1400 
  7 C        2.9690     2.0990     0.0810 C.3   1 <1>  -0.1600 
  8 C       -2.9820     2.2370     0.4480 C.3   1 <1>   0.0000 
  9 C       -2.0720     3.5950    -1.5460 C.3   1 <1>  -0.1600 
 10 C        4.1170     2.4630    -0.8690 C.3   1 <1>  -0.0160 
 11 C       -4.2060     1.8850     1.3160 C.3   1 <1>   0.2000 
 12 C       -3.3240     3.1560    -0.7610 C.3   1 <1>  -0.1600 
 13 C       -2.5520     0.8380    -0.0320 C.3   1 <1>  -0.1600 
 14 C        5.3640     1.6590    -0.5380 C.ar  1 <1>  -0.1440 
 15 O       -5.0760     2.9470     1.4830 O.3   1 <1>  -0.6800 
 16 C       -4.9140     0.7260     0.6140 C.3   1 <1>  -0.1600 
 17 C       -3.8500     0.0590    -0.2680 C.3   1 <1>  -0.1600 
 18 C        5.5990     0.4430    -1.1600 C.ar  1 <1>  -0.1500 
 19 C        6.2770     2.1350     0.3880 C.ar  1 <1>  -0.1500 
 20 C        6.7340    -0.2960    -0.8690 C.ar  1 <1>  -0.1440 
 21 C        7.4140     1.4060     0.6880 C.ar  1 <1>  -0.1500 
 22 C        7.6520     0.1850     0.0600 C.ar  1 <1>   0.0820 
 23 C        6.9680    -1.6290    -1.5660 C.3   1 <1>  -0.0970 
 24 O        8.7510    -0.5740     0.3130 O.3   1 <1>  -0.3630 
 25 C        9.7210    -0.1810     1.2550 C.3   1 <1>   0.1200 
 26 C       10.7990    -1.2590     1.3000 C.3   1 <1>  -0.2400 
 27 H        1.3970     2.6830    -1.2500 H     1 <1>   0.0800 
 28 H        1.9070     3.9450    -0.1580 H     1 <1>   0.0800 
 29 H       -1.6180     2.2590     2.1230 H     1 <1>   0.0800 
 30 H       -2.2760     3.8170     1.7320 H     1 <1>   0.0800 
 31 H       -1.3680     5.1040    -0.1870 H     1 <1>   0.0800 
 32 H       -0.1240     4.4310    -1.1970 H     1 <1>   0.0800 
 33 H        3.2700     2.2970     1.0960 H     1 <1>   0.0800 
 34 H        2.7630     1.0440     0.0030 H     1 <1>   0.0800 
 35 H       -2.3530     4.3300    -2.2790 H     1 <1>   0.0800 
 36 H       -1.6510     2.7610    -2.0770 H     1 <1>   0.0800 
 37 H        4.3380     3.5130    -0.7890 H     1 <1>   0.0800 
 38 H        3.8250     2.2660    -1.8850 H     1 <1>   0.0800 
 39 H       -3.8830     1.5650     2.2930 H     1 <1>   0.0800 
 40 H       -4.0120     2.6670    -1.4270 H     1 <1>   0.0800 
 41 H       -3.7990     4.0520    -0.4010 H     1 <1>   0.0800 
 42 H       -1.9300     0.8580    -0.9080 H     1 <1>   0.0800 
 43 H       -1.9960     0.3510     0.7520 H     1 <1>   0.0800 
 44 H       -5.4320     3.2130     0.6160 H     1 <1>   0.4000 
 45 H       -5.2960     0.0330     1.3430 H     1 <1>   0.0800 
 46 H       -5.7230     1.0800    -0.0020 H     1 <1>   0.0800 
 47 H       -3.7240    -0.9800    -0.0180 H     1 <1>   0.0800 
 48 H       -4.1380     0.1340    -1.3020 H     1 <1>   0.0800 
 49 H        4.8880     0.0700    -1.8750 H     1 <1>   0.1500 
 50 H        6.1040     3.0740     0.8820 H     1 <1>   0.1500 
 51 H        8.0980     1.8060     1.4100 H     1 <1>   0.1500 
 52 H        6.1670    -1.8610    -2.2430 H     1 <1>   0.0800 
 53 H        7.0400    -2.4130    -0.8340 H     1 <1>   0.0800 
 54 H        7.8880    -1.5900    -2.1210 H     1 <1>   0.0800 
 55 H       10.1370     0.7610     0.9420 H     1 <1>   0.0800 
 56 H        9.2420    -0.0810     2.2140 H     1 <1>   0.0800 
 57 H       11.2560    -1.3630     0.3320 H     1 <1>   0.0800 
 58 H       10.3680    -2.1990     1.5960 H     1 <1>   0.0800 
 59 H       11.5560    -0.9880     2.0120 H     1 <1>   0.0800 
@<TRIPOS>BOND
  1   1   2  2   
  2   2   3  am  
  3   2   4  1   
  4   3   5  1   
  5   3   6  1   
  6   4   7  1   
  7   4  27  1   
  8   4  28  1   
  9   5   8  1   
 10   5  29  1   
 11   5  30  1   
 12   6   9  1   
 13   6  31  1   
 14   6  32  1   
 15   7  10  1   
 16   7  33  1   
 17   7  34  1   
 18   8  11  1   
 19   8  12  1   
 20   8  13  1   
 21   9  12  1   
 22   9  35  1   
 23   9  36  1   
 24  10  14  1   
 25  10  37  1   
 26  10  38  1   
 27  11  15  1   
 28  11  16  1   
 29  11  39  1   
 30  12  40  1   
 31  12  41  1   
 32  13  17  1   
 33  13  42  1   
 34  13  43  1   
 35  14  18  ar  
 36  14  19  ar  
 37  15  44  1   
 38  16  17  1   
 39  16  45  1   
 40  16  46  1   
 41  17  47  1   
 42  17  48  1   
 43  18  20  ar  
 44  18  49  1   
 45  19  21  ar  
 46  19  50  1   
 47  20  22  ar  
 48  20  23  1   
 49  21  22  ar  
 50  21  51  1   
 51  22  24  1   
 52  23  52  1   
 53  23  53  1   
 54  23  54  1   
 55  24  25  1   
 56  25  26  1   
 57  25  55  1   
 58  25  56  1   
 59  26  57  1   
 60  26  58  1   
 61  26  59  1   
@<TRIPOS>SUBSTRUCTURE
  1 ****   7 GROUP 4 **** **** 0

# MOE 2024.06 (io_trps.svl 2023.06)
