@<TRIPOS>MOLECULE
NONAME
47 48 1 0 0 
SMALL
USER_CHARGES


@<TRIPOS>ATOM
  1 S       -0.5460    -0.0740    -1.5150 S.o2  1 <1>   1.0900 
  2 O       -1.1010     0.7730    -2.5450 O.2   1 <1>  -0.6500 
  3 O        0.1130    -1.3070    -1.8690 O.2   1 <1>  -0.6500 
  4 C       -1.8370    -0.4500    -0.3320 C.3   1 <1>  -0.0550 
  5 C        0.6170     0.9010    -0.5790 C.3   1 <1>  -0.1350 
  6 C       -2.7320     0.7590     0.0000 C.3   1 <1>  -0.0990 
  7 C       -3.8130     0.4300     1.0150 C.2   1 <1>   0.5690 
  8 O       -3.6340    -0.5260     1.7320 O.2   1 <1>  -0.5700 
  9 N       -4.9420     1.2030     1.1020 N.am  1 <1>  -0.6600 
 10 C       -5.2060     2.4570     0.3510 C.3   1 <1>   0.1400 
 11 C       -6.1010     0.7970     1.9380 C.3   1 <1>   0.1400 
 12 C       -6.3780     2.2180    -0.6030 C.3   1 <1>  -0.1600 
 13 C       -7.3020     0.5440     1.0240 C.3   1 <1>  -0.1600 
 14 C       -7.6580     1.7580     0.1380 C.3   1 <1>   0.2800 
 15 O       -8.0130     2.7920     1.0300 O.3   1 <1>  -0.5600 
 16 C       -8.8390     1.3920    -0.8360 C.3   1 <1>   0.2000 
 17 C       -8.8940     3.7690     0.5790 C.3   1 <1>   0.1200 
 18 O       -8.7130     2.0620    -2.0670 O.3   1 <1>  -0.6800 
 19 C      -10.2320     1.7120    -0.2210 C.3   1 <1>   0.2800 
 20 C      -10.2800     3.1610     0.3040 C.3   1 <1>  -0.1600 
 21 O      -10.4500     0.8690     0.8520 O.3   1 <1>  -0.6800 
 22 C      -11.3970     1.4260    -1.1760 C.3   1 <1>  -0.2400 
 23 H       -2.4630    -1.2240    -0.7360 H     1 <1>   0.0800 
 24 H       -1.4000    -0.8360     0.5700 H     1 <1>   0.0800 
 25 H        0.1640     1.8090    -0.2340 H     1 <1>   0.0800 
 26 H        1.4560     1.1570    -1.1970 H     1 <1>   0.0800 
 27 H        0.9780     0.3470     0.2660 H     1 <1>   0.0800 
 28 H       -2.1410     1.5640     0.3920 H     1 <1>   0.0800 
 29 H       -3.1950     1.0820    -0.9140 H     1 <1>   0.0800 
 30 H       -5.4600     3.2350     1.0510 H     1 <1>   0.0800 
 31 H       -4.3420     2.7820    -0.1980 H     1 <1>   0.0800 
 32 H       -5.8770    -0.0960     2.4980 H     1 <1>   0.0800 
 33 H       -6.3280     1.5820     2.6390 H     1 <1>   0.0800 
 34 H       -6.0930     1.4680    -1.3190 H     1 <1>   0.0800 
 35 H       -6.5660     3.1240    -1.1470 H     1 <1>   0.0800 
 36 H       -8.1420     0.2760     1.6370 H     1 <1>   0.0800 
 37 H       -7.0780    -0.3030     0.4020 H     1 <1>   0.0800 
 38 H       -8.7940     0.3450    -1.0750 H     1 <1>   0.0800 
 39 H       -8.9630     4.5250     1.3420 H     1 <1>   0.0800 
 40 H       -8.4790     4.2170    -0.3060 H     1 <1>   0.0800 
 41 H       -8.7780     3.0240    -1.9280 H     1 <1>   0.4000 
 42 H      -10.7560     3.7920    -0.4240 H     1 <1>   0.0800 
 43 H      -10.8750     3.2180     1.1980 H     1 <1>   0.0800 
 44 H      -11.3030     1.0820     1.2700 H     1 <1>   0.4000 
 45 H      -11.3320     2.0510    -2.0480 H     1 <1>   0.0800 
 46 H      -12.3420     1.6150    -0.7000 H     1 <1>   0.0800 
 47 H      -11.3620     0.4010    -1.5040 H     1 <1>   0.0800 
@<TRIPOS>BOND
  1   1   2  2   
  2   1   3  2   
  3   1   4  1   
  4   1   5  1   
  5   4   6  1   
  6   4  23  1   
  7   4  24  1   
  8   5  25  1   
  9   5  26  1   
 10   5  27  1   
 11   6   7  1   
 12   6  28  1   
 13   6  29  1   
 14   7   8  2   
 15   7   9  am  
 16   9  10  1   
 17   9  11  1   
 18  10  12  1   
 19  10  30  1   
 20  10  31  1   
 21  11  13  1   
 22  11  32  1   
 23  11  33  1   
 24  12  14  1   
 25  12  34  1   
 26  12  35  1   
 27  13  14  1   
 28  13  36  1   
 29  13  37  1   
 30  14  15  1   
 31  14  16  1   
 32  15  17  1   
 33  16  18  1   
 34  16  19  1   
 35  16  38  1   
 36  17  20  1   
 37  17  39  1   
 38  17  40  1   
 39  18  41  1   
 40  19  20  1   
 41  19  21  1   
 42  19  22  1   
 43  20  42  1   
 44  20  43  1   
 45  21  44  1   
 46  22  45  1   
 47  22  46  1   
 48  22  47  1   
@<TRIPOS>SUBSTRUCTURE
  1 ****  12 GROUP 4 **** **** 0

# MOE 2024.06 (io_trps.svl 2023.06)
