@<TRIPOS>MOLECULE
NONAME
47 49 1 0 0 
SMALL
USER_CHARGES


@<TRIPOS>ATOM
  1 O       -0.7420     0.4060    -0.7290 O.2   1 <1>  -0.5700 
  2 C       -1.1340     1.4720    -0.2790 C.2   1 <1>   0.5440 
  3 N       -2.3570     1.4670     0.3800 N.am  1 <1>  -0.6600 
  4 C       -0.3180     2.6750    -0.4860 C.ar  1 <1>   0.3960 
  5 C       -2.9640     0.1780     0.8270 C.3   1 <1>   0.1400 
  6 C       -3.1300     2.7100     0.6670 C.3   1 <1>   0.1400 
  7 N       -0.2340     3.6120     0.4760 N.ar  1 <1>  -0.6200 
  8 C        0.3670     2.8100    -1.6950 C.ar  1 <1>  -0.1500 
  9 C       -3.8360    -0.4420    -0.2740 C.3   1 <1>   0.1400 
 10 C       -4.6370     2.5690     0.4150 C.3   1 <1>  -0.1600 
 11 C        0.5080     4.6640     0.2170 C.ar  1 <1>   0.4100 
 12 C        1.1450     3.9190    -1.9550 C.ar  1 <1>  -0.1500 
 13 N       -5.1150     0.3080    -0.4890 N.am  1 <1>  -0.6600 
 14 C       -4.9870     1.7520    -0.8340 C.3   1 <1>   0.1400 
 15 N        0.5560     5.5710     1.2230 N.pl3 1 <1>  -0.9000 
 16 C        1.2080     4.8670    -0.9650 C.ar  1 <1>  -0.1500 
 17 C       -6.3580    -0.2590    -0.2900 C.2   1 <1>   0.7160 
 18 O       -7.3010     0.4760    -0.0510 O.2   1 <1>  -0.5700 
 19 C       -6.5620    -1.6890    -0.3560 C.2   1 <1>  -0.0860 
 20 C       -7.3980    -2.4600     0.4610 C.2   1 <1>   0.1080 
 21 C       -6.0260    -2.6180    -1.1990 C.2   1 <1>  -0.3020 
 22 N       -7.3700    -3.7200     0.1660 N.2   1 <1>  -0.7070 
 23 C       -8.2610    -1.9240     1.5830 C.3   1 <1>  -0.0590 
 24 N       -6.5230    -3.8160    -0.8660 N.pl3 1 <1>   0.3140 
 25 C       -6.2390    -5.1070    -1.4990 C.3   1 <1>   0.0160 
 26 H       -3.5430     0.3240     1.7210 H     1 <1>   0.0800 
 27 H       -2.1730    -0.5130     1.0660 H     1 <1>   0.0800 
 28 H       -2.7680     3.5020     0.0350 H     1 <1>   0.0800 
 29 H       -2.9560     3.0050     1.6880 H     1 <1>   0.0800 
 30 H        0.2840     2.0320    -2.4330 H     1 <1>   0.1500 
 31 H       -4.0480    -1.4520     0.0220 H     1 <1>   0.0800 
 32 H       -3.2790    -0.4800    -1.1940 H     1 <1>   0.0800 
 33 H       -5.0350     3.5600     0.2940 H     1 <1>   0.0800 
 34 H       -5.1240     2.1460     1.2760 H     1 <1>   0.0800 
 35 H        1.6740     4.0320    -2.8870 H     1 <1>   0.1500 
 36 H       -4.2390     1.8830    -1.5970 H     1 <1>   0.0800 
 37 H       -5.9230     2.1050    -1.2330 H     1 <1>   0.0800 
 38 H        1.4430     6.0510     1.3740 H     1 <1>   0.4000 
 39 H        0.1460     5.2160     2.0880 H     1 <1>   0.4000 
 40 H        1.7870     5.7620    -1.0920 H     1 <1>   0.1500 
 41 H       -5.3320    -2.4680    -2.0050 H     1 <1>   0.1500 
 42 H       -7.6780    -1.2940     2.2290 H     1 <1>   0.0800 
 43 H       -8.6650    -2.7370     2.1580 H     1 <1>   0.0800 
 44 H       -9.0710    -1.3510     1.1710 H     1 <1>   0.0800 
 45 H       -5.5070    -4.9780    -2.2730 H     1 <1>   0.0800 
 46 H       -7.1490    -5.4950    -1.9170 H     1 <1>   0.0800 
 47 H       -5.8690    -5.7850    -0.7530 H     1 <1>   0.0800 
@<TRIPOS>BOND
  1   1   2  2   
  2   2   3  am  
  3   2   4  1   
  4   3   5  1   
  5   3   6  1   
  6   4   7  ar  
  7   4   8  ar  
  8   5   9  1   
  9   5  26  1   
 10   5  27  1   
 11   6  10  1   
 12   6  28  1   
 13   6  29  1   
 14   7  11  ar  
 15   8  12  ar  
 16   8  30  1   
 17   9  13  1   
 18   9  31  1   
 19   9  32  1   
 20  10  14  1   
 21  10  33  1   
 22  10  34  1   
 23  11  15  1   
 24  11  16  ar  
 25  12  16  ar  
 26  12  35  1   
 27  13  14  1   
 28  13  17  am  
 29  14  36  1   
 30  14  37  1   
 31  15  38  1   
 32  15  39  1   
 33  16  40  1   
 34  17  18  2   
 35  17  19  1   
 36  19  20  1   
 37  19  21  2   
 38  20  22  2   
 39  20  23  1   
 40  21  24  1   
 41  21  41  1   
 42  22  24  1   
 43  23  42  1   
 44  23  43  1   
 45  23  44  1   
 46  24  25  1   
 47  25  45  1   
 48  25  46  1   
 49  25  47  1   
@<TRIPOS>SUBSTRUCTURE
  1 ****   9 GROUP 4 **** **** 0

# MOE 2024.06 (io_trps.svl 2023.06)
