@<TRIPOS>MOLECULE
NONAME
29 30 1 0 0 
SMALL
USER_CHARGES


@<TRIPOS>ATOM
  1 N       -6.3980    -0.3760    -0.1270 N.pl3 1 <1>  -0.8380 
  2 C       -7.5940     0.3010     0.0980 C.ar  1 <1>   0.1000 
  3 C       -6.4710    -1.7640    -0.6660 C.3   1 <1>   0.2090 
  4 C       -5.3210    -0.1370     0.8740 C.3   1 <1>   0.2090 
  5 C       -7.7670     1.5710    -0.4300 C.ar  1 <1>  -0.1500 
  6 C       -8.6210    -0.2570     0.8540 C.ar  1 <1>  -0.1500 
  7 C       -5.0980    -2.1880    -1.2280 C.3   1 <1>   0.3430 
  8 C       -3.9560    -0.5780     0.3080 C.3   1 <1>   0.3430 
  9 C       -8.9350     2.2850    -0.2180 C.ar  1 <1>   0.1000 
 10 C       -9.7910     0.4460     1.0750 C.ar  1 <1>  -0.1500 
 11 N       -3.9820    -1.9870    -0.2310 N.4   1 <1>  -0.9060 
 12 N       -9.0940     3.5490    -0.7560 N.pl3 1 <1>  -0.9000 
 13 C       -9.9470     1.7140     0.5420 C.ar  1 <1>  -0.1500 
 14 H       -7.2080    -1.8000    -1.4510 H     1 <1>   0.0800 
 15 H       -6.7780    -2.4430     0.1100 H     1 <1>   0.0800 
 16 H       -5.5430    -0.6760     1.7790 H     1 <1>   0.0800 
 17 H       -5.2880     0.9130     1.1160 H     1 <1>   0.0800 
 18 H       -6.9800     2.0090    -1.0110 H     1 <1>   0.1500 
 19 H       -8.5060    -1.2360     1.2780 H     1 <1>   0.1500 
 20 H       -4.9040    -1.5960    -2.1070 H     1 <1>   0.0800 
 21 H       -5.1430    -3.2220    -1.5300 H     1 <1>   0.0800 
 22 H       -3.2080    -0.4900     1.0790 H     1 <1>   0.0800 
 23 H       -3.6920     0.1030    -0.4850 H     1 <1>   0.0800 
 24 H      -10.5810     0.0120     1.6630 H     1 <1>   0.1500 
 25 H       -3.0800    -2.2080    -0.6700 H     1 <1>   0.4500 
 26 H       -4.1140    -2.6390     0.5510 H     1 <1>   0.4500 
 27 H      -10.0610     3.8680    -0.8600 H     1 <1>   0.4000 
 28 H       -8.5430     3.7490    -1.5960 H     1 <1>   0.4000 
 29 H      -10.8520     2.2640     0.7190 H     1 <1>   0.1500 
@<TRIPOS>BOND
  1   1   2  1   
  2   1   3  1   
  3   1   4  1   
  4   2   5  ar  
  5   2   6  ar  
  6   3   7  1   
  7   3  14  1   
  8   3  15  1   
  9   4   8  1   
 10   4  16  1   
 11   4  17  1   
 12   5   9  ar  
 13   5  18  1   
 14   6  10  ar  
 15   6  19  1   
 16   7  11  1   
 17   7  20  1   
 18   7  21  1   
 19   8  11  1   
 20   8  22  1   
 21   8  23  1   
 22   9  12  1   
 23   9  13  ar  
 24  10  13  ar  
 25  10  24  1   
 26  11  25  1   
 27  11  26  1   
 28  12  27  1   
 29  12  28  1   
 30  13  29  1   
@<TRIPOS>SUBSTRUCTURE
  1 ****   2 GROUP 4 **** **** 0

# MOE 2024.06 (io_trps.svl 2023.06)
