@<TRIPOS>MOLECULE
NONAME
51 53 1 0 0 
SMALL
USER_CHARGES


@<TRIPOS>ATOM
  1 CL      -0.3060     0.1740    -1.4570 Cl    1 <1>  -0.1770 
  2 C       -1.9000     0.6170    -0.9050 C.ar  1 <1>   0.1770 
  3 C       -2.0340     1.4550     0.1850 C.ar  1 <1>  -0.1500 
  4 C       -3.0110     0.1270    -1.5650 C.ar  1 <1>  -0.1500 
  5 C       -3.3010     1.8030     0.6180 C.ar  1 <1>  -0.1500 
  6 C       -4.2720     0.4840    -1.1230 C.ar  1 <1>  -0.1500 
  7 C       -4.4470     1.3240    -0.0210 C.ar  1 <1>   0.0530 
  8 C       -5.7530     1.7120     0.4450 C.2   1 <1>   0.0870 
  9 O       -5.9800     2.9730     0.7160 O.3   1 <1>  -0.0190 
 10 C       -6.9060     1.0350     0.7110 C.2   1 <1>  -0.0860 
 11 N       -7.1970     3.1990     1.1280 N.2   1 <1>  -0.4100 
 12 C       -7.7750     2.0570     1.1200 C.2   1 <1>   0.3720 
 13 C       -7.2070    -0.3650     0.6600 C.2   1 <1>   0.7160 
 14 N       -9.1110     1.9510     1.4850 N.pl3 1 <1>  -0.8520 
 15 O       -6.4810    -1.1560     0.0900 O.2   1 <1>  -0.5700 
 16 N       -8.3350    -0.8400     1.2580 N.am  1 <1>  -0.7300 
 17 C      -10.0450     1.8270     0.3320 C.3   1 <1>   0.2090 
 18 C       -8.8190    -2.2400     1.2650 C.3   1 <1>   0.1400 
 19 C      -11.3970     1.2890     0.8020 C.3   1 <1>   0.1200 
 20 C      -10.0840    -2.3790     0.4070 C.3   1 <1>  -0.0800 
 21 O      -12.1510     0.9510    -0.3190 O.3   1 <1>  -0.5600 
 22 C      -10.6590    -3.7970     0.5390 C.3   1 <1>   0.1200 
 23 C       -9.8210    -2.0610    -1.0760 C.3   1 <1>  -0.1600 
 24 C      -13.3460     0.3030    -0.0220 C.3   1 <1>   0.0400 
 25 O      -11.8170    -3.9030    -0.2320 O.3   1 <1>  -0.5600 
 26 C      -11.0740    -2.3620    -1.9070 C.3   1 <1>  -0.1600 
 27 C      -11.6130    -3.7650    -1.6060 C.3   1 <1>   0.1200 
 28 H       -1.1570     1.8270     0.6830 H     1 <1>   0.1500 
 29 H       -2.8850    -0.5240    -2.4110 H     1 <1>   0.1500 
 30 H       -3.4100     2.4570     1.4670 H     1 <1>   0.1500 
 31 H       -5.1370     0.1050    -1.6400 H     1 <1>   0.1500 
 32 H       -9.3420     2.8160     1.9910 H     1 <1>   0.4000 
 33 H       -8.9420    -0.1260     1.6810 H     1 <1>   0.3700 
 34 H       -9.6320     1.1510    -0.3960 H     1 <1>   0.0800 
 35 H      -10.1800     2.7910    -0.1300 H     1 <1>   0.0800 
 36 H       -9.0310    -2.5250     2.2810 H     1 <1>   0.0800 
 37 H       -8.0500    -2.8950     0.8900 H     1 <1>   0.0800 
 38 H      -11.9290     2.0380     1.3620 H     1 <1>   0.0800 
 39 H      -11.2550     0.4080     1.4010 H     1 <1>   0.0800 
 40 H      -10.8270    -1.7040     0.7900 H     1 <1>   0.0800 
 41 H      -10.9310    -4.0030     1.5590 H     1 <1>   0.0800 
 42 H       -9.9550    -4.5410     0.2060 H     1 <1>   0.0800 
 43 H       -9.0040    -2.6650    -1.4330 H     1 <1>   0.0800 
 44 H       -9.5490    -1.0290    -1.2010 H     1 <1>   0.0800 
 45 H      -13.8650     0.1170    -0.9460 H     1 <1>   0.0800 
 46 H      -13.9480     0.9320     0.6120 H     1 <1>   0.0800 
 47 H      -13.1330    -0.6340     0.4640 H     1 <1>   0.0800 
 48 H      -10.8460    -2.2800    -2.9550 H     1 <1>   0.0800 
 49 H      -11.8400    -1.6410    -1.6820 H     1 <1>   0.0800 
 50 H      -12.5580    -3.9200    -2.0970 H     1 <1>   0.0800 
 51 H      -10.9220    -4.5260    -1.9290 H     1 <1>   0.0800 
@<TRIPOS>BOND
  1   1   2  1   
  2   2   3  ar  
  3   2   4  ar  
  4   3   5  ar  
  5   3  28  1   
  6   4   6  ar  
  7   4  29  1   
  8   5   7  ar  
  9   5  30  1   
 10   6   7  ar  
 11   6  31  1   
 12   7   8  1   
 13   8   9  1   
 14   8  10  2   
 15   9  11  1   
 16  10  12  1   
 17  10  13  1   
 18  11  12  2   
 19  12  14  1   
 20  13  15  2   
 21  13  16  am  
 22  14  17  1   
 23  14  32  1   
 24  16  18  1   
 25  16  33  1   
 26  17  19  1   
 27  17  34  1   
 28  17  35  1   
 29  18  20  1   
 30  18  36  1   
 31  18  37  1   
 32  19  21  1   
 33  19  38  1   
 34  19  39  1   
 35  20  22  1   
 36  20  23  1   
 37  20  40  1   
 38  21  24  1   
 39  22  25  1   
 40  22  41  1   
 41  22  42  1   
 42  23  26  1   
 43  23  43  1   
 44  23  44  1   
 45  24  45  1   
 46  24  46  1   
 47  24  47  1   
 48  25  27  1   
 49  26  27  1   
 50  26  48  1   
 51  26  49  1   
 52  27  50  1   
 53  27  51  1   
@<TRIPOS>SUBSTRUCTURE
  1 ****  13 GROUP 4 **** **** 0

# MOE 2024.06 (io_trps.svl 2023.06)
