@<TRIPOS>MOLECULE
NONAME
49 51 1 0 0 
SMALL
USER_CHARGES


@<TRIPOS>ATOM
  1 O       -0.0380     0.8640     1.4160 O.2   1 <1>  -0.5700 
  2 C        0.1850     1.9420     0.8960 C.2   1 <1>   0.6900 
  3 N       -0.8190     2.8650     0.7430 N.am  1 <1>  -0.6600 
  4 N        1.4410     2.2750     0.4740 N.am  1 <1>  -0.5470 
  5 C       -2.1640     2.6310     1.3440 C.3   1 <1>   0.1400 
  6 C       -0.7530     3.9910    -0.2390 C.3   1 <1>   0.1400 
  7 C        2.6260     1.5320     0.3790 C.ar  1 <1>   0.1170 
  8 C       -3.1950     2.2720     0.2520 C.3   1 <1>   0.0000 
  9 C       -2.1460     4.3900    -0.7560 C.3   1 <1>  -0.1600 
 10 C        3.8380     2.2090     0.3470 C.ar  1 <1>  -0.1500 
 11 C        2.6440     0.1430     0.2920 C.ar  1 <1>  -0.1500 
 12 C       -4.6170     2.3590     0.8370 C.3   1 <1>   0.2000 
 13 C       -3.0120     3.1500    -1.0260 C.3   1 <1>  -0.1600 
 14 C       -3.1290     0.7840    -0.1330 C.3   1 <1>  -0.1600 
 15 C        5.0390     1.5310     0.2370 C.ar  1 <1>   0.0820 
 16 C        3.8380    -0.5470     0.1850 C.ar  1 <1>  -0.1500 
 17 O       -5.0860     3.6760     0.8540 O.3   1 <1>  -0.5600 
 18 C       -5.4830     1.4540    -0.0450 C.3   1 <1>  -0.1600 
 19 C       -4.5170     0.4490    -0.6900 C.3   1 <1>  -0.1600 
 20 O        6.1660     2.2880     0.2150 O.3   1 <1>  -0.3620 
 21 C        5.0380     0.1410     0.1560 C.ar  1 <1>  -0.1500 
 22 C       -6.2290     3.8820     1.6210 C.3   1 <1>   0.0400 
 23 C        7.4420     1.6940     0.1390 C.3   1 <1>   0.0400 
 24 H        1.5360     3.2680     0.3000 H     1 <1>   0.3700 
 25 H       -2.1210     1.8570     2.0910 H     1 <1>   0.0800 
 26 H       -2.4730     3.5340     1.8420 H     1 <1>   0.0800 
 27 H       -0.2820     4.8420     0.2220 H     1 <1>   0.0800 
 28 H       -0.1570     3.6820    -1.0810 H     1 <1>   0.0800 
 29 H       -2.6350     5.0170    -0.0300 H     1 <1>   0.0800 
 30 H       -2.0400     4.9660    -1.6570 H     1 <1>   0.0800 
 31 H        3.8580     3.2790     0.4110 H     1 <1>   0.1500 
 32 H        1.7200    -0.4060     0.3080 H     1 <1>   0.1500 
 33 H       -4.6060     1.9800     1.8460 H     1 <1>   0.0800 
 34 H       -2.5240     2.5810    -1.7970 H     1 <1>   0.0800 
 35 H       -3.9640     3.4570    -1.4220 H     1 <1>   0.0800 
 36 H       -2.3390     0.5660    -0.8300 H     1 <1>   0.0800 
 37 H       -2.9580     0.1910     0.7500 H     1 <1>   0.0800 
 38 H        3.8300    -1.6210     0.1220 H     1 <1>   0.1500 
 39 H       -6.2220     0.9460     0.5490 H     1 <1>   0.0800 
 40 H       -5.9670     2.0320    -0.8120 H     1 <1>   0.0800 
 41 H       -4.7880    -0.5680    -0.4640 H     1 <1>   0.0800 
 42 H       -4.5210     0.5820    -1.7580 H     1 <1>   0.0800 
 43 H        5.9510    -0.4170     0.0720 H     1 <1>   0.1500 
 44 H       -6.4760     4.9280     1.5740 H     1 <1>   0.0800 
 45 H       -6.0300     3.6020     2.6400 H     1 <1>   0.0800 
 46 H       -7.0410     3.3020     1.2190 H     1 <1>   0.0800 
 47 H        8.1770     2.4790     0.1490 H     1 <1>   0.0800 
 48 H        7.5140     1.1370    -0.7780 H     1 <1>   0.0800 
 49 H        7.5810     1.0530     0.9920 H     1 <1>   0.0800 
@<TRIPOS>BOND
  1   1   2  2   
  2   2   3  am  
  3   2   4  am  
  4   3   5  1   
  5   3   6  1   
  6   4   7  1   
  7   4  24  1   
  8   5   8  1   
  9   5  25  1   
 10   5  26  1   
 11   6   9  1   
 12   6  27  1   
 13   6  28  1   
 14   7  10  ar  
 15   7  11  ar  
 16   8  12  1   
 17   8  13  1   
 18   8  14  1   
 19   9  13  1   
 20   9  29  1   
 21   9  30  1   
 22  10  15  ar  
 23  10  31  1   
 24  11  16  ar  
 25  11  32  1   
 26  12  17  1   
 27  12  18  1   
 28  12  33  1   
 29  13  34  1   
 30  13  35  1   
 31  14  19  1   
 32  14  36  1   
 33  14  37  1   
 34  15  20  1   
 35  15  21  ar  
 36  16  21  ar  
 37  16  38  1   
 38  17  22  1   
 39  18  19  1   
 40  18  39  1   
 41  18  40  1   
 42  19  41  1   
 43  19  42  1   
 44  20  23  1   
 45  21  43  1   
 46  22  44  1   
 47  22  45  1   
 48  22  46  1   
 49  23  47  1   
 50  23  48  1   
 51  23  49  1   
@<TRIPOS>SUBSTRUCTURE
  1 ****   2 GROUP 4 **** **** 0

# MOE 2024.06 (io_trps.svl 2023.06)
