@<TRIPOS>MOLECULE
NONAME
51 54 1 0 0 
SMALL
USER_CHARGES


@<TRIPOS>ATOM
  1 O        0.6790     0.2400    -0.4850 O.2   1 <1>  -0.5700 
  2 C        1.6490    -0.4980    -0.4230 C.2   1 <1>   0.7160 
  3 N        2.9050     0.0770    -0.3780 N.am  1 <1>  -0.6600 
  4 C        1.4760    -1.9360    -0.3860 C.2   1 <1>  -0.0860 
  5 C        3.1190     1.5180    -0.7060 C.3   1 <1>   0.1400 
  6 C        4.0750    -0.5970     0.2460 C.3   1 <1>   0.1400 
  7 C        0.6230    -2.7170     0.3600 C.2   1 <1>  -0.3320 
  8 C        2.2080    -2.8460    -1.1740 C.2   1 <1>  -0.1500 
  9 C        3.4950     2.3010     0.5580 C.3   1 <1>   0.1000 
 10 C        4.4780     0.1590     1.5180 C.3   1 <1>  -0.1600 
 11 N        0.8090    -4.0300     0.0660 N.pl3 1 <1>   0.0480 
 12 C       -0.3980    -2.2250     1.3760 C.3   1 <1>  -0.0600 
 13 C        1.7890    -4.0990    -0.8770 C.2   1 <1>  -0.3320 
 14 C        3.7280     3.7630     0.1980 C.2   1 <1>   0.2980 
 15 C        4.7170     1.6540     1.2460 C.3   1 <1>  -0.1600 
 16 C        0.0940    -5.1890     0.6340 C.3   1 <1>   0.0160 
 17 C        2.2920    -5.4000    -1.4780 C.3   1 <1>  -0.0600 
 18 O        2.6880     4.4870    -0.1240 O.3   1 <1>  -0.0190 
 19 N        4.8410     4.3740     0.1680 N.2   1 <1>  -0.5650 
 20 N        3.1810     5.6560    -0.3810 N.2   1 <1>  -0.4100 
 21 C        4.4540     5.5980    -0.2080 C.2   1 <1>   0.4620 
 22 C        5.3870     6.6980    -0.3910 C.ar  1 <1>   0.0540 
 23 C        4.9490     7.9580    -0.8040 C.ar  1 <1>  -0.1500 
 24 C        6.7570     6.5460    -0.1620 C.ar  1 <1>  -0.1500 
 25 C        5.8280     9.0100    -0.9810 C.ar  1 <1>  -0.1500 
 26 C        7.6420     7.5940    -0.3370 C.ar  1 <1>  -0.1500 
 27 C        7.1790     8.8300    -0.7480 C.ar  1 <1>  -0.1500 
 28 H        2.2320     1.9410    -1.1470 H     1 <1>   0.0800 
 29 H        3.9130     1.5960    -1.4290 H     1 <1>   0.0800 
 30 H        4.8920    -0.6050    -0.4550 H     1 <1>   0.0800 
 31 H        3.8440    -1.6160     0.5040 H     1 <1>   0.0800 
 32 H        2.9610    -2.5550    -1.8850 H     1 <1>   0.1500 
 33 H        2.6580     2.2630     1.2330 H     1 <1>   0.0800 
 34 H        5.3720    -0.2810     1.9230 H     1 <1>   0.0800 
 35 H        3.6980     0.0430     2.2500 H     1 <1>   0.0800 
 36 H       -0.3540    -1.1550     1.4740 H     1 <1>   0.0800 
 37 H       -0.2030    -2.6600     2.3390 H     1 <1>   0.0800 
 38 H       -1.3900    -2.4920     1.0590 H     1 <1>   0.0800 
 39 H        4.9210     2.1640     2.1720 H     1 <1>   0.0800 
 40 H        5.5810     1.7610     0.6130 H     1 <1>   0.0800 
 41 H       -0.6650    -4.8610     1.3180 H     1 <1>   0.0800 
 42 H        0.7960    -5.8150     1.1530 H     1 <1>   0.0800 
 43 H       -0.3640    -5.7440    -0.1630 H     1 <1>   0.0800 
 44 H        3.0660    -5.2000    -2.1980 H     1 <1>   0.0800 
 45 H        1.4890    -5.9130    -1.9760 H     1 <1>   0.0800 
 46 H        2.6950    -6.0340    -0.7090 H     1 <1>   0.0800 
 47 H        3.9000     8.1150    -0.9910 H     1 <1>   0.1500 
 48 H        7.1350     5.5910     0.1590 H     1 <1>   0.1500 
 49 H        5.4620     9.9710    -1.3010 H     1 <1>   0.1500 
 50 H        8.6930     7.4490    -0.1530 H     1 <1>   0.1500 
 51 H        7.8650     9.6480    -0.8840 H     1 <1>   0.1500 
@<TRIPOS>BOND
  1   1   2  2   
  2   2   3  am  
  3   2   4  1   
  4   3   5  1   
  5   3   6  1   
  6   4   7  2   
  7   4   8  1   
  8   5   9  1   
  9   5  28  1   
 10   5  29  1   
 11   6  10  1   
 12   6  30  1   
 13   6  31  1   
 14   7  11  1   
 15   7  12  1   
 16   8  13  2   
 17   8  32  1   
 18   9  14  1   
 19   9  15  1   
 20   9  33  1   
 21  10  15  1   
 22  10  34  1   
 23  10  35  1   
 24  11  13  1   
 25  11  16  1   
 26  12  36  1   
 27  12  37  1   
 28  12  38  1   
 29  13  17  1   
 30  14  18  1   
 31  14  19  2   
 32  15  39  1   
 33  15  40  1   
 34  16  41  1   
 35  16  42  1   
 36  16  43  1   
 37  17  44  1   
 38  17  45  1   
 39  17  46  1   
 40  18  20  1   
 41  19  21  1   
 42  20  21  2   
 43  21  22  1   
 44  22  23  ar  
 45  22  24  ar  
 46  23  25  ar  
 47  23  47  1   
 48  24  26  ar  
 49  24  48  1   
 50  25  27  ar  
 51  25  49  1   
 52  26  27  ar  
 53  26  50  1   
 54  27  51  1   
@<TRIPOS>SUBSTRUCTURE
  1 ****   5 GROUP 4 **** **** 0

# MOE 2024.06 (io_trps.svl 2023.06)
