@<TRIPOS>MOLECULE
NONAME
47 49 1 0 0 
SMALL
USER_CHARGES


@<TRIPOS>ATOM
  1 O       -2.6280     0.5580    -1.8330 O.2   1 <1>  -0.5700 
  2 C       -1.9220     0.8760    -0.8960 C.2   1 <1>   0.7160 
  3 N       -1.3590    -0.1170    -0.1450 N.am  1 <1>  -0.7300 
  4 C       -1.6440     2.2390    -0.5630 C.2   1 <1>  -0.0860 
  5 C       -1.5290    -1.5680    -0.3590 C.3   1 <1>   0.1400 
  6 C       -2.5180     3.3380    -0.5660 C.2   1 <1>   0.3720 
  7 C       -0.4710     2.7740    -0.1290 C.2   1 <1>   0.0870 
  8 C       -1.6640    -2.2570     0.9990 C.3   1 <1>  -0.1600 
  9 N       -1.9110     4.4010    -0.1620 N.2   1 <1>  -0.4100 
 10 N       -3.8760     3.3170    -0.9310 N.pl3 1 <1>  -0.8210 
 11 O       -0.6840     4.0420     0.0990 O.3   1 <1>  -0.0190 
 12 C        0.8320     2.2040     0.0890 C.ar  1 <1>   0.0530 
 13 C       -1.8400    -3.7700     0.8390 C.3   1 <1>  -0.2400 
 14 C       -4.6170     4.6020    -1.0490 C.3   1 <1>   0.2090 
 15 C       -4.7390     2.3140    -0.2560 C.3   1 <1>   0.2090 
 16 C        1.3940     1.3000    -0.8130 C.ar  1 <1>  -0.1500 
 17 C        1.5760     2.5340     1.2210 C.ar  1 <1>  -0.1500 
 18 C       -5.8000     4.4710    -0.1020 C.3   1 <1>  -0.1600 
 19 C       -6.0990     2.9790    -0.0870 C.3   1 <1>  -0.1600 
 20 C        2.6350     0.7330    -0.5900 C.ar  1 <1>  -0.1500 
 21 C        2.8170     1.9720     1.4510 C.ar  1 <1>  -0.1500 
 22 C        3.3570     1.0660     0.5530 C.ar  1 <1>   0.0830 
 23 O        4.5740     0.5560     0.8520 O.3   1 <1>  -0.3620 
 24 C        5.2380    -0.3360    -0.0160 C.3   1 <1>   0.0400 
 25 H       -0.6890     0.1480     0.5780 H     1 <1>   0.3700 
 26 H       -0.6720    -1.9510    -0.8870 H     1 <1>   0.0800 
 27 H       -2.4080    -1.7530    -0.9550 H     1 <1>   0.0800 
 28 H       -2.5190    -1.8570     1.5160 H     1 <1>   0.0800 
 29 H       -0.7830    -2.0670     1.5880 H     1 <1>   0.0800 
 30 H       -2.7260    -3.9870     0.2660 H     1 <1>   0.0800 
 31 H       -1.9380    -4.2340     1.8050 H     1 <1>   0.0800 
 32 H       -0.9900    -4.2000     0.3380 H     1 <1>   0.0800 
 33 H       -4.9640     4.7010    -2.0630 H     1 <1>   0.0800 
 34 H       -4.0180     5.4620    -0.8030 H     1 <1>   0.0800 
 35 H       -4.3230     2.0650     0.7060 H     1 <1>   0.0800 
 36 H       -4.8220     1.4230    -0.8550 H     1 <1>   0.0800 
 37 H        0.8500     1.0420    -1.7060 H     1 <1>   0.1500 
 38 H        1.1740     3.2390     1.9280 H     1 <1>   0.1500 
 39 H       -6.6400     5.0580    -0.4260 H     1 <1>   0.0800 
 40 H       -5.4960     4.7960     0.8780 H     1 <1>   0.0800 
 41 H       -6.5870     2.6650     0.8180 H     1 <1>   0.0800 
 42 H       -6.7170     2.7200    -0.9290 H     1 <1>   0.0800 
 43 H        3.0250     0.0410    -1.3110 H     1 <1>   0.1500 
 44 H        3.3810     2.2330     2.3290 H     1 <1>   0.1500 
 45 H        6.1870    -0.5840     0.4240 H     1 <1>   0.0800 
 46 H        5.3910     0.1480    -0.9640 H     1 <1>   0.0800 
 47 H        4.6430    -1.2240    -0.1260 H     1 <1>   0.0800 
@<TRIPOS>BOND
  1   1   2  2   
  2   2   3  am  
  3   2   4  1   
  4   3   5  1   
  5   3  25  1   
  6   4   6  1   
  7   4   7  2   
  8   5   8  1   
  9   5  26  1   
 10   5  27  1   
 11   6   9  2   
 12   6  10  1   
 13   7  11  1   
 14   7  12  1   
 15   8  13  1   
 16   8  28  1   
 17   8  29  1   
 18   9  11  1   
 19  10  14  1   
 20  10  15  1   
 21  12  16  ar  
 22  12  17  ar  
 23  13  30  1   
 24  13  31  1   
 25  13  32  1   
 26  14  18  1   
 27  14  33  1   
 28  14  34  1   
 29  15  19  1   
 30  15  35  1   
 31  15  36  1   
 32  16  20  ar  
 33  16  37  1   
 34  17  21  ar  
 35  17  38  1   
 36  18  19  1   
 37  18  39  1   
 38  18  40  1   
 39  19  41  1   
 40  19  42  1   
 41  20  22  ar  
 42  20  43  1   
 43  21  22  ar  
 44  21  44  1   
 45  22  23  1   
 46  23  24  1   
 47  24  45  1   
 48  24  46  1   
 49  24  47  1   
@<TRIPOS>SUBSTRUCTURE
  1 ****   4 GROUP 4 **** **** 0

# MOE 2024.06 (io_trps.svl 2023.06)
