@<TRIPOS>MOLECULE
Untitled Document
48 51 1 0 0 
SMALL
USER_CHARGES


@<TRIPOS>ATOM
  1 O        0.3670     0.1220     1.0290 O.2   1 <1>  -0.5700 
  2 C        0.2210     1.1830     0.4570 C.2   1 <1>   0.5440 
  3 N       -1.0510     1.4770     0.1120 N.am  1 <1>  -0.8000 
  4 C        1.3510     2.0560     0.1610 C.ar  1 <1>   0.0860 
  5 C        1.2410     3.4150    -0.1800 C.ar  1 <1>   0.0830 
  6 C        2.6400     1.5250     0.2150 C.ar  1 <1>  -0.1500 
  7 O        0.0060     3.9840    -0.2320 O.3   1 <1>  -0.3620 
  8 C        2.3850     4.1620    -0.4560 C.ar  1 <1>  -0.1500 
  9 C        3.7750     2.2670    -0.0510 C.ar  1 <1>  -0.1430 
 10 C       -0.2050     5.3650    -0.4350 C.3   1 <1>   0.0400 
 11 C        3.6580     3.6130    -0.3890 C.ar  1 <1>  -0.1430 
 12 C        5.1190     1.5500     0.0590 C.3   1 <1>  -0.0170 
 13 C        4.9120     4.4450    -0.7120 C.3   1 <1>   0.0630 
 14 C        6.3000     2.3630    -0.4780 C.3   1 <1>  -0.1600 
 15 C        6.1640     3.8240    -0.0360 C.3   1 <1>  -0.0800 
 16 C        4.7770     5.9670    -0.4180 C.3   1 <1>  -0.1600 
 17 C        7.3830     4.6770    -0.4130 C.3   1 <1>  -0.0800 
 18 C        6.0850     6.7770    -0.6190 C.3   1 <1>  -0.1600 
 19 C        7.2590     6.1190     0.1160 C.3   1 <1>   0.1380 
 20 C        8.8310     4.2560    -0.1230 C.3   1 <1>  -0.0220 
 21 C        8.6540     6.6110    -0.1850 C.2   1 <1>  -0.2880 
 22 C        7.0890     6.2410     1.6450 C.3   1 <1>  -0.2400 
 23 C        9.5160     5.5990    -0.2800 C.2   1 <1>  -0.2880 
 24 H       -1.8090     0.8620     0.4040 H     1 <1>   0.3700 
 25 H       -1.2890     2.4090    -0.2360 H     1 <1>   0.3700 
 26 H        2.7500     0.4870     0.4790 H     1 <1>   0.1500 
 27 H        2.2830     5.1880    -0.7350 H     1 <1>   0.1500 
 28 H       -1.2610     5.5570    -0.3650 H     1 <1>   0.0800 
 29 H        0.1490     5.6330    -1.4150 H     1 <1>   0.0800 
 30 H        0.3170     5.9140     0.3280 H     1 <1>   0.0800 
 31 H        5.2920     1.3380     1.1000 H     1 <1>   0.0800 
 32 H        5.0720     0.6100    -0.4610 H     1 <1>   0.0800 
 33 H        5.0510     4.3590    -1.7760 H     1 <1>   0.0800 
 34 H        6.3170     2.3070    -1.5530 H     1 <1>   0.0800 
 35 H        7.2150     1.9380    -0.1060 H     1 <1>   0.0800 
 36 H        6.0370     3.8310     1.0310 H     1 <1>   0.0800 
 37 H        4.0370     6.3940    -1.0700 H     1 <1>   0.0800 
 38 H        4.4250     6.0950     0.5900 H     1 <1>   0.0800 
 39 H        7.3620     4.7470    -1.4890 H     1 <1>   0.0800 
 40 H        5.9530     7.7850    -0.2670 H     1 <1>   0.0800 
 41 H        6.3120     6.8290    -1.6700 H     1 <1>   0.0800 
 42 H        8.9540     3.8770     0.8770 H     1 <1>   0.0800 
 43 H        9.1800     3.5400    -0.8450 H     1 <1>   0.0800 
 44 H        8.8320     7.6710    -0.2550 H     1 <1>   0.1500 
 45 H        7.1280     7.2770     1.9300 H     1 <1>   0.0800 
 46 H        7.8830     5.7280     2.1550 H     1 <1>   0.0800 
 47 H        6.1570     5.8390     1.9910 H     1 <1>   0.0800 
 48 H       10.5800     5.6280    -0.4440 H     1 <1>   0.1500 
@<TRIPOS>BOND
  1   1   2  2   
  2   2   3  am  
  3   2   4  1   
  4   3  24  1   
  5   3  25  1   
  6   4   5  ar  
  7   4   6  ar  
  8   5   7  1   
  9   5   8  ar  
 10   6   9  ar  
 11   6  26  1   
 12   7  10  1   
 13   8  11  ar  
 14   8  27  1   
 15   9  11  ar  
 16   9  12  1   
 17  10  28  1   
 18  10  29  1   
 19  10  30  1   
 20  11  13  1   
 21  12  14  1   
 22  12  31  1   
 23  12  32  1   
 24  13  15  1   
 25  13  16  1   
 26  13  33  1   
 27  14  15  1   
 28  14  34  1   
 29  14  35  1   
 30  15  17  1   
 31  15  36  1   
 32  16  18  1   
 33  16  37  1   
 34  16  38  1   
 35  17  19  1   
 36  17  20  1   
 37  17  39  1   
 38  18  19  1   
 39  18  40  1   
 40  18  41  1   
 41  19  21  1   
 42  19  22  1   
 43  20  23  1   
 44  20  42  1   
 45  20  43  1   
 46  21  23  2   
 47  21  44  1   
 48  22  45  1   
 49  22  46  1   
 50  22  47  1   
 51  23  48  1   
@<TRIPOS>SUBSTRUCTURE
  1 ****  11 GROUP 4 **** **** 0

# MOE 2024.06 (io_trps.svl 2023.06)
