@<TRIPOS>MOLECULE
NONAME
49 51 1 0 0 
SMALL
USER_CHARGES


@<TRIPOS>ATOM
  1 O        1.1110    -0.0570     1.7130 O.2   1 <1>  -0.5700 
  2 C        1.7440    -0.5850     0.8280 C.2   1 <1>   0.5690 
  3 N        2.6280     0.1190     0.0670 N.am  1 <1>  -0.6600 
  4 C        1.5430    -2.0630     0.5610 C.3   1 <1>  -0.0990 
  5 C        2.8220     1.5800     0.2410 C.3   1 <1>   0.4010 
  6 C        3.6540    -0.4360    -0.8380 C.3   1 <1>   0.1400 
  7 C        0.3640    -2.6440     1.3510 C.3   1 <1>   0.0960 
  8 C        1.6470     2.3720    -0.3480 C.2   1 <1>   0.1080 
  9 C        4.1800     1.8780    -0.4180 C.3   1 <1>  -0.1600 
 10 C        4.8290     0.5180    -0.6760 C.3   1 <1>  -0.1600 
 11 N        0.1280    -4.0490     0.9580 N.pl3 1 <1>   0.3140 
 12 N        1.5330     2.7840    -1.5670 N.2   1 <1>  -0.4100 
 13 C        0.5270     2.7470     0.3930 C.2   1 <1>  -0.1500 
 14 N        1.0180    -4.9930     1.2900 N.2   1 <1>  -0.7070 
 15 C       -0.8990    -4.5680     0.2560 C.2   1 <1>  -0.3320 
 16 O        0.3930     3.4090    -1.6370 O.3   1 <1>  -0.0190 
 17 C       -0.2330     3.4070    -0.4920 C.2   1 <1>  -0.0400 
 18 C        0.5460    -6.0900     0.8020 C.2   1 <1>   0.1080 
 19 C       -0.6640    -5.9120     0.1140 C.2   1 <1>  -0.0860 
 20 C       -2.0780    -3.7250    -0.2210 C.3   1 <1>  -0.0600 
 21 C       -1.5830     4.0800    -0.3650 C.3   1 <1>  -0.0600 
 22 C        1.2790    -7.4030     0.9830 C.3   1 <1>  -0.0590 
 23 C       -1.3880    -6.9640    -0.5560 C.2   1 <1>   0.5950 
 24 O       -1.3590    -8.1200    -0.2190 O.2   1 <1>  -0.5700 
 25 C       -2.2170    -6.6490    -1.7820 C.3   1 <1>  -0.1790 
 26 H        2.4390    -2.5880     0.8360 H     1 <1>   0.0800 
 27 H        1.3640    -2.1970    -0.4900 H     1 <1>   0.0800 
 28 H        2.8900     1.7890     1.2950 H     1 <1>   0.0800 
 29 H        3.2840    -0.4070    -1.8490 H     1 <1>   0.0800 
 30 H        3.9290    -1.4430    -0.5740 H     1 <1>   0.0800 
 31 H       -0.5210    -2.0660     1.1730 H     1 <1>   0.0800 
 32 H        0.5800    -2.6200     2.4040 H     1 <1>   0.0800 
 33 H        4.7870     2.4990     0.2150 H     1 <1>   0.0800 
 34 H        4.0430     2.3870    -1.3550 H     1 <1>   0.0800 
 35 H        5.4610     0.5240    -1.5470 H     1 <1>   0.0800 
 36 H        5.4100     0.2180     0.1790 H     1 <1>   0.0800 
 37 H        0.3500     2.5260     1.4300 H     1 <1>   0.1500 
 38 H       -2.4670    -3.1380     0.5920 H     1 <1>   0.0800 
 39 H       -2.8810    -4.3360    -0.5820 H     1 <1>   0.0800 
 40 H       -1.7650    -3.0620    -1.0090 H     1 <1>   0.0800 
 41 H       -1.9540     3.9800     0.6390 H     1 <1>   0.0800 
 42 H       -2.2810     3.6250    -1.0440 H     1 <1>   0.0800 
 43 H       -1.4920     5.1240    -0.6040 H     1 <1>   0.0800 
 44 H        2.2320    -7.2320     1.4490 H     1 <1>   0.0800 
 45 H        1.4360    -7.8720     0.0290 H     1 <1>   0.0800 
 46 H        0.6990    -8.0580     1.6070 H     1 <1>   0.0800 
 47 H       -1.8430    -5.7710    -2.2720 H     1 <1>   0.0800 
 48 H       -3.2410    -6.5030    -1.4950 H     1 <1>   0.0800 
 49 H       -2.1650    -7.4740    -2.4690 H     1 <1>   0.0800 
@<TRIPOS>BOND
  1   1   2  2   
  2   2   3  am  
  3   2   4  1   
  4   3   5  1   
  5   3   6  1   
  6   4   7  1   
  7   4  26  1   
  8   4  27  1   
  9   5   8  1   
 10   5   9  1   
 11   5  28  1   
 12   6  10  1   
 13   6  29  1   
 14   6  30  1   
 15   7  11  1   
 16   7  31  1   
 17   7  32  1   
 18   8  12  2   
 19   8  13  1   
 20   9  10  1   
 21   9  33  1   
 22   9  34  1   
 23  10  35  1   
 24  10  36  1   
 25  11  14  1   
 26  11  15  1   
 27  12  16  1   
 28  13  17  2   
 29  13  37  1   
 30  14  18  2   
 31  15  19  2   
 32  15  20  1   
 33  16  17  1   
 34  17  21  1   
 35  18  19  1   
 36  18  22  1   
 37  19  23  1   
 38  20  38  1   
 39  20  39  1   
 40  20  40  1   
 41  21  41  1   
 42  21  42  1   
 43  21  43  1   
 44  22  44  1   
 45  22  45  1   
 46  22  46  1   
 47  23  24  2   
 48  23  25  1   
 49  25  47  1   
 50  25  48  1   
 51  25  49  1   
@<TRIPOS>SUBSTRUCTURE
  1 ****   4 GROUP 4 **** **** 0

# MOE 2024.06 (io_trps.svl 2023.06)
