@<TRIPOS>MOLECULE
NONAME
47 48 1 0 0 
SMALL
USER_CHARGES


@<TRIPOS>ATOM
  1 F       -0.3670     0.4470    -0.0470 F     1 <1>  -0.1900 
  2 C       -1.6420     0.7360     0.0150 C.ar  1 <1>   0.1900 
  3 C       -2.1870     1.8370    -0.6530 C.ar  1 <1>   0.0830 
  4 C       -2.4250    -0.1070     0.7800 C.ar  1 <1>  -0.1500 
  5 O       -1.5220     2.7380    -1.4320 O.3   1 <1>  -0.3630 
  6 C       -3.5490     2.0570    -0.5230 C.ar  1 <1>  -0.1500 
  7 C       -3.7810     0.1430     0.8890 C.ar  1 <1>  -0.1500 
  8 C       -0.1370     2.6600    -1.6880 C.3   1 <1>   0.0400 
  9 C       -4.3740     1.2270     0.2380 C.ar  1 <1>   0.0530 
 10 C       -5.7860     1.5000     0.3490 C.2   1 <1>   0.0870 
 11 O       -6.2050     2.7410     0.3600 O.3   1 <1>  -0.0190 
 12 C       -6.8900     0.7120     0.4710 C.2   1 <1>  -0.0860 
 13 N       -7.5020     2.8440     0.4790 N.2   1 <1>  -0.4100 
 14 C       -7.9390     1.6350     0.5420 C.2   1 <1>   0.3720 
 15 C       -7.0380    -0.7090     0.5090 C.2   1 <1>   0.7160 
 16 N       -9.3030     1.3070     0.6300 N.pl3 1 <1>  -0.8210 
 17 O       -6.2510    -1.4520    -0.0490 O.2   1 <1>  -0.5700 
 18 N       -8.0980    -1.2680     1.1510 N.am  1 <1>  -0.7300 
 19 C      -10.1290     2.2960     1.3800 C.3   1 <1>   0.1290 
 20 C       -9.8940     1.0070    -0.7060 C.3   1 <1>   0.1290 
 21 C       -8.4500    -2.7160     1.1200 C.3   1 <1>   0.1400 
 22 C       -9.3170    -3.1080    -0.1040 C.3   1 <1>   0.2800 
 23 O       -8.8190    -2.5010    -1.2360 O.3   1 <1>  -0.6800 
 24 C      -10.7620    -2.6350     0.0460 C.3   1 <1>  -0.2400 
 25 C       -9.2660    -4.6130    -0.3600 C.3   1 <1>  -0.2400 
 26 H       -1.9790    -0.9460     1.2820 H     1 <1>   0.1500 
 27 H       -3.9790     2.9000    -1.0330 H     1 <1>   0.1500 
 28 H       -4.3860    -0.5130     1.4890 H     1 <1>   0.1500 
 29 H        0.1310     3.4770    -2.3320 H     1 <1>   0.0800 
 30 H        0.0770     1.7260    -2.1770 H     1 <1>   0.0800 
 31 H        0.3970     2.7400    -0.7570 H     1 <1>   0.0800 
 32 H       -8.8740    -0.6080     1.3130 H     1 <1>   0.3700 
 33 H       -9.6460     2.5460     2.3090 H     1 <1>   0.0800 
 34 H      -11.0980     1.8790     1.5950 H     1 <1>   0.0800 
 35 H      -10.2500     3.1960     0.8000 H     1 <1>   0.0800 
 36 H       -9.3650     0.1920    -1.1710 H     1 <1>   0.0800 
 37 H       -9.8240     1.8730    -1.3430 H     1 <1>   0.0800 
 38 H      -10.9280     0.7280    -0.6020 H     1 <1>   0.0800 
 39 H       -8.9710    -2.9730     2.0250 H     1 <1>   0.0800 
 40 H       -7.5410    -3.2940     1.1050 H     1 <1>   0.0800 
 41 H       -7.8520    -2.3660    -1.1190 H     1 <1>   0.4000 
 42 H      -10.7950    -1.5760     0.2190 H     1 <1>   0.0800 
 43 H      -11.2280    -3.1270     0.8800 H     1 <1>   0.0800 
 44 H      -11.3240    -2.8650    -0.8410 H     1 <1>   0.0800 
 45 H       -8.2530    -4.9350    -0.5200 H     1 <1>   0.0800 
 46 H       -9.8530    -4.8630    -1.2260 H     1 <1>   0.0800 
 47 H       -9.6640    -5.1470     0.4840 H     1 <1>   0.0800 
@<TRIPOS>BOND
  1   1   2  1   
  2   2   3  ar  
  3   2   4  ar  
  4   3   5  1   
  5   3   6  ar  
  6   4   7  ar  
  7   4  26  1   
  8   5   8  1   
  9   6   9  ar  
 10   6  27  1   
 11   7   9  ar  
 12   7  28  1   
 13   8  29  1   
 14   8  30  1   
 15   8  31  1   
 16   9  10  1   
 17  10  11  1   
 18  10  12  2   
 19  11  13  1   
 20  12  14  1   
 21  12  15  1   
 22  13  14  2   
 23  14  16  1   
 24  15  17  2   
 25  15  18  am  
 26  16  19  1   
 27  16  20  1   
 28  18  21  1   
 29  18  32  1   
 30  19  33  1   
 31  19  34  1   
 32  19  35  1   
 33  20  36  1   
 34  20  37  1   
 35  20  38  1   
 36  21  22  1   
 37  21  39  1   
 38  21  40  1   
 39  22  23  1   
 40  22  24  1   
 41  22  25  1   
 42  23  41  1   
 43  24  42  1   
 44  24  43  1   
 45  24  44  1   
 46  25  45  1   
 47  25  46  1   
 48  25  47  1   
@<TRIPOS>SUBSTRUCTURE
  1 ****  12 GROUP 4 **** **** 0

# MOE 2024.06 (io_trps.svl 2023.06)
