@<TRIPOS>MOLECULE
NONAME
52 56 1 0 0 
SMALL
USER_CHARGES


@<TRIPOS>ATOM
  1 O       -0.7460     0.7470     0.3440 O.2   1 <1>  -0.5700 
  2 C       -1.7960     1.3370     0.1760 C.2   1 <1>   0.7030 
  3 N       -2.9720     0.7420     0.5820 N.am  1 <1>  -0.6600 
  4 C       -1.7510     2.6510    -0.4460 C.2   1 <1>   0.2770 
  5 C       -2.9770    -0.2670     1.6840 C.3   1 <1>   0.1400 
  6 C       -4.2480     0.7990    -0.1880 C.3   1 <1>   0.1400 
  7 N       -0.6910     3.1310    -1.1980 N.pl3 1 <1>  -0.7000 
  8 C       -2.6580     3.6580    -0.4080 C.2   1 <1>   0.2000 
  9 C       -3.2970    -1.6530     1.1220 C.3   1 <1>  -0.1600 
 10 C       -4.5630    -0.5850    -0.7620 C.3   1 <1>  -0.1600 
 11 C       -0.9580     4.3790    -1.5980 C.cat 1 <1>   0.7910 
 12 N       -2.1780     4.7300    -1.1290 N.pl3 1 <1>  -0.6290 
 13 C       -4.6140    -1.6610     0.3340 C.3   1 <1>   0.4240 
 14 C       -0.1980     5.2780    -2.3640 C.2   1 <1>  -0.1410 
 15 C       -2.6940     5.9820    -1.3950 C.2   1 <1>   0.2290 
 16 O       -5.6040    -1.2800     1.2600 O.3   1 <1>  -0.5600 
 17 C       -4.8800    -3.0620    -0.2590 C.ar  1 <1>  -0.1430 
 18 C       -0.6990     6.5220    -2.6380 C.2   1 <1>  -0.1500 
 19 C       -1.9720     6.8700    -2.1390 C.2   1 <1>  -0.1500 
 20 C       -6.9220    -1.6450     0.9850 C.3   1 <1>   0.1200 
 21 C       -6.0270    -3.7760     0.0720 C.ar  1 <1>  -0.1440 
 22 C       -3.9730    -3.6370    -1.1430 C.ar  1 <1>  -0.1500 
 23 C       -7.0330    -3.1660     1.0260 C.3   1 <1>  -0.0170 
 24 C       -6.2570    -5.0340    -0.4620 C.ar  1 <1>  -0.1500 
 25 C       -4.2030    -4.8910    -1.6790 C.ar  1 <1>  -0.1500 
 26 C       -5.3420    -5.6000    -1.3440 C.ar  1 <1>   0.0830 
 27 O       -5.4920    -6.8230    -1.9110 O.3   1 <1>  -0.3630 
 28 C       -6.6080    -7.6350    -1.6200 C.3   1 <1>   0.0400 
 29 H       -3.7200     0.0100     2.4130 H     1 <1>   0.0800 
 30 H       -2.0210    -0.2920     2.1810 H     1 <1>   0.0800 
 31 H       -4.1800     1.5020    -0.9990 H     1 <1>   0.0800 
 32 H       -5.0450     1.1100     0.4690 H     1 <1>   0.0800 
 33 H        0.1710     2.5990    -1.3560 H     1 <1>   0.4500 
 34 H       -3.6090     3.6750     0.0990 H     1 <1>   0.1500 
 35 H       -3.3650    -2.3650     1.9240 H     1 <1>   0.0800 
 36 H       -2.4820    -1.9580     0.4920 H     1 <1>   0.0800 
 37 H       -3.8030    -0.8400    -1.4780 H     1 <1>   0.0800 
 38 H       -5.4970    -0.5630    -1.2920 H     1 <1>   0.0800 
 39 H        0.7660     4.9680    -2.7200 H     1 <1>   0.1500 
 40 H       -3.6690     6.2280    -1.0010 H     1 <1>   0.1500 
 41 H       -0.1470     7.2420    -3.2230 H     1 <1>   0.1500 
 42 H       -2.3610     7.8510    -2.3560 H     1 <1>   0.1500 
 43 H       -7.2030    -1.2640     0.0190 H     1 <1>   0.0800 
 44 H       -7.5510    -1.2020     1.7360 H     1 <1>   0.0800 
 45 H       -3.0760    -3.1180    -1.4260 H     1 <1>   0.1500 
 46 H       -8.0310    -3.4550     0.7510 H     1 <1>   0.0800 
 47 H       -6.8430    -3.5130     2.0260 H     1 <1>   0.0800 
 48 H       -7.1480    -5.5620    -0.1840 H     1 <1>   0.1500 
 49 H       -3.4980    -5.3310    -2.3610 H     1 <1>   0.1500 
 50 H       -6.5060    -8.5510    -2.1730 H     1 <1>   0.0800 
 51 H       -7.5020    -7.1210    -1.9250 H     1 <1>   0.0800 
 52 H       -6.6210    -7.8440    -0.5650 H     1 <1>   0.0800 
@<TRIPOS>BOND
  1   1   2  2   
  2   2   3  am  
  3   2   4  1   
  4   3   5  1   
  5   3   6  1   
  6   4   7  1   
  7   4   8  2   
  8   5   9  1   
  9   5  29  1   
 10   5  30  1   
 11   6  10  1   
 12   6  31  1   
 13   6  32  1   
 14   7  11  ar  
 15   7  33  1   
 16   8  12  1   
 17   8  34  1   
 18   9  13  1   
 19   9  35  1   
 20   9  36  1   
 21  10  13  1   
 22  10  37  1   
 23  10  38  1   
 24  11  12  ar  
 25  11  14  1   
 26  12  15  1   
 27  13  16  1   
 28  13  17  1   
 29  14  18  2   
 30  14  39  1   
 31  15  19  2   
 32  15  40  1   
 33  16  20  1   
 34  17  21  ar  
 35  17  22  ar  
 36  18  19  1   
 37  18  41  1   
 38  19  42  1   
 39  20  23  1   
 40  20  43  1   
 41  20  44  1   
 42  21  23  1   
 43  21  24  ar  
 44  22  25  ar  
 45  22  45  1   
 46  23  46  1   
 47  23  47  1   
 48  24  26  ar  
 49  24  48  1   
 50  25  26  ar  
 51  25  49  1   
 52  26  27  1   
 53  27  28  1   
 54  28  50  1   
 55  28  51  1   
 56  28  52  1   
@<TRIPOS>SUBSTRUCTURE
  1 ****  10 GROUP 4 **** **** 0

# MOE 2024.06 (io_trps.svl 2023.06)
