@<TRIPOS>MOLECULE
NONAME
38 39 1 0 0 
SMALL
USER_CHARGES


@<TRIPOS>ATOM
  1 CL      -0.6260    -0.2240    -0.3950 Cl    1 <1>  -0.1770 
  2 C       -0.5430    -1.9300    -0.0360 C.ar  1 <1>   0.1770 
  3 C        0.3560    -2.7240    -0.7210 C.ar  1 <1>  -0.1500 
  4 C       -1.3800    -2.4600     0.9280 C.ar  1 <1>  -0.1500 
  5 C        0.4180    -4.0780    -0.4340 C.ar  1 <1>  -0.1500 
  6 C       -1.3120    -3.8150     1.2100 C.ar  1 <1>  -0.1500 
  7 C       -0.4150    -4.6270     0.5310 C.ar  1 <1>  -0.1430 
  8 C       -0.3500    -6.1140     0.8390 C.3   1 <1>  -0.0160 
  9 C       -1.3620    -6.8800    -0.0240 C.3   1 <1>  -0.0990 
 10 C       -1.4030    -8.3750     0.2550 C.2   1 <1>   0.5690 
 11 O       -0.5310    -8.8570     0.9420 O.2   1 <1>  -0.5700 
 12 N       -2.4110    -9.1390    -0.2670 N.am  1 <1>  -0.6600 
 13 C       -2.5970   -10.5670     0.1740 C.3   1 <1>   0.1400 
 14 C       -3.4800    -8.6520    -1.1840 C.3   1 <1>   0.1400 
 15 C       -4.0780   -11.0050     0.2250 C.3   1 <1>   0.2000 
 16 C       -4.8360    -8.6530    -0.4620 C.3   1 <1>  -0.1600 
 17 O       -4.4580   -11.5310    -1.0010 O.3   1 <1>  -0.6800 
 18 C       -5.0020    -9.8210     0.5460 C.3   1 <1>  -0.1860 
 19 C       -6.4390   -10.2870     0.6640 C.2   1 <1>   0.9060 
 20 O       -7.0740   -10.0050     1.6820 O.co2 1 <1>  -0.9000 
 21 O       -6.9230   -10.9450    -0.2680 O.co2 1 <1>  -0.9000 
 22 H        0.9960    -2.2870    -1.4660 H     1 <1>   0.1500 
 23 H       -2.0700    -1.8210     1.4480 H     1 <1>   0.1500 
 24 H        1.1160    -4.7020    -0.9650 H     1 <1>   0.1500 
 25 H       -1.9620    -4.2350     1.9600 H     1 <1>   0.1500 
 26 H        0.6430    -6.4850     0.6510 H     1 <1>   0.0800 
 27 H       -0.5660    -6.2800     1.8810 H     1 <1>   0.0800 
 28 H       -1.1220    -6.7340    -1.0610 H     1 <1>   0.0800 
 29 H       -2.3390    -6.4740     0.1610 H     1 <1>   0.0800 
 30 H       -2.0480   -11.2230    -0.4770 H     1 <1>   0.0800 
 31 H       -2.1920   -10.6710     1.1650 H     1 <1>   0.0800 
 32 H       -3.2650    -7.6740    -1.5720 H     1 <1>   0.0800 
 33 H       -3.5300    -9.3260    -2.0240 H     1 <1>   0.0800 
 34 H       -4.2080   -11.7870     0.9540 H     1 <1>   0.0800 
 35 H       -4.9750    -7.7220     0.0560 H     1 <1>   0.0800 
 36 H       -5.6060    -8.7170    -1.2110 H     1 <1>   0.0800 
 37 H       -5.4620   -11.5010    -1.0000 H     1 <1>   0.4000 
 38 H       -4.7170    -9.4590     1.5160 H     1 <1>   0.0800 
@<TRIPOS>BOND
  1   1   2  1   
  2   2   3  ar  
  3   2   4  ar  
  4   3   5  ar  
  5   3  22  1   
  6   4   6  ar  
  7   4  23  1   
  8   5   7  ar  
  9   5  24  1   
 10   6   7  ar  
 11   6  25  1   
 12   7   8  1   
 13   8   9  1   
 14   8  26  1   
 15   8  27  1   
 16   9  10  1   
 17   9  28  1   
 18   9  29  1   
 19  10  11  2   
 20  10  12  am  
 21  12  13  1   
 22  12  14  1   
 23  13  15  1   
 24  13  30  1   
 25  13  31  1   
 26  14  16  1   
 27  14  32  1   
 28  14  33  1   
 29  15  17  1   
 30  15  18  1   
 31  15  34  1   
 32  16  18  1   
 33  16  35  1   
 34  16  36  1   
 35  17  37  1   
 36  18  19  1   
 37  18  38  1   
 38  19  20  ar  
 39  19  21  ar  
@<TRIPOS>SUBSTRUCTURE
  1 ****   9 GROUP 4 **** **** 0

# MOE 2024.06 (io_trps.svl 2023.06)
