@<TRIPOS>MOLECULE
NONAME
39 41 1 0 0 
SMALL
USER_CHARGES


@<TRIPOS>ATOM
  1 O       -1.2420    -1.2350    -1.3910 O.co2 1 <1>  -0.9000 
  2 C       -1.9390    -2.0350    -0.7360 C.2   1 <1>   1.0330 
  3 O       -1.5440    -3.2160    -0.6450 O.co2 1 <1>  -0.9000 
  4 C       -3.1910    -1.6550    -0.0790 C.2   1 <1>  -0.0060 
  5 N       -3.8080    -0.4240    -0.0540 N.2   1 <1>  -0.5650 
  6 C       -3.9660    -2.4980     0.6270 C.2   1 <1>  -0.0100 
  7 C       -4.8790    -0.6200     0.6350 C.2   1 <1>   0.5620 
  8 O       -5.0140    -1.8560     1.0730 O.3   1 <1>  -0.2800 
  9 N       -5.8580     0.3200     0.9170 N.pl3 1 <1>  -0.8220 
 10 C       -7.2250    -0.1050     1.3260 C.3   1 <1>   0.2090 
 11 C       -5.7690     1.6720     0.3130 C.3   1 <1>   0.2090 
 12 C       -8.2290    -0.0340     0.1480 C.3   1 <1>   0.0000 
 13 C       -6.7290     1.7680    -0.8760 C.3   1 <1>  -0.1600 
 14 C       -9.6280    -0.4080     0.6770 C.3   1 <1>   0.2000 
 15 C       -8.1660     1.3760    -0.4900 C.3   1 <1>  -0.1600 
 16 C       -7.9550    -1.1470    -0.8800 C.3   1 <1>  -0.1600 
 17 O      -10.6050     0.0270    -0.2260 O.3   1 <1>  -0.5600 
 18 C       -9.6470    -1.9420     0.7090 C.3   1 <1>  -0.1600 
 19 C       -8.6020    -2.4140    -0.3130 C.3   1 <1>  -0.1600 
 20 C      -11.8710     0.2240     0.3190 C.3   1 <1>   0.0400 
 21 H       -3.8300    -3.5420     0.8420 H     1 <1>   0.1500 
 22 H       -7.1970    -1.1000     1.7340 H     1 <1>   0.0800 
 23 H       -7.5530     0.5520     2.1120 H     1 <1>   0.0800 
 24 H       -6.0320     2.4030     1.0580 H     1 <1>   0.0800 
 25 H       -4.7630     1.8790    -0.0110 H     1 <1>   0.0800 
 26 H       -6.7180     2.7730    -1.2570 H     1 <1>   0.0800 
 27 H       -6.3680     1.1210    -1.6560 H     1 <1>   0.0800 
 28 H       -9.8200     0.0330     1.6410 H     1 <1>   0.0800 
 29 H       -8.7900     1.4150    -1.3660 H     1 <1>   0.0800 
 30 H       -8.5490     2.0960     0.2120 H     1 <1>   0.0800 
 31 H       -8.4460    -0.9000    -1.8060 H     1 <1>   0.0800 
 32 H       -6.9080    -1.2870    -1.0820 H     1 <1>   0.0800 
 33 H       -9.3540    -2.2790     1.6870 H     1 <1>   0.0800 
 34 H      -10.6210    -2.3390     0.4870 H     1 <1>   0.0800 
 35 H       -7.8560    -3.0190     0.1740 H     1 <1>   0.0800 
 36 H       -9.0580    -2.9880    -1.1010 H     1 <1>   0.0800 
 37 H      -12.5320     0.5220    -0.4750 H     1 <1>   0.0800 
 38 H      -11.8190     1.0030     1.0590 H     1 <1>   0.0800 
 39 H      -12.2220    -0.6930     0.7580 H     1 <1>   0.0800 
@<TRIPOS>BOND
  1   1   2  ar  
  2   2   3  ar  
  3   2   4  1   
  4   4   5  1   
  5   4   6  2   
  6   5   7  2   
  7   6   8  1   
  8   6  21  1   
  9   7   8  1   
 10   7   9  1   
 11   9  10  1   
 12   9  11  1   
 13  10  12  1   
 14  10  22  1   
 15  10  23  1   
 16  11  13  1   
 17  11  24  1   
 18  11  25  1   
 19  12  14  1   
 20  12  15  1   
 21  12  16  1   
 22  13  15  1   
 23  13  26  1   
 24  13  27  1   
 25  14  17  1   
 26  14  18  1   
 27  14  28  1   
 28  15  29  1   
 29  15  30  1   
 30  16  19  1   
 31  16  31  1   
 32  16  32  1   
 33  17  20  1   
 34  18  19  1   
 35  18  33  1   
 36  18  34  1   
 37  19  35  1   
 38  19  36  1   
 39  20  37  1   
 40  20  38  1   
 41  20  39  1   
@<TRIPOS>SUBSTRUCTURE
  1 ****   9 GROUP 4 **** **** 0

# MOE 2024.06 (io_trps.svl 2023.06)
