@<TRIPOS>MOLECULE
NONAME
38 40 1 0 0 
SMALL
USER_CHARGES


@<TRIPOS>ATOM
  1 O       -1.5760     5.6610     0.7740 O.3   1 <1>  -0.2800 
  2 C       -1.8000     4.4720     0.2670 C.2   1 <1>   0.2980 
  3 C       -0.3570     5.9680     0.4170 C.2   1 <1>  -0.0400 
  4 N       -0.8170     3.9750    -0.3970 N.2   1 <1>  -0.5650 
  5 C       -3.1490     3.7840     0.4850 C.3   1 <1>   0.6030 
  6 C        0.1240     4.9420    -0.3040 C.2   1 <1>   0.0770 
  7 C        0.2470     7.2970     0.8360 C.3   1 <1>   0.1630 
  8 N       -3.1070     2.4060    -0.0770 N.4   1 <1>  -0.9060 
  9 C       -4.2980     4.4680    -0.2510 C.3   1 <1>  -0.1600 
 10 C        1.6790     7.4290     0.3360 C.ar  1 <1>  -0.1430 
 11 C       -4.3070     2.1520    -0.9120 C.3   1 <1>   0.3430 
 12 C       -5.2340     3.3310    -0.6480 C.3   1 <1>  -0.1600 
 13 C        2.7350     6.9590     1.1030 C.ar  1 <1>  -0.1500 
 14 C        1.9420     8.0150    -0.8930 C.ar  1 <1>  -0.1500 
 15 C        4.0390     7.0730     0.6510 C.ar  1 <1>  -0.1500 
 16 C        3.2440     8.1300    -1.3470 C.ar  1 <1>  -0.1500 
 17 C        4.3000     7.6620    -0.5830 C.ar  1 <1>   0.0830 
 18 O        5.5440     7.8130    -1.1010 O.3   1 <1>  -0.3620 
 19 C        6.6870     7.3670    -0.4050 C.3   1 <1>   0.0400 
 20 H       -3.3690     3.7400     1.5390 H     1 <1>   0.0800 
 21 H        1.0960     4.8440    -0.7630 H     1 <1>   0.1500 
 22 H        0.2300     7.3720     1.9080 H     1 <1>   0.0800 
 23 H       -0.3510     8.0990     0.4420 H     1 <1>   0.0800 
 24 H       -2.9850     1.7190     0.6720 H     1 <1>   0.4500 
 25 H       -2.2430     2.3910    -0.6480 H     1 <1>   0.4500 
 26 H       -3.9210     4.9590    -1.1330 H     1 <1>   0.0800 
 27 H       -4.7810     5.2030     0.3700 H     1 <1>   0.0800 
 28 H       -4.7790     1.2160    -0.6590 H     1 <1>   0.0800 
 29 H       -4.0270     2.1390    -1.9540 H     1 <1>   0.0800 
 30 H       -5.8260     3.5710    -1.5140 H     1 <1>   0.0800 
 31 H       -5.8970     3.0880     0.1660 H     1 <1>   0.0800 
 32 H        2.5490     6.5000     2.0590 H     1 <1>   0.1500 
 33 H        1.1380     8.3850    -1.5060 H     1 <1>   0.1500 
 34 H        4.8330     6.7000     1.2690 H     1 <1>   0.1500 
 35 H        3.4520     8.5840    -2.2990 H     1 <1>   0.1500 
 36 H        7.5510     7.5920    -1.0030 H     1 <1>   0.0800 
 37 H        6.6110     6.3040    -0.2560 H     1 <1>   0.0800 
 38 H        6.7470     7.8860     0.5350 H     1 <1>   0.0800 
@<TRIPOS>BOND
  1   1   2  1   
  2   1   3  1   
  3   2   4  2   
  4   2   5  1   
  5   3   6  2   
  6   3   7  1   
  7   4   6  1   
  8   5   8  1   
  9   5   9  1   
 10   5  20  1   
 11   6  21  1   
 12   7  10  1   
 13   7  22  1   
 14   7  23  1   
 15   8  11  1   
 16   8  24  1   
 17   8  25  1   
 18   9  12  1   
 19   9  26  1   
 20   9  27  1   
 21  10  13  ar  
 22  10  14  ar  
 23  11  12  1   
 24  11  28  1   
 25  11  29  1   
 26  12  30  1   
 27  12  31  1   
 28  13  15  ar  
 29  13  32  1   
 30  14  16  ar  
 31  14  33  1   
 32  15  17  ar  
 33  15  34  1   
 34  16  17  ar  
 35  16  35  1   
 36  17  18  1   
 37  18  19  1   
 38  19  36  1   
 39  19  37  1   
 40  19  38  1   
@<TRIPOS>SUBSTRUCTURE
  1 ****   6 GROUP 4 **** **** 0

# MOE 2024.06 (io_trps.svl 2023.06)
