@<TRIPOS>MOLECULE
NONAME
64 67 1 0 0 
SMALL
USER_CHARGES


@<TRIPOS>ATOM
  1 O       -1.5290     1.5250     2.3860 O.2   1 <1>  -0.5700 
  2 C       -2.3290     1.5790     1.4780 C.2   1 <1>   0.5690 
  3 N       -3.5060     0.8690     1.5140 N.am  1 <1>  -0.6600 
  4 C       -1.9430     2.4550     0.2540 C.3   1 <1>   0.4840 
  5 C       -4.6030     0.9160     0.5060 C.3   1 <1>   0.1400 
  6 C       -3.8080    -0.0770     2.6300 C.3   1 <1>   0.1400 
  7 N       -0.5030     2.2970    -0.2100 N.4   1 <1>  -0.9590 
  8 C       -2.2520     3.9260     0.5940 C.3   1 <1>  -0.1600 
  9 C       -4.7510    -0.4710    -0.1210 C.3   1 <1>  -0.1600 
 10 C       -3.9590    -1.4870     2.0540 C.3   1 <1>  -0.1600 
 11 C       -0.3070     2.8050    -1.5900 C.3   1 <1>   0.3430 
 12 C       -0.0140     0.8830    -0.1030 C.3   1 <1>   0.2630 
 13 C       -1.9140     4.9970    -0.4610 C.3   1 <1>  -0.1600 
 14 C       -5.0230    -1.5490     0.9460 C.3   1 <1>   0.4240 
 15 C        0.2780     4.2160    -1.5700 C.3   1 <1>  -0.1600 
 16 C       -0.4020     5.2120    -0.6170 C.3   1 <1>  -0.1600 
 17 O       -6.2350    -1.2230     1.5820 O.3   1 <1>  -0.5600 
 18 C       -5.0560    -2.9550     0.3150 C.ar  1 <1>  -0.1430 
 19 C       -7.4190    -1.6640     0.9900 C.3   1 <1>   0.1200 
 20 C       -6.2030    -3.7350     0.3450 C.ar  1 <1>  -0.1430 
 21 C       -3.9280    -3.4720    -0.3090 C.ar  1 <1>  -0.1500 
 22 C       -7.4490    -3.1900     1.0130 C.3   1 <1>  -0.0170 
 23 C       -6.2130    -4.9950    -0.2320 C.ar  1 <1>  -0.1500 
 24 C       -3.9160    -4.7280    -0.8910 C.ar  1 <1>   0.0820 
 25 C       -5.0820    -5.5110    -0.8610 C.ar  1 <1>   0.0820 
 26 O       -2.7160    -5.0630    -1.4510 O.3   1 <1>  -0.3630 
 27 O       -5.1040    -6.7440    -1.4480 O.3   1 <1>  -0.3620 
 28 C       -2.3760    -6.3860    -1.7990 C.3   1 <1>   0.0400 
 29 C       -6.2720    -7.5340    -1.5100 C.3   1 <1>   0.0400 
 30 H       -2.5780     2.1580    -0.5590 H     1 <1>   0.0800 
 31 H       -4.4160     1.6480    -0.2580 H     1 <1>   0.0800 
 32 H       -5.5220     1.1880     1.0010 H     1 <1>   0.0800 
 33 H       -4.7230     0.2230     3.1150 H     1 <1>   0.0800 
 34 H       -3.0250    -0.0700     3.3690 H     1 <1>   0.0800 
 35 H        0.0570     2.8700     0.4360 H     1 <1>   0.4500 
 36 H       -1.7620     4.1780     1.5200 H     1 <1>   0.0800 
 37 H       -3.3080     3.9900     0.7930 H     1 <1>   0.0800 
 38 H       -3.8470    -0.7070    -0.6490 H     1 <1>   0.0800 
 39 H       -5.5450    -0.4680    -0.8430 H     1 <1>   0.0800 
 40 H       -4.2310    -2.1720     2.8360 H     1 <1>   0.0800 
 41 H       -3.0050    -1.7990     1.6750 H     1 <1>   0.0800 
 42 H       -1.2490     2.8130    -2.1140 H     1 <1>   0.0800 
 43 H        0.3670     2.1620    -2.1330 H     1 <1>   0.0800 
 44 H       -0.6290     0.2240    -0.6950 H     1 <1>   0.0800 
 45 H       -0.0400     0.5500     0.9230 H     1 <1>   0.0800 
 46 H        1.0040     0.8140    -0.4510 H     1 <1>   0.0800 
 47 H       -2.3400     5.9270    -0.1210 H     1 <1>   0.0800 
 48 H       -2.3750     4.7740    -1.4080 H     1 <1>   0.0800 
 49 H        0.2050     4.6030    -2.5720 H     1 <1>   0.0800 
 50 H        1.3280     4.1650    -1.3390 H     1 <1>   0.0800 
 51 H        0.0700     5.1770     0.3510 H     1 <1>   0.0800 
 52 H       -0.2330     6.2060    -1.0000 H     1 <1>   0.0800 
 53 H       -7.4730    -1.2930    -0.0180 H     1 <1>   0.0800 
 54 H       -8.2400    -1.2640     1.5580 H     1 <1>   0.0800 
 55 H       -3.0200    -2.9020    -0.3540 H     1 <1>   0.1500 
 56 H       -8.3290    -3.5330     0.4990 H     1 <1>   0.0800 
 57 H       -7.4960    -3.5330     2.0310 H     1 <1>   0.0800 
 58 H       -7.1220    -5.5620    -0.1790 H     1 <1>   0.1500 
 59 H       -1.3280    -6.4140    -2.0320 H     1 <1>   0.0800 
 60 H       -2.9490    -6.6760    -2.6620 H     1 <1>   0.0800 
 61 H       -2.5860    -7.0320    -0.9650 H     1 <1>   0.0800 
 62 H       -6.0360    -8.4350    -2.0460 H     1 <1>   0.0800 
 63 H       -7.0350    -6.9870    -2.0350 H     1 <1>   0.0800 
 64 H       -6.5840    -7.7760    -0.5100 H     1 <1>   0.0800 
@<TRIPOS>BOND
  1   1   2  2   
  2   2   3  am  
  3   2   4  1   
  4   3   5  1   
  5   3   6  1   
  6   4   7  1   
  7   4   8  1   
  8   4  30  1   
  9   5   9  1   
 10   5  31  1   
 11   5  32  1   
 12   6  10  1   
 13   6  33  1   
 14   6  34  1   
 15   7  11  1   
 16   7  12  1   
 17   7  35  1   
 18   8  13  1   
 19   8  36  1   
 20   8  37  1   
 21   9  14  1   
 22   9  38  1   
 23   9  39  1   
 24  10  14  1   
 25  10  40  1   
 26  10  41  1   
 27  11  15  1   
 28  11  42  1   
 29  11  43  1   
 30  12  44  1   
 31  12  45  1   
 32  12  46  1   
 33  13  16  1   
 34  13  47  1   
 35  13  48  1   
 36  14  17  1   
 37  14  18  1   
 38  15  16  1   
 39  15  49  1   
 40  15  50  1   
 41  16  51  1   
 42  16  52  1   
 43  17  19  1   
 44  18  20  ar  
 45  18  21  ar  
 46  19  22  1   
 47  19  53  1   
 48  19  54  1   
 49  20  22  1   
 50  20  23  ar  
 51  21  24  ar  
 52  21  55  1   
 53  22  56  1   
 54  22  57  1   
 55  23  25  ar  
 56  23  58  1   
 57  24  25  ar  
 58  24  26  1   
 59  25  27  1   
 60  26  28  1   
 61  27  29  1   
 62  28  59  1   
 63  28  60  1   
 64  28  61  1   
 65  29  62  1   
 66  29  63  1   
 67  29  64  1   
@<TRIPOS>SUBSTRUCTURE
  1 ****   9 GROUP 4 **** **** 0

# MOE 2024.06 (io_trps.svl 2023.06)
