@<TRIPOS>MOLECULE
NONAME
50 51 1 0 0 
SMALL
USER_CHARGES


@<TRIPOS>ATOM
  1 O        1.9800    -3.3260     1.9280 O.3   1 <1>  -0.6800 
  2 C        0.7360    -3.1110     1.4070 C.3   1 <1>   0.4800 
  3 C        0.2990    -4.3950     0.7940 C.1   1 <1>  -0.2000 
  4 C        0.8680    -2.0160     0.3550 C.3   1 <1>  -0.2400 
  5 C       -0.1740    -2.6980     2.5560 C.3   1 <1>  -0.2400 
  6 C       -0.0540    -5.4230     0.3060 C.1   1 <1>  -0.0730 
  7 C       -0.4810    -6.6600    -0.2750 C.ar  1 <1>   0.0730 
  8 C       -0.3130    -7.8580     0.4050 C.ar  1 <1>  -0.1500 
  9 C       -1.0700    -6.6900    -1.5310 C.ar  1 <1>  -0.1500 
 10 C       -0.7250    -9.0570    -0.1510 C.ar  1 <1>  -0.1500 
 11 C       -1.4840    -7.8840    -2.0950 C.ar  1 <1>  -0.1500 
 12 C       -1.3170    -9.0760    -1.4060 C.ar  1 <1>  -0.1430 
 13 C       -1.7790   -10.3870    -2.0130 C.3   1 <1>   0.4860 
 14 N       -2.9550   -10.8660    -1.2510 N.4   1 <1>  -0.9590 
 15 C       -3.2430   -12.3040    -1.4900 C.3   1 <1>   0.5240 
 16 C       -4.1460    -9.9660    -1.3590 C.3   1 <1>   0.3430 
 17 C       -3.4360   -12.9400    -0.1190 C.2   1 <1>   0.0460 
 18 C       -5.1760   -10.1980    -0.2430 C.3   1 <1>   0.1200 
 19 N       -2.7750   -12.4450     0.9520 N.2   1 <1>  -0.5650 
 20 C       -4.2240   -13.9760     0.2410 C.2   1 <1>  -0.3020 
 21 O       -6.2610    -9.3760    -0.4920 O.3   1 <1>  -0.6800 
 22 C       -3.1640   -13.1940     1.9310 C.2   1 <1>   0.0060 
 23 N       -4.0470   -14.1480     1.5640 N.pl3 1 <1>   0.0330 
 24 C       -2.6840   -13.0350     3.3590 C.3   1 <1>  -0.0600 
 25 H        2.4880    -3.8430     1.2800 H     1 <1>   0.4000 
 26 H        1.5340    -2.3240    -0.4300 H     1 <1>   0.0800 
 27 H        1.2400    -1.1120     0.8040 H     1 <1>   0.0800 
 28 H       -0.0940    -1.8100    -0.0770 H     1 <1>   0.0800 
 29 H       -0.2130    -3.4790     3.2940 H     1 <1>   0.0800 
 30 H       -1.1700    -2.5250     2.1910 H     1 <1>   0.0800 
 31 H        0.1880    -1.7960     3.0130 H     1 <1>   0.0800 
 32 H        0.1460    -7.8460     1.3790 H     1 <1>   0.1500 
 33 H       -1.2020    -5.7660    -2.0670 H     1 <1>   0.1500 
 34 H       -0.5740    -9.9670     0.4070 H     1 <1>   0.1500 
 35 H       -1.9350    -7.8650    -3.0730 H     1 <1>   0.1500 
 36 H       -0.9770   -11.1040    -1.9460 H     1 <1>   0.0800 
 37 H       -2.0340   -10.2470    -3.0510 H     1 <1>   0.0800 
 38 H       -2.6670   -10.8760    -0.2530 H     1 <1>   0.4500 
 39 H       -2.4030   -12.7780    -1.9690 H     1 <1>   0.0800 
 40 H       -4.1210   -12.4340    -2.1000 H     1 <1>   0.0800 
 41 H       -4.6260   -10.1090    -2.3130 H     1 <1>   0.0800 
 42 H       -3.8260    -8.9380    -1.2940 H     1 <1>   0.0800 
 43 H       -4.7640    -9.9360     0.7170 H     1 <1>   0.0800 
 44 H       -5.5310   -11.2130    -0.2320 H     1 <1>   0.0800 
 45 H       -4.8830   -14.5950    -0.3440 H     1 <1>   0.1500 
 46 H       -6.9200    -9.4230     0.2330 H     1 <1>   0.4000 
 47 H       -4.4800   -14.8530     2.1720 H     1 <1>   0.2700 
 48 H       -1.9870   -12.2190     3.4250 H     1 <1>   0.0800 
 49 H       -2.1900   -13.9330     3.6850 H     1 <1>   0.0800 
 50 H       -3.5140   -12.8310     4.0110 H     1 <1>   0.0800 
@<TRIPOS>BOND
  1   1   2  1   
  2   1  25  1   
  3   2   3  1   
  4   2   4  1   
  5   2   5  1   
  6   3   6  3   
  7   4  26  1   
  8   4  27  1   
  9   4  28  1   
 10   5  29  1   
 11   5  30  1   
 12   5  31  1   
 13   6   7  1   
 14   7   8  ar  
 15   7   9  ar  
 16   8  10  ar  
 17   8  32  1   
 18   9  11  ar  
 19   9  33  1   
 20  10  12  ar  
 21  10  34  1   
 22  11  12  ar  
 23  11  35  1   
 24  12  13  1   
 25  13  14  1   
 26  13  36  1   
 27  13  37  1   
 28  14  15  1   
 29  14  16  1   
 30  14  38  1   
 31  15  17  1   
 32  15  39  1   
 33  15  40  1   
 34  16  18  1   
 35  16  41  1   
 36  16  42  1   
 37  17  19  1   
 38  17  20  2   
 39  18  21  1   
 40  18  43  1   
 41  18  44  1   
 42  19  22  2   
 43  20  23  1   
 44  20  45  1   
 45  21  46  1   
 46  22  23  1   
 47  22  24  1   
 48  23  47  1   
 49  24  48  1   
 50  24  49  1   
 51  24  50  1   
@<TRIPOS>SUBSTRUCTURE
  1 ****  10 GROUP 4 **** **** 0

# MOE 2024.06 (io_trps.svl 2023.06)
