@<TRIPOS>MOLECULE
NONAME
39 40 1 0 0 
SMALL
USER_CHARGES


@<TRIPOS>ATOM
  1 S       -0.0150     0.1080     0.0120 S.o2  1 <1>   1.0900 
  2 O        0.1860     0.1430    -1.4170 O.2   1 <1>  -0.6500 
  3 O        0.9780    -0.4980     0.8660 O.2   1 <1>  -0.6500 
  4 C       -1.5800    -0.6880     0.3220 C.3   1 <1>  -0.0550 
  5 C       -0.2800     1.7790     0.5730 C.3   1 <1>  -0.1350 
  6 C       -1.5120    -2.1630    -0.0550 C.3   1 <1>   0.1100 
  7 N       -2.8070    -2.8060     0.1960 N.3   1 <1>  -0.8100 
  8 C       -3.8330    -2.4900    -0.8100 C.3   1 <1>   0.1100 
  9 C       -2.7060    -4.2760     0.2230 C.3   1 <1>   0.1100 
 10 C       -4.8690    -3.5910    -0.6310 C.3   1 <1>   0.2000 
 11 C       -3.9900    -4.8260    -0.4230 C.3   1 <1>  -0.0800 
 12 O       -5.5580    -3.3100     0.5350 O.3   1 <1>  -0.6800 
 13 C       -4.6470    -5.9700     0.3730 C.3   1 <1>   0.0200 
 14 C       -3.7930    -7.2270     0.4220 C.2   1 <1>  -0.0400 
 15 O       -4.1800    -8.2210     1.1760 O.3   1 <1>  -0.0190 
 16 C       -2.6450    -7.5920    -0.1730 C.2   1 <1>  -0.1500 
 17 N       -3.3560    -9.2260     1.1220 N.2   1 <1>  -0.4100 
 18 C       -2.4200    -8.8760     0.3160 C.2   1 <1>   0.1080 
 19 C       -1.2390    -9.7480    -0.0460 C.3   1 <1>  -0.0590 
 20 H       -1.8290    -0.6150     1.3630 H     1 <1>   0.0800 
 21 H       -2.3460    -0.2090    -0.2540 H     1 <1>   0.0800 
 22 H       -1.0760     2.2410     0.0220 H     1 <1>   0.0800 
 23 H        0.6120     2.3570     0.4280 H     1 <1>   0.0800 
 24 H       -0.5240     1.7920     1.6180 H     1 <1>   0.0800 
 25 H       -0.7550    -2.6340     0.5520 H     1 <1>   0.0800 
 26 H       -1.2290    -2.2760    -1.0900 H     1 <1>   0.0800 
 27 H       -4.2610    -1.5140    -0.6570 H     1 <1>   0.0800 
 28 H       -3.4140    -2.5490    -1.8010 H     1 <1>   0.0800 
 29 H       -1.8470    -4.6150    -0.3310 H     1 <1>   0.0800 
 30 H       -2.6110    -4.6040     1.2450 H     1 <1>   0.0800 
 31 H       -5.5680    -3.6770    -1.4450 H     1 <1>   0.0800 
 32 H       -3.7310    -5.1990    -1.3980 H     1 <1>   0.0800 
 33 H       -4.8820    -3.0350     1.1910 H     1 <1>   0.4000 
 34 H       -5.5940    -6.2180    -0.0730 H     1 <1>   0.0800 
 35 H       -4.8380    -5.6510     1.3820 H     1 <1>   0.0800 
 36 H       -2.0180    -7.0620    -0.8640 H     1 <1>   0.1500 
 37 H       -0.3230    -9.2430     0.1990 H     1 <1>   0.0800 
 38 H       -1.2560    -9.9660    -1.0980 H     1 <1>   0.0800 
 39 H       -1.2850   -10.6720     0.5020 H     1 <1>   0.0800 
@<TRIPOS>BOND
  1   1   2  2   
  2   1   3  2   
  3   1   4  1   
  4   1   5  1   
  5   4   6  1   
  6   4  20  1   
  7   4  21  1   
  8   5  22  1   
  9   5  23  1   
 10   5  24  1   
 11   6   7  1   
 12   6  25  1   
 13   6  26  1   
 14   7   8  1   
 15   7   9  1   
 16   8  10  1   
 17   8  27  1   
 18   8  28  1   
 19   9  11  1   
 20   9  29  1   
 21   9  30  1   
 22  10  11  1   
 23  10  12  1   
 24  10  31  1   
 25  11  13  1   
 26  11  32  1   
 27  12  33  1   
 28  13  14  1   
 29  13  34  1   
 30  13  35  1   
 31  14  15  1   
 32  14  16  2   
 33  15  17  1   
 34  16  18  1   
 35  16  36  1   
 36  17  18  2   
 37  18  19  1   
 38  19  37  1   
 39  19  38  1   
 40  19  39  1   
@<TRIPOS>SUBSTRUCTURE
  1 ****   9 GROUP 4 **** **** 0

# MOE 2024.06 (io_trps.svl 2023.06)
