@<TRIPOS>MOLECULE
NONAME
39 41 1 0 0 
SMALL
USER_CHARGES


@<TRIPOS>ATOM
  1 O        2.0360    -1.2710     1.9440 O.2   1 <1>  -0.5700 
  2 C        2.1120    -1.3420     0.7380 C.2   1 <1>   0.5690 
  3 N        2.3710    -0.2530    -0.0440 N.am  1 <1>  -0.4930 
  4 C        1.9520    -2.6940     0.0330 C.3   1 <1>   0.1250 
  5 C        2.5760     1.0950     0.3410 C.2   1 <1>   0.0630 
  6 C        0.6130    -2.9070    -0.6510 C.ar  1 <1>  -0.1440 
  7 C        2.0750    -3.9470     0.9310 C.3   1 <1>  -0.1600 
  8 C        2.5620     1.6700     1.6130 C.2   1 <1>   0.1390 
  9 C        2.8380     2.1240    -0.4900 C.2   1 <1>  -0.3020 
 10 C        0.2140    -4.2170    -0.5290 C.ar  1 <1>  -0.1430 
 11 C       -0.1790    -1.9980    -1.3350 C.ar  1 <1>  -0.1500 
 12 C        1.2050    -5.0270     0.2700 C.3   1 <1>  -0.0170 
 13 N        2.7960     2.9490     1.5800 N.2   1 <1>  -0.7070 
 14 N        2.9670     3.2340     0.2750 N.pl3 1 <1>   0.3140 
 15 C       -0.9690    -4.6580    -1.0900 C.ar  1 <1>  -0.1500 
 16 C       -1.3680    -2.4300    -1.9000 C.ar  1 <1>  -0.1500 
 17 C        3.2590     4.6190    -0.1870 C.3   1 <1>   0.1760 
 18 C       -1.7610    -3.7550    -1.7810 C.ar  1 <1>  -0.1500 
 19 C        2.1470     5.1300    -1.1140 C.3   1 <1>  -0.2400 
 20 C        4.6280     4.6850    -0.8800 C.3   1 <1>  -0.2400 
 21 H        2.4070    -0.4150    -1.0490 H     1 <1>   0.3700 
 22 H        2.7100    -2.7610    -0.7260 H     1 <1>   0.0800 
 23 H        1.6610    -3.7370     1.9020 H     1 <1>   0.0800 
 24 H        3.0970    -4.2610     1.0490 H     1 <1>   0.0800 
 25 H        2.3790     1.1220     2.5220 H     1 <1>   0.1500 
 26 H        2.9390     2.1370    -1.5570 H     1 <1>   0.1500 
 27 H        0.1080    -0.9670    -1.4300 H     1 <1>   0.1500 
 28 H        0.7160    -5.6430     1.0040 H     1 <1>   0.0800 
 29 H        1.7900    -5.6390    -0.3940 H     1 <1>   0.0800 
 30 H       -1.2730    -5.6850    -0.9900 H     1 <1>   0.1500 
 31 H       -1.9920    -1.7340    -2.4330 H     1 <1>   0.1500 
 32 H        3.2890     5.2440     0.6890 H     1 <1>   0.0800 
 33 H       -2.6860    -4.0830    -2.2230 H     1 <1>   0.1500 
 34 H        2.0960     4.5420    -2.0130 H     1 <1>   0.0800 
 35 H        2.3370     6.1530    -1.3860 H     1 <1>   0.0800 
 36 H        1.2000     5.0860    -0.6060 H     1 <1>   0.0800 
 37 H        4.6350     4.0860    -1.7730 H     1 <1>   0.0800 
 38 H        5.3930     4.3320    -0.2110 H     1 <1>   0.0800 
 39 H        4.8560     5.7010    -1.1470 H     1 <1>   0.0800 
@<TRIPOS>BOND
  1   1   2  2   
  2   2   3  am  
  3   2   4  1   
  4   3   5  1   
  5   3  21  1   
  6   4   6  1   
  7   4   7  1   
  8   4  22  1   
  9   5   8  1   
 10   5   9  2   
 11   6  10  ar  
 12   6  11  ar  
 13   7  12  1   
 14   7  23  1   
 15   7  24  1   
 16   8  13  2   
 17   8  25  1   
 18   9  14  1   
 19   9  26  1   
 20  10  12  1   
 21  10  15  ar  
 22  11  16  ar  
 23  11  27  1   
 24  12  28  1   
 25  12  29  1   
 26  13  14  1   
 27  14  17  1   
 28  15  18  ar  
 29  15  30  1   
 30  16  18  ar  
 31  16  31  1   
 32  17  19  1   
 33  17  20  1   
 34  17  32  1   
 35  18  33  1   
 36  19  34  1   
 37  19  35  1   
 38  19  36  1   
 39  20  37  1   
 40  20  38  1   
 41  20  39  1   
@<TRIPOS>SUBSTRUCTURE
  1 ****   3 GROUP 4 **** **** 0

# MOE 2024.06 (io_trps.svl 2023.06)
