@<TRIPOS>MOLECULE
NONAME
49 52 1 0 0 
SMALL
USER_CHARGES


@<TRIPOS>ATOM
  1 O       -0.8560    -1.5900     1.9510 O.3   1 <1>  -0.0190 
  2 N       -2.0440    -1.1390     1.6790 N.2   1 <1>  -0.4100 
  3 C       -0.8030    -2.8920     1.8940 C.2   1 <1>  -0.0400 
  4 C       -2.7780    -2.1640     1.4470 C.2   1 <1>   0.1080 
  5 C       -2.0250    -3.3350     1.5520 C.2   1 <1>  -0.1810 
  6 C        0.5120    -3.5810     2.2010 C.3   1 <1>  -0.0600 
  7 C       -4.2540    -2.0590     1.1180 C.3   1 <1>  -0.0590 
  8 C       -2.5240    -4.7400     1.3200 C.3   1 <1>   0.5240 
  9 N       -1.9690    -5.2370     0.0300 N.4   1 <1>  -0.9590 
 10 C       -2.4830    -4.4320    -1.1260 C.3   1 <1>   0.3430 
 11 C       -2.3940    -6.6520    -0.2100 C.3   1 <1>   0.3430 
 12 C       -3.6780    -5.2180    -1.6730 C.3   1 <1>   0.2000 
 13 C       -3.2050    -6.6630    -1.5130 C.3   1 <1>  -0.0800 
 14 O       -4.7740    -4.9860    -0.8430 O.3   1 <1>  -0.6800 
 15 C       -4.2940    -7.7540    -1.5710 C.3   1 <1>  -0.0160 
 16 C       -3.7020    -9.1010    -1.1710 C.ar  1 <1>  -0.1440 
 17 C       -3.7410    -9.6040     0.1550 C.ar  1 <1>   0.0000 
 18 C       -3.0770    -9.8610    -2.1160 C.ar  1 <1>  -0.1500 
 19 C       -3.0770   -10.8300     0.4080 C.ar  1 <1>   0.3100 
 20 C       -4.3930    -8.9720     1.2430 C.ar  1 <1>  -0.1500 
 21 C       -2.4720   -11.0720    -1.7620 C.ar  1 <1>   0.1600 
 22 N       -2.4480   -11.5430    -0.5570 N.ar  1 <1>  -0.6200 
 23 C       -3.0580   -11.3380     1.7160 C.ar  1 <1>  -0.1500 
 24 C       -4.3590    -9.4980     2.5060 C.ar  1 <1>  -0.1500 
 25 C       -3.6790   -10.6930     2.7500 C.ar  1 <1>  -0.1500 
 26 H        0.4130    -4.6490     2.1510 H     1 <1>   0.0800 
 27 H        0.8340    -3.3110     3.1920 H     1 <1>   0.0800 
 28 H        1.2640    -3.2610     1.5020 H     1 <1>   0.0800 
 29 H       -4.8190    -2.7780     1.6820 H     1 <1>   0.0800 
 30 H       -4.4170    -2.2190     0.0690 H     1 <1>   0.0800 
 31 H       -4.6110    -1.0760     1.3710 H     1 <1>   0.0800 
 32 H       -3.6020    -4.7480     1.2910 H     1 <1>   0.0800 
 33 H       -2.1980    -5.3710     2.1310 H     1 <1>   0.0800 
 34 H       -0.9470    -5.1500     0.0800 H     1 <1>   0.4500 
 35 H       -2.7640    -3.4310    -0.8450 H     1 <1>   0.0800 
 36 H       -1.7240    -4.3780    -1.8890 H     1 <1>   0.0800 
 37 H       -1.5450    -7.3120    -0.2880 H     1 <1>   0.0800 
 38 H       -3.0170    -6.9880     0.6020 H     1 <1>   0.0800 
 39 H       -3.9300    -4.9430    -2.6840 H     1 <1>   0.0800 
 40 H       -2.5050    -6.8680    -2.3050 H     1 <1>   0.0800 
 41 H       -5.6120    -5.2320    -1.2930 H     1 <1>   0.4000 
 42 H       -4.6710    -7.8190    -2.5780 H     1 <1>   0.0800 
 43 H       -5.1370    -7.5170    -0.9500 H     1 <1>   0.0800 
 44 H       -3.0230    -9.5590    -3.1460 H     1 <1>   0.1500 
 45 H       -4.9420    -8.0640     1.0900 H     1 <1>   0.1500 
 46 H       -1.9910   -11.6450    -2.5380 H     1 <1>   0.1500 
 47 H       -2.5370   -12.2650     1.8790 H     1 <1>   0.1500 
 48 H       -4.8600    -9.0120     3.3260 H     1 <1>   0.1500 
 49 H       -3.6580   -11.0980     3.7470 H     1 <1>   0.1500 
@<TRIPOS>BOND
  1   1   2  1   
  2   1   3  1   
  3   2   4  2   
  4   3   5  2   
  5   3   6  1   
  6   4   5  1   
  7   4   7  1   
  8   5   8  1   
  9   6  26  1   
 10   6  27  1   
 11   6  28  1   
 12   7  29  1   
 13   7  30  1   
 14   7  31  1   
 15   8   9  1   
 16   8  32  1   
 17   8  33  1   
 18   9  10  1   
 19   9  11  1   
 20   9  34  1   
 21  10  12  1   
 22  10  35  1   
 23  10  36  1   
 24  11  13  1   
 25  11  37  1   
 26  11  38  1   
 27  12  13  1   
 28  12  14  1   
 29  12  39  1   
 30  13  15  1   
 31  13  40  1   
 32  14  41  1   
 33  15  16  1   
 34  15  42  1   
 35  15  43  1   
 36  16  17  ar  
 37  16  18  ar  
 38  17  19  ar  
 39  17  20  ar  
 40  18  21  ar  
 41  18  44  1   
 42  19  22  ar  
 43  19  23  ar  
 44  20  24  ar  
 45  20  45  1   
 46  21  22  ar  
 47  21  46  1   
 48  23  25  ar  
 49  23  47  1   
 50  24  25  ar  
 51  24  48  1   
 52  25  49  1   
@<TRIPOS>SUBSTRUCTURE
  1 ****  11 GROUP 4 **** **** 0

# MOE 2024.06 (io_trps.svl 2023.06)
