@<TRIPOS>MOLECULE
NONAME
49 51 1 0 0 
SMALL
USER_CHARGES


@<TRIPOS>ATOM
  1 O       -0.5650     0.1640    -0.2710 O.2   1 <1>  -0.5700 
  2 C       -1.5160     0.7780    -0.7130 C.2   1 <1>   0.6160 
  3 N       -2.6690     0.0880    -1.0200 N.am  1 <1>  -0.6600 
  4 C       -1.4170     2.2140    -0.8890 C.2   1 <1>   0.0140 
  5 C       -4.0360     0.6930    -0.9670 C.3   1 <1>   0.1400 
  6 C       -2.6990    -1.4070    -1.1040 C.3   1 <1>   0.1400 
  7 C       -1.9150     2.8740    -1.9810 C.2   1 <1>  -0.1360 
  8 C       -0.7630     3.0080     0.1030 C.2   1 <1>  -0.1500 
  9 C       -4.9160    -0.0230     0.0760 C.3   1 <1>   0.2950 
 10 C       -3.6560    -2.0040    -0.0490 C.3   1 <1>   0.2000 
 11 C       -1.8220     4.2800    -2.1130 C.2   1 <1>   0.6160 
 12 C       -0.6630     4.3580    -0.0180 C.2   1 <1>  -0.0290 
 13 O       -4.9150    -1.4020    -0.1520 O.3   1 <1>  -0.5600 
 14 C       -6.3680     0.4570     0.0080 C.3   1 <1>  -0.1950 
 15 C       -3.8740    -3.5130    -0.2170 C.3   1 <1>  -0.1600 
 16 O       -2.2810     4.8950    -3.0620 O.2   1 <1>  -0.5700 
 17 N       -1.2000     4.9770    -1.1200 N.am  1 <1>  -0.5390 
 18 C        0.0200     5.2440     1.0030 C.3   1 <1>  -0.1020 
 19 C       -6.8130     1.6840     0.7430 C.3   1 <1>  -0.2000 
 20 C       -7.2830     0.3270     1.1850 C.3   1 <1>  -0.2000 
 21 C       -2.5970    -4.3360     0.0190 C.3   1 <1>  -0.1600 
 22 C       -2.8900    -5.8390    -0.0660 C.3   1 <1>  -0.1600 
 23 C       -1.6200    -6.6610     0.1660 C.3   1 <1>  -0.2400 
 24 H       -3.9850     1.7340    -0.7080 H     1 <1>   0.0800 
 25 H       -4.4980     0.6100    -1.9350 H     1 <1>   0.0800 
 26 H       -3.0310    -1.6960    -2.0850 H     1 <1>   0.0800 
 27 H       -1.7120    -1.8100    -0.9630 H     1 <1>   0.0800 
 28 H       -2.3970     2.3540    -2.7860 H     1 <1>   0.1500 
 29 H       -0.3470     2.4900     0.9520 H     1 <1>   0.1500 
 30 H       -4.5250     0.1530     1.0640 H     1 <1>   0.0800 
 31 H       -3.2710    -1.8090     0.9380 H     1 <1>   0.0800 
 32 H       -6.8000     0.2870    -0.9630 H     1 <1>   0.1000 
 33 H       -4.6210    -3.8230     0.4940 H     1 <1>   0.0800 
 34 H       -4.2520    -3.7080    -1.2050 H     1 <1>   0.0800 
 35 H       -1.1510     5.9860    -1.2650 H     1 <1>   0.3700 
 36 H        0.8390     5.7690     0.5440 H     1 <1>   0.0800 
 37 H        0.4050     4.6560     1.8170 H     1 <1>   0.0800 
 38 H       -0.6790     5.9590     1.3970 H     1 <1>   0.0800 
 39 H       -6.1180     2.2100     1.3760 H     1 <1>   0.1000 
 40 H       -7.5210     2.3440     0.2710 H     1 <1>   0.1000 
 41 H       -8.3060     0.0420     1.0070 H     1 <1>   0.1000 
 42 H       -6.8930    -0.0950     2.0960 H     1 <1>   0.1000 
 43 H       -1.8540    -4.0840    -0.7170 H     1 <1>   0.0800 
 44 H       -2.1970    -4.1070     0.9930 H     1 <1>   0.0800 
 45 H       -3.6250    -6.1070     0.6740 H     1 <1>   0.0800 
 46 H       -3.2930    -6.0750    -1.0360 H     1 <1>   0.0800 
 47 H       -1.2110    -6.4570     1.1400 H     1 <1>   0.0800 
 48 H       -0.8780    -6.4270    -0.5770 H     1 <1>   0.0800 
 49 H       -1.8450    -7.7110     0.1040 H     1 <1>   0.0800 
@<TRIPOS>BOND
  1   1   2  2   
  2   2   3  am  
  3   2   4  1   
  4   3   5  1   
  5   3   6  1   
  6   4   7  2   
  7   4   8  1   
  8   5   9  1   
  9   5  24  1   
 10   5  25  1   
 11   6  10  1   
 12   6  26  1   
 13   6  27  1   
 14   7  11  1   
 15   7  28  1   
 16   8  12  2   
 17   8  29  1   
 18   9  13  1   
 19   9  14  1   
 20   9  30  1   
 21  10  13  1   
 22  10  15  1   
 23  10  31  1   
 24  11  16  2   
 25  11  17  am  
 26  12  17  1   
 27  12  18  1   
 28  14  19  1   
 29  14  20  1   
 30  14  32  1   
 31  15  21  1   
 32  15  33  1   
 33  15  34  1   
 34  17  35  1   
 35  18  36  1   
 36  18  37  1   
 37  18  38  1   
 38  19  20  1   
 39  19  39  1   
 40  19  40  1   
 41  20  41  1   
 42  20  42  1   
 43  21  22  1   
 44  21  43  1   
 45  21  44  1   
 46  22  23  1   
 47  22  45  1   
 48  22  46  1   
 49  23  47  1   
 50  23  48  1   
 51  23  49  1   
@<TRIPOS>SUBSTRUCTURE
  1 ****   3 GROUP 4 **** **** 0

# MOE 2024.06 (io_trps.svl 2023.06)
