@<TRIPOS>MOLECULE
NONAME
47 50 1 0 0 
SMALL
USER_CHARGES


@<TRIPOS>ATOM
  1 S        0.1140     0.4470     1.8150 S.o2  1 <1>   1.4470 
  2 O       -0.4250     1.7170     2.2500 O.2   1 <1>  -0.6500 
  3 O        0.6760    -0.4720     2.7770 O.2   1 <1>  -0.6500 
  4 N        1.3970     0.8560     0.7770 N.am  1 <1>  -0.8490 
  5 C       -1.0820    -0.3780     0.7280 C.ar  1 <1>  -0.0090 
  6 C        2.3670     1.7130     1.5020 C.3   1 <1>   0.1960 
  7 C        2.0690    -0.3330     0.2250 C.3   1 <1>   0.1960 
  8 C       -1.1800    -1.7650     0.6920 C.ar  1 <1>  -0.1500 
  9 C       -1.9070     0.3590    -0.1170 C.ar  1 <1>  -0.1500 
 10 C        3.4480     2.4110     0.6260 C.3   1 <1>   0.4230 
 11 C        3.0060     0.0200    -0.9500 C.3   1 <1>  -0.0800 
 12 C       -2.0620    -2.3960    -0.1660 C.ar  1 <1>   0.0830 
 13 C       -2.7930    -0.2610    -0.9830 C.ar  1 <1>  -0.1500 
 14 N        3.0650     2.6090    -0.8310 N.4   1 <1>  -0.9590 
 15 C        4.8330     1.7460     0.7730 C.3   1 <1>   0.1200 
 16 C        4.4970    -0.1460    -0.6210 C.3   1 <1>   0.1200 
 17 C        2.6650     1.3720    -1.5950 C.3   1 <1>   0.3430 
 18 O       -2.1260    -3.7500    -0.1590 O.3   1 <1>  -0.3630 
 19 C       -2.8680    -1.6410    -1.0170 C.ar  1 <1>   0.0830 
 20 C        1.9490     3.6010    -0.9230 C.3   1 <1>   0.2630 
 21 O        4.7860     0.3610     0.6380 O.3   1 <1>  -0.5600 
 22 C       -3.2570    -4.3380    -0.7750 C.3   1 <1>   0.1200 
 23 O       -3.7250    -2.2330    -1.8840 O.3   1 <1>  -0.3630 
 24 C       -3.5740    -3.6250    -2.0970 C.3   1 <1>   0.1200 
 25 H        1.8300     2.5030     1.9970 H     1 <1>   0.0800 
 26 H        2.8430     1.1410     2.2840 H     1 <1>   0.0800 
 27 H        2.6010    -0.8610     1.0020 H     1 <1>   0.0800 
 28 H        1.3220    -1.0100    -0.1540 H     1 <1>   0.0800 
 29 H       -0.5700    -2.3700     1.3420 H     1 <1>   0.1500 
 30 H       -1.8600     1.4350    -0.0950 H     1 <1>   0.1500 
 31 H        3.5760     3.3930     1.0490 H     1 <1>   0.0800 
 32 H        2.8070    -0.7140    -1.7100 H     1 <1>   0.0800 
 33 H       -3.4290     0.3160    -1.6310 H     1 <1>   0.1500 
 34 H        3.8870     3.0060    -1.3040 H     1 <1>   0.4500 
 35 H        5.2040     1.9360     1.7650 H     1 <1>   0.0800 
 36 H        5.5450     2.1460     0.0720 H     1 <1>   0.0800 
 37 H        5.1350     0.3200    -1.3530 H     1 <1>   0.0800 
 38 H        4.7390    -1.1950    -0.5870 H     1 <1>   0.0800 
 39 H        1.5970     1.3870    -1.7430 H     1 <1>   0.0800 
 40 H        3.1170     1.4090    -2.5730 H     1 <1>   0.0800 
 41 H        1.0690     3.2140    -0.4330 H     1 <1>   0.0800 
 42 H        1.7080     3.8030    -1.9540 H     1 <1>   0.0800 
 43 H        2.2270     4.5280    -0.4480 H     1 <1>   0.0800 
 44 H       -3.0410    -5.3780    -0.9420 H     1 <1>   0.0800 
 45 H       -4.0890    -4.2550    -0.0970 H     1 <1>   0.0800 
 46 H       -4.4890    -3.9960    -2.5220 H     1 <1>   0.0800 
 47 H       -2.7740    -3.7700    -2.8010 H     1 <1>   0.0800 
@<TRIPOS>BOND
  1   1   2  2   
  2   1   3  2   
  3   1   4  am  
  4   1   5  1   
  5   4   6  1   
  6   4   7  1   
  7   5   8  ar  
  8   5   9  ar  
  9   6  10  1   
 10   6  25  1   
 11   6  26  1   
 12   7  11  1   
 13   7  27  1   
 14   7  28  1   
 15   8  12  ar  
 16   8  29  1   
 17   9  13  ar  
 18   9  30  1   
 19  10  14  1   
 20  10  15  1   
 21  10  31  1   
 22  11  16  1   
 23  11  17  1   
 24  11  32  1   
 25  12  18  1   
 26  12  19  ar  
 27  13  19  ar  
 28  13  33  1   
 29  14  17  1   
 30  14  20  1   
 31  14  34  1   
 32  15  21  1   
 33  15  35  1   
 34  15  36  1   
 35  16  21  1   
 36  16  37  1   
 37  16  38  1   
 38  17  39  1   
 39  17  40  1   
 40  18  22  1   
 41  19  23  1   
 42  20  41  1   
 43  20  42  1   
 44  20  43  1   
 45  22  24  1   
 46  22  44  1   
 47  22  45  1   
 48  23  24  1   
 49  24  46  1   
 50  24  47  1   
@<TRIPOS>SUBSTRUCTURE
  1 ****   4 GROUP 4 **** **** 0

# MOE 2024.06 (io_trps.svl 2023.06)
