@<TRIPOS>MOLECULE
NONAME
47 50 1 0 0 
SMALL
USER_CHARGES


@<TRIPOS>ATOM
  1 O        0.0680     0.5950    -0.0670 O.2   1 <1>  -0.5700 
  2 C       -0.5240     1.6000     0.2510 C.2   1 <1>   0.5690 
  3 N       -1.8960     1.6500     0.2740 N.am  1 <1>  -0.6600 
  4 C        0.2920     2.8310     0.6210 C.3   1 <1>  -0.0990 
  5 C       -2.7170     2.8480     0.6460 C.3   1 <1>   0.1400 
  6 C       -2.7200     0.4640    -0.0980 C.3   1 <1>   0.1400 
  7 C        1.8090     2.6230     0.5180 C.3   1 <1>   0.0210 
  8 C       -3.6500     3.2590    -0.5100 C.3   1 <1>   0.1440 
  9 C       -3.6620     0.8220    -1.2550 C.3   1 <1>  -0.1600 
 10 C        2.5400     3.9080     0.8580 C.2   1 <1>  -0.1810 
 11 C       -4.4780     4.4480    -0.0570 C.ar  1 <1>   0.1660 
 12 C       -4.5220     2.0560    -0.9300 C.3   1 <1>  -0.1600 
 13 C       -2.8560     3.8480    -1.7080 C.3   1 <1>  -0.1600 
 14 C        2.6660     5.0320     0.0460 C.2   1 <1>   0.1390 
 15 C        3.2050     4.2270     1.9880 C.2   1 <1>  -0.3020 
 16 N       -5.4780     4.4010     0.7960 N.ar  1 <1>  -0.6200 
 17 C       -4.0490     5.6070    -0.6310 C.ar  1 <1>  -0.1440 
 18 C       -2.8770     5.3790    -1.5520 C.3   1 <1>  -0.0170 
 19 N        3.3450     5.9790     0.6180 N.2   1 <1>  -0.7070 
 20 N        3.6830     5.4770     1.8210 N.pl3 1 <1>   0.3000 
 21 C       -6.0450     5.5750     1.0400 C.ar  1 <1>   0.4770 
 22 C       -4.7060     6.7660    -0.3030 C.ar  1 <1>   0.1600 
 23 N       -5.7180     6.7600     0.5400 N.ar  1 <1>  -0.6200 
 24 C       -7.2070     5.5660     2.0040 C.3   1 <1>  -0.0970 
 25 H        0.0530     3.1090     1.6310 H     1 <1>   0.0800 
 26 H        0.0100     3.6350    -0.0310 H     1 <1>   0.0800 
 27 H       -2.0990     3.6830     0.9190 H     1 <1>   0.0800 
 28 H       -3.3170     2.5990     1.5050 H     1 <1>   0.0800 
 29 H       -3.2940     0.1570     0.7590 H     1 <1>   0.0800 
 30 H       -2.0930    -0.3630    -0.3880 H     1 <1>   0.0800 
 31 H        2.0740     2.3160    -0.4790 H     1 <1>   0.0800 
 32 H        2.1150     1.8450     1.1960 H     1 <1>   0.0800 
 33 H       -4.3020    -0.0180    -1.4580 H     1 <1>   0.0800 
 34 H       -3.0730     1.0010    -2.1370 H     1 <1>   0.0800 
 35 H       -5.1340     2.3170    -1.7750 H     1 <1>   0.0800 
 36 H       -5.1860     1.8090    -0.1190 H     1 <1>   0.0800 
 37 H       -3.3620     3.6030    -2.6250 H     1 <1>   0.0800 
 38 H       -1.8530     3.4660    -1.7710 H     1 <1>   0.0800 
 39 H        2.2530     5.1170    -0.9450 H     1 <1>   0.1500 
 40 H        3.3630     3.6510     2.8810 H     1 <1>   0.1500 
 41 H       -3.0130     5.8710    -2.5000 H     1 <1>   0.0800 
 42 H       -1.9730     5.7280    -1.0830 H     1 <1>   0.0800 
 43 H        4.2380     6.0110     2.5000 H     1 <1>   0.2700 
 44 H       -4.4040     7.7060    -0.7310 H     1 <1>   0.1500 
 45 H       -7.1820     4.6810     2.6110 H     1 <1>   0.0800 
 46 H       -8.1250     5.5890     1.4490 H     1 <1>   0.0800 
 47 H       -7.1580     6.4290     2.6420 H     1 <1>   0.0800 
@<TRIPOS>BOND
  1   1   2  2   
  2   2   3  am  
  3   2   4  1   
  4   3   5  1   
  5   3   6  1   
  6   4   7  1   
  7   4  25  1   
  8   4  26  1   
  9   5   8  1   
 10   5  27  1   
 11   5  28  1   
 12   6   9  1   
 13   6  29  1   
 14   6  30  1   
 15   7  10  1   
 16   7  31  1   
 17   7  32  1   
 18   8  11  1   
 19   8  12  1   
 20   8  13  1   
 21   9  12  1   
 22   9  33  1   
 23   9  34  1   
 24  10  14  1   
 25  10  15  2   
 26  11  16  ar  
 27  11  17  ar  
 28  12  35  1   
 29  12  36  1   
 30  13  18  1   
 31  13  37  1   
 32  13  38  1   
 33  14  19  2   
 34  14  39  1   
 35  15  20  1   
 36  15  40  1   
 37  16  21  ar  
 38  17  18  1   
 39  17  22  ar  
 40  18  41  1   
 41  18  42  1   
 42  19  20  1   
 43  20  43  1   
 44  21  23  ar  
 45  21  24  1   
 46  22  23  ar  
 47  22  44  1   
 48  24  45  1   
 49  24  46  1   
 50  24  47  1   
@<TRIPOS>SUBSTRUCTURE
  1 ****   5 GROUP 4 **** **** 0

# MOE 2024.06 (io_trps.svl 2023.06)
