@<TRIPOS>MOLECULE
NONAME
55 58 1 0 0 
SMALL
USER_CHARGES


@<TRIPOS>ATOM
  1 CL      -3.0080    -2.4450     1.3910 Cl    1 <1>  -0.1770 
  2 C       -4.2020    -1.2410     0.9900 C.ar  1 <1>   0.1770 
  3 C       -4.8040    -1.2700    -0.2540 C.ar  1 <1>  -0.1500 
  4 C       -4.5350    -0.2750     1.9190 C.ar  1 <1>  -0.1500 
  5 C       -5.7600    -0.3200    -0.5640 C.ar  1 <1>  -0.1500 
  6 C       -5.4930     0.6710     1.5990 C.ar  1 <1>  -0.1500 
  7 C       -6.1330     0.6620     0.3570 C.ar  1 <1>   0.0530 
  8 C       -7.1520     1.6280     0.0430 C.2   1 <1>   0.0870 
  9 O       -7.0580     2.8670     0.4520 O.3   1 <1>  -0.0190 
 10 C       -8.3020     1.5330    -0.6720 C.2   1 <1>  -0.0860 
 11 N       -8.0510     3.6130     0.0400 N.2   1 <1>  -0.4100 
 12 C       -8.8060     2.8320    -0.6490 C.2   1 <1>   0.3720 
 13 C       -8.9220     0.4200    -1.3170 C.2   1 <1>   0.7160 
 14 N       -9.9770     3.2170    -1.2930 N.pl3 1 <1>  -0.8520 
 15 O       -9.3010     0.5370    -2.4710 O.2   1 <1>  -0.5700 
 16 N       -9.0950    -0.7860    -0.6730 N.am  1 <1>  -0.6600 
 17 C      -10.0770     4.6360    -1.7280 C.3   1 <1>   0.2090 
 18 C       -9.4290    -2.0330    -1.4090 C.3   1 <1>   0.1400 
 19 C       -9.2630    -0.9070     0.8020 C.3   1 <1>   0.1400 
 20 C      -11.4860     4.9200    -2.2480 C.3   1 <1>   0.1200 
 21 C       -8.5150    -3.1600    -0.9230 C.3   1 <1>  -0.1600 
 22 C       -8.3740    -2.0320     1.3400 C.3   1 <1>  -0.1600 
 23 O      -11.5360     6.2280    -2.7290 O.3   1 <1>  -0.5600 
 24 C       -8.6070    -3.3540     0.5990 C.3   1 <1>   0.2800 
 25 C      -12.7870     6.6030    -3.2060 C.3   1 <1>   0.0400 
 26 O       -9.9040    -3.7860     0.8800 O.3   1 <1>  -0.5600 
 27 C       -7.6790    -4.4700     1.0880 C.3   1 <1>  -0.1600 
 28 C       -9.9370    -5.0840     1.3860 C.3   1 <1>   0.1200 
 29 C       -8.5750    -5.6900     1.0900 C.3   1 <1>  -0.1600 
 30 H       -4.5230    -2.0260    -0.9650 H     1 <1>   0.1500 
 31 H       -4.0490    -0.2670     2.8780 H     1 <1>   0.1500 
 32 H       -6.2260    -0.3400    -1.5340 H     1 <1>   0.1500 
 33 H       -5.7560     1.4270     2.3200 H     1 <1>   0.1500 
 34 H      -10.1770     2.5700    -2.0690 H     1 <1>   0.4000 
 35 H       -9.3580     4.8230    -2.5070 H     1 <1>   0.0800 
 36 H       -9.8720     5.2860    -0.8950 H     1 <1>   0.0800 
 37 H       -9.3010    -1.8950    -2.4690 H     1 <1>   0.0800 
 38 H      -10.4590    -2.2890    -1.2240 H     1 <1>   0.0800 
 39 H      -10.2940    -1.1390     1.0130 H     1 <1>   0.0800 
 40 H       -9.0250     0.0180     1.2990 H     1 <1>   0.0800 
 41 H      -12.1990     4.8170    -1.4480 H     1 <1>   0.0800 
 42 H      -11.7270     4.2510    -3.0550 H     1 <1>   0.0800 
 43 H       -7.5040    -2.9190    -1.1950 H     1 <1>   0.0800 
 44 H       -8.7780    -4.0740    -1.4220 H     1 <1>   0.0800 
 45 H       -8.5690    -2.1690     2.3880 H     1 <1>   0.0800 
 46 H       -7.3460    -1.7460     1.2400 H     1 <1>   0.0800 
 47 H      -12.7220     7.6200    -3.5510 H     1 <1>   0.0800 
 48 H      -13.5060     6.5370    -2.4070 H     1 <1>   0.0800 
 49 H      -13.0650     5.9590    -4.0220 H     1 <1>   0.0800 
 50 H       -7.3510    -4.2610     2.0920 H     1 <1>   0.0800 
 51 H       -6.8120    -4.5930     0.4640 H     1 <1>   0.0800 
 52 H      -10.7410    -5.6260     0.9200 H     1 <1>   0.0800 
 53 H      -10.1050    -5.0150     2.4480 H     1 <1>   0.0800 
 54 H       -8.2880    -6.4190     1.8270 H     1 <1>   0.0800 
 55 H       -8.5930    -6.1510     0.1180 H     1 <1>   0.0800 
@<TRIPOS>BOND
  1   1   2  1   
  2   2   3  ar  
  3   2   4  ar  
  4   3   5  ar  
  5   3  30  1   
  6   4   6  ar  
  7   4  31  1   
  8   5   7  ar  
  9   5  32  1   
 10   6   7  ar  
 11   6  33  1   
 12   7   8  1   
 13   8   9  1   
 14   8  10  2   
 15   9  11  1   
 16  10  12  1   
 17  10  13  1   
 18  11  12  2   
 19  12  14  1   
 20  13  15  2   
 21  13  16  am  
 22  14  17  1   
 23  14  34  1   
 24  16  18  1   
 25  16  19  1   
 26  17  20  1   
 27  17  35  1   
 28  17  36  1   
 29  18  21  1   
 30  18  37  1   
 31  18  38  1   
 32  19  22  1   
 33  19  39  1   
 34  19  40  1   
 35  20  23  1   
 36  20  41  1   
 37  20  42  1   
 38  21  24  1   
 39  21  43  1   
 40  21  44  1   
 41  22  24  1   
 42  22  45  1   
 43  22  46  1   
 44  23  25  1   
 45  24  26  1   
 46  24  27  1   
 47  25  47  1   
 48  25  48  1   
 49  25  49  1   
 50  26  28  1   
 51  27  29  1   
 52  27  50  1   
 53  27  51  1   
 54  28  29  1   
 55  28  52  1   
 56  28  53  1   
 57  29  54  1   
 58  29  55  1   
@<TRIPOS>SUBSTRUCTURE
  1 ****  13 GROUP 4 **** **** 0

# MOE 2024.06 (io_trps.svl 2023.06)
