@<TRIPOS>MOLECULE
NONAME
25 26 1 0 0 
SMALL
USER_CHARGES


@<TRIPOS>ATOM
  1 O        0.3890     0.1840     0.6020 O.2   1 <1>  -0.5700 
  2 C        1.2870     0.8740     0.1920 C.2   1 <1>   0.4230 
  3 C        1.2550     2.3240     0.1590 C.ar  1 <1>   0.0860 
  4 C        2.5120     0.1370    -0.3160 C.3   1 <1>  -0.1790 
  5 C        0.0570     3.0490     0.1190 C.ar  1 <1>  -0.1440 
  6 C        2.4340     3.0850     0.1670 C.ar  1 <1>  -0.1500 
  7 C        0.0360     4.4210     0.0870 C.ar  1 <1>  -0.1430 
  8 C       -1.3560     2.5030     0.1020 C.3   1 <1>  -0.0160 
  9 C        2.4200     4.4700     0.1340 C.ar  1 <1>  -0.1500 
 10 C        1.2130     5.1480     0.0930 C.ar  1 <1>   0.0820 
 11 C       -1.3710     4.9650     0.0510 C.3   1 <1>  -0.0160 
 12 C       -2.2280     3.7230    -0.2360 C.3   1 <1>  -0.1600 
 13 O        1.1840     6.4860     0.0620 O.3   1 <1>  -0.5320 
 14 H        2.8940     0.6110    -1.2010 H     1 <1>   0.0800 
 15 H        2.2490    -0.8760    -0.5590 H     1 <1>   0.0800 
 16 H        3.2680     0.1220     0.4460 H     1 <1>   0.0800 
 17 H        3.3870     2.5910     0.2090 H     1 <1>   0.1500 
 18 H       -1.6010     2.1170     1.0760 H     1 <1>   0.0800 
 19 H       -1.4730     1.7250    -0.6320 H     1 <1>   0.0800 
 20 H        3.3460     5.0160     0.1420 H     1 <1>   0.1500 
 21 H       -1.4840     5.7120    -0.7150 H     1 <1>   0.0800 
 22 H       -1.6140     5.3870     1.0100 H     1 <1>   0.0800 
 23 H       -3.1420     3.7290     0.3300 H     1 <1>   0.0800 
 24 H       -2.4640     3.7000    -1.2850 H     1 <1>   0.0800 
 25 H        2.0640     6.9000     0.0760 H     1 <1>   0.4500 
@<TRIPOS>BOND
  1   1   2  2   
  2   2   3  1   
  3   2   4  1   
  4   3   5  ar  
  5   3   6  ar  
  6   4  14  1   
  7   4  15  1   
  8   4  16  1   
  9   5   7  ar  
 10   5   8  1   
 11   6   9  ar  
 12   6  17  1   
 13   7  10  ar  
 14   7  11  1   
 15   8  12  1   
 16   8  18  1   
 17   8  19  1   
 18   9  10  ar  
 19   9  20  1   
 20  10  13  1   
 21  11  12  1   
 22  11  21  1   
 23  11  22  1   
 24  12  23  1   
 25  12  24  1   
 26  13  25  1   
@<TRIPOS>SUBSTRUCTURE
  1 ****   5 GROUP 4 **** **** 0

# MOE 2024.06 (io_trps.svl 2023.06)
