@<TRIPOS>MOLECULE
NONAME
45 47 1 0 0 
SMALL
USER_CHARGES


@<TRIPOS>ATOM
  1 O        1.1670     1.4510     1.0360 O.3   1 <1>  -0.6800 
  2 C        1.5560     2.5450     1.8050 C.3   1 <1>   0.3000 
  3 C        1.3980     3.8420     1.0220 C.2   1 <1>   0.0070 
  4 N        2.2790     4.7840     1.0440 N.2   1 <1>  -0.3380 
  5 N        0.3550     4.1640     0.2430 N.pl3 1 <1>   0.0480 
  6 N        1.8340     5.7590     0.2610 N.2   1 <1>  -0.3380 
  7 C        0.6980     5.3760    -0.2150 C.2   1 <1>   0.0070 
  8 C       -0.8590     3.3660    -0.0370 C.3   1 <1>   0.0160 
  9 C       -0.1230     6.2250    -1.1780 C.3   1 <1>   0.1000 
 10 C        0.8320     7.1530    -1.9580 C.3   1 <1>   0.3430 
 11 C       -1.1990     7.0180    -0.3970 C.3   1 <1>  -0.1600 
 12 N        1.1860     8.3310    -1.1120 N.4   1 <1>  -0.9590 
 13 C       -1.3120     8.4770    -0.8760 C.3   1 <1>  -0.1600 
 14 C        0.0280     9.2300    -0.8090 C.3   1 <1>   0.3430 
 15 C        2.4170     9.0530    -1.5660 C.3   1 <1>   0.4860 
 16 C        2.8200    10.1640    -0.5980 C.ar  1 <1>   0.1670 
 17 N        2.6940     9.9250     0.7010 N.ar  1 <1>  -0.6200 
 18 C        3.2930    11.3680    -1.1120 C.ar  1 <1>   0.1600 
 19 C        3.0820    10.9540     1.4390 C.ar  1 <1>   0.1600 
 20 N        3.6640    12.3970    -0.3750 N.ar  1 <1>  -0.6200 
 21 C        3.5530    12.1580     0.9200 C.ar  1 <1>   0.1670 
 22 C        3.9730    13.2860     1.8400 C.3   1 <1>  -0.0970 
 23 H        1.4660     0.6220     1.4570 H     1 <1>   0.4000 
 24 H        2.5890     2.4130     2.0790 H     1 <1>   0.0800 
 25 H        0.9520     2.5690     2.6950 H     1 <1>   0.0800 
 26 H       -1.1710     2.8630     0.8600 H     1 <1>   0.0800 
 27 H       -0.6320     2.6320    -0.7890 H     1 <1>   0.0800 
 28 H       -1.6550     4.0010    -0.3770 H     1 <1>   0.0800 
 29 H       -0.5950     5.5770    -1.8950 H     1 <1>   0.0800 
 30 H        0.3540     7.4880    -2.8640 H     1 <1>   0.0800 
 31 H        1.7190     6.5990    -2.2180 H     1 <1>   0.0800 
 32 H       -0.9460     7.0310     0.6510 H     1 <1>   0.0800 
 33 H       -2.1530     6.5270    -0.4880 H     1 <1>   0.0800 
 34 H        1.4730     7.9250    -0.1960 H     1 <1>   0.4500 
 35 H       -2.0350     9.0020    -0.2760 H     1 <1>   0.0800 
 36 H       -1.6750     8.4970    -1.8900 H     1 <1>   0.0800 
 37 H        0.0030    10.0550    -1.5020 H     1 <1>   0.0800 
 38 H        0.1590     9.6370     0.1820 H     1 <1>   0.0800 
 39 H        2.2550     9.4710    -2.5440 H     1 <1>   0.0800 
 40 H        3.2320     8.3510    -1.6270 H     1 <1>   0.0800 
 41 H        3.3730    11.4960    -2.1780 H     1 <1>   0.1500 
 42 H        3.0250    10.8380     2.5070 H     1 <1>   0.1500 
 43 H        3.8530    13.0140     2.8730 H     1 <1>   0.0800 
 44 H        3.3770    14.1570     1.6380 H     1 <1>   0.0800 
 45 H        5.0060    13.5280     1.6630 H     1 <1>   0.0800 
@<TRIPOS>BOND
  1   1   2  1   
  2   1  23  1   
  3   2   3  1   
  4   2  24  1   
  5   2  25  1   
  6   3   4  2   
  7   3   5  1   
  8   4   6  1   
  9   5   7  1   
 10   5   8  1   
 11   6   7  2   
 12   7   9  1   
 13   8  26  1   
 14   8  27  1   
 15   8  28  1   
 16   9  10  1   
 17   9  11  1   
 18   9  29  1   
 19  10  12  1   
 20  10  30  1   
 21  10  31  1   
 22  11  13  1   
 23  11  32  1   
 24  11  33  1   
 25  12  14  1   
 26  12  15  1   
 27  12  34  1   
 28  13  14  1   
 29  13  35  1   
 30  13  36  1   
 31  14  37  1   
 32  14  38  1   
 33  15  16  1   
 34  15  39  1   
 35  15  40  1   
 36  16  17  ar  
 37  16  18  ar  
 38  17  19  ar  
 39  18  20  ar  
 40  18  41  1   
 41  19  21  ar  
 42  19  42  1   
 43  20  21  ar  
 44  21  22  1   
 45  22  43  1   
 46  22  44  1   
 47  22  45  1   
@<TRIPOS>SUBSTRUCTURE
  1 ****  12 GROUP 4 **** **** 0

# MOE 2024.06 (io_trps.svl 2023.06)
