@<TRIPOS>MOLECULE
NONAME
57 61 1 0 0 
SMALL
USER_CHARGES


@<TRIPOS>ATOM
  1 O       -1.1330    -2.1710    -2.7090 O.2   1 <1>  -0.5700 
  2 C       -0.3230    -2.6260    -1.9360 C.2   1 <1>   0.5690 
  3 N       -0.6010    -3.6500    -1.0710 N.am  1 <1>  -0.6600 
  4 C        1.0740    -2.0410    -1.9040 C.3   1 <1>  -0.0990 
  5 C        0.4370    -4.1400    -0.1310 C.3   1 <1>   0.1400 
  6 C       -1.9430    -4.2850    -0.9840 C.3   1 <1>   0.0600 
  7 C        2.1290    -3.1610    -1.8510 C.3   1 <1>  -0.0800 
  8 C        1.7860    -4.2950    -0.8610 C.3   1 <1>  -0.0800 
  9 C        3.5250    -2.6600    -1.4640 C.3   1 <1>  -0.1600 
 10 C        2.9770    -4.3780     0.1020 C.3   1 <1>  -0.1600 
 11 C        4.1620    -3.8060    -0.6790 C.3   1 <1>   0.2200 
 12 N        5.2850    -3.3250     0.1830 N.am  1 <1>  -0.6600 
 13 C        6.3370    -2.6300    -0.3820 C.2   1 <1>   0.5440 
 14 C        5.4920    -4.0160     1.4910 C.3   1 <1>   0.0600 
 15 O        6.5850    -2.8130    -1.5630 O.2   1 <1>  -0.5700 
 16 C        7.1590    -1.7250     0.4070 C.ar  1 <1>   0.0860 
 17 C        8.5190    -1.5250     0.1060 C.ar  1 <1>  -0.1520 
 18 C        6.6640    -1.0150     1.4940 C.ar  1 <1>  -0.1500 
 19 N        9.2650    -2.0520    -0.9170 N.pl3 1 <1>   0.0330 
 20 C        9.3400    -0.6990     0.8690 C.ar  1 <1>   0.0000 
 21 C        7.4720    -0.1760     2.2650 C.ar  1 <1>  -0.1500 
 22 C       10.5410    -1.5770    -0.7980 C.2   1 <1>  -0.3320 
 23 C       10.6200    -0.7640     0.2770 C.2   1 <1>  -0.1810 
 24 C        8.8050    -0.0180     1.9630 C.ar  1 <1>  -0.1500 
 25 C       11.6910    -1.9120    -1.7270 C.3   1 <1>   0.0200 
 26 C       11.8890    -0.0610     0.7150 C.3   1 <1>   0.0210 
 27 C       12.8560    -0.9330    -1.4860 C.3   1 <1>  -0.1600 
 28 C       13.1110    -0.6890     0.0160 C.3   1 <1>  -0.1600 
 29 H        1.2300    -1.4290    -2.7740 H     1 <1>   0.0800 
 30 H        1.1440    -1.4140    -1.0340 H     1 <1>   0.0800 
 31 H        0.5280    -3.4250     0.6690 H     1 <1>   0.0800 
 32 H        0.1430    -5.0850     0.2900 H     1 <1>   0.0800 
 33 H       -1.8630    -5.3340    -1.2060 H     1 <1>   0.0800 
 34 H       -2.6210    -3.8350    -1.6890 H     1 <1>   0.0800 
 35 H       -2.3420    -4.1580     0.0070 H     1 <1>   0.0800 
 36 H        2.1880    -3.6020    -2.8330 H     1 <1>   0.0800 
 37 H        1.7470    -5.2140    -1.4220 H     1 <1>   0.0800 
 38 H        3.4480    -1.7970    -0.8250 H     1 <1>   0.0800 
 39 H        4.1020    -2.4080    -2.3360 H     1 <1>   0.0800 
 40 H        3.1550    -5.3910     0.4150 H     1 <1>   0.0800 
 41 H        2.7850    -3.7550     0.9580 H     1 <1>   0.0800 
 42 H        4.5320    -4.5480    -1.3680 H     1 <1>   0.0800 
 43 H        4.7790    -3.6560     2.2130 H     1 <1>   0.0800 
 44 H        6.4840    -3.8330     1.8660 H     1 <1>   0.0800 
 45 H        5.3730    -5.0780     1.3690 H     1 <1>   0.0800 
 46 H        5.6250    -1.1100     1.7540 H     1 <1>   0.1500 
 47 H        8.8740    -2.6520    -1.6540 H     1 <1>   0.2700 
 48 H        7.0430     0.3500     3.1000 H     1 <1>   0.1500 
 49 H        9.4420     0.6220     2.5460 H     1 <1>   0.1500 
 50 H       12.0140    -2.9190    -1.5310 H     1 <1>   0.0800 
 51 H       11.3720    -1.8480    -2.7520 H     1 <1>   0.0800 
 52 H       11.8120     0.9790     0.4520 H     1 <1>   0.0800 
 53 H       12.0000    -0.1370     1.7810 H     1 <1>   0.0800 
 54 H       13.7460    -1.3170    -1.9520 H     1 <1>   0.0800 
 55 H       12.6180     0.0070    -1.9520 H     1 <1>   0.0800 
 56 H       13.9650    -0.0460     0.1440 H     1 <1>   0.0800 
 57 H       13.3320    -1.6310     0.4870 H     1 <1>   0.0800 
@<TRIPOS>BOND
  1   1   2  2   
  2   2   3  am  
  3   2   4  1   
  4   3   5  1   
  5   3   6  1   
  6   4   7  1   
  7   4  29  1   
  8   4  30  1   
  9   5   8  1   
 10   5  31  1   
 11   5  32  1   
 12   6  33  1   
 13   6  34  1   
 14   6  35  1   
 15   7   8  1   
 16   7   9  1   
 17   7  36  1   
 18   8  10  1   
 19   8  37  1   
 20   9  11  1   
 21   9  38  1   
 22   9  39  1   
 23  10  11  1   
 24  10  40  1   
 25  10  41  1   
 26  11  12  1   
 27  11  42  1   
 28  12  13  am  
 29  12  14  1   
 30  13  15  2   
 31  13  16  1   
 32  14  43  1   
 33  14  44  1   
 34  14  45  1   
 35  16  17  ar  
 36  16  18  ar  
 37  17  19  1   
 38  17  20  ar  
 39  18  21  ar  
 40  18  46  1   
 41  19  22  1   
 42  19  47  1   
 43  20  23  1   
 44  20  24  ar  
 45  21  24  ar  
 46  21  48  1   
 47  22  23  2   
 48  22  25  1   
 49  23  26  1   
 50  24  49  1   
 51  25  27  1   
 52  25  50  1   
 53  25  51  1   
 54  26  28  1   
 55  26  52  1   
 56  26  53  1   
 57  27  28  1   
 58  27  54  1   
 59  27  55  1   
 60  28  56  1   
 61  28  57  1   
@<TRIPOS>SUBSTRUCTURE
  1 ****  13 GROUP 4 **** **** 0

# MOE 2024.06 (io_trps.svl 2023.06)
