@<TRIPOS>MOLECULE
NONAME
49 50 1 0 0 
SMALL
USER_CHARGES


@<TRIPOS>ATOM
  1 O        0.9320     2.4720    -0.9120 O.2   1 <1>  -0.5700 
  2 C        0.1830     3.3990    -0.7310 C.2   1 <1>   0.5690 
  3 N       -0.8440     3.2960     0.1390 N.am  1 <1>  -0.7300 
  4 C        0.3940     4.7100    -1.4910 C.3   1 <1>   0.1810 
  5 C       -1.8820     4.3400     0.3040 C.3   1 <1>   0.3640 
  6 O       -0.7770     5.5050    -1.5780 O.3   1 <1>  -0.5600 
  7 C       -3.1890     3.8170    -0.2850 C.ar  1 <1>  -0.1440 
  8 C       -1.4760     5.6940    -0.3460 C.3   1 <1>   0.2610 
  9 C       -4.3240     3.7470     0.5130 C.ar  1 <1>  -0.1500 
 10 C       -3.2740     3.4130    -1.6100 C.ar  1 <1>  -0.1500 
 11 C       -0.6960     6.6050     0.6140 C.2   1 <1>   0.5690 
 12 C       -5.5200     3.2830    -0.0050 C.ar  1 <1>  -0.1500 
 13 C       -4.4690     2.9480    -2.1300 C.ar  1 <1>  -0.1500 
 14 O       -0.8690     6.5020     1.8060 O.2   1 <1>  -0.5700 
 15 N        0.1500     7.5230     0.0660 N.am  1 <1>  -0.7300 
 16 C       -5.5940     2.8830    -1.3270 C.ar  1 <1>  -0.1500 
 17 C        1.0690     8.5010     0.6800 C.3   1 <1>   0.3000 
 18 C        1.8180     9.2610    -0.4950 C.3   1 <1>   0.0000 
 19 C        2.0320     7.7220     1.5920 C.3   1 <1>  -0.2400 
 20 C        0.2250     9.4440     1.5550 C.3   1 <1>  -0.2400 
 21 C        2.6040     8.2890    -1.4080 C.3   1 <1>  -0.2400 
 22 C        0.8320    10.0260    -1.4090 C.3   1 <1>  -0.2400 
 23 C        2.8390    10.3010     0.0180 C.3   1 <1>  -0.2400 
 24 H       -1.0340     2.3840     0.5550 H     1 <1>   0.3700 
 25 H        0.7110     4.4890    -2.4930 H     1 <1>   0.0800 
 26 H        1.1650     5.2770    -1.0040 H     1 <1>   0.0800 
 27 H       -2.0390     4.4870     1.3580 H     1 <1>   0.0800 
 28 H       -2.3790     6.2230    -0.5870 H     1 <1>   0.0800 
 29 H       -4.2870     4.0540     1.5440 H     1 <1>   0.1500 
 30 H       -2.4070     3.4570    -2.2480 H     1 <1>   0.1500 
 31 H       -6.3950     3.2320     0.6200 H     1 <1>   0.1500 
 32 H       -4.5230     2.6360    -3.1590 H     1 <1>   0.1500 
 33 H        0.1970     7.5390    -0.9540 H     1 <1>   0.3700 
 34 H       -6.5240     2.5220    -1.7310 H     1 <1>   0.1500 
 35 H        2.7460     8.3810     2.0470 H     1 <1>   0.0800 
 36 H        2.5600     6.9620     1.0480 H     1 <1>   0.0800 
 37 H        1.4950     7.2440     2.3910 H     1 <1>   0.0800 
 38 H        0.8360    10.2070     1.9960 H     1 <1>   0.0800 
 39 H       -0.2320     8.9020     2.3630 H     1 <1>   0.0800 
 40 H       -0.5560     9.9100     0.9860 H     1 <1>   0.0800 
 41 H        3.0760     8.8280    -2.2110 H     1 <1>   0.0800 
 42 H        1.9610     7.5510    -1.8490 H     1 <1>   0.0800 
 43 H        3.3800     7.7850    -0.8630 H     1 <1>   0.0800 
 44 H        1.3550    10.4820    -2.2310 H     1 <1>   0.0800 
 45 H        0.3370    10.8130    -0.8720 H     1 <1>   0.0800 
 46 H        0.0840     9.3730    -1.8200 H     1 <1>   0.0800 
 47 H        3.3130    10.8000    -0.8080 H     1 <1>   0.0800 
 48 H        3.6140     9.8370     0.6000 H     1 <1>   0.0800 
 49 H        2.3640    11.0550     0.6180 H     1 <1>   0.0800 
@<TRIPOS>BOND
  1   1   2  2   
  2   2   3  am  
  3   2   4  1   
  4   3   5  1   
  5   3  24  1   
  6   4   6  1   
  7   4  25  1   
  8   4  26  1   
  9   5   7  1   
 10   5   8  1   
 11   5  27  1   
 12   6   8  1   
 13   7   9  ar  
 14   7  10  ar  
 15   8  11  1   
 16   8  28  1   
 17   9  12  ar  
 18   9  29  1   
 19  10  13  ar  
 20  10  30  1   
 21  11  14  2   
 22  11  15  am  
 23  12  16  ar  
 24  12  31  1   
 25  13  16  ar  
 26  13  32  1   
 27  15  17  1   
 28  15  33  1   
 29  16  34  1   
 30  17  18  1   
 31  17  19  1   
 32  17  20  1   
 33  18  21  1   
 34  18  22  1   
 35  18  23  1   
 36  19  35  1   
 37  19  36  1   
 38  19  37  1   
 39  20  38  1   
 40  20  39  1   
 41  20  40  1   
 42  21  41  1   
 43  21  42  1   
 44  21  43  1   
 45  22  44  1   
 46  22  45  1   
 47  22  46  1   
 48  23  47  1   
 49  23  48  1   
 50  23  49  1   
@<TRIPOS>SUBSTRUCTURE
  1 ****   8 GROUP 4 **** **** 0

# MOE 2024.06 (io_trps.svl 2023.06)
