@<TRIPOS>MOLECULE
NONAME
46 48 1 0 0 
SMALL
USER_CHARGES


@<TRIPOS>ATOM
  1 O       -1.3380    -0.0570     0.7160 O.2   1 <1>  -0.5700 
  2 C       -1.9190     0.8190     0.0990 C.2   1 <1>   0.5440 
  3 N       -2.9830     0.4310    -0.6880 N.am  1 <1>  -0.6600 
  4 C       -1.5190     2.2100     0.2340 C.ar  1 <1>   0.0860 
  5 C       -3.1040    -0.9950    -1.0820 C.3   1 <1>   0.1400 
  6 C       -4.2890     1.1360    -0.5930 C.3   1 <1>   0.1400 
  7 C       -1.6390     3.1150    -0.8220 C.ar  1 <1>  -0.1500 
  8 C       -0.9920     2.6930     1.4330 C.ar  1 <1>  -0.1500 
  9 C       -3.9190    -1.7360     0.0010 C.3   1 <1>   0.4230 
 10 C       -5.1430     0.4230     0.4670 C.3   1 <1>  -0.1600 
 11 C       -1.2680     4.4400    -0.6850 C.ar  1 <1>  -0.1500 
 12 C       -0.6180     4.0170     1.5770 C.ar  1 <1>  -0.1500 
 13 N       -3.9310    -3.2490    -0.1590 N.4   1 <1>  -0.9590 
 14 C       -5.3300    -1.1020     0.2030 C.3   1 <1>   0.0000 
 15 C       -0.7580     4.8950     0.5170 C.ar  1 <1>  -0.1500 
 16 C       -5.0210    -3.9370     0.6070 C.3   1 <1>   0.3430 
 17 C       -3.8960    -3.7520    -1.5710 C.3   1 <1>   0.2630 
 18 C       -6.0060    -1.7450     1.4510 C.3   1 <1>  -0.1600 
 19 C       -6.2040    -1.3270    -1.0640 C.3   1 <1>   0.1200 
 20 C       -5.4270    -3.1210     1.8330 C.3   1 <1>  -0.1600 
 21 O       -7.3910    -0.6160    -1.0030 O.3   1 <1>  -0.6800 
 22 H       -3.5720    -1.0510    -2.0470 H     1 <1>   0.0800 
 23 H       -2.1200    -1.4250    -1.1560 H     1 <1>   0.0800 
 24 H       -4.1460     2.1640    -0.3050 H     1 <1>   0.0800 
 25 H       -4.7820     1.1260    -1.5510 H     1 <1>   0.0800 
 26 H       -2.0240     2.7730    -1.7670 H     1 <1>   0.1500 
 27 H       -0.8740     2.0160     2.2610 H     1 <1>   0.1500 
 28 H       -3.3900    -1.5380     0.9200 H     1 <1>   0.0800 
 29 H       -4.6550     0.5700     1.4160 H     1 <1>   0.0800 
 30 H       -6.0950     0.9180     0.5340 H     1 <1>   0.0800 
 31 H       -1.3720     5.1190    -1.5140 H     1 <1>   0.1500 
 32 H       -0.2160     4.3650     2.5140 H     1 <1>   0.1500 
 33 H       -3.0470    -3.5460     0.2830 H     1 <1>   0.4500 
 34 H       -0.4670     5.9260     0.6270 H     1 <1>   0.1500 
 35 H       -5.8870    -4.0590    -0.0230 H     1 <1>   0.0800 
 36 H       -4.6920    -4.9170     0.9120 H     1 <1>   0.0800 
 37 H       -4.7740    -3.4340    -2.1080 H     1 <1>   0.0800 
 38 H       -3.8600    -4.8300    -1.5820 H     1 <1>   0.0800 
 39 H       -3.0230    -3.3820    -2.0830 H     1 <1>   0.0800 
 40 H       -5.9000    -1.1050     2.3120 H     1 <1>   0.0800 
 41 H       -7.0650    -1.8470     1.2870 H     1 <1>   0.0800 
 42 H       -6.4590    -2.3640    -1.1890 H     1 <1>   0.0800 
 43 H       -5.7010    -0.9920    -1.9530 H     1 <1>   0.0800 
 44 H       -6.1640    -3.6690     2.3950 H     1 <1>   0.0800 
 45 H       -4.5710    -2.9990     2.4740 H     1 <1>   0.0800 
 46 H       -7.9480    -0.8880    -0.2470 H     1 <1>   0.4000 
@<TRIPOS>BOND
  1   1   2  2   
  2   2   3  am  
  3   2   4  1   
  4   3   5  1   
  5   3   6  1   
  6   4   7  ar  
  7   4   8  ar  
  8   5   9  1   
  9   5  22  1   
 10   5  23  1   
 11   6  10  1   
 12   6  24  1   
 13   6  25  1   
 14   7  11  ar  
 15   7  26  1   
 16   8  12  ar  
 17   8  27  1   
 18   9  13  1   
 19   9  14  1   
 20   9  28  1   
 21  10  14  1   
 22  10  29  1   
 23  10  30  1   
 24  11  15  ar  
 25  11  31  1   
 26  12  15  ar  
 27  12  32  1   
 28  13  16  1   
 29  13  17  1   
 30  13  33  1   
 31  14  18  1   
 32  14  19  1   
 33  15  34  1   
 34  16  20  1   
 35  16  35  1   
 36  16  36  1   
 37  17  37  1   
 38  17  38  1   
 39  17  39  1   
 40  18  20  1   
 41  18  40  1   
 42  18  41  1   
 43  19  21  1   
 44  19  42  1   
 45  19  43  1   
 46  20  44  1   
 47  20  45  1   
 48  21  46  1   
@<TRIPOS>SUBSTRUCTURE
  1 ****   3 GROUP 4 **** **** 0

# MOE 2024.06 (io_trps.svl 2023.06)
