@<TRIPOS>MOLECULE
NONAME
57 59 1 0 0 
SMALL
USER_CHARGES


@<TRIPOS>ATOM
  1 O       -0.8700     0.5080     1.3460 O.2   1 <1>  -0.5700 
  2 C       -1.7250     1.2480     0.8960 C.2   1 <1>   0.5440 
  3 N       -3.0490     0.8470     0.9270 N.am  1 <1>  -0.6600 
  4 C       -1.3360     2.5320     0.3420 C.ar  1 <1>   0.0860 
  5 C       -4.1150     1.6110     0.2120 C.3   1 <1>   0.2200 
  6 C       -3.4240    -0.4060     1.6540 C.3   1 <1>   0.0600 
  7 C       -0.7760     2.6610    -0.9310 C.ar  1 <1>  -0.1440 
  8 C       -1.5460     3.6920     1.0840 C.ar  1 <1>  -0.1500 
  9 C       -5.0400     2.3560     1.1710 C.3   1 <1>  -0.1600 
 10 C       -5.0490     0.7490    -0.6380 C.3   1 <1>  -0.1600 
 11 C       -0.4620     3.9140    -1.4280 C.ar  1 <1>  -0.1500 
 12 C       -0.5060     1.4260    -1.7810 C.3   1 <1>  -0.0970 
 13 C       -1.2340     4.9470     0.5910 C.ar  1 <1>  -0.1430 
 14 C       -6.3150     2.6120     0.3550 C.3   1 <1>  -0.0800 
 15 C       -6.3120     1.6060    -0.8020 C.3   1 <1>  -0.0800 
 16 C       -0.6880     5.0600    -0.6820 C.ar  1 <1>  -0.1430 
 17 C       -1.4920     6.1710     1.4580 C.3   1 <1>  -0.0970 
 18 C       -7.6330     2.3810     1.1070 C.3   1 <1>  -0.1600 
 19 C       -7.6430     0.8440    -0.6990 C.3   1 <1>  -0.1600 
 20 C       -0.3240     6.4140    -1.2740 C.3   1 <1>  -0.0970 
 21 C       -8.5880     1.7660     0.0790 C.3   1 <1>   0.4230 
 22 N       -9.1640     2.8210    -0.8180 N.4   1 <1>  -0.9590 
 23 C       -9.9870     3.8280    -0.0720 C.3   1 <1>   0.2630 
 24 C      -10.0030     2.2500    -1.9200 C.3   1 <1>   0.2630 
 25 H       -3.6710     2.3370    -0.4480 H     1 <1>   0.0800 
 26 H       -4.4100    -0.3260     2.0720 H     1 <1>   0.0800 
 27 H       -2.7330    -0.5920     2.4590 H     1 <1>   0.0800 
 28 H       -3.3880    -1.2390     0.9750 H     1 <1>   0.0800 
 29 H       -1.9620     3.5890     2.0700 H     1 <1>   0.1500 
 30 H       -5.2490     1.7430     2.0280 H     1 <1>   0.0800 
 31 H       -4.5910     3.2770     1.4980 H     1 <1>   0.0800 
 32 H       -4.6010     0.5200    -1.5890 H     1 <1>   0.0800 
 33 H       -5.2870    -0.1670    -0.1320 H     1 <1>   0.0800 
 34 H       -0.0310     4.0000    -2.4100 H     1 <1>   0.1500 
 35 H       -0.0880     1.6920    -2.7340 H     1 <1>   0.0800 
 36 H       -1.4200     0.8830    -1.9470 H     1 <1>   0.0800 
 37 H        0.1890     0.7800    -1.2730 H     1 <1>   0.0800 
 38 H       -6.2850     3.6100    -0.0510 H     1 <1>   0.0800 
 39 H       -6.2600     2.1470    -1.7330 H     1 <1>   0.0800 
 40 H       -1.9270     5.8910     2.4010 H     1 <1>   0.0800 
 41 H       -2.1680     6.8420     0.9600 H     1 <1>   0.0800 
 42 H       -0.5680     6.6840     1.6530 H     1 <1>   0.0800 
 43 H       -7.9930     3.2720     1.5870 H     1 <1>   0.0800 
 44 H       -7.4810     1.6450     1.8770 H     1 <1>   0.0800 
 45 H       -7.5040    -0.0410    -0.1020 H     1 <1>   0.0800 
 46 H       -8.0050     0.5240    -1.6580 H     1 <1>   0.0800 
 47 H        0.0920     6.3060    -2.2600 H     1 <1>   0.0800 
 48 H        0.4040     6.9040    -0.6540 H     1 <1>   0.0800 
 49 H       -1.2000     7.0330    -1.3440 H     1 <1>   0.0800 
 50 H       -9.3780     1.2080     0.5580 H     1 <1>   0.0800 
 51 H       -8.3580     3.3060    -1.2380 H     1 <1>   0.4500 
 52 H      -10.7870     3.3390     0.4590 H     1 <1>   0.0800 
 53 H      -10.4160     4.5400    -0.7590 H     1 <1>   0.0800 
 54 H       -9.3820     4.3700     0.6350 H     1 <1>   0.0800 
 55 H      -10.8050     1.6560    -1.5120 H     1 <1>   0.0800 
 56 H       -9.4110     1.6290    -2.5720 H     1 <1>   0.0800 
 57 H      -10.4310     3.0430    -2.5130 H     1 <1>   0.0800 
@<TRIPOS>BOND
  1   1   2  2   
  2   2   3  am  
  3   2   4  1   
  4   3   5  1   
  5   3   6  1   
  6   4   7  ar  
  7   4   8  ar  
  8   5   9  1   
  9   5  10  1   
 10   5  25  1   
 11   6  26  1   
 12   6  27  1   
 13   6  28  1   
 14   7  11  ar  
 15   7  12  1   
 16   8  13  ar  
 17   8  29  1   
 18   9  14  1   
 19   9  30  1   
 20   9  31  1   
 21  10  15  1   
 22  10  32  1   
 23  10  33  1   
 24  11  16  ar  
 25  11  34  1   
 26  12  35  1   
 27  12  36  1   
 28  12  37  1   
 29  13  16  ar  
 30  13  17  1   
 31  14  15  1   
 32  14  18  1   
 33  14  38  1   
 34  15  19  1   
 35  15  39  1   
 36  16  20  1   
 37  17  40  1   
 38  17  41  1   
 39  17  42  1   
 40  18  21  1   
 41  18  43  1   
 42  18  44  1   
 43  19  21  1   
 44  19  45  1   
 45  19  46  1   
 46  20  47  1   
 47  20  48  1   
 48  20  49  1   
 49  21  22  1   
 50  21  50  1   
 51  22  23  1   
 52  22  24  1   
 53  22  51  1   
 54  23  52  1   
 55  23  53  1   
 56  23  54  1   
 57  24  55  1   
 58  24  56  1   
 59  24  57  1   
@<TRIPOS>SUBSTRUCTURE
  1 ****   5 GROUP 4 **** **** 0

# MOE 2024.06 (io_trps.svl 2023.06)
