@<TRIPOS>MOLECULE
NONAME
52 55 1 0 0 
SMALL
USER_CHARGES


@<TRIPOS>ATOM
  1 S        0.0610     0.6760     1.3940 S.o2  1 <1>   1.4470 
  2 O        0.8680     0.3130     2.5380 O.2   1 <1>  -0.6500 
  3 O       -0.8730     1.7750     1.5010 O.2   1 <1>  -0.6500 
  4 N       -0.8310    -0.6950     0.9470 N.am  1 <1>  -0.8490 
  5 C        1.1460     0.9300    -0.0210 C.ar  1 <1>  -0.0090 
  6 C       -1.5070    -1.2890     2.1060 C.3   1 <1>   0.1960 
  7 C       -1.8060    -0.3960    -0.1070 C.3   1 <1>   0.1960 
  8 C        1.1740     2.1610    -0.6550 C.ar  1 <1>   0.1600 
  9 C        1.9660    -0.0700    -0.5140 C.ar  1 <1>  -0.1500 
 10 C       -2.1480    -2.6190     1.7060 C.3   1 <1>  -0.1600 
 11 C       -2.4450    -1.6940    -0.6000 C.3   1 <1>  -0.1600 
 12 N        1.9180     2.4660    -1.7100 N.ar  1 <1>  -0.6200 
 13 C        2.7530     0.2250    -1.6070 C.ar  1 <1>  -0.1500 
 14 C       -3.1360    -2.4420     0.5490 C.3   1 <1>   0.4240 
 15 C        2.6910     1.4920    -2.1600 C.ar  1 <1>   0.1600 
 16 O       -4.1540    -1.6140     1.0580 O.3   1 <1>  -0.5600 
 17 C       -3.6820    -3.8080     0.0830 C.ar  1 <1>  -0.1430 
 18 C       -5.3910    -1.6400     0.4150 C.3   1 <1>   0.1200 
 19 C       -5.0460    -4.0820     0.1030 C.ar  1 <1>  -0.1430 
 20 C       -2.8140    -4.7940    -0.3720 C.ar  1 <1>  -0.1500 
 21 C       -6.0120    -3.0220     0.5920 C.3   1 <1>  -0.0170 
 22 C       -5.5250    -5.3100    -0.3260 C.ar  1 <1>  -0.1500 
 23 C       -3.2820    -6.0270    -0.7900 C.ar  1 <1>   0.0830 
 24 C       -4.6570    -6.2810    -0.7900 C.ar  1 <1>   0.0830 
 25 O       -2.3600    -6.9410    -1.1810 O.3   1 <1>  -0.3620 
 26 O       -5.1960    -7.4440    -1.2330 O.3   1 <1>  -0.3630 
 27 C       -2.2530    -8.1010    -0.3840 C.3   1 <1>   0.0400 
 28 C       -5.0450    -7.7170    -2.6090 C.3   1 <1>   0.0400 
 29 H       -2.2540    -0.6110     2.4870 H     1 <1>   0.0800 
 30 H       -0.7940    -1.4770     2.8920 H     1 <1>   0.0800 
 31 H       -1.3150     0.0860    -0.9360 H     1 <1>   0.0800 
 32 H       -2.5670     0.2710     0.2680 H     1 <1>   0.0800 
 33 H        0.5430     2.9480    -0.2740 H     1 <1>   0.1500 
 34 H        1.9830    -1.0450    -0.0540 H     1 <1>   0.1500 
 35 H       -2.6630    -3.0450     2.5470 H     1 <1>   0.0800 
 36 H       -1.3630    -3.2970     1.4300 H     1 <1>   0.0800 
 37 H       -1.6720    -2.3100    -1.0220 H     1 <1>   0.0800 
 38 H       -3.1480    -1.4880    -1.3830 H     1 <1>   0.0800 
 39 H        3.4070    -0.5170    -2.0280 H     1 <1>   0.1500 
 40 H        3.3090     1.7160    -3.0140 H     1 <1>   0.1500 
 41 H       -5.2560    -1.4060    -0.6260 H     1 <1>   0.0800 
 42 H       -6.0130    -0.8870     0.8680 H     1 <1>   0.0800 
 43 H       -1.7540    -4.6240    -0.4060 H     1 <1>   0.1500 
 44 H       -6.9320    -3.0710     0.0370 H     1 <1>   0.0800 
 45 H       -6.2340    -3.1850     1.6310 H     1 <1>   0.0800 
 46 H       -6.5780    -5.5230    -0.3120 H     1 <1>   0.1500 
 47 H       -1.4150    -8.6740    -0.7350 H     1 <1>   0.0800 
 48 H       -3.1550    -8.6790    -0.4710 H     1 <1>   0.0800 
 49 H       -2.0970    -7.8060     0.6390 H     1 <1>   0.0800 
 50 H       -5.6080    -8.6030    -2.8400 H     1 <1>   0.0800 
 51 H       -4.0050    -7.8740    -2.8300 H     1 <1>   0.0800 
 52 H       -5.4240    -6.8810    -3.1720 H     1 <1>   0.0800 
@<TRIPOS>BOND
  1   1   2  2   
  2   1   3  2   
  3   1   4  am  
  4   1   5  1   
  5   4   6  1   
  6   4   7  1   
  7   5   8  ar  
  8   5   9  ar  
  9   6  10  1   
 10   6  29  1   
 11   6  30  1   
 12   7  11  1   
 13   7  31  1   
 14   7  32  1   
 15   8  12  ar  
 16   8  33  1   
 17   9  13  ar  
 18   9  34  1   
 19  10  14  1   
 20  10  35  1   
 21  10  36  1   
 22  11  14  1   
 23  11  37  1   
 24  11  38  1   
 25  12  15  ar  
 26  13  15  ar  
 27  13  39  1   
 28  14  16  1   
 29  14  17  1   
 30  15  40  1   
 31  16  18  1   
 32  17  19  ar  
 33  17  20  ar  
 34  18  21  1   
 35  18  41  1   
 36  18  42  1   
 37  19  21  1   
 38  19  22  ar  
 39  20  23  ar  
 40  20  43  1   
 41  21  44  1   
 42  21  45  1   
 43  22  24  ar  
 44  22  46  1   
 45  23  24  ar  
 46  23  25  1   
 47  24  26  1   
 48  25  27  1   
 49  26  28  1   
 50  27  47  1   
 51  27  48  1   
 52  27  49  1   
 53  28  50  1   
 54  28  51  1   
 55  28  52  1   
@<TRIPOS>SUBSTRUCTURE
  1 ****  11 GROUP 4 **** **** 0

# MOE 2024.06 (io_trps.svl 2023.06)
