@<TRIPOS>MOLECULE
NONAME
53 56 1 0 0 
SMALL
USER_CHARGES


@<TRIPOS>ATOM
  1 O       -0.5260     0.0880    -1.5500 O.2   1 <1>  -0.5700 
  2 C       -1.5200     0.7640    -1.3550 C.2   1 <1>   0.5440 
  3 N       -2.7600     0.1630    -1.3930 N.am  1 <1>  -0.6600 
  4 C       -1.3810     2.1800    -1.0840 C.ar  1 <1>   0.0860 
  5 C       -4.0320     0.8370    -0.9880 C.3   1 <1>   0.1400 
  6 C       -2.9390    -1.2890    -1.7000 C.3   1 <1>   0.1400 
  7 C       -0.9860     2.6690     0.1680 C.ar  1 <1>  -0.1440 
  8 C       -1.6630     3.1050    -2.0880 C.ar  1 <1>  -0.1500 
  9 C       -4.7170     0.0680     0.1580 C.3   1 <1>   0.1900 
 10 C       -3.6660    -2.0070    -0.5510 C.3   1 <1>   0.1100 
 11 C       -0.8870     4.0330     0.3910 C.ar  1 <1>  -0.1500 
 12 C       -0.6580     1.6990     1.2970 C.3   1 <1>  -0.0960 
 13 C       -1.5650     4.4640    -1.8630 C.ar  1 <1>  -0.1500 
 14 N       -4.9510    -1.3480    -0.2210 N.3   1 <1>  -0.8100 
 15 C       -6.0420     0.7520     0.5480 C.3   1 <1>   0.1200 
 16 C       -1.1770     4.9410    -0.6230 C.ar  1 <1>   0.0820 
 17 C       -5.6700    -2.0510     0.8690 C.3   1 <1>   0.3330 
 18 O       -6.6640     0.0540     1.5890 O.3   1 <1>  -0.5600 
 19 O       -1.1020     6.2840    -0.4800 O.3   1 <1>  -0.3630 
 20 C       -6.0450    -3.4730     0.4540 C.ar  1 <1>  -0.1440 
 21 C       -6.9480    -1.2820     1.2660 C.3   1 <1>   0.1200 
 22 C       -0.6620     6.8810     0.7190 C.3   1 <1>   0.0400 
 23 C       -6.6350    -3.7230    -0.7780 C.ar  1 <1>  -0.1500 
 24 C       -5.8030    -4.5350     1.3130 C.ar  1 <1>  -0.1500 
 25 C       -6.9790    -5.0120    -1.1450 C.ar  1 <1>  -0.1500 
 26 C       -6.1460    -5.8260     0.9470 C.ar  1 <1>  -0.1500 
 27 C       -6.7340    -6.0650    -0.2820 C.ar  1 <1>  -0.1500 
 28 H       -3.8450     1.8470    -0.6710 H     1 <1>   0.0800 
 29 H       -4.6930     0.8720    -1.8360 H     1 <1>   0.0800 
 30 H       -3.5200    -1.3890    -2.6000 H     1 <1>   0.0800 
 31 H       -1.9890    -1.7640    -1.8680 H     1 <1>   0.0800 
 32 H       -1.9590     2.7430    -3.0570 H     1 <1>   0.1500 
 33 H       -4.0650     0.1060     1.0140 H     1 <1>   0.0800 
 34 H       -3.0250    -2.0220     0.3140 H     1 <1>   0.0800 
 35 H       -3.8450    -3.0260    -0.8490 H     1 <1>   0.0800 
 36 H       -0.5800     4.3820     1.3590 H     1 <1>   0.1500 
 37 H       -0.3990     2.2210     2.1990 H     1 <1>   0.0800 
 38 H        0.1740     1.0790     1.0130 H     1 <1>   0.0800 
 39 H       -1.5040     1.0660     1.5000 H     1 <1>   0.0800 
 40 H       -1.7840     5.1660    -2.6470 H     1 <1>   0.1500 
 41 H       -6.7130     0.7870    -0.2920 H     1 <1>   0.0800 
 42 H       -5.8600     1.7540     0.8920 H     1 <1>   0.0800 
 43 H       -5.0310    -2.0970     1.7340 H     1 <1>   0.0800 
 44 H       -7.3990    -1.7400     2.1270 H     1 <1>   0.0800 
 45 H       -7.6580    -1.2960     0.4580 H     1 <1>   0.0800 
 46 H       -0.6700     7.9470     0.5840 H     1 <1>   0.0800 
 47 H        0.3390     6.5470     0.9280 H     1 <1>   0.0800 
 48 H       -1.3350     6.6070     1.5130 H     1 <1>   0.0800 
 49 H       -6.8210    -2.9070    -1.4550 H     1 <1>   0.1500 
 50 H       -5.3470    -4.3650     2.2720 H     1 <1>   0.1500 
 51 H       -7.4350    -5.1950    -2.1020 H     1 <1>   0.1500 
 52 H       -5.9550    -6.6440     1.6190 H     1 <1>   0.1500 
 53 H       -7.0010    -7.0680    -0.5660 H     1 <1>   0.1500 
@<TRIPOS>BOND
  1   1   2  2   
  2   2   3  am  
  3   2   4  1   
  4   3   5  1   
  5   3   6  1   
  6   4   7  ar  
  7   4   8  ar  
  8   5   9  1   
  9   5  28  1   
 10   5  29  1   
 11   6  10  1   
 12   6  30  1   
 13   6  31  1   
 14   7  11  ar  
 15   7  12  1   
 16   8  13  ar  
 17   8  32  1   
 18   9  14  1   
 19   9  15  1   
 20   9  33  1   
 21  10  14  1   
 22  10  34  1   
 23  10  35  1   
 24  11  16  ar  
 25  11  36  1   
 26  12  37  1   
 27  12  38  1   
 28  12  39  1   
 29  13  16  ar  
 30  13  40  1   
 31  14  17  1   
 32  15  18  1   
 33  15  41  1   
 34  15  42  1   
 35  16  19  1   
 36  17  20  1   
 37  17  21  1   
 38  17  43  1   
 39  18  21  1   
 40  19  22  1   
 41  20  23  ar  
 42  20  24  ar  
 43  21  44  1   
 44  21  45  1   
 45  22  46  1   
 46  22  47  1   
 47  22  48  1   
 48  23  25  ar  
 49  23  49  1   
 50  24  26  ar  
 51  24  50  1   
 52  25  27  ar  
 53  25  51  1   
 54  26  27  ar  
 55  26  52  1   
 56  27  53  1   
@<TRIPOS>SUBSTRUCTURE
  1 ****   5 GROUP 4 **** **** 0

# MOE 2024.06 (io_trps.svl 2023.06)
