@<TRIPOS>MOLECULE
NONAME
33 34 1 0 0 
SMALL
USER_CHARGES


@<TRIPOS>ATOM
  1 CL      -0.3130    -0.2680    -0.9450 Cl    1 <1>  -0.1770 
  2 C        1.0680    -1.3330    -0.7820 C.ar  1 <1>   0.1770 
  3 C        2.1620    -1.1210    -1.6070 C.ar  1 <1>   0.1770 
  4 C        1.0680    -2.3660     0.1470 C.ar  1 <1>  -0.0090 
  5 CL       2.1640     0.1790    -2.7750 Cl    1 <1>  -0.1770 
  6 C        3.2780    -1.9310    -1.5280 C.ar  1 <1>  -0.1500 
  7 S       -0.3520    -2.6740     1.2220 S.o2  1 <1>   1.4470 
  8 C        2.2010    -3.1750     0.2140 C.ar  1 <1>  -0.1500 
  9 C        3.2950    -2.9650    -0.6100 C.ar  1 <1>  -0.1500 
 10 O       -0.0910    -3.8440     2.0330 O.2   1 <1>  -0.6500 
 11 O       -0.7320    -1.4510     1.8940 O.2   1 <1>  -0.6500 
 12 N       -1.5860    -3.0910     0.1410 N.am  1 <1>  -0.8490 
 13 C       -1.3870    -4.4100    -0.5150 C.3   1 <1>   0.1960 
 14 C       -2.9160    -2.9160     0.7490 C.3   1 <1>   0.1960 
 15 C       -2.2530    -5.5130     0.1100 C.3   1 <1>   0.2000 
 16 C       -3.9970    -3.6600    -0.0420 C.3   1 <1>  -0.1600 
 17 O       -1.9270    -6.7260    -0.4670 O.3   1 <1>  -0.6800 
 18 C       -3.7520    -5.1920    -0.0900 C.3   1 <1>  -0.1860 
 19 C       -4.3590    -5.7530    -1.3690 C.2   1 <1>   0.9060 
 20 O       -5.5860    -5.8350    -1.4410 O.co2 1 <1>  -0.9000 
 21 O       -3.6160    -6.0980    -2.3010 O.co2 1 <1>  -0.9000 
 22 H        4.1180    -1.7530    -2.1770 H     1 <1>   0.1500 
 23 H        2.2280    -3.9870     0.9240 H     1 <1>   0.1500 
 24 H        4.1580    -3.6080    -0.5350 H     1 <1>   0.1500 
 25 H       -1.6660    -4.3170    -1.5520 H     1 <1>   0.0800 
 26 H       -0.3530    -4.7040    -0.4760 H     1 <1>   0.0800 
 27 H       -2.9080    -3.2920     1.7600 H     1 <1>   0.0800 
 28 H       -3.1490    -1.8650     0.7880 H     1 <1>   0.0800 
 29 H       -2.0160    -5.5910     1.1570 H     1 <1>   0.0800 
 30 H       -4.9650    -3.4710     0.3860 H     1 <1>   0.0800 
 31 H       -4.0120    -3.2610    -1.0430 H     1 <1>   0.0800 
 32 H       -2.4340    -6.7490    -1.3360 H     1 <1>   0.4000 
 33 H       -4.2830    -5.6460     0.7250 H     1 <1>   0.0800 
@<TRIPOS>BOND
  1   1   2  1   
  2   2   3  ar  
  3   2   4  ar  
  4   3   5  1   
  5   3   6  ar  
  6   4   7  1   
  7   4   8  ar  
  8   6   9  ar  
  9   6  22  1   
 10   7  10  2   
 11   7  11  2   
 12   7  12  am  
 13   8   9  ar  
 14   8  23  1   
 15   9  24  1   
 16  12  13  1   
 17  12  14  1   
 18  13  15  1   
 19  13  25  1   
 20  13  26  1   
 21  14  16  1   
 22  14  27  1   
 23  14  28  1   
 24  15  17  1   
 25  15  18  1   
 26  15  29  1   
 27  16  18  1   
 28  16  30  1   
 29  16  31  1   
 30  17  32  1   
 31  18  19  1   
 32  18  33  1   
 33  19  20  ar  
 34  19  21  ar  
@<TRIPOS>SUBSTRUCTURE
  1 ****  12 GROUP 4 **** **** 0

# MOE 2024.06 (io_trps.svl 2023.06)
