@<TRIPOS>MOLECULE
NONAME
48 50 1 0 0 
SMALL
USER_CHARGES


@<TRIPOS>ATOM
  1 S        0.0470    -0.8100     0.7560 S.o2  1 <1>   1.3330 
  2 O       -0.7470    -0.2260     1.8080 O.2   1 <1>  -0.6500 
  3 O        0.4220    -2.2020     0.8210 O.2   1 <1>  -0.6500 
  4 N       -0.8750    -0.5400    -0.6210 N.am  1 <1>  -0.9140 
  5 C        1.5240     0.1740     0.4790 C.3   1 <1>  -0.0550 
  6 C       -1.6730    -1.6370    -1.1870 C.3   1 <1>   0.2760 
  7 C        1.2610     1.6780     0.2740 C.3   1 <1>  -0.1600 
  8 C       -2.5530    -2.4040    -0.1890 C.3   1 <1>  -0.0800 
  9 C       -0.8580    -2.7240    -1.8960 C.3   1 <1>   0.1200 
 10 C        2.5730     2.4470     0.0790 C.3   1 <1>  -0.1600 
 11 C       -2.0830    -3.8510    -0.3760 C.3   1 <1>   0.1200 
 12 C       -4.0500    -2.2490    -0.5270 C.3   1 <1>  -0.0160 
 13 O       -1.5530    -3.9050    -1.6590 O.3   1 <1>  -0.5600 
 14 C        2.3070     3.9410    -0.1240 C.3   1 <1>  -0.2400 
 15 C       -5.0380    -2.9510     0.4160 C.ar  1 <1>  -0.1440 
 16 C       -6.4010    -3.0770     0.0450 C.ar  1 <1>   0.0000 
 17 C       -4.6790    -3.4670     1.6300 C.ar  1 <1>  -0.1500 
 18 C       -7.2740    -3.7470     0.9380 C.ar  1 <1>   0.3100 
 19 C       -6.9530    -2.5730    -1.1570 C.ar  1 <1>  -0.1500 
 20 C       -5.6250    -4.1040     2.4410 C.ar  1 <1>   0.1600 
 21 N       -6.8720    -4.2540     2.1290 N.ar  1 <1>  -0.6200 
 22 C       -8.6260    -3.8970     0.5880 C.ar  1 <1>  -0.1500 
 23 C       -8.2760    -2.7340    -1.4670 C.ar  1 <1>  -0.1500 
 24 C       -9.1260    -3.4060    -0.5870 C.ar  1 <1>  -0.1500 
 25 H       -1.5350     0.1700    -0.3050 H     1 <1>   0.4200 
 26 H        2.1760     0.0530     1.3230 H     1 <1>   0.0800 
 27 H        2.0370    -0.2090    -0.3820 H     1 <1>   0.0800 
 28 H       -2.3030    -1.2030    -1.9450 H     1 <1>   0.0800 
 29 H        0.6340     1.8180    -0.5890 H     1 <1>   0.0800 
 30 H        0.7410     2.0670     1.1340 H     1 <1>   0.0800 
 31 H       -2.3860    -2.0890     0.8220 H     1 <1>   0.0800 
 32 H        0.1310    -2.8340    -1.4910 H     1 <1>   0.0800 
 33 H       -0.8070    -2.5620    -2.9580 H     1 <1>   0.0800 
 34 H        3.2040     2.3170     0.9420 H     1 <1>   0.0800 
 35 H        3.0970     2.0630    -0.7800 H     1 <1>   0.0800 
 36 H       -2.8770    -4.5740    -0.2940 H     1 <1>   0.0800 
 37 H       -1.2960    -4.0950     0.3180 H     1 <1>   0.0800 
 38 H       -4.1970    -2.6350    -1.5210 H     1 <1>   0.0800 
 39 H       -4.2970    -1.2020    -0.5390 H     1 <1>   0.0800 
 40 H        1.8030     4.3550     0.7330 H     1 <1>   0.0800 
 41 H        1.6960     4.1010    -0.9960 H     1 <1>   0.0800 
 42 H        3.2360     4.4660    -0.2580 H     1 <1>   0.0800 
 43 H       -3.6780    -3.4130     2.0140 H     1 <1>   0.1500 
 44 H       -6.3250    -2.0480    -1.8510 H     1 <1>   0.1500 
 45 H       -5.2910    -4.4960     3.3870 H     1 <1>   0.1500 
 46 H       -9.2610    -4.4160     1.2830 H     1 <1>   0.1500 
 47 H       -8.6780    -2.3470    -2.3880 H     1 <1>   0.1500 
 48 H      -10.1640    -3.5290    -0.8420 H     1 <1>   0.1500 
@<TRIPOS>BOND
  1   1   2  2   
  2   1   3  2   
  3   1   4  am  
  4   1   5  1   
  5   4   6  1   
  6   4  25  1   
  7   5   7  1   
  8   5  26  1   
  9   5  27  1   
 10   6   8  1   
 11   6   9  1   
 12   6  28  1   
 13   7  10  1   
 14   7  29  1   
 15   7  30  1   
 16   8  11  1   
 17   8  12  1   
 18   8  31  1   
 19   9  13  1   
 20   9  32  1   
 21   9  33  1   
 22  10  14  1   
 23  10  34  1   
 24  10  35  1   
 25  11  13  1   
 26  11  36  1   
 27  11  37  1   
 28  12  15  1   
 29  12  38  1   
 30  12  39  1   
 31  14  40  1   
 32  14  41  1   
 33  14  42  1   
 34  15  16  ar  
 35  15  17  ar  
 36  16  18  ar  
 37  16  19  ar  
 38  17  20  ar  
 39  17  43  1   
 40  18  21  ar  
 41  18  22  ar  
 42  19  23  ar  
 43  19  44  1   
 44  20  21  ar  
 45  20  45  1   
 46  22  24  ar  
 47  22  46  1   
 48  23  24  ar  
 49  23  47  1   
 50  24  48  1   
@<TRIPOS>SUBSTRUCTURE
  1 ****   8 GROUP 4 **** **** 0

# MOE 2024.06 (io_trps.svl 2023.06)
