@<TRIPOS>MOLECULE
NONAME
51 53 1 0 0 
SMALL
USER_CHARGES


@<TRIPOS>ATOM
  1 F       -0.4020    -1.6100    -3.0440 F     1 <1>  -0.1900 
  2 C       -1.0520    -1.5830    -1.9120 C.ar  1 <1>   0.1900 
  3 C       -1.4640    -2.7740    -1.3530 C.ar  1 <1>  -0.1500 
  4 C       -1.3010    -0.3600    -1.3200 C.ar  1 <1>  -0.1500 
  5 C       -2.1660    -2.7620    -0.1510 C.ar  1 <1>   0.0860 
  6 C       -1.9870    -0.3310    -0.1170 C.ar  1 <1>  -0.1440 
  7 C       -2.6270    -3.9990     0.4510 C.2   1 <1>   0.5440 
  8 C       -2.4060    -1.5250     0.4530 C.ar  1 <1>  -0.1500 
  9 C       -2.2620     0.9980     0.5620 C.3   1 <1>  -0.0960 
 10 O       -1.8120    -4.8650     0.7070 O.2   1 <1>  -0.5700 
 11 N       -3.9610    -4.2300     0.7350 N.am  1 <1>  -0.6600 
 12 C       -5.0550    -3.4530     0.0780 C.3   1 <1>   0.2200 
 13 C       -4.3250    -5.4090     1.5800 C.3   1 <1>   0.0600 
 14 C       -5.8880    -2.6430     1.0690 C.3   1 <1>  -0.1600 
 15 C       -6.0720    -4.3220    -0.6650 C.3   1 <1>  -0.1600 
 16 C       -7.2190    -2.3940     0.3460 C.3   1 <1>  -0.0800 
 17 C       -7.3280    -3.4450    -0.7640 C.3   1 <1>  -0.0800 
 18 C       -8.4790    -2.5640     1.2080 C.3   1 <1>  -0.1600 
 19 C       -8.6580    -4.1760    -0.5230 C.3   1 <1>  -0.1600 
 20 C       -9.5240    -3.2040     0.2860 C.3   1 <1>   0.4230 
 21 N      -10.1530    -2.1780    -0.6080 N.4   1 <1>  -0.9590 
 22 C      -10.8920    -1.1190     0.1530 C.3   1 <1>   0.2630 
 23 C      -11.0940    -2.7820    -1.6070 C.3   1 <1>   0.2630 
 24 H       -1.2420    -3.7080    -1.8400 H     1 <1>   0.1500 
 25 H       -0.9590     0.5430    -1.7930 H     1 <1>   0.1500 
 26 H       -2.9260    -1.5150     1.3940 H     1 <1>   0.1500 
 27 H       -2.8520     0.8640     1.4510 H     1 <1>   0.0800 
 28 H       -2.7950     1.6510    -0.1070 H     1 <1>   0.0800 
 29 H       -1.3340     1.4660     0.8360 H     1 <1>   0.0800 
 30 H       -4.6400    -2.7680    -0.6420 H     1 <1>   0.0800 
 31 H       -5.2640    -5.2560     2.0780 H     1 <1>   0.0800 
 32 H       -3.5680    -5.5730     2.3280 H     1 <1>   0.0800 
 33 H       -4.3870    -6.2880     0.9620 H     1 <1>   0.0800 
 34 H       -6.0440    -3.2080     1.9690 H     1 <1>   0.0800 
 35 H       -5.4010    -1.7170     1.3180 H     1 <1>   0.0800 
 36 H       -5.7040    -4.5960    -1.6390 H     1 <1>   0.0800 
 37 H       -6.2860    -5.2140    -0.1090 H     1 <1>   0.0800 
 38 H       -7.2050    -1.4140    -0.1040 H     1 <1>   0.0800 
 39 H       -7.3420    -2.9450    -1.7190 H     1 <1>   0.0800 
 40 H       -8.7850    -1.6470     1.6740 H     1 <1>   0.0800 
 41 H       -8.2800    -3.2700     1.9960 H     1 <1>   0.0800 
 42 H       -8.4870    -5.0370     0.0990 H     1 <1>   0.0800 
 43 H       -9.1010    -4.5290    -1.4350 H     1 <1>   0.0800 
 44 H      -10.2810    -3.7260     0.8510 H     1 <1>   0.0800 
 45 H       -9.3790    -1.7320    -1.1200 H     1 <1>   0.4500 
 46 H      -11.6520    -1.5650     0.7740 H     1 <1>   0.0800 
 47 H      -11.3660    -0.4320    -0.5290 H     1 <1>   0.0800 
 48 H      -10.2190    -0.5570     0.7790 H     1 <1>   0.0800 
 49 H      -11.8700    -3.3370    -1.1030 H     1 <1>   0.0800 
 50 H      -10.5710    -3.4470    -2.2740 H     1 <1>   0.0800 
 51 H      -11.5550    -2.0090    -2.2000 H     1 <1>   0.0800 
@<TRIPOS>BOND
  1   1   2  1   
  2   2   3  ar  
  3   2   4  ar  
  4   3   5  ar  
  5   3  24  1   
  6   4   6  ar  
  7   4  25  1   
  8   5   7  1   
  9   5   8  ar  
 10   6   8  ar  
 11   6   9  1   
 12   7  10  2   
 13   7  11  am  
 14   8  26  1   
 15   9  27  1   
 16   9  28  1   
 17   9  29  1   
 18  11  12  1   
 19  11  13  1   
 20  12  14  1   
 21  12  15  1   
 22  12  30  1   
 23  13  31  1   
 24  13  32  1   
 25  13  33  1   
 26  14  16  1   
 27  14  34  1   
 28  14  35  1   
 29  15  17  1   
 30  15  36  1   
 31  15  37  1   
 32  16  17  1   
 33  16  18  1   
 34  16  38  1   
 35  17  19  1   
 36  17  39  1   
 37  18  20  1   
 38  18  40  1   
 39  18  41  1   
 40  19  20  1   
 41  19  42  1   
 42  19  43  1   
 43  20  21  1   
 44  20  44  1   
 45  21  22  1   
 46  21  23  1   
 47  21  45  1   
 48  22  46  1   
 49  22  47  1   
 50  22  48  1   
 51  23  49  1   
 52  23  50  1   
 53  23  51  1   
@<TRIPOS>SUBSTRUCTURE
  1 ****  12 GROUP 4 **** **** 0

# MOE 2024.06 (io_trps.svl 2023.06)
