@<TRIPOS>MOLECULE
NONAME
56 59 1 0 0 
SMALL
USER_CHARGES


@<TRIPOS>ATOM
  1 O        0.5020     0.7050     0.1940 O.2   1 <1>  -0.5700 
  2 C       -0.1620     1.6850    -0.0860 C.2   1 <1>   0.7150 
  3 N       -1.4770     1.5120    -0.4440 N.am  1 <1>  -0.6600 
  4 C        0.4080     3.0010     0.0030 C.2   1 <1>  -0.2370 
  5 C       -2.3590     0.6370     0.3540 C.3   1 <1>   0.1400 
  6 C       -2.1360     2.2690    -1.5470 C.3   1 <1>   0.1400 
  7 N       -0.3370     4.0970     0.3370 N.pl3 1 <1>   0.0330 
  8 C        1.7020     3.4220    -0.1660 C.2   1 <1>  -0.1500 
  9 C       -3.4340     1.4890     1.0470 C.3   1 <1>  -0.1600 
 10 C       -3.6360     2.4680    -1.2790 C.3   1 <1>  -0.1600 
 11 C        0.4730     5.1830     0.3610 C.2   1 <1>  -0.3020 
 12 C        1.7400     4.7970     0.0550 C.2   1 <1>  -0.1500 
 13 C       -3.9580     2.6920     0.2160 C.3   1 <1>   0.2800 
 14 O       -3.1880     3.8150     0.6140 O.3   1 <1>  -0.5600 
 15 C       -5.4870     2.8940     0.4850 C.3   1 <1>   0.2000 
 16 C       -3.8270     4.9810     1.0410 C.3   1 <1>   0.1200 
 17 O       -6.2180     1.8550    -0.1000 O.3   1 <1>  -0.6800 
 18 C       -6.0630     4.3020     0.0990 C.3   1 <1>   0.3000 
 19 C       -4.9260     5.3370     0.0440 C.3   1 <1>  -0.1600 
 20 N       -6.9650     4.7790     1.1800 N.am  1 <1>  -0.7300 
 21 C       -6.8160     4.3590    -1.2450 C.3   1 <1>  -0.2400 
 22 C       -8.3250     4.7230     1.2900 C.2   1 <1>   0.7160 
 23 O       -8.8300     5.7530     1.6920 O.2   1 <1>  -0.5700 
 24 C       -9.1580     3.5650     0.9810 C.2   1 <1>   0.1410 
 25 N       -8.7160     2.2740     0.8930 N.2   1 <1>  -0.5650 
 26 C      -10.5030     3.5700     0.7510 C.2   1 <1>  -0.3020 
 27 C       -9.7690     1.5780     0.6220 C.2   1 <1>   0.0360 
 28 N      -10.8960     2.3130     0.5200 N.pl3 1 <1>   0.0480 
 29 C      -12.2590     1.8360     0.2360 C.3   1 <1>   0.0160 
 30 H       -2.8220    -0.0770    -0.3050 H     1 <1>   0.0800 
 31 H       -1.7890     0.0920     1.0880 H     1 <1>   0.0800 
 32 H       -1.6660     3.2280    -1.6660 H     1 <1>   0.0800 
 33 H       -2.0040     1.7280    -2.4680 H     1 <1>   0.0800 
 34 H       -1.3530     4.0580     0.5270 H     1 <1>   0.2700 
 35 H        2.5450     2.8030    -0.4190 H     1 <1>   0.1500 
 36 H       -3.0560     1.8430     1.9880 H     1 <1>   0.0800 
 37 H       -4.2450     0.8210     1.2740 H     1 <1>   0.0800 
 38 H       -4.1550     1.5910    -1.6220 H     1 <1>   0.0800 
 39 H       -3.9920     3.2850    -1.8740 H     1 <1>   0.0800 
 40 H        0.1140     6.1700     0.5950 H     1 <1>   0.1500 
 41 H        2.6210     5.4140    -0.0080 H     1 <1>   0.1500 
 42 H       -5.6220     2.7780     1.5460 H     1 <1>   0.0800 
 43 H       -4.2200     4.8180     2.0300 H     1 <1>   0.0800 
 44 H       -3.0860     5.7600     1.0840 H     1 <1>   0.0800 
 45 H       -7.1610     1.9210     0.2130 H     1 <1>   0.4000 
 46 H       -5.3020     6.3260     0.2400 H     1 <1>   0.0800 
 47 H       -4.4810     5.3660    -0.9350 H     1 <1>   0.0800 
 48 H       -6.6140     5.6270     1.6200 H     1 <1>   0.3700 
 49 H       -6.1630     4.0800    -2.0500 H     1 <1>   0.0800 
 50 H       -7.1760     5.3550    -1.4340 H     1 <1>   0.0800 
 51 H       -7.6480     3.6810    -1.2650 H     1 <1>   0.0800 
 52 H      -11.1670     4.4150     0.7540 H     1 <1>   0.1500 
 53 H       -9.7740     0.5100     0.4870 H     1 <1>   0.1500 
 54 H      -12.8930     2.6750     0.0120 H     1 <1>   0.0800 
 55 H      -12.6410     1.3190     1.0980 H     1 <1>   0.0800 
 56 H      -12.2370     1.1690    -0.6060 H     1 <1>   0.0800 
@<TRIPOS>BOND
  1   1   2  2   
  2   2   3  am  
  3   2   4  1   
  4   3   5  1   
  5   3   6  1   
  6   4   7  1   
  7   4   8  2   
  8   5   9  1   
  9   5  30  1   
 10   5  31  1   
 11   6  10  1   
 12   6  32  1   
 13   6  33  1   
 14   7  11  1   
 15   7  34  1   
 16   8  12  1   
 17   8  35  1   
 18   9  13  1   
 19   9  36  1   
 20   9  37  1   
 21  10  13  1   
 22  10  38  1   
 23  10  39  1   
 24  11  12  2   
 25  11  40  1   
 26  12  41  1   
 27  13  14  1   
 28  13  15  1   
 29  14  16  1   
 30  15  17  1   
 31  15  18  1   
 32  15  42  1   
 33  16  19  1   
 34  16  43  1   
 35  16  44  1   
 36  17  45  1   
 37  18  19  1   
 38  18  20  1   
 39  18  21  1   
 40  19  46  1   
 41  19  47  1   
 42  20  22  am  
 43  20  48  1   
 44  21  49  1   
 45  21  50  1   
 46  21  51  1   
 47  22  23  2   
 48  22  24  1   
 49  24  25  1   
 50  24  26  2   
 51  25  27  2   
 52  26  28  1   
 53  26  52  1   
 54  27  28  1   
 55  27  53  1   
 56  28  29  1   
 57  29  54  1   
 58  29  55  1   
 59  29  56  1   
@<TRIPOS>SUBSTRUCTURE
  1 ****  13 GROUP 4 **** **** 0

# MOE 2024.06 (io_trps.svl 2023.06)
