@<TRIPOS>MOLECULE
NONAME
45 46 1 0 0 
SMALL
USER_CHARGES


@<TRIPOS>ATOM
  1 CL      -3.3690    -2.0980    -2.8340 Cl    1 <1>  -0.1770 
  2 C       -3.1560    -0.6530    -1.8680 C.ar  1 <1>   0.1770 
  3 C       -3.2780    -0.7120    -0.4830 C.ar  1 <1>   0.0830 
  4 C       -2.8790     0.5360    -2.5160 C.ar  1 <1>  -0.1500 
  5 O       -3.5530    -1.9120     0.0900 O.3   1 <1>  -0.3630 
  6 C       -3.1130     0.4580     0.2530 C.ar  1 <1>  -0.1500 
  7 C       -2.7200     1.6940    -1.7740 C.ar  1 <1>  -0.1500 
  8 C       -4.1370    -1.9900     1.3830 C.3   1 <1>   0.1810 
  9 C       -2.8370     1.6520    -0.3940 C.ar  1 <1>  -0.1500 
 10 C       -4.5650    -3.4150     1.7310 C.2   1 <1>   0.5690 
 11 O       -4.2530    -3.8370     2.8200 O.2   1 <1>  -0.5700 
 12 N       -5.3070    -4.1780     0.8660 N.am  1 <1>  -0.6600 
 13 C       -5.7200    -3.8020    -0.5110 C.3   1 <1>   0.1400 
 14 C       -5.6440    -5.5990     1.1330 C.3   1 <1>   0.1400 
 15 C       -6.7300    -4.8750    -0.9060 C.3   1 <1>   0.2000 
 16 C       -6.2210    -6.1280    -0.1880 C.3   1 <1>  -0.0800 
 17 O       -7.9660    -4.5230    -0.3850 O.3   1 <1>  -0.6800 
 18 C       -7.2820    -7.2390    -0.0290 C.3   1 <1>  -0.0550 
 19 S       -6.6490    -8.7730     0.6530 S.o2  1 <1>   1.3330 
 20 O       -7.6520    -9.8030     0.5080 O.2   1 <1>  -0.6500 
 21 O       -6.1000    -8.4900     1.9600 O.2   1 <1>  -0.6500 
 22 N       -5.3610    -9.1580    -0.3850 N.am  1 <1>  -0.8490 
 23 C       -4.3140    -9.9310     0.2910 C.3   1 <1>   0.1160 
 24 C       -5.7860    -9.8520    -1.6060 C.3   1 <1>   0.1160 
 25 H       -2.7900     0.5520    -3.5880 H     1 <1>   0.1500 
 26 H       -3.1880     0.4590     1.3240 H     1 <1>   0.1500 
 27 H       -2.5040     2.6260    -2.2690 H     1 <1>   0.1500 
 28 H       -3.4090    -1.6590     2.1000 H     1 <1>   0.0800 
 29 H       -4.9960    -1.3460     1.4080 H     1 <1>   0.0800 
 30 H       -2.7100     2.5550     0.1790 H     1 <1>   0.1500 
 31 H       -6.1430    -2.8140    -0.5550 H     1 <1>   0.0800 
 32 H       -4.8610    -3.8570    -1.1580 H     1 <1>   0.0800 
 33 H       -4.7660    -6.1500     1.4300 H     1 <1>   0.0800 
 34 H       -6.3720    -5.6450     1.9250 H     1 <1>   0.0800 
 35 H       -6.8250    -4.9960    -1.9720 H     1 <1>   0.0800 
 36 H       -5.3980    -6.5140    -0.7640 H     1 <1>   0.0800 
 37 H       -7.8420    -4.2410     0.5450 H     1 <1>   0.4000 
 38 H       -7.7060    -7.4410    -0.9930 H     1 <1>   0.0800 
 39 H       -8.0780    -6.8870     0.5990 H     1 <1>   0.0800 
 40 H       -3.5100   -10.1470    -0.3910 H     1 <1>   0.0800 
 41 H       -4.7180   -10.8550     0.6700 H     1 <1>   0.0800 
 42 H       -3.9130    -9.3650     1.1150 H     1 <1>   0.0800 
 43 H       -4.9460    -9.9870    -2.2650 H     1 <1>   0.0800 
 44 H       -6.5330    -9.2740    -2.1210 H     1 <1>   0.0800 
 45 H       -6.2020   -10.8170    -1.3650 H     1 <1>   0.0800 
@<TRIPOS>BOND
  1   1   2  1   
  2   2   3  ar  
  3   2   4  ar  
  4   3   5  1   
  5   3   6  ar  
  6   4   7  ar  
  7   4  25  1   
  8   5   8  1   
  9   6   9  ar  
 10   6  26  1   
 11   7   9  ar  
 12   7  27  1   
 13   8  10  1   
 14   8  28  1   
 15   8  29  1   
 16   9  30  1   
 17  10  11  2   
 18  10  12  am  
 19  12  13  1   
 20  12  14  1   
 21  13  15  1   
 22  13  31  1   
 23  13  32  1   
 24  14  16  1   
 25  14  33  1   
 26  14  34  1   
 27  15  16  1   
 28  15  17  1   
 29  15  35  1   
 30  16  18  1   
 31  16  36  1   
 32  17  37  1   
 33  18  19  1   
 34  18  38  1   
 35  18  39  1   
 36  19  20  2   
 37  19  21  2   
 38  19  22  am  
 39  22  23  1   
 40  22  24  1   
 41  23  40  1   
 42  23  41  1   
 43  23  42  1   
 44  24  43  1   
 45  24  44  1   
 46  24  45  1   
@<TRIPOS>SUBSTRUCTURE
  1 ****  13 GROUP 4 **** **** 0

# MOE 2024.06 (io_trps.svl 2023.06)
