@<TRIPOS>MOLECULE
NONAME
47 50 1 0 0 
SMALL
USER_CHARGES


@<TRIPOS>ATOM
  1 O        0.4540    -0.5130     1.5120 O.2   1 <1>  -0.5700 
  2 C       -0.7110    -0.6830     1.2390 C.2   1 <1>   0.5690 
  3 N       -1.1600    -1.8970     0.7700 N.am  1 <1>  -0.6600 
  4 C       -1.6500     0.5020     1.4480 C.3   1 <1>   0.0440 
  5 C       -0.2000    -3.0130     0.4960 C.3   1 <1>   0.1400 
  6 C       -2.5710    -2.1920     0.3630 C.3   1 <1>   0.1400 
  7 C       -2.3910     0.9480     0.1810 C.ar  1 <1>  -0.1440 
  8 C       -0.7200    -4.3540     1.0400 C.3   1 <1>   0.2090 
  9 C       -3.0450    -3.5590     0.8880 C.3   1 <1>   0.2090 
 10 C       -3.7420     1.2940     0.1840 C.ar  1 <1>  -0.1440 
 11 C       -1.6790     1.0090    -1.0100 C.ar  1 <1>  -0.1500 
 12 N       -2.0950    -4.6610     0.5250 N.pl3 1 <1>  -0.7880 
 13 C       -4.3530     1.6690    -1.0040 C.ar  1 <1>  -0.1500 
 14 C       -4.5840     1.2890     1.4530 C.3   1 <1>  -0.0970 
 15 C       -2.2960     1.3860    -2.1880 C.ar  1 <1>  -0.1500 
 16 C       -2.5510    -5.9540     0.7600 C.2   1 <1>   0.5490 
 17 C       -3.6380     1.7130    -2.1860 C.ar  1 <1>  -0.1500 
 18 N       -2.8190    -6.2750     2.0040 N.2   1 <1>  -0.6210 
 19 C       -2.7200    -6.8980    -0.3260 C.cat 1 <1>   0.7510 
 20 C       -3.2630    -7.5490     2.2070 C.2   1 <1>   0.0210 
 21 N       -2.5080    -6.7760    -1.6560 N.pl3 1 <1>  -0.7000 
 22 N       -3.1640    -8.1540    -0.0870 N.pl3 1 <1>  -0.6290 
 23 C       -3.4420    -8.4850     1.2260 C.2   1 <1>   0.2290 
 24 C       -2.8210    -7.9650    -2.2590 C.2   1 <1>   0.2000 
 25 C       -3.2260    -8.8170    -1.2940 C.2   1 <1>   0.2000 
 26 H       -1.0720     1.3340     1.8060 H     1 <1>   0.0800 
 27 H       -2.3290     0.2300     2.2300 H     1 <1>   0.0800 
 28 H        0.7560    -2.8070     0.9460 H     1 <1>   0.0800 
 29 H       -0.0500    -3.0910    -0.5660 H     1 <1>   0.0800 
 30 H       -2.6360    -2.1780    -0.7110 H     1 <1>   0.0800 
 31 H       -3.2410    -1.4420     0.7390 H     1 <1>   0.0800 
 32 H       -0.7390    -4.3100     2.1160 H     1 <1>   0.0800 
 33 H       -0.0390    -5.1380     0.7550 H     1 <1>   0.0800 
 34 H       -4.0200    -3.7730     0.4850 H     1 <1>   0.0800 
 35 H       -3.1380    -3.5070     1.9610 H     1 <1>   0.0800 
 36 H       -0.6300     0.7640    -1.0300 H     1 <1>   0.1500 
 37 H       -5.3950     1.9360    -1.0190 H     1 <1>   0.1500 
 38 H       -4.1080     1.8820     2.2140 H     1 <1>   0.0800 
 39 H       -4.7110     0.2850     1.8130 H     1 <1>   0.0800 
 40 H       -5.5580     1.7080     1.2720 H     1 <1>   0.0800 
 41 H       -1.7320     1.4270    -3.1040 H     1 <1>   0.1500 
 42 H       -4.1230     2.0070    -3.1000 H     1 <1>   0.1500 
 43 H       -3.4800    -7.8050     3.2320 H     1 <1>   0.1500 
 44 H       -2.1720    -5.9090    -2.0880 H     1 <1>   0.4500 
 45 H       -3.7970    -9.4810     1.4380 H     1 <1>   0.1500 
 46 H       -2.7390    -8.1340    -3.3220 H     1 <1>   0.1500 
 47 H       -3.5510    -9.8420    -1.3850 H     1 <1>   0.1500 
@<TRIPOS>BOND
  1   1   2  2   
  2   2   3  am  
  3   2   4  1   
  4   3   5  1   
  5   3   6  1   
  6   4   7  1   
  7   4  26  1   
  8   4  27  1   
  9   5   8  1   
 10   5  28  1   
 11   5  29  1   
 12   6   9  1   
 13   6  30  1   
 14   6  31  1   
 15   7  10  ar  
 16   7  11  ar  
 17   8  12  1   
 18   8  32  1   
 19   8  33  1   
 20   9  12  1   
 21   9  34  1   
 22   9  35  1   
 23  10  13  ar  
 24  10  14  1   
 25  11  15  ar  
 26  11  36  1   
 27  12  16  1   
 28  13  17  ar  
 29  13  37  1   
 30  14  38  1   
 31  14  39  1   
 32  14  40  1   
 33  15  17  ar  
 34  15  41  1   
 35  16  18  2   
 36  16  19  1   
 37  17  42  1   
 38  18  20  1   
 39  19  21  ar  
 40  19  22  ar  
 41  20  23  2   
 42  20  43  1   
 43  21  24  1   
 44  21  44  1   
 45  22  23  1   
 46  22  25  1   
 47  23  45  1   
 48  24  25  2   
 49  24  46  1   
 50  25  47  1   
@<TRIPOS>SUBSTRUCTURE
  1 ****   6 GROUP 4 **** **** 0

# MOE 2024.06 (io_trps.svl 2023.06)
