@<TRIPOS>MOLECULE
Untitled Document
49 51 1 0 0 
SMALL
USER_CHARGES


@<TRIPOS>ATOM
  1 O        0.0660     0.7590    -0.2530 O.3   1 <1>  -0.3630 
  2 C       -0.4350     2.0080    -0.1390 C.ar  1 <1>   0.3920 
  3 C        1.1130     0.4330    -1.1390 C.3   1 <1>   0.0400 
  4 N       -1.4900     2.0980     0.6540 N.ar  1 <1>  -0.6200 
  5 C        0.1190     3.0980    -0.8050 C.ar  1 <1>  -0.1500 
  6 C       -2.0230     3.3000     0.7970 C.ar  1 <1>   0.1660 
  7 C       -0.4410     4.3440    -0.6440 C.ar  1 <1>  -0.1500 
  8 C       -1.5480     4.4650     0.1830 C.ar  1 <1>   0.0540 
  9 C       -3.2380     3.3530     1.7070 C.3   1 <1>  -0.0960 
 10 C       -2.1470     5.7630     0.3740 C.2   1 <1>  -0.0540 
 11 C       -3.3710     6.2020    -0.0430 C.2   1 <1>  -0.0260 
 12 C       -1.5960     6.8670     1.0290 C.2   1 <1>   0.1080 
 13 N       -4.3820     5.5890    -0.7320 N.2   1 <1>  -0.5760 
 14 N       -3.4890     7.4950     0.3570 N.pl3 1 <1>   0.5610 
 15 N       -2.3710     7.9070     1.0300 N.2   1 <1>  -0.7070 
 16 C       -0.2360     6.8940     1.6920 C.3   1 <1>  -0.0590 
 17 C       -5.4350     6.3000    -0.9760 C.2   1 <1>   0.6000 
 18 C       -4.6780     8.1780     0.0400 C.2   1 <1>   0.5090 
 19 N       -5.6410     7.5920    -0.6180 N.2   1 <1>  -0.6610 
 20 C       -6.5730     5.6650    -1.7340 C.3   1 <1>  -0.1790 
 21 N       -4.8230     9.4850     0.4300 N.pl3 1 <1>  -0.8190 
 22 C       -5.9720    10.3660     0.1920 C.3   1 <1>   0.2890 
 23 C       -5.5460    11.4350    -0.8230 C.3   1 <1>  -0.1600 
 24 C       -6.3790    10.9520     1.5420 C.3   1 <1>  -0.2400 
 25 C       -6.6910    12.3660    -1.2490 C.3   1 <1>  -0.2400 
 26 H        1.2860    -0.6260    -1.0720 H     1 <1>   0.0800 
 27 H        1.9990     0.9670    -0.8450 H     1 <1>   0.0800 
 28 H        0.8170     0.6910    -2.1410 H     1 <1>   0.0800 
 29 H        0.9740     2.9880    -1.4410 H     1 <1>   0.1500 
 30 H       -0.0430     5.2070    -1.1460 H     1 <1>   0.1500 
 31 H       -3.2390     4.2510     2.2960 H     1 <1>   0.0800 
 32 H       -3.2390     2.5110     2.3760 H     1 <1>   0.0800 
 33 H       -4.1300     3.3210     1.1110 H     1 <1>   0.0800 
 34 H        0.0570     5.9050     1.9940 H     1 <1>   0.0800 
 35 H       -0.2700     7.5240     2.5620 H     1 <1>   0.0800 
 36 H        0.4910     7.2860     1.0070 H     1 <1>   0.0800 
 37 H       -6.7510     6.2150    -2.6390 H     1 <1>   0.0800 
 38 H       -7.4600     5.6830    -1.1290 H     1 <1>   0.0800 
 39 H       -6.3360     4.6470    -1.9820 H     1 <1>   0.0800 
 40 H       -4.0380     9.9090     0.9340 H     1 <1>   0.4000 
 41 H       -6.7940     9.7970    -0.2110 H     1 <1>   0.0800 
 42 H       -4.7450    12.0250    -0.4140 H     1 <1>   0.0800 
 43 H       -5.1780    10.9350    -1.7020 H     1 <1>   0.0800 
 44 H       -5.5960    11.5710     1.9410 H     1 <1>   0.0800 
 45 H       -6.5920    10.1570     2.2340 H     1 <1>   0.0800 
 46 H       -7.2680    11.5450     1.4370 H     1 <1>   0.0800 
 47 H       -7.0330    12.9620    -0.4220 H     1 <1>   0.0800 
 48 H       -7.5180    11.7940    -1.6340 H     1 <1>   0.0800 
 49 H       -6.3500    13.0320    -2.0230 H     1 <1>   0.0800 
@<TRIPOS>BOND
  1   1   2  1   
  2   1   3  1   
  3   2   4  ar  
  4   2   5  ar  
  5   3  26  1   
  6   3  27  1   
  7   3  28  1   
  8   4   6  ar  
  9   5   7  ar  
 10   5  29  1   
 11   6   8  ar  
 12   6   9  1   
 13   7   8  ar  
 14   7  30  1   
 15   8  10  1   
 16   9  31  1   
 17   9  32  1   
 18   9  33  1   
 19  10  11  2   
 20  10  12  1   
 21  11  13  1   
 22  11  14  1   
 23  12  15  2   
 24  12  16  1   
 25  13  17  2   
 26  14  15  1   
 27  14  18  1   
 28  16  34  1   
 29  16  35  1   
 30  16  36  1   
 31  17  19  1   
 32  17  20  1   
 33  18  19  2   
 34  18  21  1   
 35  20  37  1   
 36  20  38  1   
 37  20  39  1   
 38  21  22  1   
 39  21  40  1   
 40  22  23  1   
 41  22  24  1   
 42  22  41  1   
 43  23  25  1   
 44  23  42  1   
 45  23  43  1   
 46  24  44  1   
 47  24  45  1   
 48  24  46  1   
 49  25  47  1   
 50  25  48  1   
 51  25  49  1   
@<TRIPOS>SUBSTRUCTURE
  1 ****  11 GROUP 4 **** **** 0

# MOE 2024.06 (io_trps.svl 2023.06)
