@<TRIPOS>MOLECULE
NONAME
44 46 1 0 0 
SMALL
USER_CHARGES


@<TRIPOS>ATOM
  1 F       -1.1380    -1.4840    -2.2220 F     1 <1>  -0.1900 
  2 C       -1.8960    -1.6710    -1.1780 C.ar  1 <1>   0.1900 
  3 C       -1.9690    -2.9160    -0.5600 C.ar  1 <1>  -0.1440 
  4 C       -2.6140    -0.5730    -0.7480 C.ar  1 <1>  -0.1500 
  5 C       -2.8420    -3.0370     0.5340 C.ar  1 <1>  -0.1440 
  6 C       -1.1420    -4.1110    -1.0670 C.3   1 <1>   1.1640 
  7 C       -3.4520    -0.7050     0.3410 C.ar  1 <1>  -0.1500 
  8 C       -3.5620    -1.9300     0.9730 C.ar  1 <1>  -0.1500 
  9 C       -3.0640    -4.3400     1.3040 C.3   1 <1>   0.4860 
 10 F       -0.1970    -3.8670    -1.9590 F     1 <1>  -0.3400 
 11 F       -0.5400    -4.7310    -0.0620 F     1 <1>  -0.3400 
 12 F       -1.9460    -5.0210    -1.6100 F     1 <1>  -0.3400 
 13 N       -3.8790    -5.2860     0.4920 N.4   1 <1>  -0.9590 
 14 C       -5.2260    -4.7280     0.1250 C.3   1 <1>   0.3430 
 15 C       -4.1310    -6.5490     1.2470 C.3   1 <1>   0.3430 
 16 C       -6.2680    -5.6320     0.7970 C.3   1 <1>   0.2000 
 17 C       -5.5590    -6.9780     0.8920 C.3   1 <1>  -0.0800 
 18 O       -6.4700    -5.1620     2.0900 O.3   1 <1>  -0.6800 
 19 C       -5.6640    -7.7680    -0.4330 C.3   1 <1>   0.0200 
 20 C       -4.6330    -8.8750    -0.5180 C.2   1 <1>  -0.0400 
 21 O       -3.3980    -8.5770    -0.8210 O.3   1 <1>  -0.0190 
 22 C       -4.7060   -10.2020    -0.3430 C.2   1 <1>  -0.1500 
 23 N       -2.6360    -9.6260    -0.8310 N.2   1 <1>  -0.4100 
 24 C       -3.3970   -10.6250    -0.5560 C.2   1 <1>   0.1080 
 25 C       -2.9230   -12.0600    -0.4770 C.3   1 <1>  -0.0590 
 26 H       -2.5160     0.3700    -1.2590 H     1 <1>   0.1500 
 27 H       -4.0150     0.1450     0.6930 H     1 <1>   0.1500 
 28 H       -4.2240    -2.0040     1.8210 H     1 <1>   0.1500 
 29 H       -3.5840    -4.1240     2.2240 H     1 <1>   0.0800 
 30 H       -2.1190    -4.7880     1.5610 H     1 <1>   0.0800 
 31 H       -3.3650    -5.5250    -0.3720 H     1 <1>   0.4500 
 32 H       -5.3510    -3.7090     0.4500 H     1 <1>   0.0800 
 33 H       -5.3500    -4.7720    -0.9450 H     1 <1>   0.0800 
 34 H       -3.3970    -7.3060     1.0260 H     1 <1>   0.0800 
 35 H       -4.1000    -6.3440     2.3050 H     1 <1>   0.0800 
 36 H       -7.2120    -5.6500     0.2780 H     1 <1>   0.0800 
 37 H       -5.9640    -7.5880     1.6810 H     1 <1>   0.0800 
 38 H       -7.2600    -5.5750     2.5020 H     1 <1>   0.4000 
 39 H       -5.5290    -7.1270    -1.2870 H     1 <1>   0.0800 
 40 H       -6.6460    -8.2010    -0.5080 H     1 <1>   0.0800 
 41 H       -5.5440   -10.8290    -0.0960 H     1 <1>   0.1500 
 42 H       -3.1520   -12.4710     0.4890 H     1 <1>   0.0800 
 43 H       -1.8600   -12.1050    -0.6310 H     1 <1>   0.0800 
 44 H       -3.4080   -12.6460    -1.2360 H     1 <1>   0.0800 
@<TRIPOS>BOND
  1   1   2  1   
  2   2   3  ar  
  3   2   4  ar  
  4   3   5  ar  
  5   3   6  1   
  6   4   7  ar  
  7   4  26  1   
  8   5   8  ar  
  9   5   9  1   
 10   6  10  1   
 11   6  11  1   
 12   6  12  1   
 13   7   8  ar  
 14   7  27  1   
 15   8  28  1   
 16   9  13  1   
 17   9  29  1   
 18   9  30  1   
 19  13  14  1   
 20  13  15  1   
 21  13  31  1   
 22  14  16  1   
 23  14  32  1   
 24  14  33  1   
 25  15  17  1   
 26  15  34  1   
 27  15  35  1   
 28  16  17  1   
 29  16  18  1   
 30  16  36  1   
 31  17  19  1   
 32  17  37  1   
 33  18  38  1   
 34  19  20  1   
 35  19  39  1   
 36  19  40  1   
 37  20  21  1   
 38  20  22  2   
 39  21  23  1   
 40  22  24  1   
 41  22  41  1   
 42  23  24  2   
 43  24  25  1   
 44  25  42  1   
 45  25  43  1   
 46  25  44  1   
@<TRIPOS>SUBSTRUCTURE
  1 ****  13 GROUP 4 **** **** 0

# MOE 2024.06 (io_trps.svl 2023.06)
