@<TRIPOS>MOLECULE
NONAME
44 46 1 0 0 
SMALL
USER_CHARGES


@<TRIPOS>ATOM
  1 O       -0.7930    -2.2230    -0.7280 O.2   1 <1>  -0.5700 
  2 C        0.2770    -2.7690    -0.8170 C.2   1 <1>   0.5690 
  3 N        0.6670    -3.3780    -1.9550 N.am  1 <1>  -0.7300 
  4 C        1.2290    -2.8030     0.3580 C.3   1 <1>  -0.0990 
  5 C        1.9620    -4.0770    -2.0960 C.3   1 <1>   0.1400 
  6 C        2.6690    -2.5190    -0.1080 C.3   1 <1>  -0.0800 
  7 C        3.0780    -3.2670    -1.4030 C.3   1 <1>  -0.0800 
  8 C        3.7220    -2.8670     0.9540 C.3   1 <1>  -0.1600 
  9 C        4.2910    -4.1260    -1.0260 C.3   1 <1>  -0.1600 
 10 C        4.9120    -3.3920     0.1600 C.3   1 <1>   0.2200 
 11 N        5.8310    -4.2300     0.9920 N.am  1 <1>  -0.6600 
 12 C        7.0790    -3.7750     1.3820 C.2   1 <1>   0.5440 
 13 C        5.3760    -5.5990     1.3920 C.3   1 <1>   0.0600 
 14 O        7.8190    -4.5320     1.9820 O.2   1 <1>  -0.5700 
 15 C        7.5300    -2.4350     1.1120 C.ar  1 <1>   0.0860 
 16 C        8.0220    -2.0790    -0.1560 C.ar  1 <1>   0.4100 
 17 C        7.4830    -1.4590     2.0960 C.ar  1 <1>  -0.1500 
 18 N        8.4110    -0.8450    -0.4730 N.ar  1 <1>  -0.6200 
 19 N        8.1150    -3.0200    -1.1610 N.pl3 1 <1>  -0.8690 
 20 C        7.9030    -0.1900     1.7700 C.ar  1 <1>  -0.1500 
 21 C        8.3490     0.0590     0.4840 C.ar  1 <1>   0.1600 
 22 C        8.8520    -2.7900    -2.4300 C.3   1 <1>   0.1290 
 23 H        0.0100    -3.3840    -2.7380 H     1 <1>   0.3700 
 24 H        0.9250    -2.0760     1.0890 H     1 <1>   0.0800 
 25 H        1.1610    -3.7790     0.8020 H     1 <1>   0.0800 
 26 H        1.8680    -5.0490    -1.6430 H     1 <1>   0.0800 
 27 H        2.1960    -4.2080    -3.1390 H     1 <1>   0.0800 
 28 H        2.7380    -1.4640    -0.3190 H     1 <1>   0.0800 
 29 H        3.4150    -2.5230    -2.1050 H     1 <1>   0.0800 
 30 H        3.3480    -3.6310     1.6110 H     1 <1>   0.0800 
 31 H        3.9950    -2.0040     1.5340 H     1 <1>   0.0800 
 32 H        4.9900    -4.2070    -1.8400 H     1 <1>   0.0800 
 33 H        3.9570    -5.1050    -0.7360 H     1 <1>   0.0800 
 34 H        5.4360    -2.5420    -0.2410 H     1 <1>   0.0800 
 35 H        4.3130    -5.6190     1.5500 H     1 <1>   0.0800 
 36 H        5.8560    -5.9030     2.3070 H     1 <1>   0.0800 
 37 H        5.6340    -6.3020     0.6200 H     1 <1>   0.0800 
 38 H        7.1280    -1.7010     3.0830 H     1 <1>   0.1500 
 39 H        8.0910    -3.9990    -0.8530 H     1 <1>   0.4000 
 40 H        7.8870     0.6000     2.4990 H     1 <1>   0.1500 
 41 H        8.6720     1.0550     0.2340 H     1 <1>   0.1500 
 42 H        8.5170    -1.8760    -2.8900 H     1 <1>   0.0800 
 43 H        8.6770    -3.6060    -3.1090 H     1 <1>   0.0800 
 44 H        9.9060    -2.7120    -2.2290 H     1 <1>   0.0800 
@<TRIPOS>BOND
  1   1   2  2   
  2   2   3  am  
  3   2   4  1   
  4   3   5  1   
  5   3  23  1   
  6   4   6  1   
  7   4  24  1   
  8   4  25  1   
  9   5   7  1   
 10   5  26  1   
 11   5  27  1   
 12   6   7  1   
 13   6   8  1   
 14   6  28  1   
 15   7   9  1   
 16   7  29  1   
 17   8  10  1   
 18   8  30  1   
 19   8  31  1   
 20   9  10  1   
 21   9  32  1   
 22   9  33  1   
 23  10  11  1   
 24  10  34  1   
 25  11  12  am  
 26  11  13  1   
 27  12  14  2   
 28  12  15  1   
 29  13  35  1   
 30  13  36  1   
 31  13  37  1   
 32  15  16  ar  
 33  15  17  ar  
 34  16  18  ar  
 35  16  19  1   
 36  17  20  ar  
 37  17  38  1   
 38  18  21  ar  
 39  19  22  1   
 40  19  39  1   
 41  20  21  ar  
 42  20  40  1   
 43  21  41  1   
 44  22  42  1   
 45  22  43  1   
 46  22  44  1   
@<TRIPOS>SUBSTRUCTURE
  1 ****  10 GROUP 4 **** **** 0

# MOE 2024.06 (io_trps.svl 2023.06)
