@<TRIPOS>MOLECULE
NONAME
34 34 1 0 0 
SMALL
USER_CHARGES


@<TRIPOS>ATOM
  1 BR      -0.4190    -0.5000     2.1560 Br    1 <1>  -0.1110 
  2 C       -1.8110     0.5130     1.2950 C.ar  1 <1>   0.1110 
  3 C       -1.6500     1.8740     1.1450 C.ar  1 <1>  -0.1500 
  4 C       -2.9370    -0.1520     0.8550 C.ar  1 <1>  -0.1500 
  5 C       -2.6500     2.6160     0.5260 C.ar  1 <1>   0.1170 
  6 C       -3.9320     0.5840     0.2350 C.ar  1 <1>  -0.1500 
  7 N       -2.5380     4.0070     0.3910 N.am  1 <1>  -0.5470 
  8 C       -3.7950     1.9550     0.0610 C.ar  1 <1>  -0.1430 
  9 C       -1.4630     4.8240     0.2550 C.2   1 <1>   0.7800 
 10 C       -4.9160     2.7110    -0.6670 C.3   1 <1>  -0.1230 
 11 O       -0.3170     4.4210     0.1950 O.2   1 <1>  -0.5700 
 12 O       -1.7420     6.1240     0.1820 O.3   1 <1>  -0.4300 
 13 C       -5.6730     3.6930     0.2000 C.2   1 <1>   0.9060 
 14 C       -0.8390     7.1960     0.0350 C.3   1 <1>   0.2800 
 15 O       -6.7770     3.3720     0.6490 O.co2 1 <1>  -0.9000 
 16 O       -5.1690     4.8060     0.3990 O.co2 1 <1>  -0.9000 
 17 C        0.1080     7.2590     1.2390 C.3   1 <1>  -0.2400 
 18 C       -1.7130     8.4500     0.0120 C.3   1 <1>  -0.2400 
 19 C       -0.0890     7.0770    -1.2970 C.3   1 <1>  -0.2400 
 20 H       -0.7620     2.3510     1.5120 H     1 <1>   0.1500 
 21 H       -3.0350    -1.2120     0.9940 H     1 <1>   0.1500 
 22 H       -4.8200     0.0860    -0.1120 H     1 <1>   0.1500 
 23 H       -3.4460     4.5150     0.3920 H     1 <1>   0.3700 
 24 H       -5.6330     2.0230    -1.0700 H     1 <1>   0.0800 
 25 H       -4.4990     3.2580    -1.4890 H     1 <1>   0.0800 
 26 H       -0.4560     7.2660     2.1540 H     1 <1>   0.0800 
 27 H        0.7000     8.1550     1.1940 H     1 <1>   0.0800 
 28 H        0.7820     6.4230     1.2450 H     1 <1>   0.0800 
 29 H       -2.2710     8.5290     0.9290 H     1 <1>   0.0800 
 30 H       -2.4050     8.4040    -0.8100 H     1 <1>   0.0800 
 31 H       -1.1080     9.3310    -0.0970 H     1 <1>   0.0800 
 32 H        0.5850     6.2400    -1.2880 H     1 <1>   0.0800 
 33 H        0.4940     7.9630    -1.4700 H     1 <1>   0.0800 
 34 H       -0.7860     6.9600    -2.1060 H     1 <1>   0.0800 
@<TRIPOS>BOND
  1   1   2  1   
  2   2   3  ar  
  3   2   4  ar  
  4   3   5  ar  
  5   3  20  1   
  6   4   6  ar  
  7   4  21  1   
  8   5   7  1   
  9   5   8  ar  
 10   6   8  ar  
 11   6  22  1   
 12   7   9  am  
 13   7  23  1   
 14   8  10  1   
 15   9  11  2   
 16   9  12  1   
 17  10  13  1   
 18  10  24  1   
 19  10  25  1   
 20  12  14  1   
 21  13  15  ar  
 22  13  16  ar  
 23  14  17  1   
 24  14  18  1   
 25  14  19  1   
 26  17  26  1   
 27  17  27  1   
 28  17  28  1   
 29  18  29  1   
 30  18  30  1   
 31  18  31  1   
 32  19  32  1   
 33  19  33  1   
 34  19  34  1   
@<TRIPOS>SUBSTRUCTURE
  1 ****   7 GROUP 4 **** **** 0

# MOE 2024.06 (io_trps.svl 2023.06)
