@<TRIPOS>MOLECULE
NONAME
52 54 1 0 0 
SMALL
USER_CHARGES


@<TRIPOS>ATOM
  1 CL      -5.1080    -0.7330     2.4950 Cl    1 <1>  -0.1770 
  2 C       -4.3940     0.6220     1.6540 C.ar  1 <1>   0.1770 
  3 C       -4.0160     0.4800     0.3290 C.ar  1 <1>  -0.1440 
  4 C       -4.2340     1.8190     2.3330 C.ar  1 <1>  -0.1500 
  5 C       -3.4760     1.5910    -0.2940 C.ar  1 <1>   0.1900 
  6 C       -4.1760    -0.8290    -0.4140 C.3   1 <1>   0.4860 
  7 C       -3.6850     2.9130     1.6800 C.ar  1 <1>  -0.1500 
  8 F       -3.1240     1.4960    -1.5470 F     1 <1>  -0.1900 
  9 C       -3.3020     2.8010     0.3530 C.ar  1 <1>  -0.1500 
 10 N       -5.6240    -1.1250    -0.5800 N.4   1 <1>  -0.9590 
 11 C       -5.8510    -2.5390    -1.0370 C.3   1 <1>   0.3430 
 12 C       -6.2920    -0.1490    -1.4910 C.3   1 <1>   0.3430 
 13 C       -7.2950    -3.0380    -0.8270 C.3   1 <1>   0.1400 
 14 C       -7.6470     0.2730    -0.9230 C.3   1 <1>  -0.1600 
 15 N       -8.3320    -2.0750    -1.3210 N.am  1 <1>  -0.6600 
 16 C       -8.5260    -0.8860    -0.4470 C.3   1 <1>   0.1400 
 17 C       -9.2620    -2.3600    -2.2990 C.2   1 <1>   0.5690 
 18 O      -10.0860    -1.5360    -2.6220 O.2   1 <1>  -0.5700 
 19 C       -9.3030    -3.6990    -3.0520 C.3   1 <1>   0.1810 
 20 O       -9.4100    -4.8370    -2.2280 O.3   1 <1>  -0.5600 
 21 C      -10.5690    -4.9080    -1.4450 C.3   1 <1>   0.2630 
 22 C      -10.2350    -4.4780    -0.0230 C.ar  1 <1>  -0.1430 
 23 C       -9.3770    -5.2460     0.7500 C.ar  1 <1>  -0.1500 
 24 C      -10.7820    -3.3230     0.5140 C.ar  1 <1>  -0.1500 
 25 C       -9.0640    -4.8610     2.0420 C.ar  1 <1>  -0.1500 
 26 C      -10.4700    -2.9360     1.8070 C.ar  1 <1>  -0.1500 
 27 C       -9.6090    -3.7040     2.5710 C.ar  1 <1>  -0.1500 
 28 H       -4.5350     1.8960     3.3640 H     1 <1>   0.1500 
 29 H       -3.7050    -1.6120     0.1590 H     1 <1>   0.0800 
 30 H       -3.6940    -0.7760    -1.3770 H     1 <1>   0.0800 
 31 H       -3.5560     3.8470     2.2030 H     1 <1>   0.1500 
 32 H       -2.8740     3.6400    -0.1710 H     1 <1>   0.1500 
 33 H       -6.0520    -1.0220     0.3500 H     1 <1>   0.4500 
 34 H       -5.1930    -3.2020    -0.4990 H     1 <1>   0.0800 
 35 H       -5.6080    -2.6220    -2.0830 H     1 <1>   0.0800 
 36 H       -6.4410    -0.5980    -2.4600 H     1 <1>   0.0800 
 37 H       -5.6820     0.7300    -1.6240 H     1 <1>   0.0800 
 38 H       -7.4610    -3.2200     0.2210 H     1 <1>   0.0800 
 39 H       -7.3870    -3.9880    -1.3170 H     1 <1>   0.0800 
 40 H       -8.1790     0.7990    -1.6960 H     1 <1>   0.0800 
 41 H       -7.5060     0.9690    -0.1160 H     1 <1>   0.0800 
 42 H       -9.5600    -0.5800    -0.4520 H     1 <1>   0.0800 
 43 H       -8.2850    -1.1460     0.5700 H     1 <1>   0.0800 
 44 H       -8.4030    -3.8030    -3.6280 H     1 <1>   0.0800 
 45 H      -10.1350    -3.7010    -3.7340 H     1 <1>   0.0800 
 46 H      -10.8950    -5.9340    -1.4430 H     1 <1>   0.0800 
 47 H      -11.3480    -4.3010    -1.8740 H     1 <1>   0.0800 
 48 H       -8.9550    -6.1490     0.3420 H     1 <1>   0.1500 
 49 H      -11.4520    -2.7170    -0.0720 H     1 <1>   0.1500 
 50 H       -8.4040    -5.4670     2.6390 H     1 <1>   0.1500 
 51 H      -10.9040    -2.0420     2.2190 H     1 <1>   0.1500 
 52 H       -9.3730    -3.4080     3.5780 H     1 <1>   0.1500 
@<TRIPOS>BOND
  1   1   2  1   
  2   2   3  ar  
  3   2   4  ar  
  4   3   5  ar  
  5   3   6  1   
  6   4   7  ar  
  7   4  28  1   
  8   5   8  1   
  9   5   9  ar  
 10   6  10  1   
 11   6  29  1   
 12   6  30  1   
 13   7   9  ar  
 14   7  31  1   
 15   9  32  1   
 16  10  11  1   
 17  10  12  1   
 18  10  33  1   
 19  11  13  1   
 20  11  34  1   
 21  11  35  1   
 22  12  14  1   
 23  12  36  1   
 24  12  37  1   
 25  13  15  1   
 26  13  38  1   
 27  13  39  1   
 28  14  16  1   
 29  14  40  1   
 30  14  41  1   
 31  15  16  1   
 32  15  17  am  
 33  16  42  1   
 34  16  43  1   
 35  17  18  2   
 36  17  19  1   
 37  19  20  1   
 38  19  44  1   
 39  19  45  1   
 40  20  21  1   
 41  21  22  1   
 42  21  46  1   
 43  21  47  1   
 44  22  23  ar  
 45  22  24  ar  
 46  23  25  ar  
 47  23  48  1   
 48  24  26  ar  
 49  24  49  1   
 50  25  27  ar  
 51  25  50  1   
 52  26  27  ar  
 53  26  51  1   
 54  27  52  1   
@<TRIPOS>SUBSTRUCTURE
  1 ****  16 GROUP 4 **** **** 0

# MOE 2024.06 (io_trps.svl 2023.06)
