@<TRIPOS>MOLECULE
NONAME
51 53 1 0 0 
SMALL
USER_CHARGES


@<TRIPOS>ATOM
  1 O        0.7340     0.2410    -0.3720 O.2   1 <1>  -0.5700 
  2 C        1.7330    -0.3950    -0.0750 C.2   1 <1>   0.7160 
  3 N        2.8100     0.3130     0.4480 N.am  1 <1>  -0.6600 
  4 C        1.7130    -1.8410    -0.2860 C.2   1 <1>   0.2030 
  5 C        3.9300    -0.3420     1.1970 C.3   1 <1>   0.1400 
  6 C        2.8100     1.8090     0.4350 C.3   1 <1>   0.1400 
  7 N        2.7100    -2.6800    -0.2920 N.2   1 <1>  -0.4100 
  8 C        0.5560    -2.5630    -0.5450 C.2   1 <1>  -0.1500 
  9 C        5.1400    -0.6100     0.2900 C.3   1 <1>   0.1400 
 10 C        4.1780     2.4420     0.1330 C.3   1 <1>  -0.1600 
 11 O        2.2890    -3.8980    -0.5290 O.3   1 <1>  -0.0190 
 12 C        0.9860    -3.8190    -0.6830 C.2   1 <1>  -0.0400 
 13 N        5.8600     0.6540    -0.0600 N.am  1 <1>  -0.6600 
 14 C        5.0550     1.6390    -0.8340 C.3   1 <1>   0.1400 
 15 C        0.2110    -5.0850    -0.9770 C.3   1 <1>  -0.0600 
 16 C        7.1480     0.8700     0.3690 C.2   1 <1>   0.5690 
 17 O        7.7600     0.0290     0.9850 O.2   1 <1>  -0.5700 
 18 C        7.8460     2.1890     0.0730 C.3   1 <1>  -0.0990 
 19 C        9.0710     2.4510     0.9590 C.3   1 <1>   0.0210 
 20 C        9.6960     3.7870     0.6040 C.2   1 <1>   0.1080 
 21 N        9.1160     4.9110     0.8940 N.2   1 <1>  -0.7070 
 22 C       10.9100     3.9750    -0.0560 C.2   1 <1>  -0.1810 
 23 N        9.9550     5.8530     0.4310 N.pl3 1 <1>   0.3000 
 24 C       11.0480     5.3160    -0.1510 C.2   1 <1>  -0.3320 
 25 C       11.8410     2.8780    -0.5440 C.3   1 <1>  -0.0590 
 26 C       12.1520     6.1650    -0.7580 C.3   1 <1>  -0.0600 
 27 H        3.5910    -1.2720     1.6150 H     1 <1>   0.0800 
 28 H        4.2340     0.2770     2.0230 H     1 <1>   0.0800 
 29 H        2.4480     2.1690     1.3830 H     1 <1>   0.0800 
 30 H        2.1230     2.1540    -0.3200 H     1 <1>   0.0800 
 31 H       -0.4360    -2.1540    -0.6120 H     1 <1>   0.1500 
 32 H        4.8250    -1.1030    -0.6120 H     1 <1>   0.0800 
 33 H        5.8040    -1.2830     0.8040 H     1 <1>   0.0800 
 34 H        4.7100     2.6130     1.0520 H     1 <1>   0.0800 
 35 H        3.9940     3.4090    -0.2980 H     1 <1>   0.0800 
 36 H        5.7060     2.3040    -1.3720 H     1 <1>   0.0800 
 37 H        4.4480     1.1280    -1.5620 H     1 <1>   0.0800 
 38 H       -0.8360    -4.8670    -1.0780 H     1 <1>   0.0800 
 39 H        0.3460    -5.7900    -0.1770 H     1 <1>   0.0800 
 40 H        0.5660    -5.5250    -1.8920 H     1 <1>   0.0800 
 41 H        7.1580     2.9980     0.2260 H     1 <1>   0.0800 
 42 H        8.1510     2.1920    -0.9570 H     1 <1>   0.0800 
 43 H        9.7900     1.6620     0.8390 H     1 <1>   0.0800 
 44 H        8.7720     2.4730     1.9920 H     1 <1>   0.0800 
 45 H        9.7560     6.8550     0.5280 H     1 <1>   0.2700 
 46 H       11.3070     2.2090    -1.1930 H     1 <1>   0.0800 
 47 H       12.2210     2.3240     0.2950 H     1 <1>   0.0800 
 48 H       12.6710     3.2900    -1.0870 H     1 <1>   0.0800 
 49 H       12.9380     5.5490    -1.1530 H     1 <1>   0.0800 
 50 H       12.5740     6.8110    -0.0090 H     1 <1>   0.0800 
 51 H       11.7580     6.7670    -1.5570 H     1 <1>   0.0800 
@<TRIPOS>BOND
  1   1   2  2   
  2   2   3  am  
  3   2   4  1   
  4   3   5  1   
  5   3   6  1   
  6   4   7  2   
  7   4   8  1   
  8   5   9  1   
  9   5  27  1   
 10   5  28  1   
 11   6  10  1   
 12   6  29  1   
 13   6  30  1   
 14   7  11  1   
 15   8  12  2   
 16   8  31  1   
 17   9  13  1   
 18   9  32  1   
 19   9  33  1   
 20  10  14  1   
 21  10  34  1   
 22  10  35  1   
 23  11  12  1   
 24  12  15  1   
 25  13  14  1   
 26  13  16  am  
 27  14  36  1   
 28  14  37  1   
 29  15  38  1   
 30  15  39  1   
 31  15  40  1   
 32  16  17  2   
 33  16  18  1   
 34  18  19  1   
 35  18  41  1   
 36  18  42  1   
 37  19  20  1   
 38  19  43  1   
 39  19  44  1   
 40  20  21  2   
 41  20  22  1   
 42  21  23  1   
 43  22  24  2   
 44  22  25  1   
 45  23  24  1   
 46  23  45  1   
 47  24  26  1   
 48  25  46  1   
 49  25  47  1   
 50  25  48  1   
 51  26  49  1   
 52  26  50  1   
 53  26  51  1   
@<TRIPOS>SUBSTRUCTURE
  1 ****  13 GROUP 4 **** **** 0

# MOE 2024.06 (io_trps.svl 2023.06)
