@<TRIPOS>MOLECULE
NONAME
52 54 1 0 0 
SMALL
USER_CHARGES


@<TRIPOS>ATOM
  1 O        0.4980     1.3390     0.6950 O.2   1 <1>  -0.5700 
  2 C        0.2930     2.4730     0.3510 C.2   1 <1>   0.5690 
  3 N       -0.7560     3.1680     0.8470 N.am  1 <1>  -0.7300 
  4 C        1.2170     3.1520    -0.6630 C.3   1 <1>   0.1810 
  5 C       -1.0490     4.5800     0.5030 C.3   1 <1>   0.3640 
  6 O        1.1990     4.5600    -0.5370 O.3   1 <1>  -0.5600 
  7 C       -2.5080     4.7120     0.0890 C.ar  1 <1>  -0.1440 
  8 C       -0.1080     5.1240    -0.6030 C.3   1 <1>   0.2610 
  9 C       -3.1180     3.7650    -0.7240 C.ar  1 <1>   0.1600 
 10 C       -3.2540     5.7980     0.5080 C.ar  1 <1>  -0.1500 
 11 C       -0.0550     6.6560    -0.5310 C.2   1 <1>   0.5690 
 12 N       -4.3720     3.8140    -1.1390 N.ar  1 <1>  -0.6200 
 13 C       -4.5630     5.8640     0.0840 C.ar  1 <1>  -0.1500 
 14 O       -0.6300     7.2640    -1.4020 O.2   1 <1>  -0.5700 
 15 N        0.6340     7.3450     0.4490 N.am  1 <1>  -0.6600 
 16 C       -5.0660     4.8620    -0.7270 C.ar  1 <1>   0.1600 
 17 C        1.6140     6.7370     1.3980 C.3   1 <1>   0.1400 
 18 C        0.8460     8.8180     0.3100 C.3   1 <1>   0.1400 
 19 C        3.0400     6.9530     0.8530 C.3   1 <1>   0.3430 
 20 C        2.2630     9.0750    -0.2400 C.3   1 <1>   0.3430 
 21 N        3.3390     8.4140     0.5980 N.4   1 <1>  -0.9590 
 22 C        4.6860     8.5580    -0.0200 C.3   1 <1>   0.3430 
 23 C        5.1640    10.0090     0.0650 C.3   1 <1>  -0.1600 
 24 C        6.5960    10.1390    -0.4680 C.3   1 <1>  -0.1600 
 25 C        7.0830    11.5880    -0.3830 C.3   1 <1>  -0.2400 
 26 H       -1.3860     2.6940     1.4990 H     1 <1>   0.3700 
 27 H        0.9140     2.8900    -1.6610 H     1 <1>   0.0800 
 28 H        2.2260     2.8160    -0.5070 H     1 <1>   0.0800 
 29 H       -0.9010     5.1630     1.3950 H     1 <1>   0.0800 
 30 H       -0.5150     4.8600    -1.5640 H     1 <1>   0.0800 
 31 H       -2.5470     2.9140    -1.0580 H     1 <1>   0.1500 
 32 H       -2.8440     6.5720     1.1340 H     1 <1>   0.1500 
 33 H       -5.1920     6.6860     0.3740 H     1 <1>   0.1500 
 34 H       -6.0900     4.9250    -1.0530 H     1 <1>   0.1500 
 35 H        1.5190     7.2060     2.3620 H     1 <1>   0.0800 
 36 H        1.4300     5.6880     1.5410 H     1 <1>   0.0800 
 37 H        0.1200     9.2510    -0.3580 H     1 <1>   0.0800 
 38 H        0.7260     9.2960     1.2660 H     1 <1>   0.0800 
 39 H        3.1320     6.3970    -0.0670 H     1 <1>   0.0800 
 40 H        3.7520     6.5500     1.5540 H     1 <1>   0.0800 
 41 H        2.4320    10.1380    -0.2870 H     1 <1>   0.0800 
 42 H        2.3030     8.6920    -1.2470 H     1 <1>   0.0800 
 43 H        3.3620     8.8910     1.5090 H     1 <1>   0.4500 
 44 H        5.3930     7.9340     0.5040 H     1 <1>   0.0800 
 45 H        4.6590     8.2400    -1.0500 H     1 <1>   0.0800 
 46 H        4.5250    10.6480    -0.5190 H     1 <1>   0.0800 
 47 H        5.1460    10.3380     1.0900 H     1 <1>   0.0800 
 48 H        7.2620     9.5150     0.1040 H     1 <1>   0.0800 
 49 H        6.6390     9.8180    -1.4960 H     1 <1>   0.0800 
 50 H        7.0810    11.9330     0.6360 H     1 <1>   0.0800 
 51 H        6.4550    12.2370    -0.9690 H     1 <1>   0.0800 
 52 H        8.0880    11.6610    -0.7610 H     1 <1>   0.0800 
@<TRIPOS>BOND
  1   1   2  2   
  2   2   3  am  
  3   2   4  1   
  4   3   5  1   
  5   3  26  1   
  6   4   6  1   
  7   4  27  1   
  8   4  28  1   
  9   5   7  1   
 10   5   8  1   
 11   5  29  1   
 12   6   8  1   
 13   7   9  ar  
 14   7  10  ar  
 15   8  11  1   
 16   8  30  1   
 17   9  12  ar  
 18   9  31  1   
 19  10  13  ar  
 20  10  32  1   
 21  11  14  2   
 22  11  15  am  
 23  12  16  ar  
 24  13  16  ar  
 25  13  33  1   
 26  15  17  1   
 27  15  18  1   
 28  16  34  1   
 29  17  19  1   
 30  17  35  1   
 31  17  36  1   
 32  18  20  1   
 33  18  37  1   
 34  18  38  1   
 35  19  21  1   
 36  19  39  1   
 37  19  40  1   
 38  20  21  1   
 39  20  41  1   
 40  20  42  1   
 41  21  22  1   
 42  21  43  1   
 43  22  23  1   
 44  22  44  1   
 45  22  45  1   
 46  23  24  1   
 47  23  46  1   
 48  23  47  1   
 49  24  25  1   
 50  24  48  1   
 51  24  49  1   
 52  25  50  1   
 53  25  51  1   
 54  25  52  1   
@<TRIPOS>SUBSTRUCTURE
  1 ****  11 GROUP 4 **** **** 0

# MOE 2024.06 (io_trps.svl 2023.06)
