@<TRIPOS>MOLECULE
NONAME
48 50 1 0 0 
SMALL
USER_CHARGES


@<TRIPOS>ATOM
  1 O       -0.9690    -0.1280     0.2610 O.2   1 <1>  -0.5700 
  2 C       -1.6830     0.7830    -0.1250 C.2   1 <1>   0.7150 
  3 N       -2.9060     0.4190    -0.6550 N.am  1 <1>  -0.6600 
  4 C       -1.2600     2.1640    -0.0030 C.2   1 <1>   0.0550 
  5 C       -3.1150    -0.9600    -1.1670 C.3   1 <1>   0.1400 
  6 C       -4.1620     1.1210    -0.2750 C.3   1 <1>   0.1400 
  7 O       -1.8440     3.1110    -0.7270 O.3   1 <1>  -0.2800 
  8 C       -0.2970     2.7380     0.7520 C.2   1 <1>   0.0460 
  9 C       -3.7910    -1.8090    -0.0690 C.3   1 <1>   0.4230 
 10 C       -4.8640     0.2970     0.8140 C.3   1 <1>  -0.1600 
 11 C       -1.1870     4.1900    -0.3550 C.2   1 <1>   0.2980 
 12 N       -0.2630     4.0440     0.5170 N.2   1 <1>  -0.5650 
 13 C        0.6770     2.1470     1.7520 C.3   1 <1>  -0.0590 
 14 N       -3.8790    -3.2930    -0.4010 N.4   1 <1>  -0.9590 
 15 C       -5.1370    -1.1830     0.4090 C.3   1 <1>   0.0000 
 16 C       -1.5750     5.5050    -0.9860 C.3   1 <1>  -0.0600 
 17 C       -4.8730    -4.0480     0.4310 C.3   1 <1>   0.3430 
 18 C       -4.0710    -3.6240    -1.8510 C.3   1 <1>   0.2630 
 19 C       -5.6450    -1.9570     1.6620 C.3   1 <1>  -0.1600 
 20 C       -6.1930    -1.2420    -0.7320 C.3   1 <1>   0.1200 
 21 C       -5.0690    -3.3800     1.7910 C.3   1 <1>  -0.1600 
 22 O       -7.3360    -0.5300    -0.4120 O.3   1 <1>  -0.6800 
 23 H       -3.7170    -0.9080    -2.0560 H     1 <1>   0.0800 
 24 H       -2.1640    -1.3930    -1.4290 H     1 <1>   0.0800 
 25 H       -3.9500     2.1050     0.1080 H     1 <1>   0.0800 
 26 H       -4.7940     1.2340    -1.1400 H     1 <1>   0.0800 
 27 H       -3.1300    -1.7330     0.7800 H     1 <1>   0.0800 
 28 H       -4.2360     0.3270     1.6880 H     1 <1>   0.0800 
 29 H       -5.7810     0.7930     1.0830 H     1 <1>   0.0800 
 30 H        0.5110     1.0960     1.8920 H     1 <1>   0.0800 
 31 H        0.5650     2.6420     2.6990 H     1 <1>   0.0800 
 32 H        1.6830     2.2950     1.4030 H     1 <1>   0.0800 
 33 H       -2.9530    -3.6630    -0.1340 H     1 <1>   0.4500 
 34 H       -0.9540     6.2930    -0.6000 H     1 <1>   0.0800 
 35 H       -2.6020     5.7240    -0.7620 H     1 <1>   0.0800 
 36 H       -1.4480     5.4460    -2.0500 H     1 <1>   0.0800 
 37 H       -5.8250    -4.0770    -0.0740 H     1 <1>   0.0800 
 38 H       -4.5390    -5.0650     0.5680 H     1 <1>   0.0800 
 39 H       -5.0060    -3.2280    -2.2100 H     1 <1>   0.0800 
 40 H       -4.0750    -4.6930    -1.9920 H     1 <1>   0.0800 
 41 H       -3.2700    -3.2110    -2.4430 H     1 <1>   0.0800 
 42 H       -5.3890    -1.4270     2.5650 H     1 <1>   0.0800 
 43 H       -6.7190    -2.0160     1.6500 H     1 <1>   0.0800 
 44 H       -6.4940    -2.2530    -0.9410 H     1 <1>   0.0800 
 45 H       -5.8140    -0.8080    -1.6400 H     1 <1>   0.0800 
 46 H       -5.7380    -3.9780     2.3860 H     1 <1>   0.0800 
 47 H       -4.1260    -3.3540     2.3100 H     1 <1>   0.0800 
 48 H       -7.8030    -0.9030     0.3620 H     1 <1>   0.4000 
@<TRIPOS>BOND
  1   1   2  2   
  2   2   3  am  
  3   2   4  1   
  4   3   5  1   
  5   3   6  1   
  6   4   7  1   
  7   4   8  2   
  8   5   9  1   
  9   5  23  1   
 10   5  24  1   
 11   6  10  1   
 12   6  25  1   
 13   6  26  1   
 14   7  11  1   
 15   8  12  1   
 16   8  13  1   
 17   9  14  1   
 18   9  15  1   
 19   9  27  1   
 20  10  15  1   
 21  10  28  1   
 22  10  29  1   
 23  11  12  2   
 24  11  16  1   
 25  13  30  1   
 26  13  31  1   
 27  13  32  1   
 28  14  17  1   
 29  14  18  1   
 30  14  33  1   
 31  15  19  1   
 32  15  20  1   
 33  16  34  1   
 34  16  35  1   
 35  16  36  1   
 36  17  21  1   
 37  17  37  1   
 38  17  38  1   
 39  18  39  1   
 40  18  40  1   
 41  18  41  1   
 42  19  21  1   
 43  19  42  1   
 44  19  43  1   
 45  20  22  1   
 46  20  44  1   
 47  20  45  1   
 48  21  46  1   
 49  21  47  1   
 50  22  48  1   
@<TRIPOS>SUBSTRUCTURE
  1 ****   3 GROUP 4 **** **** 0

# MOE 2024.06 (io_trps.svl 2023.06)
