@<TRIPOS>MOLECULE
NONAME
58 60 1 0 0 
SMALL
USER_CHARGES


@<TRIPOS>ATOM
  1 O        1.9210    -0.8600     0.7970 O.2   1 <1>  -0.5700 
  2 C        2.9110    -1.5070     0.5460 C.2   1 <1>   0.5690 
  3 N        4.1520    -1.0120     0.8570 N.am  1 <1>  -0.6600 
  4 C        2.7250    -2.8810    -0.1030 C.3   1 <1>  -0.0190 
  5 C        4.2740     0.1670     1.7820 C.3   1 <1>   0.1400 
  6 C        5.4630    -1.5720     0.4240 C.3   1 <1>   0.1400 
  7 C        1.3000    -3.0320    -0.6240 C.3   1 <1>   0.3430 
  8 C        2.8200    -4.0090     0.9360 C.3   1 <1>  -0.1600 
  9 C        4.2710     1.5070     1.0250 C.3   1 <1>   0.3430 
 10 C        6.0650    -0.7250    -0.7060 C.3   1 <1>  -0.1600 
 11 N        0.5210    -3.4000     0.5840 N.4   1 <1>  -0.9590 
 12 C        1.3860    -4.3080     1.3820 C.3   1 <1>   0.3430 
 13 N        4.8270     1.3950    -0.3690 N.4   1 <1>  -0.9590 
 14 C        6.1830     0.7760    -0.4100 C.3   1 <1>   0.3430 
 15 C       -0.8390    -3.9660     0.3090 C.3   1 <1>   0.3430 
 16 C        4.7730     2.6540    -1.1740 C.3   1 <1>   0.4230 
 17 C       -1.7890    -2.9350    -0.3090 C.3   1 <1>   0.1200 
 18 C        5.4630     3.8330    -0.4840 C.3   1 <1>  -0.1600 
 19 C        3.3320     3.1200    -1.3740 C.3   1 <1>  -0.1600 
 20 O       -2.9890    -3.5820    -0.5590 O.3   1 <1>  -0.5600 
 21 C        4.3840     4.6130     0.2770 C.3   1 <1>  -0.1600 
 22 C        3.0350     4.1760    -0.3010 C.3   1 <1>  -0.1600 
 23 C       -3.9850    -2.7650    -1.0900 C.3   1 <1>   0.0400 
 24 H        3.4230    -3.0070    -0.9100 H     1 <1>   0.0800 
 25 H        5.1800     0.0880     2.3570 H     1 <1>   0.0800 
 26 H        3.4610     0.1670     2.4890 H     1 <1>   0.0800 
 27 H        5.3570    -2.5910     0.0930 H     1 <1>   0.0800 
 28 H        6.1390    -1.5890     1.2650 H     1 <1>   0.0800 
 29 H        1.2560    -3.8300    -1.3480 H     1 <1>   0.0800 
 30 H        0.9390    -2.1180    -1.0680 H     1 <1>   0.0800 
 31 H        3.4350    -3.7390     1.7780 H     1 <1>   0.0800 
 32 H        3.2340    -4.8970     0.4900 H     1 <1>   0.0800 
 33 H        4.8250     2.2360     1.5920 H     1 <1>   0.0800 
 34 H        3.2510     1.8480     0.9680 H     1 <1>   0.0800 
 35 H        5.5070    -0.8750    -1.6130 H     1 <1>   0.0800 
 36 H        7.0570    -1.0980    -0.8940 H     1 <1>   0.0800 
 37 H        0.4200    -2.5220     1.1250 H     1 <1>   0.4500 
 38 H        1.2580    -4.1240     2.4370 H     1 <1>   0.0800 
 39 H        1.1470    -5.3380     1.1710 H     1 <1>   0.0800 
 40 H        4.2020     0.7240    -0.8310 H     1 <1>   0.4500 
 41 H        6.7630     1.2340    -1.1960 H     1 <1>   0.0800 
 42 H        6.7000     0.9390     0.5210 H     1 <1>   0.0800 
 43 H       -1.2760    -4.3120     1.2310 H     1 <1>   0.0800 
 44 H       -0.7540    -4.8050    -0.3610 H     1 <1>   0.0800 
 45 H        5.2280     2.4750    -2.1350 H     1 <1>   0.0800 
 46 H       -1.4080    -2.5630    -1.2440 H     1 <1>   0.0800 
 47 H       -1.9730    -2.1260     0.3770 H     1 <1>   0.0800 
 48 H        5.8530     4.4780    -1.2540 H     1 <1>   0.0800 
 49 H        6.2820     3.5420     0.1490 H     1 <1>   0.0800 
 50 H        2.6210     2.3140    -1.3640 H     1 <1>   0.0800 
 51 H        3.2750     3.6020    -2.3350 H     1 <1>   0.0800 
 52 H        4.5280     5.6750     0.1560 H     1 <1>   0.0800 
 53 H        4.4240     4.3920     1.3300 H     1 <1>   0.0800 
 54 H        2.4110     3.7680     0.4760 H     1 <1>   0.0800 
 55 H        2.5160     5.0160    -0.7350 H     1 <1>   0.0800 
 56 H       -4.8650    -3.3660    -1.2460 H     1 <1>   0.0800 
 57 H       -3.6550    -2.3620    -2.0320 H     1 <1>   0.0800 
 58 H       -4.2100    -1.9740    -0.3960 H     1 <1>   0.0800 
@<TRIPOS>BOND
  1   1   2  2   
  2   2   3  am  
  3   2   4  1   
  4   3   5  1   
  5   3   6  1   
  6   4   7  1   
  7   4   8  1   
  8   4  24  1   
  9   5   9  1   
 10   5  25  1   
 11   5  26  1   
 12   6  10  1   
 13   6  27  1   
 14   6  28  1   
 15   7  11  1   
 16   7  29  1   
 17   7  30  1   
 18   8  12  1   
 19   8  31  1   
 20   8  32  1   
 21   9  13  1   
 22   9  33  1   
 23   9  34  1   
 24  10  14  1   
 25  10  35  1   
 26  10  36  1   
 27  11  12  1   
 28  11  15  1   
 29  11  37  1   
 30  12  38  1   
 31  12  39  1   
 32  13  14  1   
 33  13  16  1   
 34  13  40  1   
 35  14  41  1   
 36  14  42  1   
 37  15  17  1   
 38  15  43  1   
 39  15  44  1   
 40  16  18  1   
 41  16  19  1   
 42  16  45  1   
 43  17  20  1   
 44  17  46  1   
 45  17  47  1   
 46  18  21  1   
 47  18  48  1   
 48  18  49  1   
 49  19  22  1   
 50  19  50  1   
 51  19  51  1   
 52  20  23  1   
 53  21  22  1   
 54  21  52  1   
 55  21  53  1   
 56  22  54  1   
 57  22  55  1   
 58  23  56  1   
 59  23  57  1   
 60  23  58  1   
@<TRIPOS>SUBSTRUCTURE
  1 ****   1 GROUP 4 **** **** 0

# MOE 2024.06 (io_trps.svl 2023.06)
