@<TRIPOS>MOLECULE
NONAME
54 56 1 0 0 
SMALL
USER_CHARGES


@<TRIPOS>ATOM
  1 F        0.4640    -3.7370    -2.4030 F     1 <1>  -0.1900 
  2 C       -0.4690    -4.3080    -1.6840 C.ar  1 <1>   0.1900 
  3 C       -0.2160    -5.4420    -0.9050 C.ar  1 <1>   0.0830 
  4 C       -1.7240    -3.7310    -1.7340 C.ar  1 <1>  -0.1500 
  5 O        0.9720    -6.1010    -0.7730 O.3   1 <1>  -0.3630 
  6 C       -1.2710    -5.9720    -0.1800 C.ar  1 <1>  -0.1500 
  7 C       -2.7540    -4.2860    -0.9980 C.ar  1 <1>  -0.1500 
  8 C        2.1550    -5.6870    -1.4180 C.3   1 <1>   0.0400 
  9 C       -2.5540    -5.4200    -0.2090 C.ar  1 <1>   0.0530 
 10 C       -3.6300    -6.0110     0.5490 C.2   1 <1>   0.0870 
 11 O       -3.3830    -6.7780     1.5850 O.3   1 <1>  -0.0190 
 12 C       -4.9770    -5.9830     0.4040 C.2   1 <1>  -0.2330 
 13 N       -4.4720    -7.2500     2.1370 N.2   1 <1>  -0.4100 
 14 C       -5.4460    -6.7550     1.4610 C.2   1 <1>   0.3720 
 15 C       -5.7840    -5.4160    -0.6170 C.2   1 <1>   1.0330 
 16 N       -6.7750    -7.0520     1.7750 N.pl3 1 <1>  -0.8210 
 17 O       -6.2720    -4.2850    -0.4970 O.co2 1 <1>  -0.9000 
 18 O       -6.0360    -6.0960    -1.6270 O.co2 1 <1>  -0.9000 
 19 C       -7.5550    -7.8210     0.7510 C.3   1 <1>   0.2090 
 20 C       -7.5100    -5.8210     2.1940 C.3   1 <1>   0.1290 
 21 C       -7.1060    -9.2950     0.6560 C.3   1 <1>   0.3430 
 22 N       -5.6540    -9.4640     0.3320 N.4   1 <1>  -0.9590 
 23 C       -5.3870    -9.1190    -1.0960 C.3   1 <1>   0.3430 
 24 C       -5.1410   -10.7800     0.7850 C.3   1 <1>   0.3430 
 25 C       -3.8960    -9.0650    -1.4330 C.3   1 <1>  -0.1600 
 26 C       -3.6430   -10.6960     1.0770 C.3   1 <1>  -0.1600 
 27 C       -3.2370   -10.4490    -1.4880 C.3   1 <1>  -0.1600 
 28 C       -2.7270   -10.9530    -0.1310 C.3   1 <1>  -0.1600 
 29 H       -1.8940    -2.8600    -2.3410 H     1 <1>   0.1500 
 30 H       -1.0840    -6.8420     0.4230 H     1 <1>   0.1500 
 31 H       -3.7280    -3.8250    -1.0390 H     1 <1>   0.1500 
 32 H        2.9430    -6.3630    -1.1390 H     1 <1>   0.0800 
 33 H        2.4000    -4.6900    -1.0960 H     1 <1>   0.0800 
 34 H        2.0050    -5.7220    -2.4830 H     1 <1>   0.0800 
 35 H       -7.4940    -7.3520    -0.2130 H     1 <1>   0.0800 
 36 H       -8.5930    -7.8120     1.0320 H     1 <1>   0.0800 
 37 H       -6.8600    -5.1780     2.7650 H     1 <1>   0.0800 
 38 H       -8.3530    -6.0860     2.8060 H     1 <1>   0.0800 
 39 H       -7.8550    -5.2730     1.3310 H     1 <1>   0.0800 
 40 H       -7.7030    -9.8000    -0.0840 H     1 <1>   0.0800 
 41 H       -7.3090    -9.7490     1.6110 H     1 <1>   0.0800 
 42 H       -5.1790    -8.7390     0.9080 H     1 <1>   0.4500 
 43 H       -5.8160    -8.1590    -1.3110 H     1 <1>   0.0800 
 44 H       -5.8680    -9.8340    -1.7410 H     1 <1>   0.0800 
 45 H       -5.3430   -11.5430     0.0520 H     1 <1>   0.0800 
 46 H       -5.6410   -11.0480     1.7020 H     1 <1>   0.0800 
 47 H       -3.3730    -8.4110    -0.7600 H     1 <1>   0.0800 
 48 H       -3.8210    -8.6220    -2.4110 H     1 <1>   0.0800 
 49 H       -3.4070   -11.4330     1.8240 H     1 <1>   0.0800 
 50 H       -3.4140    -9.7390     1.5120 H     1 <1>   0.0800 
 51 H       -2.3940   -10.4010    -2.1570 H     1 <1>   0.0800 
 52 H       -3.9260   -11.1610    -1.9090 H     1 <1>   0.0800 
 53 H       -2.5450   -12.0110    -0.2170 H     1 <1>   0.0800 
 54 H       -1.7740   -10.4920     0.0730 H     1 <1>   0.0800 
@<TRIPOS>BOND
  1   1   2  1   
  2   2   3  ar  
  3   2   4  ar  
  4   3   5  1   
  5   3   6  ar  
  6   4   7  ar  
  7   4  29  1   
  8   5   8  1   
  9   6   9  ar  
 10   6  30  1   
 11   7   9  ar  
 12   7  31  1   
 13   8  32  1   
 14   8  33  1   
 15   8  34  1   
 16   9  10  1   
 17  10  11  1   
 18  10  12  2   
 19  11  13  1   
 20  12  14  1   
 21  12  15  1   
 22  13  14  2   
 23  14  16  1   
 24  15  17  ar  
 25  15  18  ar  
 26  16  19  1   
 27  16  20  1   
 28  19  21  1   
 29  19  35  1   
 30  19  36  1   
 31  20  37  1   
 32  20  38  1   
 33  20  39  1   
 34  21  22  1   
 35  21  40  1   
 36  21  41  1   
 37  22  23  1   
 38  22  24  1   
 39  22  42  1   
 40  23  25  1   
 41  23  43  1   
 42  23  44  1   
 43  24  26  1   
 44  24  45  1   
 45  24  46  1   
 46  25  27  1   
 47  25  47  1   
 48  25  48  1   
 49  26  28  1   
 50  26  49  1   
 51  26  50  1   
 52  27  28  1   
 53  27  51  1   
 54  27  52  1   
 55  28  53  1   
 56  28  54  1   
@<TRIPOS>SUBSTRUCTURE
  1 ****  10 GROUP 4 **** **** 0

# MOE 2024.06 (io_trps.svl 2023.06)
