@<TRIPOS>MOLECULE
NONAME
48 51 1 0 0 
SMALL
USER_CHARGES


@<TRIPOS>ATOM
  1 O       -2.9700     0.8410    -1.7880 O.2   1 <1>  -0.5700 
  2 C       -2.3670     0.6370    -0.7520 C.2   1 <1>   0.7160 
  3 N       -2.2390    -0.6480    -0.3200 N.am  1 <1>  -0.7300 
  4 C       -1.8270     1.7260     0.0210 C.2   1 <1>  -0.0860 
  5 C       -2.8100    -1.8400    -0.9860 C.3   1 <1>   0.2200 
  6 C       -1.1250     1.6420     1.2270 C.2   1 <1>   0.1390 
  7 C       -1.8690     3.0670    -0.2120 C.2   1 <1>  -0.3020 
  8 C       -4.0780    -2.3080    -0.2810 C.3   1 <1>  -0.0800 
  9 C       -1.8940    -3.0280    -0.7280 C.3   1 <1>   0.1200 
 10 N       -0.7750     2.7980     1.6930 N.2   1 <1>  -0.7070 
 11 N       -1.2360     3.6860     0.7950 N.pl3 1 <1>   0.3140 
 12 C       -3.5430    -3.1980     0.8480 C.3   1 <1>   0.1200 
 13 C       -5.0360    -1.1970     0.1940 C.3   1 <1>  -0.0160 
 14 O       -2.1900    -3.4270     0.5740 O.3   1 <1>  -0.5600 
 15 C       -1.0360     5.1400     0.9570 C.3   1 <1>   0.0960 
 16 C       -6.3060    -1.7880     0.7980 C.ar  1 <1>  -0.1440 
 17 C        0.1640     5.6280     0.1360 C.3   1 <1>  -0.2400 
 18 C       -7.3550    -2.3060     0.0020 C.ar  1 <1>   0.0000 
 19 C       -6.4590    -1.8360     2.1520 C.ar  1 <1>  -0.1500 
 20 C       -8.4740    -2.8610     0.6690 C.ar  1 <1>   0.3100 
 21 C       -7.3610    -2.3040    -1.4130 C.ar  1 <1>  -0.1500 
 22 C       -7.6130    -2.3970     2.7120 C.ar  1 <1>   0.1600 
 23 N       -8.5870    -2.8980     2.0210 N.ar  1 <1>  -0.6200 
 24 C       -9.5220    -3.3980    -0.0940 C.ar  1 <1>  -0.1500 
 25 C       -8.4010    -2.8330    -2.1270 C.ar  1 <1>  -0.1500 
 26 C       -9.4950    -3.3910    -1.4620 C.ar  1 <1>  -0.1500 
 27 H       -1.7720    -0.8540     0.5640 H     1 <1>   0.3700 
 28 H       -2.9580    -1.6590    -2.0380 H     1 <1>   0.0800 
 29 H       -0.8890     0.7210     1.7310 H     1 <1>   0.1500 
 30 H       -2.3180     3.5830    -1.0410 H     1 <1>   0.1500 
 31 H       -4.6100    -2.9490    -0.9610 H     1 <1>   0.0800 
 32 H       -0.8500    -2.7770    -0.8060 H     1 <1>   0.0800 
 33 H       -2.1270    -3.8450    -1.3880 H     1 <1>   0.0800 
 34 H       -4.0570    -4.1430     0.8850 H     1 <1>   0.0800 
 35 H       -3.6040    -2.7130     1.8060 H     1 <1>   0.0800 
 36 H       -5.2870    -0.5470    -0.6260 H     1 <1>   0.0800 
 37 H       -4.5500    -0.5860     0.9340 H     1 <1>   0.0800 
 38 H       -1.9320     5.6450     0.6460 H     1 <1>   0.0800 
 39 H       -0.8730     5.3410     2.0010 H     1 <1>   0.0800 
 40 H        0.0030     5.4410    -0.9110 H     1 <1>   0.0800 
 41 H        1.0580     5.1210     0.4550 H     1 <1>   0.0800 
 42 H        0.2990     6.6840     0.2800 H     1 <1>   0.0800 
 43 H       -5.7090    -1.4540     2.8200 H     1 <1>   0.1500 
 44 H       -6.5340    -1.8740    -1.9450 H     1 <1>   0.1500 
 45 H       -7.6930    -2.4150     3.7860 H     1 <1>   0.1500 
 46 H      -10.3550    -3.8180     0.4390 H     1 <1>   0.1500 
 47 H       -8.3930    -2.8260    -3.2040 H     1 <1>   0.1500 
 48 H      -10.3070    -3.8060    -2.0340 H     1 <1>   0.1500 
@<TRIPOS>BOND
  1   1   2  2   
  2   2   3  am  
  3   2   4  1   
  4   3   5  1   
  5   3  27  1   
  6   4   6  1   
  7   4   7  2   
  8   5   8  1   
  9   5   9  1   
 10   5  28  1   
 11   6  10  2   
 12   6  29  1   
 13   7  11  1   
 14   7  30  1   
 15   8  12  1   
 16   8  13  1   
 17   8  31  1   
 18   9  14  1   
 19   9  32  1   
 20   9  33  1   
 21  10  11  1   
 22  11  15  1   
 23  12  14  1   
 24  12  34  1   
 25  12  35  1   
 26  13  16  1   
 27  13  36  1   
 28  13  37  1   
 29  15  17  1   
 30  15  38  1   
 31  15  39  1   
 32  16  18  ar  
 33  16  19  ar  
 34  17  40  1   
 35  17  41  1   
 36  17  42  1   
 37  18  20  ar  
 38  18  21  ar  
 39  19  22  ar  
 40  19  43  1   
 41  20  23  ar  
 42  20  24  ar  
 43  21  25  ar  
 44  21  44  1   
 45  22  23  ar  
 46  22  45  1   
 47  24  26  ar  
 48  24  46  1   
 49  25  26  ar  
 50  25  47  1   
 51  26  48  1   
@<TRIPOS>SUBSTRUCTURE
  1 ****  13 GROUP 4 **** **** 0

# MOE 2024.06 (io_trps.svl 2023.06)
