@<TRIPOS>MOLECULE
NONAME
59 62 1 0 0 
SMALL
USER_CHARGES


@<TRIPOS>ATOM
  1 O        1.7540    -0.6460     2.0260 O.2   1 <1>  -0.5700 
  2 C        1.9380    -1.0250     0.8920 C.2   1 <1>   0.5690 
  3 N        2.2240    -0.1430    -0.1390 N.am  1 <1>  -0.6600 
  4 C        1.8650    -2.5500     0.6750 C.3   1 <1>   0.1710 
  5 C        2.1010     1.3410     0.0040 C.3   1 <1>   0.2200 
  6 C        2.6930    -0.5470    -1.4950 C.3   1 <1>   0.0600 
  7 N        0.5430    -3.0720     0.2230 N.3   1 <1>  -0.8100 
  8 C        3.1610     1.9130     0.9560 C.3   1 <1>  -0.1600 
  9 C        0.6810     1.7670     0.4040 C.3   1 <1>  -0.1600 
 10 C        0.0810    -2.5910    -1.0800 C.3   1 <1>   0.1100 
 11 C        0.4590    -4.5360     0.1850 C.3   1 <1>   0.1100 
 12 C        3.0510     3.4440     1.0400 C.3   1 <1>  -0.1600 
 13 C        0.5740     3.2980     0.4860 C.3   1 <1>  -0.1600 
 14 C       -1.0770    -3.5260    -1.4040 C.3   1 <1>   0.2000 
 15 C       -0.5410    -4.8850    -0.9340 C.3   1 <1>  -0.0800 
 16 C        1.6320     3.8750     1.4390 C.3   1 <1>  -0.1600 
 17 O       -2.1390    -3.1380    -0.6090 O.3   1 <1>  -0.6800 
 18 C       -1.6260    -5.8960    -0.5020 C.3   1 <1>  -0.0170 
 19 C       -1.1460    -7.3100    -0.1480 C.ar  1 <1>  -0.1440 
 20 C       -2.0420    -8.2210     0.4670 C.ar  1 <1>   0.0000 
 21 C        0.1190    -7.7650    -0.4020 C.ar  1 <1>  -0.1500 
 22 C       -1.5580    -9.5110     0.7970 C.ar  1 <1>   0.3100 
 23 C       -3.3930    -7.9290     0.7700 C.ar  1 <1>  -0.1500 
 24 C        0.4930    -9.0650    -0.0400 C.ar  1 <1>   0.1600 
 25 N       -0.2900    -9.9160     0.5390 N.ar  1 <1>  -0.6200 
 26 C       -2.4230   -10.4270     1.4180 C.ar  1 <1>  -0.1500 
 27 C       -4.2110    -8.8460     1.3740 C.ar  1 <1>  -0.1500 
 28 C       -3.7220   -10.1110     1.7050 C.ar  1 <1>  -0.1500 
 29 H        2.0840    -3.0010     1.6260 H     1 <1>   0.0800 
 30 H        2.6360    -2.8670     0.0020 H     1 <1>   0.0800 
 31 H        2.2860     1.7840    -0.9610 H     1 <1>   0.0800 
 32 H        3.5920    -0.0080    -1.7390 H     1 <1>   0.0800 
 33 H        1.9360    -0.3080    -2.2220 H     1 <1>   0.0800 
 34 H        2.9110    -1.5950    -1.5540 H     1 <1>   0.0800 
 35 H        3.0260     1.5070     1.9420 H     1 <1>   0.0800 
 36 H        4.1420     1.6420     0.6080 H     1 <1>   0.0800 
 37 H       -0.0240     1.3950    -0.3180 H     1 <1>   0.0800 
 38 H        0.4290     1.3590     1.3660 H     1 <1>   0.0800 
 39 H       -0.2300    -1.5610    -1.0390 H     1 <1>   0.0800 
 40 H        0.8560    -2.7120    -1.8160 H     1 <1>   0.0800 
 41 H        1.4210    -4.9680    -0.0320 H     1 <1>   0.0800 
 42 H        0.1210    -4.8970     1.1430 H     1 <1>   0.0800 
 43 H        3.7560     3.8150     1.7630 H     1 <1>   0.0800 
 44 H        3.2990     3.8740     0.0850 H     1 <1>   0.0800 
 45 H        0.7090     3.7210    -0.4950 H     1 <1>   0.0800 
 46 H       -0.4080     3.5710     0.8310 H     1 <1>   0.0800 
 47 H       -1.3830    -3.5080    -2.4360 H     1 <1>   0.0800 
 48 H        0.0100    -5.3000    -1.7580 H     1 <1>   0.0800 
 49 H        1.5680     4.9490     1.4410 H     1 <1>   0.0800 
 50 H        1.4280     3.5320     2.4400 H     1 <1>   0.0800 
 51 H       -1.7530    -2.9230     0.2700 H     1 <1>   0.4000 
 52 H       -2.3540    -5.9740    -1.2910 H     1 <1>   0.0800 
 53 H       -2.1250    -5.4910     0.3600 H     1 <1>   0.0800 
 54 H        0.8680    -7.1650    -0.8780 H     1 <1>   0.1500 
 55 H       -3.7980    -6.9660     0.5210 H     1 <1>   0.1500 
 56 H        1.5010    -9.3770    -0.2580 H     1 <1>   0.1500 
 57 H       -2.0240   -11.3940     1.6610 H     1 <1>   0.1500 
 58 H       -5.2360    -8.6060     1.5990 H     1 <1>   0.1500 
 59 H       -4.3740   -10.8230     2.1810 H     1 <1>   0.1500 
@<TRIPOS>BOND
  1   1   2  2   
  2   2   3  am  
  3   2   4  1   
  4   3   5  1   
  5   3   6  1   
  6   4   7  1   
  7   4  29  1   
  8   4  30  1   
  9   5   8  1   
 10   5   9  1   
 11   5  31  1   
 12   6  32  1   
 13   6  33  1   
 14   6  34  1   
 15   7  10  1   
 16   7  11  1   
 17   8  12  1   
 18   8  35  1   
 19   8  36  1   
 20   9  13  1   
 21   9  37  1   
 22   9  38  1   
 23  10  14  1   
 24  10  39  1   
 25  10  40  1   
 26  11  15  1   
 27  11  41  1   
 28  11  42  1   
 29  12  16  1   
 30  12  43  1   
 31  12  44  1   
 32  13  16  1   
 33  13  45  1   
 34  13  46  1   
 35  14  15  1   
 36  14  17  1   
 37  14  47  1   
 38  15  18  1   
 39  15  48  1   
 40  16  49  1   
 41  16  50  1   
 42  17  51  1   
 43  18  19  1   
 44  18  52  1   
 45  18  53  1   
 46  19  20  ar  
 47  19  21  ar  
 48  20  22  ar  
 49  20  23  ar  
 50  21  24  ar  
 51  21  54  1   
 52  22  25  ar  
 53  22  26  ar  
 54  23  27  ar  
 55  23  55  1   
 56  24  25  ar  
 57  24  56  1   
 58  26  28  ar  
 59  26  57  1   
 60  27  28  ar  
 61  27  58  1   
 62  28  59  1   
@<TRIPOS>SUBSTRUCTURE
  1 ****  11 GROUP 4 **** **** 0

# MOE 2024.06 (io_trps.svl 2023.06)
