@<TRIPOS>MOLECULE
NONAME
41 43 1 0 0 
SMALL
USER_CHARGES


@<TRIPOS>ATOM
  1 O       -0.6220    -1.6130     0.0220 O.3   1 <1>  -0.6800 
  2 C        0.5120    -1.5900     0.8290 C.3   1 <1>   0.2000 
  3 C        1.7890    -1.7420    -0.1080 C.3   1 <1>   0.0000 
  4 C        0.3620    -2.6990     1.8510 C.3   1 <1>  -0.1600 
  5 C        3.1290    -1.8980    -0.9340 C.3   1 <1>   0.3430 
  6 C        1.7610    -0.1820    -0.4680 C.3   1 <1>  -0.1600 
  7 C        1.8210    -3.3180     0.1510 C.3   1 <1>  -0.1600 
  8 C        0.7350    -3.8940     1.0480 C.3   1 <1>  -0.1600 
  9 N        4.2980    -1.3510    -0.1690 N.4   1 <1>  -0.9590 
 10 C        2.8620     0.5910     0.2850 C.3   1 <1>  -0.1600 
 11 C        4.2540     0.1360    -0.1430 C.3   1 <1>   0.3430 
 12 C        5.5940    -1.8620    -0.6970 C.3   1 <1>   0.4860 
 13 C        6.7190    -1.4110     0.2100 C.ar  1 <1>  -0.1440 
 14 C        6.9440    -2.0630     1.4140 C.ar  1 <1>   0.1600 
 15 C        7.5370    -0.3520    -0.1380 C.ar  1 <1>  -0.1500 
 16 N        7.8800    -1.7350     2.2840 N.ar  1 <1>  -0.6200 
 17 C        8.5260    -0.0060     0.7590 C.ar  1 <1>  -0.1500 
 18 C        8.6530    -0.7180     1.9390 C.ar  1 <1>   0.1600 
 19 H       -1.4310    -1.6450     0.5690 H     1 <1>   0.4000 
 20 H        0.4900    -0.6760     1.4030 H     1 <1>   0.0800 
 21 H        1.0700    -2.5550     2.6480 H     1 <1>   0.0800 
 22 H       -0.6300    -2.7650     2.2650 H     1 <1>   0.0800 
 23 H        3.0560    -1.3970    -1.8850 H     1 <1>   0.0800 
 24 H        3.3520    -2.9200    -1.1950 H     1 <1>   0.0800 
 25 H        1.8690    -0.0140    -1.5280 H     1 <1>   0.0800 
 26 H        0.8390     0.3530    -0.2900 H     1 <1>   0.0800 
 27 H        1.7330    -3.8630    -0.7780 H     1 <1>   0.0800 
 28 H        2.7450    -3.6090     0.6290 H     1 <1>   0.0800 
 29 H        1.0800    -4.7110     1.6600 H     1 <1>   0.0800 
 30 H       -0.1050    -4.2200     0.4570 H     1 <1>   0.0800 
 31 H        4.2060    -1.6690     0.8040 H     1 <1>   0.4500 
 32 H        2.7490     0.4550     1.3470 H     1 <1>   0.0800 
 33 H        2.7670     1.6440     0.0850 H     1 <1>   0.0800 
 34 H        4.9960     0.5270     0.5370 H     1 <1>   0.0800 
 35 H        4.4610     0.5200    -1.1290 H     1 <1>   0.0800 
 36 H        5.5790    -2.9390    -0.7350 H     1 <1>   0.0800 
 37 H        5.7600    -1.4910    -1.6950 H     1 <1>   0.0800 
 38 H        6.3260    -2.9020     1.6890 H     1 <1>   0.1500 
 39 H        7.4280     0.1890    -1.0630 H     1 <1>   0.1500 
 40 H        9.2000     0.8060     0.5500 H     1 <1>   0.1500 
 41 H        9.4290    -0.4380     2.6330 H     1 <1>   0.1500 
@<TRIPOS>BOND
  1   1   2  1   
  2   1  19  1   
  3   2   3  1   
  4   2   4  1   
  5   2  20  1   
  6   3   5  1   
  7   3   6  1   
  8   3   7  1   
  9   4   8  1   
 10   4  21  1   
 11   4  22  1   
 12   5   9  1   
 13   5  23  1   
 14   5  24  1   
 15   6  10  1   
 16   6  25  1   
 17   6  26  1   
 18   7   8  1   
 19   7  27  1   
 20   7  28  1   
 21   8  29  1   
 22   8  30  1   
 23   9  11  1   
 24   9  12  1   
 25   9  31  1   
 26  10  11  1   
 27  10  32  1   
 28  10  33  1   
 29  11  34  1   
 30  11  35  1   
 31  12  13  1   
 32  12  36  1   
 33  12  37  1   
 34  13  14  ar  
 35  13  15  ar  
 36  14  16  ar  
 37  14  38  1   
 38  15  17  ar  
 39  15  39  1   
 40  16  18  ar  
 41  17  18  ar  
 42  17  40  1   
 43  18  41  1   
@<TRIPOS>SUBSTRUCTURE
  1 ****   9 GROUP 4 **** **** 0

# MOE 2024.06 (io_trps.svl 2023.06)
