@<TRIPOS>MOLECULE
NONAME
50 53 1 0 0 
SMALL
USER_CHARGES


@<TRIPOS>ATOM
  1 O        1.9810     1.4670     1.2520 O.2   1 <1>  -0.5700 
  2 C        2.8580     0.9060     0.6440 C.2   1 <1>   0.5690 
  3 N        2.8490    -0.3820     0.1860 N.am  1 <1>  -0.4770 
  4 C        4.1470     1.5990     0.2970 C.3   1 <1>  -0.0990 
  5 C        1.8090    -1.3300     0.2670 C.ar  1 <1>   0.1170 
  6 C        4.1060    -0.6960    -0.5190 C.3   1 <1>   0.1400 
  7 C        4.7870     0.6620    -0.7400 C.3   1 <1>  -0.0800 
  8 C        0.4750    -0.9460     0.1600 C.ar  1 <1>  -0.1500 
  9 C        2.0870    -2.6840     0.4440 C.ar  1 <1>  -0.1500 
 10 C        6.3140     0.5710    -0.6400 C.3   1 <1>   0.2090 
 11 C       -0.5450    -1.8780     0.2200 C.ar  1 <1>  -0.1500 
 12 C        1.0710    -3.6200     0.5030 C.ar  1 <1>  -0.1500 
 13 N        6.9110     1.9070    -0.8600 N.pl3 1 <1>  -0.8690 
 14 C       -0.2490    -3.2190     0.3900 C.ar  1 <1>  -0.1500 
 15 C        7.5020     2.6060     0.1590 C.ar  1 <1>   0.4100 
 16 N        7.0780     3.8470     0.2490 N.ar  1 <1>  -0.6200 
 17 C        8.4630     2.0560     1.0210 C.ar  1 <1>   0.1600 
 18 C        7.6430     4.5410     1.2540 C.ar  1 <1>   0.3960 
 19 N        9.0250     2.6980     2.0220 N.ar  1 <1>  -0.6200 
 20 C        7.2950     5.9430     1.5040 C.2   1 <1>   0.5440 
 21 C        8.5810     3.9460     2.1060 C.ar  1 <1>   0.1600 
 22 O        7.3670     6.3750     2.6440 O.2   1 <1>  -0.5700 
 23 N        6.9100     6.8340     0.5190 N.am  1 <1>  -0.6600 
 24 C        6.9030     6.5800    -0.9390 C.3   1 <1>   0.1400 
 25 C        6.5350     8.2360     0.8120 C.3   1 <1>   0.1400 
 26 C        6.7870     7.9610    -1.5730 C.3   1 <1>  -0.1600 
 27 C        6.0720     8.8070    -0.5230 C.3   1 <1>  -0.1600 
 28 H        4.7420     1.6810     1.1880 H     1 <1>   0.0800 
 29 H        3.9610     2.5790    -0.1040 H     1 <1>   0.0800 
 30 H        3.9000    -1.1900    -1.4540 H     1 <1>   0.0800 
 31 H        4.7050    -1.3330     0.1070 H     1 <1>   0.0800 
 32 H        4.5200     0.9980    -1.7280 H     1 <1>   0.0800 
 33 H        0.2320     0.0930     0.0290 H     1 <1>   0.1500 
 34 H        3.1030    -3.0130     0.5460 H     1 <1>   0.1500 
 35 H        6.6910    -0.1050    -1.3900 H     1 <1>   0.0800 
 36 H        6.5940     0.1930     0.3290 H     1 <1>   0.0800 
 37 H       -1.5690    -1.5580     0.1360 H     1 <1>   0.1500 
 38 H        1.3030    -4.6620     0.6410 H     1 <1>   0.1500 
 39 H        6.3110     2.5260    -1.4130 H     1 <1>   0.4000 
 40 H       -1.0420    -3.9450     0.4370 H     1 <1>   0.1500 
 41 H        8.7650     1.0400     0.8510 H     1 <1>   0.1500 
 42 H        8.9890     4.5460     2.9030 H     1 <1>   0.1500 
 43 H        6.0430     5.9810    -1.1850 H     1 <1>   0.0800 
 44 H        7.8010     6.0750    -1.2510 H     1 <1>   0.0800 
 45 H        7.4030     8.7620     1.1710 H     1 <1>   0.0800 
 46 H        5.7570     8.2750     1.5560 H     1 <1>   0.0800 
 47 H        6.2560     7.9280    -2.5080 H     1 <1>   0.0800 
 48 H        7.7760     8.3500    -1.7450 H     1 <1>   0.0800 
 49 H        6.3020     9.8530    -0.6110 H     1 <1>   0.0800 
 50 H        5.0080     8.6720    -0.6080 H     1 <1>   0.0800 
@<TRIPOS>BOND
  1   1   2  2   
  2   2   3  am  
  3   2   4  1   
  4   3   5  1   
  5   3   6  1   
  6   4   7  1   
  7   4  28  1   
  8   4  29  1   
  9   5   8  ar  
 10   5   9  ar  
 11   6   7  1   
 12   6  30  1   
 13   6  31  1   
 14   7  10  1   
 15   7  32  1   
 16   8  11  ar  
 17   8  33  1   
 18   9  12  ar  
 19   9  34  1   
 20  10  13  1   
 21  10  35  1   
 22  10  36  1   
 23  11  14  ar  
 24  11  37  1   
 25  12  14  ar  
 26  12  38  1   
 27  13  15  1   
 28  13  39  1   
 29  14  40  1   
 30  15  16  ar  
 31  15  17  ar  
 32  16  18  ar  
 33  17  19  ar  
 34  17  41  1   
 35  18  20  1   
 36  18  21  ar  
 37  19  21  ar  
 38  20  22  2   
 39  20  23  am  
 40  21  42  1   
 41  23  24  1   
 42  23  25  1   
 43  24  26  1   
 44  24  43  1   
 45  24  44  1   
 46  25  27  1   
 47  25  45  1   
 48  25  46  1   
 49  26  27  1   
 50  26  47  1   
 51  26  48  1   
 52  27  49  1   
 53  27  50  1   
@<TRIPOS>SUBSTRUCTURE
  1 ****   4 GROUP 4 **** **** 0

# MOE 2024.06 (io_trps.svl 2023.06)
