@<TRIPOS>MOLECULE
NONAME
42 44 1 0 0 
SMALL
USER_CHARGES


@<TRIPOS>ATOM
  1 S       -0.7060    -0.0390     1.8260 S.3   1 <1>  -0.4600 
  2 C       -2.0290     0.8480     0.9410 C.3   1 <1>   0.2510 
  3 C       -1.2840    -1.7420     1.5630 C.3   1 <1>   0.2510 
  4 C       -2.9370    -0.2660     0.4770 C.2   1 <1>   0.1080 
  5 C       -2.5680    -1.5580     0.7890 C.2   1 <1>  -0.1810 
  6 N       -4.0450    -0.2000    -0.1870 N.2   1 <1>  -0.7070 
  7 C       -3.5350    -2.3470     0.2640 C.2   1 <1>  -0.0880 
  8 N       -4.4240    -1.4940    -0.3330 N.pl3 1 <1>   0.3140 
  9 N       -3.6120    -3.7580     0.3470 N.am  1 <1>  -0.4940 
 10 C       -5.7010    -1.8100    -0.9900 C.3   1 <1>   0.0160 
 11 C       -4.0460    -4.6740    -0.5830 C.2   1 <1>   0.5690 
 12 O       -4.4020    -4.3310    -1.6890 O.2   1 <1>  -0.5700 
 13 C       -4.0710    -6.1700    -0.1680 C.3   1 <1>   0.3940 
 14 N       -3.5780    -7.1520    -1.1880 N.3   1 <1>  -0.8100 
 15 C       -5.4900    -6.5360     0.2780 C.ar  1 <1>  -0.1430 
 16 C       -2.2670    -6.7870    -1.7450 C.3   1 <1>   0.0300 
 17 C       -3.5550    -8.5340    -0.6850 C.3   1 <1>   0.0300 
 18 C       -5.7650    -6.8150     1.6140 C.ar  1 <1>  -0.1500 
 19 C       -6.5150    -6.5840    -0.6600 C.ar  1 <1>  -0.1500 
 20 C       -7.0530    -7.1350     2.0100 C.ar  1 <1>  -0.1500 
 21 C       -7.8070    -6.9020    -0.2770 C.ar  1 <1>  -0.1500 
 22 C       -8.0510    -7.1710     1.0550 C.ar  1 <1>   0.1900 
 23 F       -9.2670    -7.4700     1.4260 F     1 <1>  -0.1900 
 24 H       -1.5920     1.3810     0.1170 H     1 <1>   0.0800 
 25 H       -2.5190     1.5100     1.6300 H     1 <1>   0.0800 
 26 H       -1.4420    -2.1930     2.5260 H     1 <1>   0.0800 
 27 H       -0.5360    -2.2640     0.9940 H     1 <1>   0.0800 
 28 H       -3.2610    -4.1450     1.2220 H     1 <1>   0.3700 
 29 H       -6.3560    -0.9630    -0.9130 H     1 <1>   0.0800 
 30 H       -6.1500    -2.6600    -0.5140 H     1 <1>   0.0800 
 31 H       -5.5150    -2.0280    -2.0250 H     1 <1>   0.0800 
 32 H       -3.4250    -6.2620     0.6860 H     1 <1>   0.0800 
 33 H       -2.3230    -5.8310    -2.2380 H     1 <1>   0.0800 
 34 H       -1.9690    -7.5150    -2.4800 H     1 <1>   0.0800 
 35 H       -1.5210    -6.7460    -0.9700 H     1 <1>   0.0800 
 36 H       -4.5440    -8.8440    -0.3950 H     1 <1>   0.0800 
 37 H       -2.8940    -8.6200     0.1600 H     1 <1>   0.0800 
 38 H       -3.2180    -9.1990    -1.4620 H     1 <1>   0.0800 
 39 H       -4.9830    -6.7890     2.3530 H     1 <1>   0.1500 
 40 H       -6.2970    -6.3750    -1.6960 H     1 <1>   0.1500 
 41 H       -7.2860    -7.3530     3.0370 H     1 <1>   0.1500 
 42 H       -8.6060    -6.9420    -0.9940 H     1 <1>   0.1500 
@<TRIPOS>BOND
  1   1   2  1   
  2   1   3  1   
  3   2   4  1   
  4   2  24  1   
  5   2  25  1   
  6   3   5  1   
  7   3  26  1   
  8   3  27  1   
  9   4   5  1   
 10   4   6  2   
 11   5   7  2   
 12   6   8  1   
 13   7   8  1   
 14   7   9  1   
 15   8  10  1   
 16   9  11  am  
 17   9  28  1   
 18  10  29  1   
 19  10  30  1   
 20  10  31  1   
 21  11  12  2   
 22  11  13  1   
 23  13  14  1   
 24  13  15  1   
 25  13  32  1   
 26  14  16  1   
 27  14  17  1   
 28  15  18  ar  
 29  15  19  ar  
 30  16  33  1   
 31  16  34  1   
 32  16  35  1   
 33  17  36  1   
 34  17  37  1   
 35  17  38  1   
 36  18  20  ar  
 37  18  39  1   
 38  19  21  ar  
 39  19  40  1   
 40  20  22  ar  
 41  20  41  1   
 42  21  22  ar  
 43  21  42  1   
 44  22  23  1   
@<TRIPOS>SUBSTRUCTURE
  1 ****  11 GROUP 4 **** **** 0

# MOE 2024.06 (io_trps.svl 2023.06)
