@<TRIPOS>MOLECULE
NONAME
36 39 1 0 0 
SMALL
USER_CHARGES


@<TRIPOS>ATOM
  1 O        0.5430    -1.2180    -0.4120 O.2   1 <1>  -0.5700 
  2 C        0.4130    -2.3750    -0.0430 C.2   1 <1>   0.5440 
  3 N        0.3150    -2.6200     1.3020 N.am  1 <1>  -0.3680 
  4 C        0.4390    -3.5090    -0.9190 C.ar  1 <1>   0.0860 
  5 N        0.2300    -3.8420     1.8980 N.2   1 <1>  -0.5120 
  6 C        0.3850    -4.7830    -0.3310 C.ar  1 <1>   0.0860 
  7 C        0.5410    -3.3870    -2.3090 C.ar  1 <1>  -0.1500 
  8 C        0.2250    -4.8900     1.1050 C.2   1 <1>   0.3640 
  9 C        0.4920    -5.8930    -1.1820 C.ar  1 <1>  -0.1500 
 10 C        0.6160    -4.4980    -3.1190 C.ar  1 <1>  -0.1500 
 11 C        0.0250    -6.2160     1.6580 C.2   1 <1>   0.6300 
 12 C        0.5950    -5.7590    -2.5470 C.ar  1 <1>  -0.1500 
 13 O        0.9790    -6.8850     2.0320 O.2   1 <1>  -0.5700 
 14 N       -1.2300    -6.7790     1.7490 N.am  1 <1>  -0.6600 
 15 C       -2.4420    -6.0110     1.4810 C.3   1 <1>   0.2350 
 16 C       -1.4960    -8.0720     1.1240 C.3   1 <1>   0.2350 
 17 C       -2.7740    -6.2830     0.0180 C.3   1 <1>  -0.2420 
 18 C       -2.1160    -7.7350    -0.2370 C.3   1 <1>  -0.2420 
 19 C       -3.4950    -4.9810    -0.3160 C.2   1 <1>   0.9470 
 20 C       -2.9010    -7.0150    -1.2420 C.3   1 <1>  -0.2000 
 21 C       -1.7030    -8.9770    -1.0260 C.2   1 <1>   0.9470 
 22 O       -2.8220    -4.0130    -0.6940 O.co2 1 <1>  -0.9000 
 23 O       -4.7080    -4.8910    -0.0940 O.co2 1 <1>  -0.9000 
 24 O       -0.7070    -8.9260    -1.7600 O.co2 1 <1>  -0.9000 
 25 O       -2.3260   -10.0290    -0.8450 O.co2 1 <1>  -0.9000 
 26 H        0.2600    -1.7740     1.8740 H     1 <1>   0.3700 
 27 H        0.5520    -2.4010    -2.7400 H     1 <1>   0.1500 
 28 H        0.4770    -6.8930    -0.7830 H     1 <1>   0.1500 
 29 H        0.6820    -4.3960    -4.1880 H     1 <1>   0.1500 
 30 H        0.6400    -6.6460    -3.1590 H     1 <1>   0.1500 
 31 H       -3.2360    -6.3980     2.0970 H     1 <1>   0.0800 
 32 H       -2.3200    -4.9640     1.7120 H     1 <1>   0.0800 
 33 H       -0.5990    -8.6660     1.0420 H     1 <1>   0.0800 
 34 H       -2.2130    -8.6080     1.7210 H     1 <1>   0.0800 
 35 H       -2.3910    -6.6280    -2.1080 H     1 <1>   0.1000 
 36 H       -3.8700    -7.4050    -1.5020 H     1 <1>   0.1000 
@<TRIPOS>BOND
  1   1   2  2   
  2   2   3  am  
  3   2   4  1   
  4   3   5  1   
  5   3  26  1   
  6   4   6  ar  
  7   4   7  ar  
  8   5   8  2   
  9   6   8  1   
 10   6   9  ar  
 11   7  10  ar  
 12   7  27  1   
 13   8  11  1   
 14   9  12  ar  
 15   9  28  1   
 16  10  12  ar  
 17  10  29  1   
 18  11  13  2   
 19  11  14  am  
 20  12  30  1   
 21  14  15  1   
 22  14  16  1   
 23  15  17  1   
 24  15  31  1   
 25  15  32  1   
 26  16  18  1   
 27  16  33  1   
 28  16  34  1   
 29  17  18  1   
 30  17  19  1   
 31  17  20  1   
 32  18  20  1   
 33  18  21  1   
 34  19  22  ar  
 35  19  23  ar  
 36  20  35  1   
 37  20  36  1   
 38  21  24  ar  
 39  21  25  ar  
@<TRIPOS>SUBSTRUCTURE
  1 ****   6 GROUP 4 **** **** 0

# MOE 2024.06 (io_trps.svl 2023.06)
