@<TRIPOS>MOLECULE
NONAME
43 45 1 0 0 
SMALL
USER_CHARGES


@<TRIPOS>ATOM
  1 O        0.3850     0.3720     0.7000 O.2   1 <1>  -0.5700 
  2 C        1.5860     0.5380     0.5710 C.2   1 <1>   0.5440 
  3 N        2.0370     1.7920     0.2530 N.am  1 <1>  -0.7300 
  4 C        2.5250    -0.5460     0.7480 C.ar  1 <1>   0.0860 
  5 C        1.1860     2.9940     0.0530 C.3   1 <1>   0.0600 
  6 C        2.2640    -1.8400     0.2530 C.ar  1 <1>   0.4100 
  7 C        3.7290    -0.3440     1.4120 C.ar  1 <1>  -0.1500 
  8 N        3.1060    -2.8650     0.3700 N.ar  1 <1>  -0.6200 
  9 N        1.0920    -2.1110    -0.4070 N.pl3 1 <1>  -0.8690 
 10 C        4.5950    -1.4060     1.5370 C.ar  1 <1>  -0.1500 
 11 C        4.2370    -2.6310     1.0020 C.ar  1 <1>   0.1600 
 12 C        0.5280    -3.4680    -0.5270 C.3   1 <1>   0.3040 
 13 C       -0.9600    -3.4180    -0.9450 C.3   1 <1>  -0.1900 
 14 C       -1.8860    -2.3970    -0.3490 C.3   1 <1>  -0.2000 
 15 C       -1.4760    -2.2910    -1.7940 C.3   1 <1>  -0.2000 
 16 C       -1.5080    -4.8210    -1.2650 C.3   1 <1>   0.1910 
 17 N       -1.2380    -5.8040    -0.1890 N.pl3 1 <1>   0.0480 
 18 C       -1.8840    -6.0060     0.9880 C.2   1 <1>   0.0060 
 19 C       -0.2680    -6.7380    -0.2070 C.2   1 <1>  -0.3020 
 20 N       -1.3980    -6.9780     1.6870 N.2   1 <1>  -0.5650 
 21 C       -3.0640    -5.1830     1.4620 C.3   1 <1>  -0.0600 
 22 C       -0.3800    -7.4390     0.9400 C.2   1 <1>   0.0770 
 23 H        3.0250     1.9090     0.0200 H     1 <1>   0.3700 
 24 H        0.1700     2.7900     0.3470 H     1 <1>   0.0800 
 25 H        1.1940     3.2770    -0.9850 H     1 <1>   0.0800 
 26 H        1.5600     3.8080     0.6470 H     1 <1>   0.0800 
 27 H        3.9760     0.6180     1.8260 H     1 <1>   0.1500 
 28 H        0.3610    -1.3970    -0.2750 H     1 <1>   0.4000 
 29 H        5.5370    -1.2950     2.0440 H     1 <1>   0.1500 
 30 H        4.9190    -3.4580     1.1020 H     1 <1>   0.1500 
 31 H        0.6270    -3.9730     0.4210 H     1 <1>   0.0800 
 32 H        1.1010    -4.0110    -1.2590 H     1 <1>   0.0800 
 33 H       -1.5020    -1.6720     0.3500 H     1 <1>   0.1000 
 34 H       -2.9110    -2.6470    -0.1410 H     1 <1>   0.1000 
 35 H       -2.2190    -2.4890    -2.5470 H     1 <1>   0.1000 
 36 H       -0.8230    -1.4850    -2.0820 H     1 <1>   0.1000 
 37 H       -1.0500    -5.1810    -2.1680 H     1 <1>   0.0800 
 38 H       -2.5690    -4.7780    -1.4310 H     1 <1>   0.0800 
 39 H        0.4350    -6.8530    -1.0110 H     1 <1>   0.1500 
 40 H       -3.7960    -5.0860     0.6840 H     1 <1>   0.0800 
 41 H       -2.7270    -4.2100     1.7680 H     1 <1>   0.0800 
 42 H       -3.5220    -5.6640     2.3080 H     1 <1>   0.0800 
 43 H        0.2270    -8.2630     1.2740 H     1 <1>   0.1500 
@<TRIPOS>BOND
  1   1   2  2   
  2   2   3  am  
  3   2   4  1   
  4   3   5  1   
  5   3  23  1   
  6   4   6  ar  
  7   4   7  ar  
  8   5  24  1   
  9   5  25  1   
 10   5  26  1   
 11   6   8  ar  
 12   6   9  1   
 13   7  10  ar  
 14   7  27  1   
 15   8  11  ar  
 16   9  12  1   
 17   9  28  1   
 18  10  11  ar  
 19  10  29  1   
 20  11  30  1   
 21  12  13  1   
 22  12  31  1   
 23  12  32  1   
 24  13  14  1   
 25  13  15  1   
 26  13  16  1   
 27  14  15  1   
 28  14  33  1   
 29  14  34  1   
 30  15  35  1   
 31  15  36  1   
 32  16  17  1   
 33  16  37  1   
 34  16  38  1   
 35  17  18  1   
 36  17  19  1   
 37  18  20  2   
 38  18  21  1   
 39  19  22  2   
 40  19  39  1   
 41  20  22  1   
 42  21  40  1   
 43  21  41  1   
 44  21  42  1   
 45  22  43  1   
@<TRIPOS>SUBSTRUCTURE
  1 ****   9 GROUP 4 **** **** 0

# MOE 2024.06 (io_trps.svl 2023.06)
