@<TRIPOS>MOLECULE
NONAME
40 41 1 0 0 
SMALL
USER_CHARGES


@<TRIPOS>ATOM
  1 O        0.3280    -0.4360    -0.7600 O.2   1 <1>  -0.5700 
  2 C        1.2260    -0.8560    -0.0510 C.2   1 <1>   0.7160 
  3 N        2.2820    -0.0580     0.3000 N.am  1 <1>  -0.4940 
  4 C        1.2310    -2.2140     0.4610 C.2   1 <1>   0.2030 
  5 C        2.5840     1.2690    -0.0120 C.2   1 <1>   0.2040 
  6 N        2.1750    -2.7260     1.2370 N.2   1 <1>  -0.7070 
  7 C        0.2410    -3.1710     0.2080 C.2   1 <1>  -0.1500 
  8 O        1.8080     2.0080    -0.7700 O.3   1 <1>  -0.0190 
  9 C        3.6370     2.0280     0.3550 C.2   1 <1>  -0.1810 
 10 N        1.7870    -3.9890     1.4710 N.pl3 1 <1>   0.3000 
 11 C        0.6230    -4.2860     0.8590 C.2   1 <1>  -0.3320 
 12 N        2.2880     3.2160    -0.9270 N.2   1 <1>  -0.4100 
 13 C        3.3870     3.2530    -0.2620 C.2   1 <1>   0.1080 
 14 C        4.8280     1.6690     1.2280 C.3   1 <1>  -0.0590 
 15 C       -0.0730    -5.6350     0.9440 C.3   1 <1>   0.0200 
 16 C        4.2660     4.4890    -0.1820 C.3   1 <1>   0.0210 
 17 C        0.4850    -6.6610    -0.0610 C.3   1 <1>  -0.0800 
 18 C        5.3640     4.4600    -1.2510 C.3   1 <1>  -0.2400 
 19 C       -0.3580    -7.9430    -0.0260 C.3   1 <1>  -0.2400 
 20 C        1.9570    -7.0120     0.2020 C.3   1 <1>  -0.2400 
 21 H        2.9420    -0.5590     0.8940 H     1 <1>   0.3700 
 22 H       -0.6350    -3.0000    -0.3950 H     1 <1>   0.1500 
 23 H        2.3340    -4.6400     2.0480 H     1 <1>   0.2700 
 24 H        4.7640     0.6480     1.5570 H     1 <1>   0.0800 
 25 H        4.8540     2.3070     2.0930 H     1 <1>   0.0800 
 26 H        5.7400     1.7940     0.6730 H     1 <1>   0.0800 
 27 H       -1.1180    -5.4830     0.7340 H     1 <1>   0.0800 
 28 H       -0.0020    -6.0210     1.9460 H     1 <1>   0.0800 
 29 H        4.7070     4.5550     0.7950 H     1 <1>   0.0800 
 30 H        3.6520     5.3600    -0.3260 H     1 <1>   0.0800 
 31 H        0.4090    -6.2370    -1.0490 H     1 <1>   0.0800 
 32 H        5.9980     3.6030    -1.1160 H     1 <1>   0.0800 
 33 H        5.9640     5.3510    -1.1920 H     1 <1>   0.0800 
 34 H        4.9190     4.4070    -2.2290 H     1 <1>   0.0800 
 35 H       -0.3090    -8.4060     0.9440 H     1 <1>   0.0800 
 36 H       -0.0010    -8.6450    -0.7590 H     1 <1>   0.0800 
 37 H       -1.3870    -7.7220    -0.2510 H     1 <1>   0.0800 
 38 H        2.0920    -7.3670     1.2080 H     1 <1>   0.0800 
 39 H        2.5870    -6.1570     0.0400 H     1 <1>   0.0800 
 40 H        2.2790    -7.7830    -0.4760 H     1 <1>   0.0800 
@<TRIPOS>BOND
  1   1   2  2   
  2   2   3  am  
  3   2   4  1   
  4   3   5  1   
  5   3  21  1   
  6   4   6  2   
  7   4   7  1   
  8   5   8  1   
  9   5   9  2   
 10   6  10  1   
 11   7  11  2   
 12   7  22  1   
 13   8  12  1   
 14   9  13  1   
 15   9  14  1   
 16  10  11  1   
 17  10  23  1   
 18  11  15  1   
 19  12  13  2   
 20  13  16  1   
 21  14  24  1   
 22  14  25  1   
 23  14  26  1   
 24  15  17  1   
 25  15  27  1   
 26  15  28  1   
 27  16  18  1   
 28  16  29  1   
 29  16  30  1   
 30  17  19  1   
 31  17  20  1   
 32  17  31  1   
 33  18  32  1   
 34  18  33  1   
 35  18  34  1   
 36  19  35  1   
 37  19  36  1   
 38  19  37  1   
 39  20  38  1   
 40  20  39  1   
 41  20  40  1   
@<TRIPOS>SUBSTRUCTURE
  1 ****   2 GROUP 4 **** **** 0

# MOE 2024.06 (io_trps.svl 2023.06)
