@<TRIPOS>MOLECULE
NONAME
46 48 1 0 0 
SMALL
USER_CHARGES


@<TRIPOS>ATOM
  1 O       -1.8730    -1.4520     1.8830 O.2   1 <1>  -0.5700 
  2 C       -1.3750    -2.1960     1.0600 C.2   1 <1>   0.5440 
  3 N       -0.2920    -1.7540     0.3500 N.am  1 <1>  -0.7300 
  4 C       -1.9120    -3.5220     0.8540 C.ar  1 <1>   0.0860 
  5 C        0.3100    -0.4120     0.4700 C.3   1 <1>   0.1400 
  6 C       -2.6500    -4.1490     1.8570 C.ar  1 <1>   0.1600 
  7 C       -1.7330    -4.2390    -0.3280 C.ar  1 <1>  -0.1500 
  8 C        0.7860     0.0330    -0.9070 C.3   1 <1>  -0.2400 
  9 N       -3.1850    -5.3570     1.7940 N.ar  1 <1>  -0.6200 
 10 C       -2.2830    -5.4950    -0.4130 C.ar  1 <1>  -0.1500 
 11 C       -3.0010    -6.0130     0.6630 C.ar  1 <1>   0.4100 
 12 N       -3.5830    -7.2400     0.6380 N.pl3 1 <1>  -0.8690 
 13 C       -4.3630    -7.7890    -0.4970 C.3   1 <1>   0.2890 
 14 C       -5.8400    -7.4250    -0.4060 C.3   1 <1>  -0.0800 
 15 C       -4.4370    -9.3060    -0.3590 C.3   1 <1>   0.1200 
 16 C       -6.3970    -8.4920     0.5380 C.3   1 <1>   0.1200 
 17 C       -6.1770    -5.9840     0.0230 C.3   1 <1>  -0.0170 
 18 O       -5.5140    -9.5730     0.4930 O.3   1 <1>  -0.5600 
 19 C       -7.6790    -5.7470    -0.0050 C.ar  1 <1>  -0.1430 
 20 C       -8.4400    -5.7630     1.1470 C.ar  1 <1>  -0.1500 
 21 C       -8.3590    -5.5040    -1.1810 C.ar  1 <1>  -0.1500 
 22 C       -9.8060    -5.5480     1.0680 C.ar  1 <1>   0.1600 
 23 C       -9.7290    -5.3010    -1.1500 C.ar  1 <1>   0.1600 
 24 N      -10.4700    -5.3200    -0.0540 N.ar  1 <1>  -0.6200 
 25 H        0.2270    -2.4100    -0.2320 H     1 <1>   0.3700 
 26 H       -0.4180     0.2850     0.8520 H     1 <1>   0.0800 
 27 H        1.1380    -0.4530     1.1580 H     1 <1>   0.0800 
 28 H       -2.8010    -3.6060     2.7750 H     1 <1>   0.1500 
 29 H       -1.1850    -3.8200    -1.1530 H     1 <1>   0.1500 
 30 H       -0.0440     0.0740    -1.5900 H     1 <1>   0.0800 
 31 H        1.5330    -0.6410    -1.2850 H     1 <1>   0.0800 
 32 H        1.2170     1.0150    -0.8380 H     1 <1>   0.0800 
 33 H       -2.1610    -6.0880    -1.2970 H     1 <1>   0.1500 
 34 H       -3.9720    -7.5090     1.5470 H     1 <1>   0.4000 
 35 H       -3.9250    -7.4980    -1.4350 H     1 <1>   0.0800 
 36 H       -6.2780    -7.5970    -1.3730 H     1 <1>   0.0800 
 37 H       -3.5370    -9.7260     0.0550 H     1 <1>   0.0800 
 38 H       -4.6540    -9.7630    -1.3080 H     1 <1>   0.0800 
 39 H       -7.3770    -8.8230     0.2420 H     1 <1>   0.0800 
 40 H       -6.4230    -8.1400     1.5550 H     1 <1>   0.0800 
 41 H       -5.6940    -5.2860    -0.6380 H     1 <1>   0.0800 
 42 H       -5.8110    -5.7940     1.0160 H     1 <1>   0.0800 
 43 H       -7.9840    -5.9390     2.1040 H     1 <1>   0.1500 
 44 H       -7.8380    -5.4690    -2.1190 H     1 <1>   0.1500 
 45 H      -10.3830    -5.5640     1.9770 H     1 <1>   0.1500 
 46 H      -10.2430    -5.1140    -2.0770 H     1 <1>   0.1500 
@<TRIPOS>BOND
  1   1   2  2   
  2   2   3  am  
  3   2   4  1   
  4   3   5  1   
  5   3  25  1   
  6   4   6  ar  
  7   4   7  ar  
  8   5   8  1   
  9   5  26  1   
 10   5  27  1   
 11   6   9  ar  
 12   6  28  1   
 13   7  10  ar  
 14   7  29  1   
 15   8  30  1   
 16   8  31  1   
 17   8  32  1   
 18   9  11  ar  
 19  10  11  ar  
 20  10  33  1   
 21  11  12  1   
 22  12  13  1   
 23  12  34  1   
 24  13  14  1   
 25  13  15  1   
 26  13  35  1   
 27  14  16  1   
 28  14  17  1   
 29  14  36  1   
 30  15  18  1   
 31  15  37  1   
 32  15  38  1   
 33  16  18  1   
 34  16  39  1   
 35  16  40  1   
 36  17  19  1   
 37  17  41  1   
 38  17  42  1   
 39  19  20  ar  
 40  19  21  ar  
 41  20  22  ar  
 42  20  43  1   
 43  21  23  ar  
 44  21  44  1   
 45  22  24  ar  
 46  22  45  1   
 47  23  24  ar  
 48  23  46  1   
@<TRIPOS>SUBSTRUCTURE
  1 ****  11 GROUP 4 **** **** 0

# MOE 2024.06 (io_trps.svl 2023.06)
