@<TRIPOS>MOLECULE
NONAME
51 53 1 0 0 
SMALL
USER_CHARGES


@<TRIPOS>ATOM
  1 O        0.5800    -0.1270    -0.2930 O.2   1 <1>  -0.5700 
  2 C       -0.3230     0.5930    -0.6430 C.2   1 <1>   0.5690 
  3 N       -1.5660     0.1080    -0.9360 N.am  1 <1>  -0.6600 
  4 C       -0.0540     2.0780    -0.7030 C.3   1 <1>  -0.0990 
  5 C       -2.7750     0.9110    -1.2660 C.3   1 <1>   0.1400 
  6 C       -1.9820    -1.2460    -0.4980 C.3   1 <1>   0.1400 
  7 C       -0.5500     2.7230     0.5970 C.3   1 <1>   0.0960 
  8 C       -3.9250     0.2050    -0.5460 C.3   1 <1>   0.2000 
  9 C       -3.5130    -1.2700    -0.6160 C.3   1 <1>  -0.0800 
 10 N       -0.9370     4.1240     0.3590 N.pl3 1 <1>   0.3140 
 11 O       -3.9680     0.5970     0.7990 O.3   1 <1>  -0.5600 
 12 C       -4.1960    -2.1680     0.4320 C.3   1 <1>   0.0200 
 13 N       -2.1580     4.4270    -0.1240 N.2   1 <1>  -0.7070 
 14 C       -0.1890     5.2370     0.5410 C.2   1 <1>  -0.3320 
 15 C       -4.5850     1.8240     1.0470 C.3   1 <1>   0.0400 
 16 C       -3.9080    -3.6480     0.2330 C.2   1 <1>  -0.0400 
 17 C       -2.1610     5.7180    -0.2320 C.2   1 <1>   0.1080 
 18 C       -0.9570     6.2820     0.1690 C.2   1 <1>  -0.1500 
 19 C        1.2370     5.2570     1.0640 C.3   1 <1>  -0.0600 
 20 O       -4.3780    -4.5000     1.1050 O.3   1 <1>  -0.0190 
 21 C       -3.2380    -4.3460    -0.6980 C.2   1 <1>  -0.1500 
 22 C       -3.3570     6.4860    -0.7410 C.3   1 <1>  -0.0590 
 23 N       -4.0580    -5.7270     0.8100 N.2   1 <1>  -0.4100 
 24 C       -3.3690    -5.6650    -0.2720 C.2   1 <1>   0.1080 
 25 C       -2.7840    -6.8670    -0.9780 C.3   1 <1>  -0.0590 
 26 H        1.0000     2.2470    -0.8150 H     1 <1>   0.0800 
 27 H       -0.5540     2.4930    -1.5580 H     1 <1>   0.0800 
 28 H       -2.6930     1.9400    -0.9710 H     1 <1>   0.0800 
 29 H       -2.9340     0.8670    -2.3290 H     1 <1>   0.0800 
 30 H       -1.5190    -1.9970    -1.1130 H     1 <1>   0.0800 
 31 H       -1.6780    -1.3880     0.5260 H     1 <1>   0.0800 
 32 H        0.2090     2.6760     1.3550 H     1 <1>   0.0800 
 33 H       -1.4200     2.2080     0.9630 H     1 <1>   0.0800 
 34 H       -4.8830     0.3860    -1.0010 H     1 <1>   0.0800 
 35 H       -3.7630    -1.6310    -1.5970 H     1 <1>   0.0800 
 36 H       -5.2600    -2.0220     0.3850 H     1 <1>   0.0800 
 37 H       -3.8730    -1.8870     1.4190 H     1 <1>   0.0800 
 38 H       -4.5790     1.9910     2.1090 H     1 <1>   0.0800 
 39 H       -5.6000     1.7920     0.6920 H     1 <1>   0.0800 
 40 H       -4.0400     2.6150     0.5620 H     1 <1>   0.0800 
 41 H       -0.7170     7.3300     0.1700 H     1 <1>   0.1500 
 42 H        1.6060     6.2670     1.0930 H     1 <1>   0.0800 
 43 H        1.8780     4.6780     0.4210 H     1 <1>   0.0800 
 44 H        1.2750     4.8500     2.0580 H     1 <1>   0.0800 
 45 H       -2.7150    -4.0180    -1.5760 H     1 <1>   0.1500 
 46 H       -3.1470     7.5390    -0.7570 H     1 <1>   0.0800 
 47 H       -4.1990     6.3050    -0.0990 H     1 <1>   0.0800 
 48 H       -3.5970     6.1590    -1.7350 H     1 <1>   0.0800 
 49 H       -1.7230    -6.7440    -1.0890 H     1 <1>   0.0800 
 50 H       -3.2340    -6.9750    -1.9470 H     1 <1>   0.0800 
 51 H       -2.9730    -7.7560    -0.4040 H     1 <1>   0.0800 
@<TRIPOS>BOND
  1   1   2  2   
  2   2   3  am  
  3   2   4  1   
  4   3   5  1   
  5   3   6  1   
  6   4   7  1   
  7   4  26  1   
  8   4  27  1   
  9   5   8  1   
 10   5  28  1   
 11   5  29  1   
 12   6   9  1   
 13   6  30  1   
 14   6  31  1   
 15   7  10  1   
 16   7  32  1   
 17   7  33  1   
 18   8   9  1   
 19   8  11  1   
 20   8  34  1   
 21   9  12  1   
 22   9  35  1   
 23  10  13  1   
 24  10  14  1   
 25  11  15  1   
 26  12  16  1   
 27  12  36  1   
 28  12  37  1   
 29  13  17  2   
 30  14  18  2   
 31  14  19  1   
 32  15  38  1   
 33  15  39  1   
 34  15  40  1   
 35  16  20  1   
 36  16  21  2   
 37  17  18  1   
 38  17  22  1   
 39  18  41  1   
 40  19  42  1   
 41  19  43  1   
 42  19  44  1   
 43  20  23  1   
 44  21  24  1   
 45  21  45  1   
 46  22  46  1   
 47  22  47  1   
 48  22  48  1   
 49  23  24  2   
 50  24  25  1   
 51  25  49  1   
 52  25  50  1   
 53  25  51  1   
@<TRIPOS>SUBSTRUCTURE
  1 ****   3 GROUP 4 **** **** 0

# MOE 2024.06 (io_trps.svl 2023.06)
