@<TRIPOS>MOLECULE
NONAME
54 56 1 0 0 
SMALL
USER_CHARGES


@<TRIPOS>ATOM
  1 F       -0.2590     0.3740     1.9400 F     1 <1>  -0.3400 
  2 C       -0.6620     1.0430     0.8560 C.3   1 <1>   0.3400 
  3 C       -0.1910     0.3210    -0.4270 C.3   1 <1>   0.2200 
  4 C       -2.1980     1.0210     0.8460 C.3   1 <1>  -0.0800 
  5 C       -0.2240     2.5040     0.9780 C.3   1 <1>   0.1400 
  6 N        0.9680    -0.5810    -0.2380 N.am  1 <1>  -0.7300 
  7 C       -1.4100    -0.4630    -0.9040 C.3   1 <1>  -0.1600 
  8 C       -2.6560     2.4670     1.0550 C.3   1 <1>   0.1400 
  9 C       -2.5930     0.4240    -0.5140 C.3   1 <1>  -0.1600 
 10 N       -1.4630     3.2970     0.7910 N.am  1 <1>  -0.6600 
 11 C        2.0500    -0.6420    -1.0370 C.2   1 <1>   0.7800 
 12 C       -1.4810     4.5460     0.2400 C.2   1 <1>   0.7800 
 13 O        2.1440    -0.0110    -2.0700 O.2   1 <1>  -0.5700 
 14 O        3.0310    -1.4330    -0.6310 O.3   1 <1>  -0.4300 
 15 O       -0.4560     5.1210    -0.0660 O.2   1 <1>  -0.5700 
 16 O       -2.6800     5.1000     0.0440 O.3   1 <1>  -0.4300 
 17 C        4.2000    -1.5550    -1.4090 C.3   1 <1>   0.2630 
 18 C       -2.9540     6.3620    -0.5240 C.3   1 <1>   0.2800 
 19 C        5.1600    -2.5000    -0.7040 C.ar  1 <1>  -0.1440 
 20 C       -2.4540     6.4110    -1.9730 C.3   1 <1>  -0.2400 
 21 C       -4.4780     6.4830    -0.5120 C.3   1 <1>  -0.2400 
 22 C       -2.3520     7.4760     0.3420 C.3   1 <1>  -0.2400 
 23 C        5.4210    -3.7590    -1.2250 C.ar  1 <1>  -0.1500 
 24 C        5.7870    -2.1070     0.4680 C.ar  1 <1>  -0.1500 
 25 C        6.3020    -4.6120    -0.5840 C.ar  1 <1>  -0.1500 
 26 C        6.6680    -2.9590     1.1110 C.ar  1 <1>  -0.1500 
 27 C        6.9270    -4.2120     0.5840 C.ar  1 <1>  -0.1500 
 28 H        0.0360     1.0610    -1.1780 H     1 <1>   0.0800 
 29 H       -2.5790     0.3900     1.6310 H     1 <1>   0.0800 
 30 H        0.5020     2.7630     0.2270 H     1 <1>   0.0800 
 31 H        0.1800     2.7020     1.9560 H     1 <1>   0.0800 
 32 H        1.0060    -1.0790     0.6530 H     1 <1>   0.3700 
 33 H       -1.3740    -0.6410    -1.9650 H     1 <1>   0.0800 
 34 H       -1.4750    -1.4000    -0.3780 H     1 <1>   0.0800 
 35 H       -2.9610     2.6160     2.0770 H     1 <1>   0.0800 
 36 H       -3.4710     2.7300     0.4010 H     1 <1>   0.0800 
 37 H       -3.5130    -0.1330    -0.4590 H     1 <1>   0.0800 
 38 H       -2.7000     1.2070    -1.2480 H     1 <1>   0.0800 
 39 H        3.9250    -1.9310    -2.3790 H     1 <1>   0.0800 
 40 H        4.6420    -0.5790    -1.5160 H     1 <1>   0.0800 
 41 H       -2.7860     7.3180    -2.4440 H     1 <1>   0.0800 
 42 H       -2.8390     5.5760    -2.5300 H     1 <1>   0.0800 
 43 H       -1.3810     6.3990    -2.0140 H     1 <1>   0.0800 
 44 H       -4.7830     7.4240    -0.9320 H     1 <1>   0.0800 
 45 H       -4.8490     6.4260     0.4960 H     1 <1>   0.0800 
 46 H       -4.9190     5.6940    -1.0940 H     1 <1>   0.0800 
 47 H       -2.6800     8.4350    -0.0140 H     1 <1>   0.0800 
 48 H       -1.2790     7.4640     0.2980 H     1 <1>   0.0800 
 49 H       -2.6660     7.3660     1.3640 H     1 <1>   0.0800 
 50 H        4.9380    -4.0820    -2.1310 H     1 <1>   0.1500 
 51 H        5.5860    -1.1350     0.8850 H     1 <1>   0.1500 
 52 H        6.5010    -5.5870    -0.9930 H     1 <1>   0.1500 
 53 H        7.1520    -2.6470     2.0200 H     1 <1>   0.1500 
 54 H        7.6120    -4.8750     1.0830 H     1 <1>   0.1500 
@<TRIPOS>BOND
  1   1   2  1   
  2   2   3  1   
  3   2   4  1   
  4   2   5  1   
  5   3   6  1   
  6   3   7  1   
  7   3  28  1   
  8   4   8  1   
  9   4   9  1   
 10   4  29  1   
 11   5  10  1   
 12   5  30  1   
 13   5  31  1   
 14   6  11  am  
 15   6  32  1   
 16   7   9  1   
 17   7  33  1   
 18   7  34  1   
 19   8  10  1   
 20   8  35  1   
 21   8  36  1   
 22   9  37  1   
 23   9  38  1   
 24  10  12  am  
 25  11  13  2   
 26  11  14  1   
 27  12  15  2   
 28  12  16  1   
 29  14  17  1   
 30  16  18  1   
 31  17  19  1   
 32  17  39  1   
 33  17  40  1   
 34  18  20  1   
 35  18  21  1   
 36  18  22  1   
 37  19  23  ar  
 38  19  24  ar  
 39  20  41  1   
 40  20  42  1   
 41  20  43  1   
 42  21  44  1   
 43  21  45  1   
 44  21  46  1   
 45  22  47  1   
 46  22  48  1   
 47  22  49  1   
 48  23  25  ar  
 49  23  50  1   
 50  24  26  ar  
 51  24  51  1   
 52  25  27  ar  
 53  25  52  1   
 54  26  27  ar  
 55  26  53  1   
 56  27  54  1   
@<TRIPOS>SUBSTRUCTURE
  1 ****   3 GROUP 4 **** **** 0

# MOE 2024.06 (io_trps.svl 2023.06)
