@<TRIPOS>MOLECULE
NONAME
51 54 1 0 0 
SMALL
USER_CHARGES


@<TRIPOS>ATOM
  1 F       -1.5450    -1.5210     2.7030 F     1 <1>  -0.1900 
  2 C       -1.7050    -2.6380     2.0460 C.ar  1 <1>   0.1900 
  3 C       -0.6490    -3.1350     1.3080 C.ar  1 <1>  -0.1500 
  4 C       -2.9230    -3.2840     2.1140 C.ar  1 <1>  -0.1500 
  5 C       -0.8240    -4.3200     0.6140 C.ar  1 <1>  -0.1500 
  6 C       -3.0860    -4.4680     1.4160 C.ar  1 <1>  -0.1500 
  7 C       -2.0400    -4.9940     0.6620 C.ar  1 <1>  -0.1430 
  8 C       -2.2090    -6.2990    -0.1140 C.3   1 <1>   0.0640 
  9 C       -3.3660    -6.2810    -1.1120 C.3   1 <1>   0.1400 
 10 C       -2.4930    -7.5050     0.7830 C.3   1 <1>  -0.1600 
 11 N       -3.8400    -7.6820    -1.1730 N.am  1 <1>  -0.6600 
 12 C       -3.2130    -8.5050    -0.1160 C.3   1 <1>   0.1400 
 13 C       -4.8080    -8.0990    -2.0480 C.2   1 <1>   0.5690 
 14 O       -5.3290    -7.3230    -2.8170 O.2   1 <1>  -0.5700 
 15 C       -5.2500    -9.5720    -2.1020 C.3   1 <1>   0.1710 
 16 N       -5.9110   -10.0990    -0.8740 N.3   1 <1>  -0.8100 
 17 C       -7.1490    -9.3400    -0.5770 C.3   1 <1>   0.1100 
 18 C       -6.2400   -11.5330    -1.0330 C.3   1 <1>   0.1100 
 19 C       -7.8760    -9.8610     0.6780 C.3   1 <1>   0.2090 
 20 C       -6.9200   -12.1190     0.2170 C.3   1 <1>   0.2090 
 21 N       -8.1380   -11.3320     0.5870 N.pl3 1 <1>  -0.8380 
 22 C       -9.3360   -11.9130     0.9500 C.ar  1 <1>   0.7200 
 23 N       -9.4520   -13.2310     0.7820 N.ar  1 <1>  -0.6200 
 24 N      -10.2790   -11.1080     1.4410 N.ar  1 <1>  -0.6200 
 25 C      -10.5940   -13.7680     1.1340 C.ar  1 <1>   0.1600 
 26 C      -11.4110   -11.6720     1.7840 C.ar  1 <1>   0.1600 
 27 C      -11.6240   -13.0210     1.6490 C.ar  1 <1>  -0.1500 
 28 H        0.2850    -2.6040     1.2800 H     1 <1>   0.1500 
 29 H       -3.7220    -2.8660     2.7000 H     1 <1>   0.1500 
 30 H       -0.0060    -4.7140     0.0360 H     1 <1>   0.1500 
 31 H       -4.0320    -4.9780     1.4640 H     1 <1>   0.1500 
 32 H       -1.3130    -6.5030    -0.6750 H     1 <1>   0.0800 
 33 H       -3.0450    -5.9430    -2.0820 H     1 <1>   0.0800 
 34 H       -4.1720    -5.6570    -0.7690 H     1 <1>   0.0800 
 35 H       -3.1530    -7.2330     1.5870 H     1 <1>   0.0800 
 36 H       -1.5930    -7.9190     1.2010 H     1 <1>   0.0800 
 37 H       -3.9520    -9.0600     0.4380 H     1 <1>   0.0800 
 38 H       -2.5110    -9.1850    -0.5670 H     1 <1>   0.0800 
 39 H       -4.3750   -10.1610    -2.3050 H     1 <1>   0.0800 
 40 H       -5.9180    -9.6850    -2.9380 H     1 <1>   0.0800 
 41 H       -7.8250    -9.4010    -1.4130 H     1 <1>   0.0800 
 42 H       -6.9090    -8.3030    -0.4220 H     1 <1>   0.0800 
 43 H       -5.3370   -12.0860    -1.2240 H     1 <1>   0.0800 
 44 H       -6.8990   -11.6660    -1.8740 H     1 <1>   0.0800 
 45 H       -8.7910    -9.3090     0.7900 H     1 <1>   0.0800 
 46 H       -7.2660    -9.6670     1.5430 H     1 <1>   0.0800 
 47 H       -6.2270   -12.0960     1.0390 H     1 <1>   0.0800 
 48 H       -7.1630   -13.1480     0.0230 H     1 <1>   0.0800 
 49 H      -10.7110   -14.8310     1.0070 H     1 <1>   0.1500 
 50 H      -12.1870   -11.0430     2.1840 H     1 <1>   0.1500 
 51 H      -12.5550   -13.4720     1.9330 H     1 <1>   0.1500 
@<TRIPOS>BOND
  1   1   2  1   
  2   2   3  ar  
  3   2   4  ar  
  4   3   5  ar  
  5   3  28  1   
  6   4   6  ar  
  7   4  29  1   
  8   5   7  ar  
  9   5  30  1   
 10   6   7  ar  
 11   6  31  1   
 12   7   8  1   
 13   8   9  1   
 14   8  10  1   
 15   8  32  1   
 16   9  11  1   
 17   9  33  1   
 18   9  34  1   
 19  10  12  1   
 20  10  35  1   
 21  10  36  1   
 22  11  12  1   
 23  11  13  am  
 24  12  37  1   
 25  12  38  1   
 26  13  14  2   
 27  13  15  1   
 28  15  16  1   
 29  15  39  1   
 30  15  40  1   
 31  16  17  1   
 32  16  18  1   
 33  17  19  1   
 34  17  41  1   
 35  17  42  1   
 36  18  20  1   
 37  18  43  1   
 38  18  44  1   
 39  19  21  1   
 40  19  45  1   
 41  19  46  1   
 42  20  21  1   
 43  20  47  1   
 44  20  48  1   
 45  21  22  1   
 46  22  23  ar  
 47  22  24  ar  
 48  23  25  ar  
 49  24  26  ar  
 50  25  27  ar  
 51  25  49  1   
 52  26  27  ar  
 53  26  50  1   
 54  27  51  1   
@<TRIPOS>SUBSTRUCTURE
  1 ****  17 GROUP 4 **** **** 0

# MOE 2024.06 (io_trps.svl 2023.06)
