@<TRIPOS>MOLECULE
NONAME
50 52 1 0 0 
SMALL
USER_CHARGES


@<TRIPOS>ATOM
  1 O       -1.8180    -3.0480     0.5600 O.co2 1 <1>  -0.9000 
  2 C       -0.7200    -3.4120     0.1160 C.2   1 <1>   1.0330 
  3 O       -0.7260    -4.1140    -0.9130 O.co2 1 <1>  -0.9000 
  4 C        0.4890    -3.2720     0.8600 C.2   1 <1>  -0.2330 
  5 C        0.7490    -3.8410     2.1150 C.2   1 <1>   0.3720 
  6 C        1.6670    -2.6830     0.5210 C.2   1 <1>   0.0870 
  7 N        1.9650    -3.6340     2.4690 N.2   1 <1>  -0.4100 
  8 N       -0.1300    -4.5600     2.9450 N.pl3 1 <1>  -0.8210 
  9 O        2.4990    -2.9300     1.5070 O.3   1 <1>  -0.0190 
 10 C        2.1200    -1.9220    -0.6260 C.ar  1 <1>   0.0530 
 11 C       -0.4080    -5.9820     2.5870 C.3   1 <1>   0.2090 
 12 C       -1.3100    -3.7770     3.4130 C.3   1 <1>   0.1290 
 13 C        3.4550    -1.5200    -0.7330 C.ar  1 <1>  -0.1500 
 14 C        1.2690    -1.5500    -1.6690 C.ar  1 <1>  -0.1500 
 15 C       -0.9990    -6.0680     1.1730 C.3   1 <1>   0.3430 
 16 C        3.9150    -0.7920    -1.8150 C.ar  1 <1>  -0.1500 
 17 C        1.7210    -0.8230    -2.7540 C.ar  1 <1>  -0.1500 
 18 N       -1.4760    -7.3880     0.6610 N.4   1 <1>  -0.9590 
 19 C        3.0470    -0.4400    -2.8310 C.ar  1 <1>  -0.1500 
 20 C       -1.8000    -7.1320    -0.7850 C.3   1 <1>   0.4230 
 21 C       -2.5940    -7.9370     1.4840 C.3   1 <1>   0.2630 
 22 C       -3.1410    -6.4260    -1.0050 C.3   1 <1>  -0.1600 
 23 C       -1.9470    -8.4470    -1.5460 C.3   1 <1>  -0.1600 
 24 C       -4.2000    -7.5100    -1.2490 C.3   1 <1>  -0.1600 
 25 C       -3.4390    -8.8050    -1.5560 C.3   1 <1>  -0.1600 
 26 H       -1.0910    -6.3920     3.3090 H     1 <1>   0.0800 
 27 H        0.5170    -6.5300     2.6280 H     1 <1>   0.0800 
 28 H       -1.1300    -2.7220     3.2850 H     1 <1>   0.0800 
 29 H       -1.4820    -3.9690     4.4570 H     1 <1>   0.0800 
 30 H       -2.1910    -4.0350     2.8520 H     1 <1>   0.0800 
 31 H        4.1490    -1.7830     0.0450 H     1 <1>   0.1500 
 32 H        0.2320    -1.8300    -1.6450 H     1 <1>   0.1500 
 33 H       -0.2260    -5.7290     0.5070 H     1 <1>   0.0800 
 34 H       -1.8120    -5.3630     1.1150 H     1 <1>   0.0800 
 35 H        4.9490    -0.4990    -1.8660 H     1 <1>   0.1500 
 36 H        1.0350    -0.5570    -3.5390 H     1 <1>   0.1500 
 37 H       -0.6770    -8.0300     0.6680 H     1 <1>   0.4500 
 38 H        3.3990     0.1260    -3.6760 H     1 <1>   0.1500 
 39 H       -1.0110    -6.5380    -1.2240 H     1 <1>   0.0800 
 40 H       -3.4220    -7.2470     1.4910 H     1 <1>   0.0800 
 41 H       -2.2700    -8.0990     2.4980 H     1 <1>   0.0800 
 42 H       -2.9310    -8.8750     1.0760 H     1 <1>   0.0800 
 43 H       -3.0430    -5.8400    -1.9030 H     1 <1>   0.0800 
 44 H       -3.4050    -5.7440    -0.2170 H     1 <1>   0.0800 
 45 H       -1.3340    -9.2350    -1.1480 H     1 <1>   0.0800 
 46 H       -1.6420    -8.2650    -2.5620 H     1 <1>   0.0800 
 47 H       -4.8340    -7.2310    -2.0750 H     1 <1>   0.0800 
 48 H       -4.8190    -7.6380    -0.3780 H     1 <1>   0.0800 
 49 H       -3.6550    -9.5460    -0.8070 H     1 <1>   0.0800 
 50 H       -3.7270    -9.2020    -2.5160 H     1 <1>   0.0800 
@<TRIPOS>BOND
  1   1   2  ar  
  2   2   3  ar  
  3   2   4  1   
  4   4   5  1   
  5   4   6  2   
  6   5   7  2   
  7   5   8  1   
  8   6   9  1   
  9   6  10  1   
 10   7   9  1   
 11   8  11  1   
 12   8  12  1   
 13  10  13  ar  
 14  10  14  ar  
 15  11  15  1   
 16  11  26  1   
 17  11  27  1   
 18  12  28  1   
 19  12  29  1   
 20  12  30  1   
 21  13  16  ar  
 22  13  31  1   
 23  14  17  ar  
 24  14  32  1   
 25  15  18  1   
 26  15  33  1   
 27  15  34  1   
 28  16  19  ar  
 29  16  35  1   
 30  17  19  ar  
 31  17  36  1   
 32  18  20  1   
 33  18  21  1   
 34  18  37  1   
 35  19  38  1   
 36  20  22  1   
 37  20  23  1   
 38  20  39  1   
 39  21  40  1   
 40  21  41  1   
 41  21  42  1   
 42  22  24  1   
 43  22  43  1   
 44  22  44  1   
 45  23  25  1   
 46  23  45  1   
 47  23  46  1   
 48  24  25  1   
 49  24  47  1   
 50  24  48  1   
 51  25  49  1   
 52  25  50  1   
@<TRIPOS>SUBSTRUCTURE
  1 ****   2 GROUP 4 **** **** 0

# MOE 2024.06 (io_trps.svl 2023.06)
