@<TRIPOS>MOLECULE
NONAME
51 55 1 0 0 
SMALL
USER_CHARGES


@<TRIPOS>ATOM
  1 O       -3.2120    -1.6520    -0.9230 O.2   1 <1>  -0.5700 
  2 C       -3.1430    -0.6000    -0.3050 C.2   1 <1>   0.7670 
  3 N       -2.5870     0.4710    -0.9610 N.2   1 <1>  -0.6610 
  4 C       -3.6280    -0.4740     1.0300 C.2   1 <1>   0.0290 
  5 C       -2.4720     1.5790    -0.3320 C.2   1 <1>   0.5000 
  6 C       -4.2260    -1.6080     1.6580 C.2   1 <1>   0.6160 
  7 C       -3.4670     0.7270     1.6540 C.2   1 <1>  -0.0500 
  8 N       -2.8880     1.7450     0.9590 N.pl3 1 <1>  -0.5500 
  9 C       -1.8510     2.7830    -1.0290 C.3   1 <1>  -0.1000 
 10 O       -3.7000    -2.0790     2.6490 O.2   1 <1>  -0.5700 
 11 N       -5.4060    -2.1650     1.2190 N.am  1 <1>  -0.6600 
 12 C       -0.9820     3.7700    -0.3030 C.3   1 <1>  -0.2000 
 13 C       -2.3380     4.1840    -0.7940 C.3   1 <1>  -0.2000 
 14 C       -6.2850    -1.6280     0.1410 C.3   1 <1>   0.1400 
 15 C       -5.7120    -3.5980     1.4550 C.3   1 <1>   0.1400 
 16 C       -7.2850    -2.7510    -0.1480 C.3   1 <1>   0.2000 
 17 C       -6.5400    -4.0300     0.2380 C.3   1 <1>  -0.0800 
 18 O       -8.3710    -2.6080     0.7010 O.3   1 <1>  -0.6800 
 19 C       -5.6520    -4.5080    -0.9330 C.3   1 <1>  -0.0160 
 20 C       -4.7780    -5.6990    -0.5570 C.ar  1 <1>  -0.1430 
 21 C       -5.2820    -7.0150    -0.4370 C.ar  1 <1>   0.0000 
 22 C       -3.4480    -5.5090    -0.3190 C.ar  1 <1>  -0.1500 
 23 C       -4.3740    -8.0340    -0.0580 C.ar  1 <1>   0.3100 
 24 C       -6.6280    -7.3800    -0.6740 C.ar  1 <1>  -0.1500 
 25 C       -2.6350    -6.5880     0.0440 C.ar  1 <1>   0.1600 
 26 N       -3.0570    -7.8060     0.1780 N.ar  1 <1>  -0.6200 
 27 C       -4.8490    -9.3480     0.0820 C.ar  1 <1>  -0.1500 
 28 C       -7.0570    -8.6720    -0.5310 C.ar  1 <1>  -0.1500 
 29 C       -6.1590    -9.6700    -0.1460 C.ar  1 <1>  -0.1500 
 30 H       -3.7790     0.8920     2.6740 H     1 <1>   0.1500 
 31 H       -2.7330     2.6680     1.3770 H     1 <1>   0.4000 
 32 H       -1.5590     2.5370    -2.0360 H     1 <1>   0.1000 
 33 H       -0.8180     3.6570     0.7540 H     1 <1>   0.1000 
 34 H       -0.1100     4.1470    -0.8100 H     1 <1>   0.1000 
 35 H       -2.4010     4.8480    -1.6400 H     1 <1>   0.1000 
 36 H       -3.1220     4.3630    -0.0800 H     1 <1>   0.1000 
 37 H       -6.7820    -0.7240     0.4490 H     1 <1>   0.0800 
 38 H       -5.7070    -1.4370    -0.7440 H     1 <1>   0.0800 
 39 H       -4.8110    -4.1750     1.5760 H     1 <1>   0.0800 
 40 H       -6.2960    -3.6840     2.3550 H     1 <1>   0.0800 
 41 H       -7.6470    -2.7460    -1.1620 H     1 <1>   0.0800 
 42 H       -7.2240    -4.8150     0.5060 H     1 <1>   0.0800 
 43 H       -8.0490    -2.5050     1.6190 H     1 <1>   0.4000 
 44 H       -5.0130    -3.7030    -1.2550 H     1 <1>   0.0800 
 45 H       -6.2650    -4.7670    -1.7780 H     1 <1>   0.0800 
 46 H       -2.9950    -4.5350    -0.3970 H     1 <1>   0.1500 
 47 H       -7.3330    -6.6300    -0.9770 H     1 <1>   0.1500 
 48 H       -1.5920    -6.3890     0.2260 H     1 <1>   0.1500 
 49 H       -4.1390   -10.0990     0.3760 H     1 <1>   0.1500 
 50 H       -8.0850    -8.9350    -0.7130 H     1 <1>   0.1500 
 51 H       -6.5080   -10.6820    -0.0350 H     1 <1>   0.1500 
@<TRIPOS>BOND
  1   1   2  2   
  2   2   3  1   
  3   2   4  1   
  4   3   5  2   
  5   4   6  1   
  6   4   7  2   
  7   5   8  1   
  8   5   9  1   
  9   6  10  2   
 10   6  11  am  
 11   7   8  1   
 12   7  30  1   
 13   8  31  1   
 14   9  12  1   
 15   9  13  1   
 16   9  32  1   
 17  11  14  1   
 18  11  15  1   
 19  12  13  1   
 20  12  33  1   
 21  12  34  1   
 22  13  35  1   
 23  13  36  1   
 24  14  16  1   
 25  14  37  1   
 26  14  38  1   
 27  15  17  1   
 28  15  39  1   
 29  15  40  1   
 30  16  17  1   
 31  16  18  1   
 32  16  41  1   
 33  17  19  1   
 34  17  42  1   
 35  18  43  1   
 36  19  20  1   
 37  19  44  1   
 38  19  45  1   
 39  20  21  ar  
 40  20  22  ar  
 41  21  23  ar  
 42  21  24  ar  
 43  22  25  ar  
 44  22  46  1   
 45  23  26  ar  
 46  23  27  ar  
 47  24  28  ar  
 48  24  47  1   
 49  25  26  ar  
 50  25  48  1   
 51  27  29  ar  
 52  27  49  1   
 53  28  29  ar  
 54  28  50  1   
 55  29  51  1   
@<TRIPOS>SUBSTRUCTURE
  1 ****  11 GROUP 4 **** **** 0

# MOE 2024.06 (io_trps.svl 2023.06)
