@<TRIPOS>MOLECULE
NONAME
42 45 1 0 0 
SMALL
USER_CHARGES


@<TRIPOS>ATOM
  1 S       -2.2540    -2.6460     2.3240 S.3   1 <1>  -0.1570 
  2 C       -3.2940    -1.7130     1.2300 C.2   1 <1>   0.2420 
  3 C       -0.8030    -1.8860     1.6160 C.2   1 <1>  -0.0490 
  4 N       -4.5740    -1.6660     1.0710 N.2   1 <1>  -0.5650 
  5 N       -2.5450    -0.9230     0.4360 N.pl3 1 <1>   0.3340 
  6 C       -1.1540    -1.0200     0.6510 C.2   1 <1>  -0.1810 
  7 C       -4.6860    -0.7570     0.0700 C.2   1 <1>   0.0460 
  8 C       -3.4690    -0.2970    -0.3240 C.2   1 <1>  -0.3020 
  9 C       -6.0490    -0.3600    -0.4800 C.3   1 <1>   0.0820 
 10 C       -6.7450    -1.4920    -1.2170 C.2   1 <1>   0.5690 
 11 O       -7.4930    -1.2260    -2.1260 O.2   1 <1>  -0.5700 
 12 N       -6.5170    -2.7710    -0.8320 N.am  1 <1>  -0.7300 
 13 C       -7.0910    -3.9880    -1.4410 C.3   1 <1>   0.2200 
 14 C       -7.6990    -4.8490    -0.3470 C.3   1 <1>  -0.0800 
 15 C       -5.9720    -4.8790    -1.9850 C.3   1 <1>   0.1200 
 16 C       -6.4780    -5.6360     0.1280 C.3   1 <1>   0.1200 
 17 C       -8.8030    -5.7670    -0.9020 C.3   1 <1>  -0.0160 
 18 O       -5.6900    -5.8380    -1.0040 O.3   1 <1>  -0.5600 
 19 C       -9.4160    -6.6280     0.1920 C.ar  1 <1>  -0.1430 
 20 C      -10.3030    -6.1100     1.1130 C.ar  1 <1>  -0.1500 
 21 C       -9.1170    -7.9690     0.3210 C.ar  1 <1>  -0.1500 
 22 C      -10.8310    -6.9330     2.0930 C.ar  1 <1>   0.1600 
 23 C       -9.7010    -8.7060     1.3390 C.ar  1 <1>   0.1600 
 24 N      -10.5510    -8.2190     2.2290 N.ar  1 <1>  -0.6200 
 25 H        0.1480    -2.1900     2.0210 H     1 <1>   0.1500 
 26 H       -0.5070    -0.4120     0.0440 H     1 <1>   0.1500 
 27 H       -3.2070     0.4180    -1.0810 H     1 <1>   0.1500 
 28 H       -5.9330     0.4660    -1.1560 H     1 <1>   0.0800 
 29 H       -6.6780    -0.0420     0.3300 H     1 <1>   0.0800 
 30 H       -5.8290    -2.9170    -0.0790 H     1 <1>   0.3700 
 31 H       -7.7970    -3.7190    -2.2090 H     1 <1>   0.0800 
 32 H       -8.1070    -4.2480     0.4470 H     1 <1>   0.0800 
 33 H       -5.0790    -4.3210    -2.2060 H     1 <1>   0.0800 
 34 H       -6.2990    -5.4050    -2.8640 H     1 <1>   0.0800 
 35 H       -6.7230    -6.5870     0.5670 H     1 <1>   0.0800 
 36 H       -5.9000    -5.0560     0.8280 H     1 <1>   0.0800 
 37 H       -8.4050    -6.3990    -1.6780 H     1 <1>   0.0800 
 38 H       -9.5800    -5.1660    -1.3420 H     1 <1>   0.0800 
 39 H      -10.5870    -5.0740     1.0780 H     1 <1>   0.1500 
 40 H       -8.4340    -8.4480    -0.3570 H     1 <1>   0.1500 
 41 H      -11.5210    -6.5110     2.8030 H     1 <1>   0.1500 
 42 H       -9.4560    -9.7500     1.4240 H     1 <1>   0.1500 
@<TRIPOS>BOND
  1   1   2  1   
  2   1   3  1   
  3   2   4  2   
  4   2   5  1   
  5   3   6  2   
  6   3  25  1   
  7   4   7  1   
  8   5   6  1   
  9   5   8  1   
 10   6  26  1   
 11   7   8  2   
 12   7   9  1   
 13   8  27  1   
 14   9  10  1   
 15   9  28  1   
 16   9  29  1   
 17  10  11  2   
 18  10  12  am  
 19  12  13  1   
 20  12  30  1   
 21  13  14  1   
 22  13  15  1   
 23  13  31  1   
 24  14  16  1   
 25  14  17  1   
 26  14  32  1   
 27  15  18  1   
 28  15  33  1   
 29  15  34  1   
 30  16  18  1   
 31  16  35  1   
 32  16  36  1   
 33  17  19  1   
 34  17  37  1   
 35  17  38  1   
 36  19  20  ar  
 37  19  21  ar  
 38  20  22  ar  
 39  20  39  1   
 40  21  23  ar  
 41  21  40  1   
 42  22  24  ar  
 43  22  41  1   
 44  23  24  ar  
 45  23  42  1   
@<TRIPOS>SUBSTRUCTURE
  1 ****  12 GROUP 4 **** **** 0

# MOE 2024.06 (io_trps.svl 2023.06)
