@<TRIPOS>MOLECULE
NONAME
44 46 1 0 0 
SMALL
USER_CHARGES


@<TRIPOS>ATOM
  1 O       -1.1020     0.3810    -0.2310 O.2   1 <1>  -0.5700 
  2 C       -0.7970     1.5020     0.0880 C.2   1 <1>   0.5690 
  3 N       -1.7390     2.4640     0.2040 N.am  1 <1>  -0.7300 
  4 C        0.6750     1.8580     0.3310 C.3   1 <1>   0.1810 
  5 C       -1.4340     3.8520     0.6260 C.3   1 <1>   0.3640 
  6 O        0.8520     3.0790     1.0180 O.3   1 <1>  -0.5600 
  7 C       -2.2260     4.8380    -0.2300 C.ar  1 <1>  -0.1440 
  8 C        0.0770     4.1570     0.5180 C.3   1 <1>   0.2610 
  9 C       -2.7590     5.9750     0.3620 C.ar  1 <1>  -0.1500 
 10 C       -2.4000     4.6440    -1.5950 C.ar  1 <1>  -0.1500 
 11 C        0.3680     5.4730     1.2590 C.2   1 <1>   0.5690 
 12 C       -3.4520     6.9030    -0.3950 C.ar  1 <1>  -0.1500 
 13 C       -3.0940     5.5710    -2.3520 C.ar  1 <1>  -0.1500 
 14 O        0.1240     5.5200     2.4450 O.2   1 <1>  -0.5700 
 15 N        0.8380     6.5810     0.5930 N.am  1 <1>  -0.6600 
 16 C       -3.6200     6.7020    -1.7530 C.ar  1 <1>  -0.1500 
 17 C        1.1070     7.8520     1.3030 C.3   1 <1>   0.2200 
 18 C        0.7250     6.8110    -0.8630 C.3   1 <1>   0.2200 
 19 C        1.1260     8.9330     0.2210 C.3   1 <1>  -0.1600 
 20 C        2.4350     7.7650     2.0550 C.3   1 <1>  -0.2400 
 21 C        0.4300     8.3020    -0.9810 C.3   1 <1>  -0.1600 
 22 C        2.0440     6.4240    -1.5310 C.3   1 <1>  -0.2400 
 23 H       -2.7210     2.2190     0.0690 H     1 <1>   0.3700 
 24 H        1.1860     1.9250    -0.6120 H     1 <1>   0.0800 
 25 H        1.1350     1.0850     0.9190 H     1 <1>   0.0800 
 26 H       -1.7340     3.9580     1.6550 H     1 <1>   0.0800 
 27 H        0.3340     4.2660    -0.5170 H     1 <1>   0.0800 
 28 H       -2.6310     6.1500     1.4180 H     1 <1>   0.1500 
 29 H       -1.9980     3.7710    -2.0800 H     1 <1>   0.1500 
 30 H       -3.8610     7.7810     0.0740 H     1 <1>   0.1500 
 31 H       -3.2280     5.4120    -3.4090 H     1 <1>   0.1500 
 32 H       -4.1610     7.4220    -2.3420 H     1 <1>   0.1500 
 33 H        0.3020     8.0440     1.9950 H     1 <1>   0.0800 
 34 H       -0.0900     6.2520    -1.2890 H     1 <1>   0.0800 
 35 H        0.6290     9.8280     0.5520 H     1 <1>   0.0800 
 36 H        2.1400     9.1810    -0.0390 H     1 <1>   0.0800 
 37 H        3.2360     7.5180     1.3830 H     1 <1>   0.0800 
 38 H        2.3730     7.0130     2.8200 H     1 <1>   0.0800 
 39 H        2.6520     8.7060     2.5260 H     1 <1>   0.0800 
 40 H        0.7640     8.7170    -1.9160 H     1 <1>   0.0800 
 41 H       -0.6330     8.4470    -0.9000 H     1 <1>   0.0800 
 42 H        2.8580     7.0000    -1.1300 H     1 <1>   0.0800 
 43 H        1.9850     6.6070    -2.5890 H     1 <1>   0.0800 
 44 H        2.2490     5.3800    -1.3790 H     1 <1>   0.0800 
@<TRIPOS>BOND
  1   1   2  2   
  2   2   3  am  
  3   2   4  1   
  4   3   5  1   
  5   3  23  1   
  6   4   6  1   
  7   4  24  1   
  8   4  25  1   
  9   5   7  1   
 10   5   8  1   
 11   5  26  1   
 12   6   8  1   
 13   7   9  ar  
 14   7  10  ar  
 15   8  11  1   
 16   8  27  1   
 17   9  12  ar  
 18   9  28  1   
 19  10  13  ar  
 20  10  29  1   
 21  11  14  2   
 22  11  15  am  
 23  12  16  ar  
 24  12  30  1   
 25  13  16  ar  
 26  13  31  1   
 27  15  17  1   
 28  15  18  1   
 29  16  32  1   
 30  17  19  1   
 31  17  20  1   
 32  17  33  1   
 33  18  21  1   
 34  18  22  1   
 35  18  34  1   
 36  19  21  1   
 37  19  35  1   
 38  19  36  1   
 39  20  37  1   
 40  20  38  1   
 41  20  39  1   
 42  21  40  1   
 43  21  41  1   
 44  22  42  1   
 45  22  43  1   
 46  22  44  1   
@<TRIPOS>SUBSTRUCTURE
  1 ****   8 GROUP 4 **** **** 0

# MOE 2024.06 (io_trps.svl 2023.06)
