@<TRIPOS>MOLECULE
NONAME
52 54 1 0 0 
SMALL
USER_CHARGES


@<TRIPOS>ATOM
  1 F       -0.1300    -2.2250    -1.9800 F     1 <1>  -0.1900 
  2 C       -0.7990    -3.0220    -1.1860 C.ar  1 <1>   0.1900 
  3 C       -1.0170    -2.7160     0.1620 C.ar  1 <1>   0.0830 
  4 C       -1.2810    -4.1870    -1.7500 C.ar  1 <1>  -0.1500 
  5 O       -0.5920    -1.6050     0.8310 O.3   1 <1>  -0.3630 
  6 C       -1.7400    -3.6250     0.9170 C.ar  1 <1>  -0.1500 
  7 C       -1.9960    -5.0730    -0.9660 C.ar  1 <1>  -0.1500 
  8 C        0.1730    -0.5870     0.2250 C.3   1 <1>   0.0400 
  9 C       -2.2460    -4.8140     0.3840 C.ar  1 <1>   0.0530 
 10 C       -2.9980    -5.7300     1.2090 C.2   1 <1>   0.0870 
 11 O       -2.8640    -5.7110     2.5180 O.3   1 <1>  -0.0190 
 12 C       -3.8990    -6.7070     0.9340 C.2   1 <1>  -0.2330 
 13 N       -3.6050    -6.6080     3.1230 N.2   1 <1>  -0.4100 
 14 C       -4.2390    -7.2030     2.1820 C.2   1 <1>   0.3720 
 15 C       -4.4550    -7.3050    -0.2270 C.2   1 <1>   1.0330 
 16 N       -5.1440    -8.2420     2.3410 N.pl3 1 <1>  -0.8520 
 17 O       -5.6860    -7.4930    -0.3080 O.co2 1 <1>  -0.9000 
 18 O       -3.7500    -7.9410    -1.0210 O.co2 1 <1>  -0.9000 
 19 C       -4.5130    -9.5740     2.1410 C.3   1 <1>   0.2090 
 20 C       -5.4500   -10.5600     1.4140 C.3   1 <1>   0.3430 
 21 N       -5.7670   -10.1980    -0.0130 N.4   1 <1>  -0.9590 
 22 C       -7.2110   -10.4130    -0.3530 C.3   1 <1>   0.4230 
 23 C       -4.7710   -10.8230    -0.9340 C.3   1 <1>   0.3430 
 24 C       -7.4770   -10.1920    -1.8510 C.3   1 <1>  -0.1600 
 25 C       -8.1260    -9.4690     0.4660 C.3   1 <1>   0.1200 
 26 C       -5.0940   -10.5750    -2.4060 C.3   1 <1>  -0.1600 
 27 C       -6.5250   -10.9830    -2.7470 C.3   1 <1>  -0.1600 
 28 O       -9.4380    -9.9310     0.4220 O.3   1 <1>  -0.6800 
 29 H       -1.0980    -4.4000    -2.7880 H     1 <1>   0.1500 
 30 H       -1.9150    -3.3970     1.9530 H     1 <1>   0.1500 
 31 H       -2.3580    -5.9810    -1.4130 H     1 <1>   0.1500 
 32 H        0.3820     0.1610     0.9680 H     1 <1>   0.0800 
 33 H       -0.3950    -0.1530    -0.5790 H     1 <1>   0.0800 
 34 H        1.0940    -1.0090    -0.1370 H     1 <1>   0.0800 
 35 H       -5.8280    -8.0790     1.5800 H     1 <1>   0.4000 
 36 H       -4.2680    -9.9740     3.1100 H     1 <1>   0.0800 
 37 H       -3.5930    -9.4800     1.5860 H     1 <1>   0.0800 
 38 H       -6.3580   -10.6250     1.9880 H     1 <1>   0.0800 
 39 H       -4.9990   -11.5370     1.4330 H     1 <1>   0.0800 
 40 H       -5.6290    -9.1670    -0.1720 H     1 <1>   0.4500 
 41 H       -7.4680   -11.4290    -0.1050 H     1 <1>   0.0800 
 42 H       -4.7420   -11.8860    -0.7620 H     1 <1>   0.0800 
 43 H       -3.7930   -10.4150    -0.7290 H     1 <1>   0.0800 
 44 H       -7.3800    -9.1420    -2.0740 H     1 <1>   0.0800 
 45 H       -8.4900   -10.4760    -2.0740 H     1 <1>   0.0800 
 46 H       -8.1020    -8.4740     0.0530 H     1 <1>   0.0800 
 47 H       -7.8410    -9.4260     1.5010 H     1 <1>   0.0800 
 48 H       -4.4020   -11.1270    -3.0160 H     1 <1>   0.0800 
 49 H       -4.9500    -9.5300    -2.6260 H     1 <1>   0.0800 
 50 H       -6.7300   -10.7610    -3.7810 H     1 <1>   0.0800 
 51 H       -6.6600   -12.0410    -2.5950 H     1 <1>   0.0800 
 52 H      -10.0490    -9.2750     0.8180 H     1 <1>   0.4000 
@<TRIPOS>BOND
  1   1   2  1   
  2   2   3  ar  
  3   2   4  ar  
  4   3   5  1   
  5   3   6  ar  
  6   4   7  ar  
  7   4  29  1   
  8   5   8  1   
  9   6   9  ar  
 10   6  30  1   
 11   7   9  ar  
 12   7  31  1   
 13   8  32  1   
 14   8  33  1   
 15   8  34  1   
 16   9  10  1   
 17  10  11  1   
 18  10  12  2   
 19  11  13  1   
 20  12  14  1   
 21  12  15  1   
 22  13  14  2   
 23  14  16  1   
 24  15  17  ar  
 25  15  18  ar  
 26  16  19  1   
 27  16  35  1   
 28  19  20  1   
 29  19  36  1   
 30  19  37  1   
 31  20  21  1   
 32  20  38  1   
 33  20  39  1   
 34  21  22  1   
 35  21  23  1   
 36  21  40  1   
 37  22  24  1   
 38  22  25  1   
 39  22  41  1   
 40  23  26  1   
 41  23  42  1   
 42  23  43  1   
 43  24  27  1   
 44  24  44  1   
 45  24  45  1   
 46  25  28  1   
 47  25  46  1   
 48  25  47  1   
 49  26  27  1   
 50  26  48  1   
 51  26  49  1   
 52  27  50  1   
 53  27  51  1   
 54  28  52  1   
@<TRIPOS>SUBSTRUCTURE
  1 ****  15 GROUP 4 **** **** 0

# MOE 2024.06 (io_trps.svl 2023.06)
