@<TRIPOS>MOLECULE
NONAME
42 44 1 0 0 
SMALL
USER_CHARGES


@<TRIPOS>ATOM
  1 O        1.1370     0.2990    -0.7780 O.2   1 <1>  -0.5700 
  2 C        1.9070    -0.6300    -0.6010 C.2   1 <1>   0.7150 
  3 N        3.2590    -0.3950    -0.7750 N.am  1 <1>  -0.6600 
  4 C        1.3800    -1.9210    -0.2090 C.2   1 <1>   0.0550 
  5 C        3.7610     0.8210    -1.4800 C.3   1 <1>   0.1400 
  6 C        4.3320    -1.2180    -0.1510 C.3   1 <1>   0.1400 
  7 O        1.9370    -3.0490    -0.6340 O.3   1 <1>  -0.2800 
  8 C        0.3170    -2.2350     0.5640 C.2   1 <1>   0.0460 
  9 C        4.5280     1.7180    -0.4970 C.3   1 <1>  -0.0190 
 10 C        5.1350    -0.3560     0.8300 C.3   1 <1>  -0.1600 
 11 C        1.1660    -3.9620    -0.0820 C.2   1 <1>   0.2980 
 12 N        0.1930    -3.5540     0.6420 N.2   1 <1>  -0.5650 
 13 C       -0.6690    -1.3440     1.2920 C.3   1 <1>  -0.0590 
 14 C        5.0680     2.9670    -1.2010 C.2   1 <1>   0.4230 
 15 C        5.6680     0.9260     0.1730 C.3   1 <1>  -0.1600 
 16 C        1.4900    -5.4120    -0.3480 C.3   1 <1>  -0.0600 
 17 O        5.4540     2.8380    -2.3400 O.2   1 <1>  -0.5700 
 18 C        5.1100     4.2380    -0.4910 C.ar  1 <1>   0.3960 
 19 N        4.8440     4.2790     0.8260 N.ar  1 <1>  -0.6200 
 20 C        5.4350     5.4020    -1.1940 C.ar  1 <1>  -0.1500 
 21 C        4.8970     5.4570     1.4190 C.ar  1 <1>   0.1600 
 22 C        5.4890     6.6260    -0.5650 C.ar  1 <1>  -0.1500 
 23 C        5.2090     6.6440     0.7820 C.ar  1 <1>  -0.1500 
 24 H        2.9470     1.3750    -1.9170 H     1 <1>   0.0800 
 25 H        4.4120     0.5130    -2.2810 H     1 <1>   0.0800 
 26 H        4.9780    -1.5960    -0.9250 H     1 <1>   0.0800 
 27 H        3.9190    -2.0560     0.3830 H     1 <1>   0.0800 
 28 H        3.8220     2.0200     0.2550 H     1 <1>   0.0800 
 29 H        5.9580    -0.9320     1.2160 H     1 <1>   0.0800 
 30 H        4.5010    -0.0980     1.6620 H     1 <1>   0.0800 
 31 H       -0.4050    -0.3080     1.1890 H     1 <1>   0.0800 
 32 H       -0.6790    -1.5970     2.3370 H     1 <1>   0.0800 
 33 H       -1.6530    -1.4940     0.8890 H     1 <1>   0.0800 
 34 H        6.1460     1.5400     0.9170 H     1 <1>   0.0800 
 35 H        6.4050     0.6680    -0.5690 H     1 <1>   0.0800 
 36 H        2.4780    -5.6330     0.0090 H     1 <1>   0.0800 
 37 H        1.4410    -5.6040    -1.4030 H     1 <1>   0.0800 
 38 H        0.7830    -6.0430     0.1590 H     1 <1>   0.0800 
 39 H        5.6480     5.3370    -2.2460 H     1 <1>   0.1500 
 40 H        4.6810     5.4830     2.4750 H     1 <1>   0.1500 
 41 H        5.7370     7.5260    -1.1020 H     1 <1>   0.1500 
 42 H        5.2310     7.5660     1.3350 H     1 <1>   0.1500 
@<TRIPOS>BOND
  1   1   2  2   
  2   2   3  am  
  3   2   4  1   
  4   3   5  1   
  5   3   6  1   
  6   4   7  1   
  7   4   8  2   
  8   5   9  1   
  9   5  24  1   
 10   5  25  1   
 11   6  10  1   
 12   6  26  1   
 13   6  27  1   
 14   7  11  1   
 15   8  12  1   
 16   8  13  1   
 17   9  14  1   
 18   9  15  1   
 19   9  28  1   
 20  10  15  1   
 21  10  29  1   
 22  10  30  1   
 23  11  12  2   
 24  11  16  1   
 25  13  31  1   
 26  13  32  1   
 27  13  33  1   
 28  14  17  2   
 29  14  18  1   
 30  15  34  1   
 31  15  35  1   
 32  16  36  1   
 33  16  37  1   
 34  16  38  1   
 35  18  19  ar  
 36  18  20  ar  
 37  19  21  ar  
 38  20  22  ar  
 39  20  39  1   
 40  21  23  ar  
 41  21  40  1   
 42  22  23  ar  
 43  22  41  1   
 44  23  42  1   
@<TRIPOS>SUBSTRUCTURE
  1 ****   3 GROUP 4 **** **** 0

# MOE 2024.06 (io_trps.svl 2023.06)
