@<TRIPOS>MOLECULE
NONAME
59 63 1 0 0 
SMALL
USER_CHARGES


@<TRIPOS>ATOM
  1 O       -3.1080    -0.4330     3.8800 O.co2 1 <1>  -0.9000 
  2 C       -4.0990     0.3200     3.7890 C.2   1 <1>   1.0320 
  3 O       -4.1370     1.3370     4.5080 O.co2 1 <1>  -0.9000 
  4 C       -5.1710    -0.0140     2.8610 C.2   1 <1>  -0.0920 
  5 O       -6.2590     0.7410     2.7050 O.3   1 <1>  -0.2800 
  6 C       -5.2790    -1.0850     2.0270 C.2   1 <1>  -0.1500 
  7 C       -7.0470     0.1860     1.8110 C.2   1 <1>  -0.0400 
  8 C       -6.4910    -0.9550     1.3470 C.2   1 <1>  -0.1500 
  9 C       -8.3500     0.8890     1.4940 C.3   1 <1>   0.3200 
 10 N       -9.3240    -0.0860     0.9390 N.am  1 <1>  -0.7300 
 11 C      -10.2200     0.1980    -0.0410 C.2   1 <1>   0.5690 
 12 O      -10.3150     1.3060    -0.5170 O.2   1 <1>  -0.5700 
 13 C      -11.1660    -0.8890    -0.5900 C.3   1 <1>   0.4040 
 14 N      -12.2850    -0.3170    -1.4300 N.4   1 <1>  -0.9590 
 15 C      -13.3050     0.3860    -0.5760 C.3   1 <1>   0.3430 
 16 C      -12.9110    -1.3130    -2.3420 C.3   1 <1>   0.3430 
 17 C      -14.3370     1.1390    -1.4320 C.3   1 <1>   0.1430 
 18 C      -13.9120    -0.6040    -3.2600 C.3   1 <1>  -0.1600 
 19 C      -15.4080     1.7010    -0.5270 C.ar  1 <1>   0.1670 
 20 C      -14.9720     0.1850    -2.4680 C.3   1 <1>  -0.1600 
 21 C      -13.7500     2.4150    -2.0940 C.3   1 <1>  -0.1600 
 22 N      -16.0180     1.0240     0.4140 N.ar  1 <1>  -0.6200 
 23 C      -15.6670     3.0070    -0.7990 C.ar  1 <1>  -0.1430 
 24 C      -14.8030     3.5280    -1.9210 C.3   1 <1>  -0.0170 
 25 C      -16.9580     1.7000     1.0940 C.ar  1 <1>   0.6200 
 26 C      -16.6300     3.6320    -0.0510 C.ar  1 <1>   0.1600 
 27 N      -17.2780     2.9860     0.8910 N.ar  1 <1>  -0.6200 
 28 C      -17.6850     0.9830     2.1310 C.ar  1 <1>   0.0000 
 29 C      -19.0170     1.2870     2.4310 C.ar  1 <1>  -0.1500 
 30 C      -17.0910    -0.0420     2.8740 C.ar  1 <1>  -0.1500 
 31 C      -19.7160     0.6080     3.4130 C.ar  1 <1>  -0.1500 
 32 C      -17.7840    -0.7250     3.8570 C.ar  1 <1>  -0.1500 
 33 C      -19.1000    -0.4010     4.1290 C.ar  1 <1>  -0.1500 
 34 H       -4.5580    -1.8760     1.9200 H     1 <1>   0.1500 
 35 H       -6.8560    -1.6460     0.6110 H     1 <1>   0.1500 
 36 H       -8.1680     1.6930     0.8010 H     1 <1>   0.0800 
 37 H       -8.7480     1.3070     2.4030 H     1 <1>   0.0800 
 38 H       -9.2160    -1.0100     1.3640 H     1 <1>   0.3700 
 39 H      -11.5750    -1.4490     0.2330 H     1 <1>   0.0800 
 40 H      -10.5740    -1.5570    -1.1910 H     1 <1>   0.0800 
 41 H      -11.8360     0.4240    -1.9950 H     1 <1>   0.4500 
 42 H      -12.8200     1.0920     0.0800 H     1 <1>   0.0800 
 43 H      -13.8270    -0.3330     0.0340 H     1 <1>   0.0800 
 44 H      -13.4250    -2.0650    -1.7640 H     1 <1>   0.0800 
 45 H      -12.1560    -1.7980    -2.9410 H     1 <1>   0.0800 
 46 H      -14.4070    -1.3420    -3.8680 H     1 <1>   0.0800 
 47 H      -13.3810     0.0490    -3.9300 H     1 <1>   0.0800 
 48 H      -15.6010     0.7390    -3.1440 H     1 <1>   0.0800 
 49 H      -15.6060    -0.5160    -1.9500 H     1 <1>   0.0800 
 50 H      -13.5020     2.2790    -3.1310 H     1 <1>   0.0800 
 51 H      -12.8590     2.7190    -1.5690 H     1 <1>   0.0800 
 52 H      -15.3970     3.6360    -2.8130 H     1 <1>   0.0800 
 53 H      -14.3490     4.4710    -1.6700 H     1 <1>   0.0800 
 54 H      -16.8740     4.6660    -0.2240 H     1 <1>   0.1500 
 55 H      -19.5130     2.0700     1.8840 H     1 <1>   0.1500 
 56 H      -16.0680    -0.3060     2.6800 H     1 <1>   0.1500 
 57 H      -20.7400     0.8670     3.6200 H     1 <1>   0.1500 
 58 H      -17.3010    -1.5090     4.4140 H     1 <1>   0.1500 
 59 H      -19.6420    -0.9300     4.8930 H     1 <1>   0.1500 
@<TRIPOS>BOND
  1   1   2  ar  
  2   2   3  ar  
  3   2   4  1   
  4   4   5  1   
  5   4   6  2   
  6   5   7  1   
  7   6   8  1   
  8   6  34  1   
  9   7   8  2   
 10   7   9  1   
 11   8  35  1   
 12   9  10  1   
 13   9  36  1   
 14   9  37  1   
 15  10  11  am  
 16  10  38  1   
 17  11  12  2   
 18  11  13  1   
 19  13  14  1   
 20  13  39  1   
 21  13  40  1   
 22  14  15  1   
 23  14  16  1   
 24  14  41  1   
 25  15  17  1   
 26  15  42  1   
 27  15  43  1   
 28  16  18  1   
 29  16  44  1   
 30  16  45  1   
 31  17  19  1   
 32  17  20  1   
 33  17  21  1   
 34  18  20  1   
 35  18  46  1   
 36  18  47  1   
 37  19  22  ar  
 38  19  23  ar  
 39  20  48  1   
 40  20  49  1   
 41  21  24  1   
 42  21  50  1   
 43  21  51  1   
 44  22  25  ar  
 45  23  24  1   
 46  23  26  ar  
 47  24  52  1   
 48  24  53  1   
 49  25  27  ar  
 50  25  28  1   
 51  26  27  ar  
 52  26  54  1   
 53  28  29  ar  
 54  28  30  ar  
 55  29  31  ar  
 56  29  55  1   
 57  30  32  ar  
 58  30  56  1   
 59  31  33  ar  
 60  31  57  1   
 61  32  33  ar  
 62  32  58  1   
 63  33  59  1   
@<TRIPOS>SUBSTRUCTURE
  1 ****  15 GROUP 4 **** **** 0

# MOE 2024.06 (io_trps.svl 2023.06)
