@<TRIPOS>MOLECULE
NONAME
41 44 1 0 0 
SMALL
USER_CHARGES


@<TRIPOS>ATOM
  1 S        0.7400     0.0860     1.1130 S.3   1 <1>  -0.0800 
  2 C        0.3430    -1.6090     1.2640 C.2   1 <1>  -0.1100 
  3 C        1.3870    -0.1710    -0.4940 C.2   1 <1>  -0.1100 
  4 C        0.6720    -2.3120     0.1510 C.2   1 <1>  -0.0860 
  5 C        1.2800    -1.4650    -0.8440 C.2   1 <1>  -0.1500 
  6 C        0.4800    -3.7330    -0.0700 C.2   1 <1>   0.7160 
  7 O        1.2280    -4.3380    -0.8140 O.2   1 <1>  -0.5700 
  8 N       -0.5510    -4.4220     0.5260 N.am  1 <1>  -0.6600 
  9 C       -0.5610    -5.9190     0.5860 C.3   1 <1>   0.1400 
 10 C       -1.9120    -3.8320     0.7150 C.3   1 <1>   0.1400 
 11 C       -1.6610    -6.5030    -0.3210 C.3   1 <1>   0.3440 
 12 C       -2.9470    -4.5350    -0.1880 C.3   1 <1>   0.2950 
 13 O       -2.8990    -5.9190    -0.0060 O.3   1 <1>  -0.5600 
 14 C       -1.7460    -8.0170    -0.1510 C.ar  1 <1>  -0.1440 
 15 C       -4.3720    -4.0770     0.1340 C.3   1 <1>  -0.1950 
 16 C       -2.5730    -8.5970     0.8010 C.ar  1 <1>  -0.1500 
 17 C       -0.9690    -8.8380    -0.9570 C.ar  1 <1>  -0.1500 
 18 C       -5.4710    -4.2030    -0.8740 C.3   1 <1>  -0.2000 
 19 C       -4.9490    -2.8460    -0.4930 C.3   1 <1>  -0.2000 
 20 C       -2.6220    -9.9730     0.9470 C.ar  1 <1>  -0.1500 
 21 C       -1.0170   -10.2140    -0.8130 C.ar  1 <1>  -0.1500 
 22 C       -1.8430   -10.7830     0.1400 C.ar  1 <1>  -0.1500 
 23 H       -0.1030    -1.9290     2.1890 H     1 <1>   0.1500 
 24 H        1.7870     0.6840    -1.0100 H     1 <1>   0.1500 
 25 H        1.6110    -1.8840    -1.7800 H     1 <1>   0.1500 
 26 H        0.3920    -6.3190     0.2880 H     1 <1>   0.0800 
 27 H       -0.7410    -6.2330     1.5980 H     1 <1>   0.0800 
 28 H       -2.2060    -3.9400     1.7440 H     1 <1>   0.0800 
 29 H       -1.9110    -2.7840     0.4770 H     1 <1>   0.0800 
 30 H       -1.4380    -6.2750    -1.3490 H     1 <1>   0.0800 
 31 H       -2.7290    -4.3260    -1.2220 H     1 <1>   0.0800 
 32 H       -4.6330    -4.2700     1.1600 H     1 <1>   0.1000 
 33 H       -3.1870    -7.9770     1.4320 H     1 <1>   0.1500 
 34 H       -0.3200    -8.4110    -1.7020 H     1 <1>   0.1500 
 35 H       -5.2360    -4.6030    -1.8450 H     1 <1>   0.1000 
 36 H       -6.4450    -4.5060    -0.5310 H     1 <1>   0.1000 
 37 H       -5.5770    -2.2040     0.1020 H     1 <1>   0.1000 
 38 H       -4.3800    -2.2990    -1.2250 H     1 <1>   0.1000 
 39 H       -3.2680   -10.4120     1.6870 H     1 <1>   0.1500 
 40 H       -0.4110   -10.8420    -1.4420 H     1 <1>   0.1500 
 41 H       -1.8810   -11.8520     0.2520 H     1 <1>   0.1500 
@<TRIPOS>BOND
  1   1   2  1   
  2   1   3  1   
  3   2   4  2   
  4   2  23  1   
  5   3   5  2   
  6   3  24  1   
  7   4   5  1   
  8   4   6  1   
  9   5  25  1   
 10   6   7  2   
 11   6   8  am  
 12   8   9  1   
 13   8  10  1   
 14   9  11  1   
 15   9  26  1   
 16   9  27  1   
 17  10  12  1   
 18  10  28  1   
 19  10  29  1   
 20  11  13  1   
 21  11  14  1   
 22  11  30  1   
 23  12  13  1   
 24  12  15  1   
 25  12  31  1   
 26  14  16  ar  
 27  14  17  ar  
 28  15  18  1   
 29  15  19  1   
 30  15  32  1   
 31  16  20  ar  
 32  16  33  1   
 33  17  21  ar  
 34  17  34  1   
 35  18  19  1   
 36  18  35  1   
 37  18  36  1   
 38  19  37  1   
 39  19  38  1   
 40  20  22  ar  
 41  20  39  1   
 42  21  22  ar  
 43  21  40  1   
 44  22  41  1   
@<TRIPOS>SUBSTRUCTURE
  1 ****   8 GROUP 4 **** **** 0

# MOE 2024.06 (io_trps.svl 2023.06)
