@<TRIPOS>MOLECULE
NONAME
44 45 1 0 0 
SMALL
USER_CHARGES


@<TRIPOS>ATOM
  1 S       -0.2900     0.1400    -0.7230 S.o2  1 <1>   1.5760 
  2 O        0.5030    -0.4600    -1.7750 O.2   1 <1>  -0.6500 
  3 O       -1.0840     1.3180    -0.9950 O.2   1 <1>  -0.6500 
  4 N       -1.2680    -1.0470    -0.0330 N.am  1 <1>  -0.8490 
  5 N        0.7530     0.4710     0.5680 N.am  1 <1>  -0.8490 
  6 C       -1.9630    -1.8430    -1.0680 C.3   1 <1>   0.1960 
  7 C       -2.1470    -0.5460     1.0480 C.3   1 <1>   0.1960 
  8 C        1.5670     1.6560     0.3080 C.3   1 <1>   0.1160 
  9 C        1.6070    -0.6710     0.9030 C.3   1 <1>   0.1160 
 10 C       -3.1830    -2.5640    -0.4840 C.3   1 <1>   0.2000 
 11 C       -3.5700    -0.2800     0.5460 C.3   1 <1>  -0.1600 
 12 O       -3.7250    -3.4570    -1.3960 O.3   1 <1>  -0.6800 
 13 C       -4.2640    -1.5720     0.0100 C.3   1 <1>  -0.1060 
 14 C       -4.9860    -2.3740     1.0950 C.2   1 <1>   0.9060 
 15 C       -5.2640    -1.1630    -1.1130 C.3   1 <1>  -0.0170 
 16 O       -4.8360    -2.0920     2.2890 O.co2 1 <1>  -0.9000 
 17 O       -5.6380    -3.3680     0.7370 O.co2 1 <1>  -0.9000 
 18 C       -6.2300    -0.0450    -0.7250 C.ar  1 <1>  -0.1440 
 19 C       -6.0680     1.2360    -1.2310 C.ar  1 <1>  -0.1500 
 20 C       -7.2880    -0.3030     0.1320 C.ar  1 <1>  -0.1500 
 21 C       -6.9510     2.2450    -0.8850 C.ar  1 <1>  -0.1500 
 22 C       -8.1720     0.7040     0.4810 C.ar  1 <1>  -0.1500 
 23 C       -8.0050     1.9790    -0.0290 C.ar  1 <1>  -0.1500 
 24 H       -2.2970    -1.1970    -1.8620 H     1 <1>   0.0800 
 25 H       -1.2760    -2.5630    -1.4750 H     1 <1>   0.0800 
 26 H       -2.1960    -1.2870     1.8300 H     1 <1>   0.0800 
 27 H       -1.7380     0.3510     1.4840 H     1 <1>   0.0800 
 28 H        2.1940     1.8700     1.1560 H     1 <1>   0.0800 
 29 H        0.9280     2.5070     0.1360 H     1 <1>   0.0800 
 30 H        2.1840     1.5050    -0.5620 H     1 <1>   0.0800 
 31 H        2.2160    -0.4390     1.7590 H     1 <1>   0.0800 
 32 H        2.2450    -0.9250     0.0720 H     1 <1>   0.0800 
 33 H        0.9990    -1.5270     1.1450 H     1 <1>   0.0800 
 34 H       -2.8320    -3.1590     0.3440 H     1 <1>   0.0800 
 35 H       -4.1580     0.1430     1.3420 H     1 <1>   0.0800 
 36 H       -3.5070     0.4670    -0.2230 H     1 <1>   0.0800 
 37 H       -4.5310    -3.8290    -0.9500 H     1 <1>   0.4000 
 38 H       -4.7080    -0.8560    -1.9800 H     1 <1>   0.0800 
 39 H       -5.8520    -2.0140    -1.4120 H     1 <1>   0.0800 
 40 H       -5.2490     1.4520    -1.8950 H     1 <1>   0.1500 
 41 H       -7.4210    -1.2940     0.5370 H     1 <1>   0.1500 
 42 H       -6.8130     3.2350    -1.2810 H     1 <1>   0.1500 
 43 H       -8.9840     0.4870     1.1510 H     1 <1>   0.1500 
 44 H       -8.6910     2.7610     0.2430 H     1 <1>   0.1500 
@<TRIPOS>BOND
  1   1   2  2   
  2   1   3  2   
  3   1   4  am  
  4   1   5  am  
  5   4   6  1   
  6   4   7  1   
  7   5   8  1   
  8   5   9  1   
  9   6  10  1   
 10   6  24  1   
 11   6  25  1   
 12   7  11  1   
 13   7  26  1   
 14   7  27  1   
 15   8  28  1   
 16   8  29  1   
 17   8  30  1   
 18   9  31  1   
 19   9  32  1   
 20   9  33  1   
 21  10  12  1   
 22  10  13  1   
 23  10  34  1   
 24  11  13  1   
 25  11  35  1   
 26  11  36  1   
 27  12  37  1   
 28  13  14  1   
 29  13  15  1   
 30  14  16  ar  
 31  14  17  ar  
 32  15  18  1   
 33  15  38  1   
 34  15  39  1   
 35  18  19  ar  
 36  18  20  ar  
 37  19  21  ar  
 38  19  40  1   
 39  20  22  ar  
 40  20  41  1   
 41  21  23  ar  
 42  21  42  1   
 43  22  23  ar  
 44  22  43  1   
 45  23  44  1   
@<TRIPOS>SUBSTRUCTURE
  1 ****  11 GROUP 4 **** **** 0

# MOE 2024.06 (io_trps.svl 2023.06)
