@<TRIPOS>MOLECULE
NONAME
41 43 1 0 0 
SMALL
USER_CHARGES


@<TRIPOS>ATOM
  1 O       -0.1100     1.8640     2.6620 O.2   1 <1>  -0.5700 
  2 C        0.1400     2.4680     1.6450 C.2   1 <1>   0.5690 
  3 N       -0.8230     3.1590     0.9520 N.am  1 <1>  -0.6600 
  4 C        1.5650     2.3860     1.1550 C.3   1 <1>   0.1570 
  5 C       -2.2580     3.0990     1.3620 C.3   1 <1>   0.1400 
  6 C       -0.6330     3.8450    -0.3590 C.3   1 <1>   0.1400 
  7 N        1.6170     1.4580     0.0230 N.pl3 1 <1>   0.3140 
  8 C       -3.0700     2.2800     0.3400 C.3   1 <1>   0.0000 
  9 C       -1.3940     3.0820    -1.4480 C.3   1 <1>  -0.1600 
 10 N        2.1430     1.7680    -1.1410 N.2   1 <1>  -0.4180 
 11 C        1.1520     0.2270    -0.0650 C.2   1 <1>   0.0360 
 12 C       -4.5470     2.2120     0.7670 C.3   1 <1>   0.2000 
 13 C       -2.8770     2.8870    -1.0790 C.3   1 <1>  -0.1600 
 14 C       -2.6870     0.7880     0.3480 C.3   1 <1>  -0.1600 
 15 N        1.9880     0.7370    -1.8930 N.2   1 <1>   0.0000 
 16 N        1.3680    -0.2380    -1.2350 N.2   1 <1>  -0.3380 
 17 O       -5.2410     3.3740     0.4220 O.3   1 <1>  -0.5600 
 18 C       -5.1180     0.9780     0.0640 C.3   1 <1>  -0.1600 
 19 C       -3.9270     0.0340    -0.1490 C.3   1 <1>  -0.1600 
 20 C       -6.4970     3.5070     1.0090 C.3   1 <1>   0.0400 
 21 H        2.1980     2.0140     1.9370 H     1 <1>   0.0800 
 22 H        1.9160     3.3530     0.8510 H     1 <1>   0.0800 
 23 H       -2.3560     2.6660     2.3420 H     1 <1>   0.0800 
 24 H       -2.6520     4.1000     1.4080 H     1 <1>   0.0800 
 25 H       -1.0230     4.8470    -0.2860 H     1 <1>   0.0800 
 26 H        0.4050     3.9170    -0.6280 H     1 <1>   0.0800 
 27 H       -1.3280     3.6290    -2.3720 H     1 <1>   0.0800 
 28 H       -0.9190     2.1310    -1.6120 H     1 <1>   0.0800 
 29 H        0.6610    -0.2900     0.7400 H     1 <1>   0.1500 
 30 H       -4.6010     2.0770     1.8350 H     1 <1>   0.0800 
 31 H       -3.3550     2.2740    -1.8220 H     1 <1>   0.0800 
 32 H       -3.3500     3.8530    -1.1140 H     1 <1>   0.0800 
 33 H       -1.8240     0.5680    -0.2540 H     1 <1>   0.0800 
 34 H       -2.4760     0.4790     1.3580 H     1 <1>   0.0800 
 35 H       -5.8780     0.5120     0.6650 H     1 <1>   0.0800 
 36 H       -5.5290     1.2580    -0.8910 H     1 <1>   0.0800 
 37 H       -4.0530    -0.8880     0.3930 H     1 <1>   0.0800 
 38 H       -3.8260    -0.1910    -1.1970 H     1 <1>   0.0800 
 39 H       -6.9130     4.4480     0.6950 H     1 <1>   0.0800 
 40 H       -6.3940     3.4970     2.0800 H     1 <1>   0.0800 
 41 H       -7.1350     2.7050     0.6810 H     1 <1>   0.0800 
@<TRIPOS>BOND
  1   1   2  2   
  2   2   3  am  
  3   2   4  1   
  4   3   5  1   
  5   3   6  1   
  6   4   7  1   
  7   4  21  1   
  8   4  22  1   
  9   5   8  1   
 10   5  23  1   
 11   5  24  1   
 12   6   9  1   
 13   6  25  1   
 14   6  26  1   
 15   7  10  1   
 16   7  11  1   
 17   8  12  1   
 18   8  13  1   
 19   8  14  1   
 20   9  13  1   
 21   9  27  1   
 22   9  28  1   
 23  10  15  2   
 24  11  16  2   
 25  11  29  1   
 26  12  17  1   
 27  12  18  1   
 28  12  30  1   
 29  13  31  1   
 30  13  32  1   
 31  14  19  1   
 32  14  33  1   
 33  14  34  1   
 34  15  16  1   
 35  17  20  1   
 36  18  19  1   
 37  18  35  1   
 38  18  36  1   
 39  19  37  1   
 40  19  38  1   
 41  20  39  1   
 42  20  40  1   
 43  20  41  1   
@<TRIPOS>SUBSTRUCTURE
  1 ****   3 GROUP 4 **** **** 0

# MOE 2024.06 (io_trps.svl 2023.06)
