@<TRIPOS>MOLECULE
NONAME
46 48 1 0 0 
SMALL
USER_CHARGES


@<TRIPOS>ATOM
  1 F       -1.3460    -0.6970    -2.2880 F     1 <1>  -0.3400 
  2 C       -1.2280     0.0060    -1.1670 C.3   1 <1>   1.1640 
  3 F       -0.0030    -0.2170    -0.7130 F     1 <1>  -0.3400 
  4 F       -1.2760     1.2840    -1.5210 F     1 <1>  -0.3400 
  5 C       -2.3040    -0.3870    -0.1380 C.ar  1 <1>  -0.1440 
  6 C       -2.6010    -1.7280     0.0830 C.ar  1 <1>  -0.1500 
  7 C       -2.9930     0.5740     0.5950 C.ar  1 <1>  -0.1500 
  8 C       -3.5690    -2.1070     1.0030 C.ar  1 <1>  -0.1440 
  9 C       -3.9510     0.2030     1.5210 C.ar  1 <1>  -0.1500 
 10 C       -4.2400    -1.1330     1.7270 C.ar  1 <1>  -0.1500 
 11 C       -3.8840    -3.5750     1.2020 C.3   1 <1>   0.4870 
 12 N       -4.7740    -3.9930     0.0910 N.4   1 <1>  -0.9590 
 13 C       -4.7230    -5.4760    -0.1210 C.3   1 <1>   0.5660 
 14 C       -6.1780    -3.5000     0.2710 C.3   1 <1>   0.3430 
 15 C       -3.3150    -5.8190    -0.5890 C.ar  1 <1>  -0.1430 
 16 C       -5.7920    -5.9960    -1.1200 C.3   1 <1>   0.2000 
 17 C       -7.1100    -4.0440    -0.8260 C.3   1 <1>   0.1200 
 18 C       -2.7710    -5.2580    -1.7400 C.ar  1 <1>  -0.1500 
 19 C       -2.5520    -6.7030     0.1610 C.ar  1 <1>  -0.1500 
 20 O       -7.0570    -5.4400    -0.8480 O.3   1 <1>  -0.5600 
 21 C       -5.9040    -7.5280    -1.0380 C.3   1 <1>   0.1200 
 22 C       -1.4770    -5.5670    -2.1210 C.ar  1 <1>  -0.1500 
 23 C       -1.2590    -7.0100    -0.2230 C.ar  1 <1>  -0.1500 
 24 O       -5.9820    -7.9350     0.2920 O.3   1 <1>  -0.6800 
 25 C       -0.7210    -6.4400    -1.3620 C.ar  1 <1>  -0.1500 
 26 H       -2.0610    -2.4820    -0.4700 H     1 <1>   0.1500 
 27 H       -2.7860     1.6240     0.4560 H     1 <1>   0.1500 
 28 H       -4.4700     0.9610     2.0850 H     1 <1>   0.1500 
 29 H       -4.9850    -1.3970     2.4590 H     1 <1>   0.1500 
 30 H       -4.3600    -3.7380     2.1550 H     1 <1>   0.0800 
 31 H       -2.9610    -4.1340     1.1790 H     1 <1>   0.0800 
 32 H       -4.3850    -3.5660    -0.7540 H     1 <1>   0.4500 
 33 H       -4.9010    -5.9660     0.8220 H     1 <1>   0.0800 
 34 H       -6.5600    -3.8200     1.2270 H     1 <1>   0.0800 
 35 H       -6.1950    -2.4220     0.2500 H     1 <1>   0.0800 
 36 H       -5.5310    -5.7230    -2.1270 H     1 <1>   0.0800 
 37 H       -6.8390    -3.6670    -1.7970 H     1 <1>   0.0800 
 38 H       -8.1280    -3.7610    -0.6200 H     1 <1>   0.0800 
 39 H       -3.3340    -4.5820    -2.3600 H     1 <1>   0.1500 
 40 H       -2.9540    -7.1660     1.0480 H     1 <1>   0.1500 
 41 H       -5.0370    -7.9950    -1.4750 H     1 <1>   0.0800 
 42 H       -6.7850    -7.8630    -1.5580 H     1 <1>   0.0800 
 43 H       -1.0530    -5.1320    -3.0120 H     1 <1>   0.1500 
 44 H       -0.6690    -7.6960     0.3620 H     1 <1>   0.1500 
 45 H       -6.2960    -8.8630     0.3500 H     1 <1>   0.4000 
 46 H        0.2870    -6.6800    -1.6600 H     1 <1>   0.1500 
@<TRIPOS>BOND
  1   1   2  1   
  2   2   3  1   
  3   2   4  1   
  4   2   5  1   
  5   5   6  ar  
  6   5   7  ar  
  7   6   8  ar  
  8   6  26  1   
  9   7   9  ar  
 10   7  27  1   
 11   8  10  ar  
 12   8  11  1   
 13   9  10  ar  
 14   9  28  1   
 15  10  29  1   
 16  11  12  1   
 17  11  30  1   
 18  11  31  1   
 19  12  13  1   
 20  12  14  1   
 21  12  32  1   
 22  13  15  1   
 23  13  16  1   
 24  13  33  1   
 25  14  17  1   
 26  14  34  1   
 27  14  35  1   
 28  15  18  ar  
 29  15  19  ar  
 30  16  20  1   
 31  16  21  1   
 32  16  36  1   
 33  17  20  1   
 34  17  37  1   
 35  17  38  1   
 36  18  22  ar  
 37  18  39  1   
 38  19  23  ar  
 39  19  40  1   
 40  21  24  1   
 41  21  41  1   
 42  21  42  1   
 43  22  25  ar  
 44  22  43  1   
 45  23  25  ar  
 46  23  44  1   
 47  24  45  1   
 48  25  46  1   
@<TRIPOS>SUBSTRUCTURE
  1 ****  12 GROUP 4 **** **** 0

# MOE 2024.06 (io_trps.svl 2023.06)
