@<TRIPOS>MOLECULE
NONAME
55 57 1 0 0 
SMALL
USER_CHARGES


@<TRIPOS>ATOM
  1 O       -0.9560     0.2620     0.4200 O.2   1 <1>  -0.5700 
  2 C       -1.9490     0.9640     0.4020 C.2   1 <1>   0.5440 
  3 N       -3.1910     0.3720     0.3110 N.am  1 <1>  -0.6600 
  4 C       -1.7950     2.4050     0.4820 C.ar  1 <1>   0.0860 
  5 C       -3.3270    -1.1240     0.1390 C.3   1 <1>   0.1400 
  6 C       -4.4650     1.1210     0.5670 C.3   1 <1>   0.1400 
  7 C       -2.3320     3.2580    -0.4820 C.ar  1 <1>  -0.1500 
  8 C       -1.0890     2.9880     1.5330 C.ar  1 <1>  -0.1500 
  9 C       -4.6090    -1.4510    -0.6450 C.3   1 <1>   0.2000 
 10 C       -5.5590     0.1910     1.1000 C.3   1 <1>  -0.1600 
 11 C       -2.1860     4.6300    -0.3900 C.ar  1 <1>  -0.1500 
 12 C       -0.9400     4.3590     1.6300 C.ar  1 <1>  -0.1500 
 13 O       -4.5040    -0.7480    -1.8410 O.3   1 <1>  -0.6800 
 14 C       -5.8680    -1.0400     0.1870 C.3   1 <1>  -0.1060 
 15 C       -1.4920     5.1920     0.6700 C.ar  1 <1>  -0.1440 
 16 C       -6.1810    -2.2150     1.1470 C.2   1 <1>   0.9060 
 17 C       -7.1330    -0.8030    -0.7090 C.3   1 <1>  -0.1600 
 18 C       -1.3380     6.7030     0.7720 C.3   1 <1>   0.2640 
 19 O       -7.1440    -2.1140     1.9190 O.co2 1 <1>  -0.9000 
 20 O       -5.4520    -3.2160     1.1780 O.co2 1 <1>  -0.9000 
 21 C       -7.2770     0.5550    -1.4290 C.3   1 <1>  -0.1600 
 22 O       -0.7780     7.1910    -0.4280 O.3   1 <1>  -0.3630 
 23 C       -8.5650     0.5930    -2.2560 C.3   1 <1>  -0.2400 
 24 C       -0.5410     8.5130    -0.6080 C.ar  1 <1>   0.0820 
 25 C       -0.8460     9.4940     0.3320 C.ar  1 <1>  -0.1500 
 26 C        0.0420     8.8800    -1.8110 C.ar  1 <1>  -0.1500 
 27 C       -0.5680    10.8230     0.0610 C.ar  1 <1>  -0.1500 
 28 C        0.3190    10.2090    -2.0800 C.ar  1 <1>  -0.1500 
 29 C        0.0140    11.1810    -1.1440 C.ar  1 <1>  -0.1500 
 30 H       -2.4780    -1.5220    -0.3880 H     1 <1>   0.0800 
 31 H       -3.3640    -1.5980     1.1050 H     1 <1>   0.0800 
 32 H       -4.2900     1.9010     1.2890 H     1 <1>   0.0800 
 33 H       -4.8000     1.5760    -0.3480 H     1 <1>   0.0800 
 34 H       -2.8620     2.8340    -1.3160 H     1 <1>   0.1500 
 35 H       -0.6520     2.3440     2.2770 H     1 <1>   0.1500 
 36 H       -4.6450    -2.4950    -0.9060 H     1 <1>   0.0800 
 37 H       -5.2210    -0.1610     2.0610 H     1 <1>   0.0800 
 38 H       -6.4610     0.7400     1.2980 H     1 <1>   0.0800 
 39 H       -2.6070     5.2660    -1.1500 H     1 <1>   0.1500 
 40 H       -0.3860     4.7730     2.4560 H     1 <1>   0.1500 
 41 H       -4.0350     0.0790    -1.6140 H     1 <1>   0.4000 
 42 H       -7.1750    -1.5950    -1.4360 H     1 <1>   0.0800 
 43 H       -8.0050    -0.9160    -0.0880 H     1 <1>   0.0800 
 44 H       -0.6820     6.9690     1.5810 H     1 <1>   0.0800 
 45 H       -2.3010     7.1640     0.9080 H     1 <1>   0.0800 
 46 H       -7.3110     1.3540    -0.7110 H     1 <1>   0.0800 
 47 H       -6.4480     0.7310    -2.0870 H     1 <1>   0.0800 
 48 H       -9.4210     0.4450    -1.6220 H     1 <1>   0.0800 
 49 H       -8.5490    -0.1820    -3.0030 H     1 <1>   0.0800 
 50 H       -8.6600     1.5440    -2.7490 H     1 <1>   0.0800 
 51 H       -1.2980     9.2500     1.2750 H     1 <1>   0.1500 
 52 H        0.2770     8.1180    -2.5320 H     1 <1>   0.1500 
 53 H       -0.8040    11.5820     0.7870 H     1 <1>   0.1500 
 54 H        0.7720    10.4850    -3.0170 H     1 <1>   0.1500 
 55 H        0.2290    12.2150    -1.3520 H     1 <1>   0.1500 
@<TRIPOS>BOND
  1   1   2  2   
  2   2   3  am  
  3   2   4  1   
  4   3   5  1   
  5   3   6  1   
  6   4   7  ar  
  7   4   8  ar  
  8   5   9  1   
  9   5  30  1   
 10   5  31  1   
 11   6  10  1   
 12   6  32  1   
 13   6  33  1   
 14   7  11  ar  
 15   7  34  1   
 16   8  12  ar  
 17   8  35  1   
 18   9  13  1   
 19   9  14  1   
 20   9  36  1   
 21  10  14  1   
 22  10  37  1   
 23  10  38  1   
 24  11  15  ar  
 25  11  39  1   
 26  12  15  ar  
 27  12  40  1   
 28  13  41  1   
 29  14  16  1   
 30  14  17  1   
 31  15  18  1   
 32  16  19  ar  
 33  16  20  ar  
 34  17  21  1   
 35  17  42  1   
 36  17  43  1   
 37  18  22  1   
 38  18  44  1   
 39  18  45  1   
 40  21  23  1   
 41  21  46  1   
 42  21  47  1   
 43  22  24  1   
 44  23  48  1   
 45  23  49  1   
 46  23  50  1   
 47  24  25  ar  
 48  24  26  ar  
 49  25  27  ar  
 50  25  51  1   
 51  26  28  ar  
 52  26  52  1   
 53  27  29  ar  
 54  27  53  1   
 55  28  29  ar  
 56  28  54  1   
 57  29  55  1   
@<TRIPOS>SUBSTRUCTURE
  1 ****   7 GROUP 4 **** **** 0

# MOE 2024.06 (io_trps.svl 2023.06)
