@<TRIPOS>MOLECULE
NONAME
52 55 1 0 0 
SMALL
USER_CHARGES


@<TRIPOS>ATOM
  1 O        0.9890     3.9450     0.7270 O.2   1 <1>  -0.5740 
  2 C        2.0400     3.3540     0.6320 C.2   1 <1>   0.6860 
  3 N        3.2410     4.0060     0.4010 N.am  1 <1>  -0.4410 
  4 N        2.0300     1.9960     0.7550 N.am  1 <1>  -0.4950 
  5 C        4.4010     3.2410     0.3440 C.2   1 <1>   0.4210 
  6 C        3.2560     5.4740     0.1630 C.3   1 <1>   0.0520 
  7 C        3.1490     1.2220     0.6630 C.2   1 <1>   0.6990 
  8 N        5.6910     3.6420     0.1680 N.pl3 1 <1>  -0.7040 
  9 C        4.3970     1.8930     0.4460 C.2   1 <1>   0.2710 
 10 O        3.0430     0.0150     0.7660 O.2   1 <1>  -0.5740 
 11 C        6.4670     2.5680     0.1220 C.cat 1 <1>   1.0690 
 12 N        5.7300     1.4680     0.2960 N.pl3 1 <1>  -0.7670 
 13 N        7.7840     2.5260    -0.0790 N.pl3 1 <1>  -0.7180 
 14 C        6.1040     0.0250     0.3430 C.3   1 <1>   0.2680 
 15 C        8.8000     3.5880    -0.2800 C.3   1 <1>   0.2410 
 16 C        8.9090     4.5040     0.9540 C.3   1 <1>  -0.1670 
 17 C        8.5890     4.3400    -1.6080 C.3   1 <1>  -0.1670 
 18 C        8.5340     5.9520     0.6510 C.3   1 <1>   0.2020 
 19 C        7.5600     5.4820    -1.5740 C.3   1 <1>   0.2020 
 20 N        7.2980     5.9260    -0.1720 N.pl3 1 <1>  -0.8410 
 21 C        6.3610     6.9340     0.0890 C.ar  1 <1>   0.0930 
 22 C        5.8750     7.0970     1.3850 C.ar  1 <1>  -0.1570 
 23 C        5.8730     7.7850    -0.9010 C.ar  1 <1>  -0.1570 
 24 C        4.9400     8.0700     1.6920 C.ar  1 <1>  -0.1510 
 25 C        4.9350     8.7560    -0.6040 C.ar  1 <1>  -0.1570 
 26 C        4.4690     8.9000     0.6900 C.ar  1 <1>  -0.1570 
 27 C        4.4240     8.2380     3.1100 C.3   1 <1>  -0.1040 
 28 H        1.1310     1.5460     0.9150 H     1 <1>   0.3640 
 29 H        2.3280     5.7930    -0.2800 H     1 <1>   0.0720 
 30 H        4.0530     5.7400    -0.5050 H     1 <1>   0.0720 
 31 H        3.3790     5.9880     1.1000 H     1 <1>   0.0720 
 32 H        6.0740     4.6050     0.1020 H     1 <1>   0.4450 
 33 H        8.1940     1.5980    -0.0850 H     1 <1>   0.4450 
 34 H        5.5970    -0.5090    -0.4440 H     1 <1>   0.0720 
 35 H        5.8060    -0.3980     1.2880 H     1 <1>   0.0720 
 36 H        7.1640    -0.1070     0.2250 H     1 <1>   0.0720 
 37 H        9.7470     3.0810    -0.3700 H     1 <1>   0.0720 
 38 H        9.9260     4.5020     1.3040 H     1 <1>   0.0720 
 39 H        8.2970     4.1450     1.7610 H     1 <1>   0.0720 
 40 H        8.3540     3.6550    -2.4030 H     1 <1>   0.0720 
 41 H        9.5310     4.7880    -1.8710 H     1 <1>   0.0720 
 42 H        9.3200     6.4370     0.0960 H     1 <1>   0.0720 
 43 H        8.3930     6.5030     1.5650 H     1 <1>   0.0720 
 44 H        6.6350     5.1540    -2.0160 H     1 <1>   0.0720 
 45 H        7.9320     6.3100    -2.1540 H     1 <1>   0.0720 
 46 H        6.2320     6.4500     2.1630 H     1 <1>   0.1430 
 47 H        6.2230     7.7100    -1.9110 H     1 <1>   0.1430 
 48 H        4.5700     9.4080    -1.3780 H     1 <1>   0.1430 
 49 H        3.7420     9.6620     0.9150 H     1 <1>   0.1430 
 50 H        4.8430     7.4970     3.7660 H     1 <1>   0.0720 
 51 H        3.3530     8.1440     3.1250 H     1 <1>   0.0720 
 52 H        4.6910     9.2120     3.4800 H     1 <1>   0.0720 
@<TRIPOS>BOND
  1   1   2  2   
  2   2   3  am  
  3   2   4  am  
  4   3   5  1   
  5   3   6  1   
  6   4   7  am  
  7   4  28  1   
  8   5   8  1   
  9   5   9  2   
 10   6  29  1   
 11   6  30  1   
 12   6  31  1   
 13   7   9  1   
 14   7  10  2   
 15   8  11  ar  
 16   8  32  1   
 17   9  12  1   
 18  11  12  ar  
 19  11  13  ar  
 20  12  14  1   
 21  13  15  1   
 22  13  33  1   
 23  14  34  1   
 24  14  35  1   
 25  14  36  1   
 26  15  16  1   
 27  15  17  1   
 28  15  37  1   
 29  16  18  1   
 30  16  38  1   
 31  16  39  1   
 32  17  19  1   
 33  17  40  1   
 34  17  41  1   
 35  18  20  1   
 36  18  42  1   
 37  18  43  1   
 38  19  20  1   
 39  19  44  1   
 40  19  45  1   
 41  20  21  1   
 42  21  22  ar  
 43  21  23  ar  
 44  22  24  ar  
 45  22  46  1   
 46  23  25  ar  
 47  23  47  1   
 48  24  26  ar  
 49  24  27  1   
 50  25  26  ar  
 51  25  48  1   
 52  26  49  1   
 53  27  50  1   
 54  27  51  1   
 55  27  52  1   
@<TRIPOS>SUBSTRUCTURE
  1 ****   8 GROUP 4 **** **** 0

# MOE 2024.06 (io_trps.svl 2023.06)
