@<TRIPOS>MOLECULE
NONAME
60 62 1 0 0 
SMALL
USER_CHARGES


@<TRIPOS>ATOM
  1 O       -3.7060     3.8740     1.6750 O.2   1 <1>  -0.5700 
  2 C       -3.8870     3.6300     0.5020 C.2   1 <1>   0.5690 
  3 N       -4.5690     2.4870     0.1400 N.am  1 <1>  -0.6600 
  4 C       -3.3140     4.6060    -0.5440 C.3   1 <1>   0.1250 
  5 C       -5.4910     1.8680     1.1390 C.3   1 <1>   0.3200 
  6 C       -4.5370     1.8540    -1.2270 C.3   1 <1>   0.1400 
  7 C       -1.9470     4.1310    -1.0320 C.ar  1 <1>  -0.1440 
  8 C       -3.2050     6.0560    -0.0400 C.3   1 <1>  -0.2400 
  9 C       -4.7000     0.8470     1.9210 C.2   1 <1>  -0.3320 
 10 C       -4.1020     0.3660    -1.2340 C.3   1 <1>   0.3430 
 11 C       -0.9530     3.8070    -0.1440 C.ar  1 <1>  -0.1500 
 12 C       -1.7000     4.0090    -2.4080 C.ar  1 <1>  -0.1500 
 13 N       -3.6470     1.1960     2.6830 N.pl3 1 <1>   0.0330 
 14 C       -4.8250    -0.4920     2.0290 C.2   1 <1>   0.0770 
 15 N       -2.8690     0.0960    -0.4280 N.4   1 <1>  -0.9590 
 16 C        0.2900     3.3060    -0.5730 C.ar  1 <1>   0.0000 
 17 C       -0.5010     3.5280    -2.8540 C.ar  1 <1>  -0.1500 
 18 C       -3.1600     0.0330     3.1640 C.2   1 <1>   0.0060 
 19 N       -3.8290    -1.0030     2.7750 N.2   1 <1>  -0.5650 
 20 C       -1.6340     0.6970    -1.0110 C.3   1 <1>   0.2630 
 21 C       -2.6650    -1.3650    -0.1850 C.3   1 <1>   0.2630 
 22 C        0.5140     3.1440    -1.9570 C.ar  1 <1>   0.0000 
 23 C        1.3110     2.9380     0.3260 C.ar  1 <1>  -0.1500 
 24 C       -1.9540    -0.0310     4.0770 C.3   1 <1>  -0.0600 
 25 C        1.7390     2.5990    -2.3840 C.ar  1 <1>  -0.1500 
 26 C        2.4920     2.4090    -0.1150 C.ar  1 <1>  -0.1500 
 27 C        2.7110     2.2300    -1.4940 C.ar  1 <1>   0.0820 
 28 O        3.8530     1.7040    -1.9980 O.3   1 <1>  -0.3620 
 29 C        5.0000     1.5190    -1.1990 C.3   1 <1>   0.0400 
 30 H       -3.9990     4.6230    -1.3710 H     1 <1>   0.0800 
 31 H       -5.8770     2.6210     1.8080 H     1 <1>   0.0800 
 32 H       -6.3270     1.4060     0.6430 H     1 <1>   0.0800 
 33 H       -5.5190     1.9270    -1.6630 H     1 <1>   0.0800 
 34 H       -3.8710     2.3940    -1.8720 H     1 <1>   0.0800 
 35 H       -2.5260     6.1180     0.7920 H     1 <1>   0.0800 
 36 H       -4.1680     6.4120     0.2810 H     1 <1>   0.0800 
 37 H       -2.8430     6.6970    -0.8240 H     1 <1>   0.0800 
 38 H       -3.9480     0.0460    -2.2510 H     1 <1>   0.0800 
 39 H       -4.9130    -0.2170    -0.8320 H     1 <1>   0.0800 
 40 H       -1.1070     3.9260     0.9150 H     1 <1>   0.1500 
 41 H       -2.4570     4.3040    -3.1160 H     1 <1>   0.1500 
 42 H       -3.3140     2.1590     2.8440 H     1 <1>   0.2700 
 43 H       -5.5770    -1.1330     1.5970 H     1 <1>   0.1500 
 44 H       -3.0530     0.5250     0.5030 H     1 <1>   0.4500 
 45 H       -0.3070     3.4400    -3.9090 H     1 <1>   0.1500 
 46 H       -1.3710     0.2030    -1.9310 H     1 <1>   0.0800 
 47 H       -0.8090     0.6060    -0.3220 H     1 <1>   0.0800 
 48 H       -1.7900     1.7390    -1.2170 H     1 <1>   0.0800 
 49 H       -2.4560    -1.8780    -1.1090 H     1 <1>   0.0800 
 50 H       -3.5430    -1.7990     0.2640 H     1 <1>   0.0800 
 51 H       -1.8390    -1.5150     0.4930 H     1 <1>   0.0800 
 52 H        1.1440     3.0840     1.3790 H     1 <1>   0.1500 
 53 H       -1.7390    -1.0550     4.3260 H     1 <1>   0.0800 
 54 H       -2.1550     0.5060     4.9870 H     1 <1>   0.0800 
 55 H       -1.0950     0.3970     3.5950 H     1 <1>   0.0800 
 56 H        1.9150     2.4720    -3.4360 H     1 <1>   0.1500 
 57 H        3.2500     2.1340     0.5950 H     1 <1>   0.1500 
 58 H        5.8000     1.1860    -1.8360 H     1 <1>   0.0800 
 59 H        4.7930     0.7700    -0.4550 H     1 <1>   0.0800 
 60 H        5.2630     2.4560    -0.7420 H     1 <1>   0.0800 
@<TRIPOS>BOND
  1   1   2  2   
  2   2   3  am  
  3   2   4  1   
  4   3   5  1   
  5   3   6  1   
  6   4   7  1   
  7   4   8  1   
  8   4  30  1   
  9   5   9  1   
 10   5  31  1   
 11   5  32  1   
 12   6  10  1   
 13   6  33  1   
 14   6  34  1   
 15   7  11  ar  
 16   7  12  ar  
 17   8  35  1   
 18   8  36  1   
 19   8  37  1   
 20   9  13  1   
 21   9  14  2   
 22  10  15  1   
 23  10  38  1   
 24  10  39  1   
 25  11  16  ar  
 26  11  40  1   
 27  12  17  ar  
 28  12  41  1   
 29  13  18  1   
 30  13  42  1   
 31  14  19  1   
 32  14  43  1   
 33  15  20  1   
 34  15  21  1   
 35  15  44  1   
 36  16  22  ar  
 37  16  23  ar  
 38  17  22  ar  
 39  17  45  1   
 40  18  19  2   
 41  18  24  1   
 42  20  46  1   
 43  20  47  1   
 44  20  48  1   
 45  21  49  1   
 46  21  50  1   
 47  21  51  1   
 48  22  25  ar  
 49  23  26  ar  
 50  23  52  1   
 51  24  53  1   
 52  24  54  1   
 53  24  55  1   
 54  25  27  ar  
 55  25  56  1   
 56  26  27  ar  
 57  26  57  1   
 58  27  28  1   
 59  28  29  1   
 60  29  58  1   
 61  29  59  1   
 62  29  60  1   
@<TRIPOS>SUBSTRUCTURE
  1 ****  20 GROUP 4 **** **** 0

# MOE 2024.06 (io_trps.svl 2023.06)
