@<TRIPOS>MOLECULE
NONAME
48 51 1 0 0 
SMALL
USER_CHARGES


@<TRIPOS>ATOM
  1 N        0.2280     0.3240     0.4370 N.ar  1 <1>  -0.6200 
  2 C       -0.9450     0.9530     0.5710 C.ar  1 <1>   0.7200 
  3 C        0.9800     0.7690    -0.5350 C.ar  1 <1>   0.1660 
  4 N       -1.3850     1.9680    -0.1790 N.ar  1 <1>  -0.6200 
  5 N       -1.7710     0.5160     1.5850 N.pl3 1 <1>  -0.8380 
  6 C        0.6270     1.7960    -1.3540 C.ar  1 <1>  -0.1440 
  7 C        2.3480     0.2270    -0.8670 C.3   1 <1>   0.1430 
  8 C       -0.5940     2.3820    -1.1410 C.ar  1 <1>   0.1600 
  9 C       -1.7230    -0.8760     2.1100 C.3   1 <1>   0.1290 
 10 C       -2.9270     1.3300     2.0530 C.3   1 <1>   0.1290 
 11 C        1.7020     2.0950    -2.3690 C.3   1 <1>  -0.0160 
 12 C        3.1470     0.1140     0.4430 C.3   1 <1>   0.3430 
 13 C        2.2290    -1.1530    -1.5460 C.3   1 <1>  -0.1600 
 14 C        2.9130     1.3070    -1.8310 C.3   1 <1>  -0.1600 
 15 N        4.4710    -0.5510     0.2250 N.4   1 <1>  -0.9590 
 16 C        3.5970    -1.8470    -1.6850 C.3   1 <1>  -0.1600 
 17 C        4.3520    -1.9160    -0.3550 C.3   1 <1>   0.3430 
 18 C        5.3540    -0.5230     1.4180 C.3   1 <1>   0.5230 
 19 C        6.7780    -0.3290     0.9110 C.2   1 <1>   0.0060 
 20 N        7.0530     0.0230    -0.3100 N.2   1 <1>  -0.5650 
 21 N        7.8780    -0.4990     1.6820 N.pl3 1 <1>   0.0330 
 22 C        8.3990     0.0850    -0.3340 C.2   1 <1>   0.0770 
 23 C        8.9160    -0.2310     0.8710 C.2   1 <1>  -0.3020 
 24 H       -0.9270     3.1970    -1.7610 H     1 <1>   0.1500 
 25 H       -1.1540    -1.5140     1.4560 H     1 <1>   0.0800 
 26 H       -2.7200    -1.2750     2.1840 H     1 <1>   0.0800 
 27 H       -1.2690    -0.8770     3.0850 H     1 <1>   0.0800 
 28 H       -2.7080     2.3810     1.9640 H     1 <1>   0.0800 
 29 H       -3.1380     1.1150     3.0860 H     1 <1>   0.0800 
 30 H       -3.7930     1.1040     1.4570 H     1 <1>   0.0800 
 31 H        1.9090     3.1500    -2.4330 H     1 <1>   0.0800 
 32 H        1.4010     1.7230    -3.3340 H     1 <1>   0.0800 
 33 H        2.5650    -0.4610     1.1460 H     1 <1>   0.0800 
 34 H        3.2850     1.1000     0.8540 H     1 <1>   0.0800 
 35 H        1.7660    -1.0510    -2.5130 H     1 <1>   0.0800 
 36 H        1.5830    -1.7780    -0.9500 H     1 <1>   0.0800 
 37 H        3.4920     0.8930    -2.6370 H     1 <1>   0.0800 
 38 H        3.5370     1.9920    -1.2830 H     1 <1>   0.0800 
 39 H        5.0290    -0.0040    -0.4590 H     1 <1>   0.4500 
 40 H        4.2070    -1.3350    -2.4090 H     1 <1>   0.0800 
 41 H        3.4490    -2.8480    -2.0520 H     1 <1>   0.0800 
 42 H        3.8190    -2.5580     0.3270 H     1 <1>   0.0800 
 43 H        5.3350    -2.3310    -0.5230 H     1 <1>   0.0800 
 44 H        5.2640    -1.4380     1.9790 H     1 <1>   0.0800 
 45 H        5.0950     0.3090     2.0530 H     1 <1>   0.0800 
 46 H        7.9410    -0.7670     2.6720 H     1 <1>   0.2700 
 47 H        8.9360     0.3580    -1.2300 H     1 <1>   0.1500 
 48 H        9.9460    -0.2760     1.1840 H     1 <1>   0.1500 
@<TRIPOS>BOND
  1   1   2  ar  
  2   1   3  ar  
  3   2   4  ar  
  4   2   5  1   
  5   3   6  ar  
  6   3   7  1   
  7   4   8  ar  
  8   5   9  1   
  9   5  10  1   
 10   6   8  ar  
 11   6  11  1   
 12   7  12  1   
 13   7  13  1   
 14   7  14  1   
 15   8  24  1   
 16   9  25  1   
 17   9  26  1   
 18   9  27  1   
 19  10  28  1   
 20  10  29  1   
 21  10  30  1   
 22  11  14  1   
 23  11  31  1   
 24  11  32  1   
 25  12  15  1   
 26  12  33  1   
 27  12  34  1   
 28  13  16  1   
 29  13  35  1   
 30  13  36  1   
 31  14  37  1   
 32  14  38  1   
 33  15  17  1   
 34  15  18  1   
 35  15  39  1   
 36  16  17  1   
 37  16  40  1   
 38  16  41  1   
 39  17  42  1   
 40  17  43  1   
 41  18  19  1   
 42  18  44  1   
 43  18  45  1   
 44  19  20  2   
 45  19  21  1   
 46  20  22  1   
 47  21  23  1   
 48  21  46  1   
 49  22  23  2   
 50  22  47  1   
 51  23  48  1   
@<TRIPOS>SUBSTRUCTURE
  1 ****  12 GROUP 4 **** **** 0

# MOE 2024.06 (io_trps.svl 2023.06)
