@<TRIPOS>MOLECULE
NONAME
38 38 1 0 0 
SMALL
USER_CHARGES


@<TRIPOS>ATOM
  1 O       -1.8610    -0.2960    -1.0740 O.2   1 <1>  -0.5700 
  2 C       -2.2410     0.3840    -0.1440 C.2   1 <1>   0.5690 
  3 N       -2.9870    -0.2190     0.8430 N.am  1 <1>  -0.6600 
  4 C       -1.8570     1.8990    -0.1290 C.3   1 <1>   0.0610 
  5 C       -2.8020    -1.6810     1.0970 C.3   1 <1>   0.3200 
  6 C       -4.2180     0.3580     1.4670 C.3   1 <1>   0.1400 
  7 C       -0.6410     2.1850    -1.0620 C.3   1 <1>  -0.1600 
  8 C       -3.0230     2.7570    -0.6640 C.3   1 <1>  -0.2400 
  9 C       -1.4820     2.3990     1.2870 C.3   1 <1>  -0.2400 
 10 C       -3.7490    -2.5090     0.2450 C.2   1 <1>   0.0060 
 11 C       -5.4200     0.2670     0.5180 C.3   1 <1>   0.1200 
 12 C        0.6890     1.5260    -0.6500 C.3   1 <1>  -0.2400 
 13 N       -4.6790    -3.2890     0.7000 N.2   1 <1>  -0.5650 
 14 N       -3.6850    -2.4700    -1.1010 N.pl3 1 <1>   0.0330 
 15 O       -6.4890     0.9530     1.0750 O.3   1 <1>  -0.6800 
 16 C       -5.2480    -3.7900    -0.4150 C.2   1 <1>   0.0770 
 17 C       -4.6550    -3.2990    -1.5260 C.2   1 <1>  -0.3020 
 18 H       -2.9760    -1.8950     2.1360 H     1 <1>   0.0800 
 19 H       -1.7890    -1.9630     0.8690 H     1 <1>   0.0800 
 20 H       -4.0620     1.3850     1.7230 H     1 <1>   0.0800 
 21 H       -4.4420    -0.1770     2.3730 H     1 <1>   0.0800 
 22 H       -0.4740     3.2470    -1.1200 H     1 <1>   0.0800 
 23 H       -0.8820     1.8570    -2.0600 H     1 <1>   0.0800 
 24 H       -3.3090     2.4210    -1.6450 H     1 <1>   0.0800 
 25 H       -2.7350     3.7910    -0.7310 H     1 <1>   0.0800 
 26 H       -3.8840     2.7010    -0.0260 H     1 <1>   0.0800 
 27 H       -0.7880     1.7220     1.7510 H     1 <1>   0.0800 
 28 H       -2.3370     2.4850     1.9270 H     1 <1>   0.0800 
 29 H       -1.0260     3.3720     1.2340 H     1 <1>   0.0800 
 30 H       -5.7240    -0.7520     0.3550 H     1 <1>   0.0800 
 31 H       -5.1920     0.7310    -0.4260 H     1 <1>   0.0800 
 32 H        1.0480     1.9230     0.2820 H     1 <1>   0.0800 
 33 H        1.4340     1.7180    -1.4010 H     1 <1>   0.0800 
 34 H        0.5790     0.4600    -0.5550 H     1 <1>   0.0800 
 35 H       -3.0270    -1.8820    -1.6360 H     1 <1>   0.2700 
 36 H       -6.9210     0.4100     1.7650 H     1 <1>   0.4000 
 37 H       -6.0670    -4.4880    -0.3590 H     1 <1>   0.1500 
 38 H       -4.8630    -3.4860    -2.5630 H     1 <1>   0.1500 
@<TRIPOS>BOND
  1   1   2  2   
  2   2   3  am  
  3   2   4  1   
  4   3   5  1   
  5   3   6  1   
  6   4   7  1   
  7   4   8  1   
  8   4   9  1   
  9   5  10  1   
 10   5  18  1   
 11   5  19  1   
 12   6  11  1   
 13   6  20  1   
 14   6  21  1   
 15   7  12  1   
 16   7  22  1   
 17   7  23  1   
 18   8  24  1   
 19   8  25  1   
 20   8  26  1   
 21   9  27  1   
 22   9  28  1   
 23   9  29  1   
 24  10  13  2   
 25  10  14  1   
 26  11  15  1   
 27  11  30  1   
 28  11  31  1   
 29  12  32  1   
 30  12  33  1   
 31  12  34  1   
 32  13  16  1   
 33  14  17  1   
 34  14  35  1   
 35  15  36  1   
 36  16  17  2   
 37  16  37  1   
 38  17  38  1   
@<TRIPOS>SUBSTRUCTURE
  1 ****   3 GROUP 4 **** **** 0

# MOE 2024.06 (io_trps.svl 2023.06)
