@<TRIPOS>MOLECULE
NONAME
52 55 1 0 0 
SMALL
USER_CHARGES


@<TRIPOS>ATOM
  1 O       -2.7990     0.6800    -1.8340 O.2   1 <1>  -0.5700 
  2 C       -2.6440    -0.3250    -1.1770 C.2   1 <1>   0.5690 
  3 N       -2.4190    -0.2850     0.1740 N.am  1 <1>  -0.6600 
  4 C       -2.6530    -1.6550    -1.9110 C.3   1 <1>  -0.0190 
  5 C       -2.2510    -1.5440     0.9640 C.3   1 <1>   0.2200 
  6 C       -2.4750     0.9830     0.9490 C.3   1 <1>   0.0600 
  7 C       -1.2830    -2.3420    -1.8080 C.3   1 <1>   0.1200 
  8 C       -3.8290    -2.5730    -1.5220 C.3   1 <1>   0.1100 
  9 C       -0.9700    -2.2920     0.5390 C.3   1 <1>   0.1200 
 10 C       -3.5070    -2.4580     0.9400 C.3   1 <1>   0.1100 
 11 O       -1.1360    -3.0550    -0.6200 O.3   1 <1>  -0.5600 
 12 N       -4.4300    -2.2660    -0.2080 N.3   1 <1>  -0.8100 
 13 C       -5.7420    -2.9020    -0.0110 C.3   1 <1>   0.2530 
 14 C       -5.6560    -4.4190     0.0320 C.ar  1 <1>  -0.1440 
 15 C       -5.4720    -5.1010     1.2130 C.ar  1 <1>   0.1600 
 16 C       -5.7710    -5.1830    -1.1070 C.ar  1 <1>   0.1600 
 17 N       -5.3940    -6.4080     1.2680 N.ar  1 <1>  -0.6200 
 18 N       -5.7000    -6.4910    -1.0890 N.ar  1 <1>  -0.6200 
 19 C       -5.5010    -7.0340     0.1070 C.ar  1 <1>   0.7200 
 20 N       -5.4010    -8.3750     0.1860 N.pl3 1 <1>  -0.8690 
 21 C       -6.0400    -9.2860    -0.7720 C.3   1 <1>   0.3530 
 22 C       -6.4960   -10.5200    -0.0150 C.ar  1 <1>  -0.1440 
 23 C       -7.7270   -10.5310     0.6240 C.ar  1 <1>  -0.1500 
 24 C       -5.6860   -11.6440     0.0520 C.ar  1 <1>  -0.1500 
 25 C       -8.1470   -11.6540     1.3150 C.ar  1 <1>  -0.1500 
 26 C       -6.1050   -12.7680     0.7420 C.ar  1 <1>  -0.1500 
 27 C       -7.3370   -12.7740     1.3740 C.ar  1 <1>  -0.1500 
 28 H       -2.7760    -1.4220    -2.9520 H     1 <1>   0.0800 
 29 H       -2.0910    -1.2630     1.9900 H     1 <1>   0.0800 
 30 H       -1.5610     1.1150     1.5000 H     1 <1>   0.0800 
 31 H       -3.3050     0.9530     1.6320 H     1 <1>   0.0800 
 32 H       -2.6030     1.8260     0.2910 H     1 <1>   0.0800 
 33 H       -0.4810    -1.6270    -1.8940 H     1 <1>   0.0800 
 34 H       -1.1850    -3.0560    -2.6070 H     1 <1>   0.0800 
 35 H       -3.5090    -3.6020    -1.5470 H     1 <1>   0.0800 
 36 H       -4.5910    -2.4490    -2.2720 H     1 <1>   0.0800 
 37 H       -0.6970    -2.9820     1.3170 H     1 <1>   0.0800 
 38 H       -0.1530    -1.6050     0.3990 H     1 <1>   0.0800 
 39 H       -4.0540    -2.2560     1.8440 H     1 <1>   0.0800 
 40 H       -3.1940    -3.4870     0.9840 H     1 <1>   0.0800 
 41 H       -6.1740    -2.5370     0.9050 H     1 <1>   0.0800 
 42 H       -6.3990    -2.6000    -0.8090 H     1 <1>   0.0800 
 43 H       -5.3840    -4.5580     2.1380 H     1 <1>   0.1500 
 44 H       -5.9250    -4.7050    -2.0590 H     1 <1>   0.1500 
 45 H       -5.4130    -8.7170     1.1450 H     1 <1>   0.4000 
 46 H       -6.8850    -8.8080    -1.2390 H     1 <1>   0.0800 
 47 H       -5.3310    -9.5510    -1.5380 H     1 <1>   0.0800 
 48 H       -8.3600    -9.6610     0.5870 H     1 <1>   0.1500 
 49 H       -4.7240   -11.6460    -0.4320 H     1 <1>   0.1500 
 50 H       -9.1040   -11.6550     1.8080 H     1 <1>   0.1500 
 51 H       -5.4730   -13.6370     0.7900 H     1 <1>   0.1500 
 52 H       -7.6630   -13.6470     1.9110 H     1 <1>   0.1500 
@<TRIPOS>BOND
  1   1   2  2   
  2   2   3  am  
  3   2   4  1   
  4   3   5  1   
  5   3   6  1   
  6   4   7  1   
  7   4   8  1   
  8   4  28  1   
  9   5   9  1   
 10   5  10  1   
 11   5  29  1   
 12   6  30  1   
 13   6  31  1   
 14   6  32  1   
 15   7  11  1   
 16   7  33  1   
 17   7  34  1   
 18   8  12  1   
 19   8  35  1   
 20   8  36  1   
 21   9  11  1   
 22   9  37  1   
 23   9  38  1   
 24  10  12  1   
 25  10  39  1   
 26  10  40  1   
 27  12  13  1   
 28  13  14  1   
 29  13  41  1   
 30  13  42  1   
 31  14  15  ar  
 32  14  16  ar  
 33  15  17  ar  
 34  15  43  1   
 35  16  18  ar  
 36  16  44  1   
 37  17  19  ar  
 38  18  19  ar  
 39  19  20  1   
 40  20  21  1   
 41  20  45  1   
 42  21  22  1   
 43  21  46  1   
 44  21  47  1   
 45  22  23  ar  
 46  22  24  ar  
 47  23  25  ar  
 48  23  48  1   
 49  24  26  ar  
 50  24  49  1   
 51  25  27  ar  
 52  25  50  1   
 53  26  27  ar  
 54  26  51  1   
 55  27  52  1   
@<TRIPOS>SUBSTRUCTURE
  1 ****  14 GROUP 4 **** **** 0

# MOE 2024.06 (io_trps.svl 2023.06)
