@<TRIPOS>MOLECULE
NONAME
54 57 1 0 0 
SMALL
USER_CHARGES


@<TRIPOS>ATOM
  1 O       -2.2410     0.9930    -1.5450 O.2   1 <1>  -0.5700 
  2 C       -2.0470     0.9410    -0.3550 C.2   1 <1>   0.5690 
  3 N       -2.1390    -0.2290     0.3300 N.am  1 <1>  -0.7300 
  4 C       -1.6510     2.2410     0.3700 C.3   1 <1>   0.4040 
  5 C       -2.4720    -1.5440    -0.2720 C.3   1 <1>   0.2200 
  6 N       -0.2120     2.6700     0.1630 N.4   1 <1>  -0.9590 
  7 C       -3.8560    -1.9690     0.2000 C.3   1 <1>  -0.0800 
  8 C       -1.5980    -2.6080     0.3790 C.3   1 <1>   0.1200 
  9 C        0.1270     3.8560     1.0020 C.3   1 <1>   0.3430 
 10 C        0.0670     2.9200    -1.2870 C.3   1 <1>   0.3430 
 11 C       -3.5640    -2.6690     1.5380 C.3   1 <1>   0.1200 
 12 C       -4.5350    -2.9130    -0.8150 C.3   1 <1>  -0.0170 
 13 O       -2.1740    -2.8030     1.6300 O.3   1 <1>  -0.5600 
 14 C        1.6140     4.1850     0.8530 C.3   1 <1>  -0.1600 
 15 C        1.5500     3.2370    -1.4810 C.3   1 <1>  -0.1600 
 16 C       -5.9350    -3.3170    -0.3600 C.ar  1 <1>  -0.1440 
 17 C        2.0000     4.4190    -0.6130 C.3   1 <1>  -0.1600 
 18 C       -7.0450    -2.4430    -0.4500 C.ar  1 <1>   0.0000 
 19 C       -6.1540    -4.5600     0.1590 C.ar  1 <1>  -0.1500 
 20 C       -8.2920    -2.9120     0.0320 C.ar  1 <1>   0.3100 
 21 C       -6.9940    -1.1380    -0.9940 C.ar  1 <1>  -0.1500 
 22 C       -7.4310    -4.9280     0.5970 C.ar  1 <1>   0.1600 
 23 N       -8.4670    -4.1530     0.5510 N.ar  1 <1>  -0.6200 
 24 C       -9.4070    -2.0610    -0.0280 C.ar  1 <1>  -0.1500 
 25 C       -8.1020    -0.3360    -1.0420 C.ar  1 <1>  -0.1500 
 26 C       -9.3250    -0.8000    -0.5500 C.ar  1 <1>  -0.1500 
 27 H       -2.0010    -0.3050     1.3440 H     1 <1>   0.3700 
 28 H       -1.8370     2.1040     1.4210 H     1 <1>   0.0800 
 29 H       -2.3070     3.0190     0.0200 H     1 <1>   0.0800 
 30 H       -2.3680    -1.5200    -1.3440 H     1 <1>   0.0800 
 31 H        0.4020     1.8960     0.4480 H     1 <1>   0.4500 
 32 H       -4.4900    -1.1140     0.3550 H     1 <1>   0.0800 
 33 H       -0.5730    -2.3020     0.4920 H     1 <1>   0.0800 
 34 H       -1.6460    -3.5380    -0.1610 H     1 <1>   0.0800 
 35 H       -0.4590     4.7050     0.6870 H     1 <1>   0.0800 
 36 H       -0.0920     3.6560     2.0380 H     1 <1>   0.0800 
 37 H       -0.1880     2.0510    -1.8750 H     1 <1>   0.0800 
 38 H       -0.5280     3.7470    -1.6380 H     1 <1>   0.0800 
 39 H       -4.0020    -3.6490     1.5990 H     1 <1>   0.0800 
 40 H       -3.8980    -2.0780     2.3730 H     1 <1>   0.0800 
 41 H       -3.9340    -3.7970    -0.9450 H     1 <1>   0.0800 
 42 H       -4.5990    -2.4380    -1.7780 H     1 <1>   0.0800 
 43 H        1.8370     5.0700     1.4240 H     1 <1>   0.0800 
 44 H        2.2020     3.3830     1.2650 H     1 <1>   0.0800 
 45 H        2.1360     2.3650    -1.2480 H     1 <1>   0.0800 
 46 H        1.7250     3.4700    -2.5180 H     1 <1>   0.0800 
 47 H        3.0670     4.5490    -0.6950 H     1 <1>   0.0800 
 48 H        1.5330     5.3230    -0.9680 H     1 <1>   0.0800 
 49 H       -5.3640    -5.2840     0.2490 H     1 <1>   0.1500 
 50 H       -6.0690    -0.7620    -1.3860 H     1 <1>   0.1500 
 51 H       -7.5590    -5.9180     1.0010 H     1 <1>   0.1500 
 52 H      -10.3370    -2.4410     0.3520 H     1 <1>   0.1500 
 53 H       -8.0510     0.6560    -1.4580 H     1 <1>   0.1500 
 54 H      -10.1890    -0.1600    -0.5910 H     1 <1>   0.1500 
@<TRIPOS>BOND
  1   1   2  2   
  2   2   3  am  
  3   2   4  1   
  4   3   5  1   
  5   3  27  1   
  6   4   6  1   
  7   4  28  1   
  8   4  29  1   
  9   5   7  1   
 10   5   8  1   
 11   5  30  1   
 12   6   9  1   
 13   6  10  1   
 14   6  31  1   
 15   7  11  1   
 16   7  12  1   
 17   7  32  1   
 18   8  13  1   
 19   8  33  1   
 20   8  34  1   
 21   9  14  1   
 22   9  35  1   
 23   9  36  1   
 24  10  15  1   
 25  10  37  1   
 26  10  38  1   
 27  11  13  1   
 28  11  39  1   
 29  11  40  1   
 30  12  16  1   
 31  12  41  1   
 32  12  42  1   
 33  14  17  1   
 34  14  43  1   
 35  14  44  1   
 36  15  17  1   
 37  15  45  1   
 38  15  46  1   
 39  16  18  ar  
 40  16  19  ar  
 41  17  47  1   
 42  17  48  1   
 43  18  20  ar  
 44  18  21  ar  
 45  19  22  ar  
 46  19  49  1   
 47  20  23  ar  
 48  20  24  ar  
 49  21  25  ar  
 50  21  50  1   
 51  22  23  ar  
 52  22  51  1   
 53  24  26  ar  
 54  24  52  1   
 55  25  26  ar  
 56  25  53  1   
 57  26  54  1   
@<TRIPOS>SUBSTRUCTURE
  1 ****   7 GROUP 4 **** **** 0

# MOE 2024.06 (io_trps.svl 2023.06)
