@<TRIPOS>MOLECULE
NONAME
53 56 1 0 0 
SMALL
USER_CHARGES


@<TRIPOS>ATOM
  1 O        0.3550    -0.4080     1.9470 O.2   1 <1>  -0.5700 
  2 C        1.4230    -0.8090     1.5220 C.2   1 <1>   0.7150 
  3 N        2.4960     0.0280     1.5830 N.am  1 <1>  -0.7300 
  4 C        1.5540    -2.1360     0.9590 C.2   1 <1>   0.0550 
  5 C        2.4520     1.4150     2.0840 C.3   1 <1>   0.3200 
  6 O        0.5450    -2.9970     1.0310 O.3   1 <1>  -0.2800 
  7 C        2.5810    -2.7500     0.3050 C.2   1 <1>  -0.1500 
  8 C        3.5480     2.2120     1.4090 C.2   1 <1>  -0.0400 
  9 C        0.8810    -4.1230     0.4470 C.2   1 <1>  -0.0400 
 10 C        2.1440    -4.0340    -0.0270 C.2   1 <1>  -0.1500 
 11 O        4.7970     1.8800     1.5880 O.3   1 <1>  -0.0190 
 12 C        3.5240     3.2720     0.5920 C.2   1 <1>  -0.1500 
 13 C       -0.1300    -5.2560     0.3980 C.3   1 <1>   0.5230 
 14 N        5.6080     2.6550     0.9370 N.2   1 <1>  -0.4100 
 15 C        4.8730     3.5300     0.3100 C.2   1 <1>   0.2350 
 16 N       -1.3820    -4.7780    -0.2560 N.4   1 <1>  -0.9590 
 17 C        5.3560     4.6020    -0.5470 C.ar  1 <1>   0.3640 
 18 C       -2.2450    -4.0170     0.6990 C.3   1 <1>   0.3430 
 19 C       -2.1240    -5.8860    -0.9190 C.3   1 <1>   0.3430 
 20 N        4.4540     5.4030    -1.1310 N.ar  1 <1>  -0.6200 
 21 C        6.7270     4.7790    -0.7450 C.ar  1 <1>  -0.1500 
 22 C       -3.4370    -3.4200    -0.0490 C.3   1 <1>  -0.1600 
 23 C       -3.3120    -5.3180    -1.6950 C.3   1 <1>  -0.1600 
 24 C        4.9220     6.3680    -1.9020 C.ar  1 <1>   0.1600 
 25 C        7.2020     5.7880    -1.5520 C.ar  1 <1>  -0.1500 
 26 C       -4.2410    -4.4970    -0.7900 C.3   1 <1>  -0.0800 
 27 C        6.2630     6.6020    -2.1440 C.ar  1 <1>  -0.1500 
 28 C       -5.3690    -3.8600    -1.6090 C.3   1 <1>  -0.2400 
 29 H        3.4130    -0.2770     1.2570 H     1 <1>   0.3700 
 30 H        2.6030     1.4170     3.1500 H     1 <1>   0.0800 
 31 H        1.4930     1.8550     1.8700 H     1 <1>   0.0800 
 32 H        3.5520    -2.3480     0.0700 H     1 <1>   0.1500 
 33 H        2.7310    -4.7670    -0.5550 H     1 <1>   0.1500 
 34 H        2.6930     3.8350     0.2070 H     1 <1>   0.1500 
 35 H       -0.3400    -5.6030     1.3970 H     1 <1>   0.0800 
 36 H        0.2940    -6.0710    -0.1650 H     1 <1>   0.0800 
 37 H       -1.0870    -4.1040    -0.9750 H     1 <1>   0.4500 
 38 H       -1.6870    -3.2180     1.1620 H     1 <1>   0.0800 
 39 H       -2.6000    -4.6730     1.4760 H     1 <1>   0.0800 
 40 H       -2.4810    -6.5820    -0.1760 H     1 <1>   0.0800 
 41 H       -1.4740    -6.4140    -1.5980 H     1 <1>   0.0800 
 42 H        7.4200     4.1160    -0.2590 H     1 <1>   0.1500 
 43 H       -3.0810    -2.6740    -0.7390 H     1 <1>   0.0800 
 44 H       -4.0740    -2.9200     0.6610 H     1 <1>   0.0800 
 45 H       -3.8660    -6.1330    -2.1290 H     1 <1>   0.0800 
 46 H       -2.9490    -4.7100    -2.5060 H     1 <1>   0.0800 
 47 H        4.1960     7.0110    -2.3710 H     1 <1>   0.1500 
 48 H        8.2570     5.9340    -1.7120 H     1 <1>   0.1500 
 49 H       -4.6870    -5.1560    -0.0620 H     1 <1>   0.0800 
 50 H        6.5650     7.4100    -2.7860 H     1 <1>   0.1500 
 51 H       -4.9750    -3.1870    -2.3510 H     1 <1>   0.0800 
 52 H       -6.0320    -3.3060    -0.9670 H     1 <1>   0.0800 
 53 H       -5.9460    -4.6180    -2.1090 H     1 <1>   0.0800 
@<TRIPOS>BOND
  1   1   2  2   
  2   2   3  am  
  3   2   4  1   
  4   3   5  1   
  5   3  29  1   
  6   4   6  1   
  7   4   7  2   
  8   5   8  1   
  9   5  30  1   
 10   5  31  1   
 11   6   9  1   
 12   7  10  1   
 13   7  32  1   
 14   8  11  1   
 15   8  12  2   
 16   9  10  2   
 17   9  13  1   
 18  10  33  1   
 19  11  14  1   
 20  12  15  1   
 21  12  34  1   
 22  13  16  1   
 23  13  35  1   
 24  13  36  1   
 25  14  15  2   
 26  15  17  1   
 27  16  18  1   
 28  16  19  1   
 29  16  37  1   
 30  17  20  ar  
 31  17  21  ar  
 32  18  22  1   
 33  18  38  1   
 34  18  39  1   
 35  19  23  1   
 36  19  40  1   
 37  19  41  1   
 38  20  24  ar  
 39  21  25  ar  
 40  21  42  1   
 41  22  26  1   
 42  22  43  1   
 43  22  44  1   
 44  23  26  1   
 45  23  45  1   
 46  23  46  1   
 47  24  27  ar  
 48  24  47  1   
 49  25  27  ar  
 50  25  48  1   
 51  26  28  1   
 52  26  49  1   
 53  27  50  1   
 54  28  51  1   
 55  28  52  1   
 56  28  53  1   
@<TRIPOS>SUBSTRUCTURE
  1 ****   2 GROUP 4 **** **** 0

# MOE 2024.06 (io_trps.svl 2023.06)
