@<TRIPOS>MOLECULE
NONAME
51 54 1 0 0 
SMALL
USER_CHARGES


@<TRIPOS>ATOM
  1 O       -2.6880     0.8140    -3.5370 O.2   1 <1>  -0.5700 
  2 C       -2.2110     1.3300    -2.5560 C.2   1 <1>   0.5690 
  3 N       -2.0440     0.6440    -1.3990 N.am  1 <1>  -0.7300 
  4 C       -1.7930     2.7880    -2.6200 C.3   1 <1>   0.0820 
  5 C       -2.3780    -0.7750    -1.1590 C.3   1 <1>   0.2200 
  6 C       -0.6370     3.1050    -1.6820 C.2   1 <1>   0.0460 
  7 C       -3.3000    -0.8670     0.0450 C.3   1 <1>  -0.0800 
  8 C       -1.1350    -1.5300    -0.6850 C.3   1 <1>   0.1200 
  9 N       -0.8170     3.1250    -0.3470 N.2   1 <1>  -0.5650 
 10 C        0.6430     3.3890    -1.9630 C.2   1 <1>  -0.0400 
 11 C       -2.2920    -0.8720     1.1940 C.3   1 <1>   0.1200 
 12 C       -4.1480    -2.1520     0.0090 C.3   1 <1>  -0.0160 
 13 O       -1.1630    -1.5360     0.7150 O.3   1 <1>  -0.5600 
 14 C        0.3590     3.4200     0.1220 C.2   1 <1>   0.4250 
 15 O        1.2570     3.5840    -0.8330 O.3   1 <1>  -0.2800 
 16 C        1.4330     3.5050    -3.2510 C.3   1 <1>  -0.0600 
 17 C       -5.0720    -2.2410     1.2140 C.ar  1 <1>  -0.1440 
 18 C        0.7370     3.5650     1.5130 C.ar  1 <1>   0.0530 
 19 C       -4.8130    -3.0850     2.2750 C.ar  1 <1>  -0.1500 
 20 C       -6.2180    -1.4780     1.3080 C.ar  1 <1>  -0.1500 
 21 C        2.0560     3.8190     1.8950 C.ar  1 <1>  -0.1500 
 22 C       -0.2120     3.4550     2.5320 C.ar  1 <1>  -0.1500 
 23 C       -5.6860    -3.1210     3.3500 C.ar  1 <1>   0.1600 
 24 C       -7.0250    -1.5900     2.4290 C.ar  1 <1>   0.1600 
 25 C        2.4110     3.9530     3.2250 C.ar  1 <1>  -0.1500 
 26 C        0.1360     3.5870     3.8630 C.ar  1 <1>  -0.1500 
 27 N       -6.7850    -2.3920     3.4530 N.ar  1 <1>  -0.6200 
 28 C        1.4510     3.8360     4.2130 C.ar  1 <1>  -0.1500 
 29 H       -1.5830     1.1380    -0.6220 H     1 <1>   0.3700 
 30 H       -1.5160     3.0190    -3.6300 H     1 <1>   0.0800 
 31 H       -2.6370     3.3980    -2.3600 H     1 <1>   0.0800 
 32 H       -2.7990    -1.2120    -2.0500 H     1 <1>   0.0800 
 33 H       -3.9540    -0.0150     0.1060 H     1 <1>   0.0800 
 34 H       -0.2230    -1.0690    -1.0220 H     1 <1>   0.0800 
 35 H       -1.1670    -2.5540    -1.0110 H     1 <1>   0.0800 
 36 H       -2.6490    -1.3710     2.0780 H     1 <1>   0.0800 
 37 H       -1.9960     0.1320     1.4450 H     1 <1>   0.0800 
 38 H       -3.5090    -3.0180    -0.0200 H     1 <1>   0.0800 
 39 H       -4.7460    -2.1600    -0.8850 H     1 <1>   0.0800 
 40 H        0.8100     3.3020    -4.1010 H     1 <1>   0.0800 
 41 H        2.2460     2.8020    -3.2410 H     1 <1>   0.0800 
 42 H        1.8340     4.4980    -3.3410 H     1 <1>   0.0800 
 43 H       -3.9410    -3.7130     2.2780 H     1 <1>   0.1500 
 44 H       -6.4910    -0.7990     0.5220 H     1 <1>   0.1500 
 45 H        2.8170     3.9110     1.1400 H     1 <1>   0.1500 
 46 H       -1.2380     3.2620     2.2730 H     1 <1>   0.1500 
 47 H       -5.4680    -3.7860     4.1680 H     1 <1>   0.1500 
 48 H       -7.9150    -0.9860     2.4850 H     1 <1>   0.1500 
 49 H        3.4360     4.1470     3.4930 H     1 <1>   0.1500 
 50 H       -0.6150     3.4960     4.6290 H     1 <1>   0.1500 
 51 H        1.7250     3.9400     5.2490 H     1 <1>   0.1500 
@<TRIPOS>BOND
  1   1   2  2   
  2   2   3  am  
  3   2   4  1   
  4   3   5  1   
  5   3  29  1   
  6   4   6  1   
  7   4  30  1   
  8   4  31  1   
  9   5   7  1   
 10   5   8  1   
 11   5  32  1   
 12   6   9  1   
 13   6  10  2   
 14   7  11  1   
 15   7  12  1   
 16   7  33  1   
 17   8  13  1   
 18   8  34  1   
 19   8  35  1   
 20   9  14  2   
 21  10  15  1   
 22  10  16  1   
 23  11  13  1   
 24  11  36  1   
 25  11  37  1   
 26  12  17  1   
 27  12  38  1   
 28  12  39  1   
 29  14  15  1   
 30  14  18  1   
 31  16  40  1   
 32  16  41  1   
 33  16  42  1   
 34  17  19  ar  
 35  17  20  ar  
 36  18  21  ar  
 37  18  22  ar  
 38  19  23  ar  
 39  19  43  1   
 40  20  24  ar  
 41  20  44  1   
 42  21  25  ar  
 43  21  45  1   
 44  22  26  ar  
 45  22  46  1   
 46  23  27  ar  
 47  23  47  1   
 48  24  27  ar  
 49  24  48  1   
 50  25  28  ar  
 51  25  49  1   
 52  26  28  ar  
 53  26  50  1   
 54  28  51  1   
@<TRIPOS>SUBSTRUCTURE
  1 ****   3 GROUP 4 **** **** 0

# MOE 2024.06 (io_trps.svl 2023.06)
