@<TRIPOS>MOLECULE
NONAME
55 58 1 0 0 
SMALL
USER_CHARGES


@<TRIPOS>ATOM
  1 O       -0.8290     0.6270     0.4770 O.2   1 <1>  -0.5700 
  2 C       -0.7140     1.8310     0.4890 C.2   1 <1>   0.5690 
  3 N       -1.7670     2.6660     0.7440 N.am  1 <1>  -0.6600 
  4 C        0.6590     2.4230     0.1710 C.3   1 <1>   0.1810 
  5 C       -1.6050     4.1580     0.7090 C.3   1 <1>   0.3640 
  6 C       -3.1020     2.1630     1.1800 C.3   1 <1>   0.0600 
  7 O        0.8220     3.7290     0.6660 O.3   1 <1>  -0.5600 
  8 C       -2.6890     4.8080    -0.1710 C.ar  1 <1>  -0.1430 
  9 C       -0.1920     4.6380     0.2700 C.3   1 <1>   0.2610 
 10 C       -3.0050     4.4160    -1.4770 C.ar  1 <1>  -0.1430 
 11 C       -3.3900     5.8680     0.3950 C.ar  1 <1>  -0.1500 
 12 C        0.1340     6.0580     0.7800 C.2   1 <1>   0.5690 
 13 C       -4.0050     5.0880    -2.1670 C.ar  1 <1>  -0.1500 
 14 C       -2.3230     3.2650    -2.2100 C.3   1 <1>  -0.0960 
 15 C       -4.3810     6.5300    -0.3030 C.ar  1 <1>  -0.1500 
 16 O       -0.5710     6.5490     1.6360 O.2   1 <1>  -0.5700 
 17 N        1.2130     6.7530     0.2750 N.am  1 <1>  -0.6600 
 18 C       -4.6910     6.1380    -1.5890 C.ar  1 <1>  -0.1500 
 19 C        1.5360     8.1270     0.7770 C.3   1 <1>   0.1400 
 20 C        2.2100     6.1330    -0.6530 C.3   1 <1>   0.1400 
 21 C        3.0410     8.2450     1.0020 C.3   1 <1>  -0.1600 
 22 C        3.0790     7.1940    -1.3330 C.3   1 <1>  -0.1600 
 23 C        3.8150     8.0890    -0.3160 C.3   1 <1>   0.2800 
 24 O        3.9040     9.3490    -0.9070 O.3   1 <1>  -0.5600 
 25 C        5.2620     7.6500    -0.0800 C.3   1 <1>  -0.1600 
 26 C        5.2050     9.6720    -1.2950 C.3   1 <1>   0.1200 
 27 C        6.0300     8.4040    -1.1440 C.3   1 <1>  -0.1600 
 28 H        0.8080     2.4370    -0.8920 H     1 <1>   0.0800 
 29 H        1.4180     1.8090     0.6200 H     1 <1>   0.0800 
 30 H       -1.7540     4.4850     1.7230 H     1 <1>   0.0800 
 31 H       -3.3650     2.6010     2.1260 H     1 <1>   0.0800 
 32 H       -3.0880     1.0920     1.2890 H     1 <1>   0.0800 
 33 H       -3.8500     2.4240     0.4520 H     1 <1>   0.0800 
 34 H       -0.1780     4.6850    -0.8000 H     1 <1>   0.0800 
 35 H       -3.1630     6.1970     1.3950 H     1 <1>   0.1500 
 36 H       -4.2630     4.7950    -3.1700 H     1 <1>   0.1500 
 37 H       -2.5410     3.2960    -3.2620 H     1 <1>   0.0800 
 38 H       -2.6770     2.3250    -1.8260 H     1 <1>   0.0800 
 39 H       -1.2580     3.3070    -2.1010 H     1 <1>   0.0800 
 40 H       -4.9080     7.3490     0.1550 H     1 <1>   0.1500 
 41 H       -5.4620     6.6490    -2.1380 H     1 <1>   0.1500 
 42 H        1.2130     8.8570     0.0540 H     1 <1>   0.0800 
 43 H        1.0230     8.3230     1.7040 H     1 <1>   0.0800 
 44 H        2.8360     5.4610    -0.0890 H     1 <1>   0.0800 
 45 H        1.7030     5.5660    -1.4130 H     1 <1>   0.0800 
 46 H        3.3300     7.4750     1.6950 H     1 <1>   0.0800 
 47 H        3.2750     9.1940     1.4500 H     1 <1>   0.0800 
 48 H        2.4330     7.8000    -1.9440 H     1 <1>   0.0800 
 49 H        3.7820     6.7120    -1.9860 H     1 <1>   0.0800 
 50 H        5.5880     7.9740     0.8930 H     1 <1>   0.0800 
 51 H        5.3880     6.5840    -0.1480 H     1 <1>   0.0800 
 52 H        5.1900    10.0360    -2.3080 H     1 <1>   0.0800 
 53 H        5.5580    10.4430    -0.6320 H     1 <1>   0.0800 
 54 H        6.0270     7.8630    -2.0740 H     1 <1>   0.0800 
 55 H        7.0450     8.6150    -0.8570 H     1 <1>   0.0800 
@<TRIPOS>BOND
  1   1   2  2   
  2   2   3  am  
  3   2   4  1   
  4   3   5  1   
  5   3   6  1   
  6   4   7  1   
  7   4  28  1   
  8   4  29  1   
  9   5   8  1   
 10   5   9  1   
 11   5  30  1   
 12   6  31  1   
 13   6  32  1   
 14   6  33  1   
 15   7   9  1   
 16   8  10  ar  
 17   8  11  ar  
 18   9  12  1   
 19   9  34  1   
 20  10  13  ar  
 21  10  14  1   
 22  11  15  ar  
 23  11  35  1   
 24  12  16  2   
 25  12  17  am  
 26  13  18  ar  
 27  13  36  1   
 28  14  37  1   
 29  14  38  1   
 30  14  39  1   
 31  15  18  ar  
 32  15  40  1   
 33  17  19  1   
 34  17  20  1   
 35  18  41  1   
 36  19  21  1   
 37  19  42  1   
 38  19  43  1   
 39  20  22  1   
 40  20  44  1   
 41  20  45  1   
 42  21  23  1   
 43  21  46  1   
 44  21  47  1   
 45  22  23  1   
 46  22  48  1   
 47  22  49  1   
 48  23  24  1   
 49  23  25  1   
 50  24  26  1   
 51  25  27  1   
 52  25  50  1   
 53  25  51  1   
 54  26  27  1   
 55  26  52  1   
 56  26  53  1   
 57  27  54  1   
 58  27  55  1   
@<TRIPOS>SUBSTRUCTURE
  1 ****  12 GROUP 4 **** **** 0

# MOE 2024.06 (io_trps.svl 2023.06)
