@<TRIPOS>MOLECULE
NONAME
58 61 1 0 0 
SMALL
USER_CHARGES


@<TRIPOS>ATOM
  1 O       -0.2220    -0.7510     0.2310 O.3   1 <1>  -0.3630 
  2 C        0.9290    -0.0290     0.2050 C.ar  1 <1>   0.0830 
  3 C       -0.1980    -2.1550     0.2300 C.3   1 <1>   0.1200 
  4 C        0.7970     1.3500     0.1980 C.ar  1 <1>  -0.1500 
  5 C        2.2010    -0.5960     0.1870 C.ar  1 <1>  -0.1500 
  6 C       -1.6500    -2.6290     0.2570 C.3   1 <1>  -0.1600 
  7 C        1.9140     2.1660     0.1710 C.ar  1 <1>  -0.1500 
  8 C        3.3180     0.2210     0.1600 C.ar  1 <1>  -0.1500 
  9 C       -1.7250    -4.1520     0.2230 C.3   1 <1>   0.3430 
 10 C        3.1860     1.6000     0.1520 C.ar  1 <1>   0.0830 
 11 N       -3.1380    -4.5950     0.3560 N.4   1 <1>  -0.9590 
 12 O        4.3360     2.3220     0.1250 O.3   1 <1>  -0.3620 
 13 C       -4.0550    -4.2240    -0.7550 C.3   1 <1>   0.3430 
 14 C       -3.3080    -6.0660     0.5380 C.3   1 <1>   0.3430 
 15 C        4.3090     3.7320     0.1150 C.3   1 <1>   0.0400 
 16 C       -5.2840    -5.0940    -0.5000 C.3   1 <1>   0.2000 
 17 C       -4.6840    -6.4290    -0.0490 C.3   1 <1>  -0.0800 
 18 O       -5.9660    -4.5450     0.5800 O.3   1 <1>  -0.6800 
 19 C       -4.5700    -7.4290    -1.2210 C.3   1 <1>  -0.0170 
 20 C       -3.6700    -8.6090    -0.8640 C.ar  1 <1>  -0.1430 
 21 C       -4.0490    -9.6020     0.0720 C.ar  1 <1>   0.0000 
 22 C       -2.4390    -8.7270    -1.4440 C.ar  1 <1>  -0.1500 
 23 C       -3.0920   -10.5930     0.4010 C.ar  1 <1>   0.3100 
 24 C       -5.3170    -9.6770     0.6950 C.ar  1 <1>  -0.1500 
 25 C       -1.5800    -9.7670    -1.0710 C.ar  1 <1>   0.1600 
 26 N       -1.8670   -10.6550    -0.1740 N.ar  1 <1>  -0.6200 
 27 C       -3.4190   -11.5640     1.3610 C.ar  1 <1>  -0.1500 
 28 C       -5.6060   -10.6410     1.6230 C.ar  1 <1>  -0.1500 
 29 C       -4.6440   -11.5930     1.9680 C.ar  1 <1>  -0.1500 
 30 H        0.3050    -2.4810    -0.6650 H     1 <1>   0.0800 
 31 H        0.3370    -2.4830     1.1050 H     1 <1>   0.0800 
 32 H       -0.1880     1.7820     0.2130 H     1 <1>   0.1500 
 33 H        2.3480    -1.6580     0.1930 H     1 <1>   0.1500 
 34 H       -2.1100    -2.2620     1.1580 H     1 <1>   0.0800 
 35 H       -2.1540    -2.2140    -0.5980 H     1 <1>   0.0800 
 36 H        1.7750     3.2300     0.1650 H     1 <1>   0.1500 
 37 H        4.3040    -0.2060     0.1460 H     1 <1>   0.1500 
 38 H       -1.1460    -4.5510     1.0410 H     1 <1>   0.0800 
 39 H       -1.3070    -4.5210    -0.7000 H     1 <1>   0.0800 
 40 H       -3.5610    -4.1550     1.1910 H     1 <1>   0.4500 
 41 H       -4.3100    -3.1760    -0.7400 H     1 <1>   0.0800 
 42 H       -3.6140    -4.4800    -1.7040 H     1 <1>   0.0800 
 43 H       -2.5300    -6.5980     0.0160 H     1 <1>   0.0800 
 44 H       -3.2620    -6.3270     1.5840 H     1 <1>   0.0800 
 45 H        5.3240     4.0850     0.0930 H     1 <1>   0.0800 
 46 H        3.8200     4.0780     1.0080 H     1 <1>   0.0800 
 47 H        3.7880     4.0640    -0.7650 H     1 <1>   0.0800 
 48 H       -5.9490    -5.1550    -1.3460 H     1 <1>   0.0800 
 49 H       -5.2870    -6.8710     0.7230 H     1 <1>   0.0800 
 50 H       -6.8540    -4.9500     0.6890 H     1 <1>   0.4000 
 51 H       -4.1650    -6.9320    -2.0860 H     1 <1>   0.0800 
 52 H       -5.5450    -7.7910    -1.4980 H     1 <1>   0.0800 
 53 H       -2.0880    -8.0380    -2.1900 H     1 <1>   0.1500 
 54 H       -6.0840    -8.9750     0.4320 H     1 <1>   0.1500 
 55 H       -0.6180    -9.8310    -1.5530 H     1 <1>   0.1500 
 56 H       -2.6670   -12.2930     1.6030 H     1 <1>   0.1500 
 57 H       -6.5740   -10.6870     2.0940 H     1 <1>   0.1500 
 58 H       -4.8810   -12.3440     2.7020 H     1 <1>   0.1500 
@<TRIPOS>BOND
  1   1   2  1   
  2   1   3  1   
  3   2   4  ar  
  4   2   5  ar  
  5   3   6  1   
  6   3  30  1   
  7   3  31  1   
  8   4   7  ar  
  9   4  32  1   
 10   5   8  ar  
 11   5  33  1   
 12   6   9  1   
 13   6  34  1   
 14   6  35  1   
 15   7  10  ar  
 16   7  36  1   
 17   8  10  ar  
 18   8  37  1   
 19   9  11  1   
 20   9  38  1   
 21   9  39  1   
 22  10  12  1   
 23  11  13  1   
 24  11  14  1   
 25  11  40  1   
 26  12  15  1   
 27  13  16  1   
 28  13  41  1   
 29  13  42  1   
 30  14  17  1   
 31  14  43  1   
 32  14  44  1   
 33  15  45  1   
 34  15  46  1   
 35  15  47  1   
 36  16  17  1   
 37  16  18  1   
 38  16  48  1   
 39  17  19  1   
 40  17  49  1   
 41  18  50  1   
 42  19  20  1   
 43  19  51  1   
 44  19  52  1   
 45  20  21  ar  
 46  20  22  ar  
 47  21  23  ar  
 48  21  24  ar  
 49  22  25  ar  
 50  22  53  1   
 51  23  26  ar  
 52  23  27  ar  
 53  24  28  ar  
 54  24  54  1   
 55  25  26  ar  
 56  25  55  1   
 57  27  29  ar  
 58  27  56  1   
 59  28  29  ar  
 60  28  57  1   
 61  29  58  1   
@<TRIPOS>SUBSTRUCTURE
  1 ****   9 GROUP 4 **** **** 0

# MOE 2024.06 (io_trps.svl 2023.06)
