@<TRIPOS>MOLECULE
NONAME
35 36 1 0 0 
SMALL
USER_CHARGES


@<TRIPOS>ATOM
  1 O        1.2440     1.1170    -0.5270 O.2   1 <1>  -0.5700 
  2 C        0.3290     1.9030    -0.4690 C.2   1 <1>   0.5690 
  3 N       -0.7850     1.5730     0.2310 N.am  1 <1>  -0.7300 
  4 C        0.4330     3.2440    -1.2090 C.3   1 <1>   0.2700 
  5 C       -2.0070     2.3780     0.4220 C.3   1 <1>   0.1400 
  6 N        0.2680     4.4700    -0.3370 N.pl3 1 <1>  -0.8380 
  7 C       -1.6880     3.7400     1.0490 C.3   1 <1>  -0.1600 
  8 C        1.3390     4.9600     0.3340 C.ar  1 <1>   0.4100 
  9 C       -1.1290     4.7800     0.0700 C.3   1 <1>   0.2090 
 10 N        2.0720     4.0610     0.9560 N.ar  1 <1>  -0.6200 
 11 C        1.6640     6.3420     0.3610 C.ar  1 <1>  -0.1440 
 12 C        3.1050     4.4700     1.6480 C.ar  1 <1>   0.7710 
 13 C        2.7360     6.7190     1.1090 C.ar  1 <1>   0.2110 
 14 C        0.8420     7.3510    -0.4520 C.3   1 <1>  -0.0160 
 15 N        3.4460     5.7620     1.7570 N.ar  1 <1>  -0.1790 
 16 N        3.8180     3.5240     2.2490 N.pl3 1 <1>  -0.9000 
 17 C        1.6000     8.6280    -0.8370 C.3   1 <1>  -0.2400 
 18 H       -0.7550     0.6650     0.6990 H     1 <1>   0.3700 
 19 H       -0.3030     3.2600    -1.9910 H     1 <1>   0.0800 
 20 H        1.4000     3.2820    -1.6780 H     1 <1>   0.0800 
 21 H       -2.6650     1.8360     1.0800 H     1 <1>   0.0800 
 22 H       -2.5100     2.5030    -0.5210 H     1 <1>   0.0800 
 23 H       -1.0220     3.6190     1.8850 H     1 <1>   0.0800 
 24 H       -2.6100     4.1350     1.4340 H     1 <1>   0.0800 
 25 H       -1.7540     4.8450    -0.8050 H     1 <1>   0.0800 
 26 H       -1.1520     5.7370     0.5590 H     1 <1>   0.0800 
 27 H        3.0590     7.7420     1.2060 H     1 <1>   0.1500 
 28 H       -0.0400     7.6250     0.1010 H     1 <1>   0.0800 
 29 H        0.5180     6.8820    -1.3660 H     1 <1>   0.0800 
 30 H        4.2590     5.9770     2.3240 H     1 <1>   0.4570 
 31 H        4.6560     3.6020     2.8250 H     1 <1>   0.4000 
 32 H        3.5050     2.5560     2.0990 H     1 <1>   0.4000 
 33 H        1.8220     9.2280     0.0280 H     1 <1>   0.0800 
 34 H        0.9900     9.2200    -1.4970 H     1 <1>   0.0800 
 35 H        2.5120     8.3880    -1.3550 H     1 <1>   0.0800 
@<TRIPOS>BOND
  1   1   2  2   
  2   2   3  am  
  3   2   4  1   
  4   3   5  1   
  5   3  18  1   
  6   4   6  1   
  7   4  19  1   
  8   4  20  1   
  9   5   7  1   
 10   5  21  1   
 11   5  22  1   
 12   6   8  1   
 13   6   9  1   
 14   7   9  1   
 15   7  23  1   
 16   7  24  1   
 17   8  10  ar  
 18   8  11  ar  
 19   9  25  1   
 20   9  26  1   
 21  10  12  ar  
 22  11  13  ar  
 23  11  14  1   
 24  12  15  ar  
 25  12  16  1   
 26  13  15  ar  
 27  13  27  1   
 28  14  17  1   
 29  14  28  1   
 30  14  29  1   
 31  15  30  1   
 32  16  31  1   
 33  16  32  1   
 34  17  33  1   
 35  17  34  1   
 36  17  35  1   
@<TRIPOS>SUBSTRUCTURE
  1 ****   8 GROUP 4 **** **** 0

# MOE 2024.06 (io_trps.svl 2023.06)
