@<TRIPOS>MOLECULE
NONAME
46 48 1 0 0 
SMALL
USER_CHARGES


@<TRIPOS>ATOM
  1 O       -2.5290     1.5370    -2.2410 O.2   1 <1>  -0.5700 
  2 C       -2.2290     1.4890    -1.0620 C.2   1 <1>   0.5440 
  3 N       -2.3990     0.3040    -0.4070 N.am  1 <1>  -0.7300 
  4 C       -1.7080     2.6470    -0.3550 C.ar  1 <1>   0.0860 
  5 C       -2.7430    -0.9860    -1.0430 C.3   1 <1>   0.2200 
  6 C       -0.5550     2.5350     0.4420 C.ar  1 <1>   0.0820 
  7 C       -2.3340     3.9030    -0.4310 C.ar  1 <1>  -0.1440 
  8 C       -3.8240    -1.6700    -0.2260 C.3   1 <1>  -0.0800 
  9 C       -1.5680    -1.9520    -0.9000 C.3   1 <1>   0.1200 
 10 O        0.0520     1.3220     0.5310 O.3   1 <1>  -0.3630 
 11 C       -0.0510     3.6420     1.1200 C.ar  1 <1>  -0.1500 
 12 C       -1.8170     4.9930     0.2490 C.ar  1 <1>  -0.1500 
 13 C       -3.6010     4.1130    -1.2550 C.3   1 <1>  -0.0970 
 14 C       -2.9990    -2.3540     0.8660 C.3   1 <1>   0.1200 
 15 C       -4.6180    -2.6800    -1.0760 C.3   1 <1>  -0.0170 
 16 O       -1.7490    -2.6350     0.3090 O.3   1 <1>  -0.5600 
 17 C        1.2620     1.1100     1.2250 C.3   1 <1>   0.0400 
 18 C       -0.6800     4.8660     1.0220 C.ar  1 <1>  -0.1500 
 19 C       -5.7160    -3.3480    -0.2630 C.ar  1 <1>  -0.1430 
 20 C       -5.6050    -4.6480     0.1890 C.ar  1 <1>  -0.1500 
 21 C       -6.8810    -2.6860     0.0650 C.ar  1 <1>  -0.1500 
 22 C       -6.6350    -5.2040     0.9300 C.ar  1 <1>   0.1600 
 23 C       -7.8510    -3.3340     0.8110 C.ar  1 <1>   0.1600 
 24 N       -7.7550    -4.5780     1.2530 N.ar  1 <1>  -0.6200 
 25 H       -1.9030     0.2110     0.4830 H     1 <1>   0.3700 
 26 H       -3.0210    -0.8380    -2.0730 H     1 <1>   0.0800 
 27 H       -4.5060    -0.9530     0.1940 H     1 <1>   0.0800 
 28 H       -0.6200    -1.4440    -0.8910 H     1 <1>   0.0800 
 29 H       -1.5820    -2.6810    -1.6900 H     1 <1>   0.0800 
 30 H        0.8290     3.5750     1.7300 H     1 <1>   0.1500 
 31 H       -2.2970     5.9540     0.1820 H     1 <1>   0.1500 
 32 H       -4.0520     5.0660    -1.0450 H     1 <1>   0.0800 
 33 H       -4.3220     3.3460    -1.0350 H     1 <1>   0.0800 
 34 H       -3.3640     4.0720    -2.3030 H     1 <1>   0.0800 
 35 H       -3.4390    -3.2670     1.2260 H     1 <1>   0.0800 
 36 H       -2.8400    -1.6840     1.6930 H     1 <1>   0.0800 
 37 H       -3.9580    -3.4300    -1.4770 H     1 <1>   0.0800 
 38 H       -5.0700    -2.1680    -1.9080 H     1 <1>   0.0800 
 39 H        1.5380     0.0770     1.1090 H     1 <1>   0.0800 
 40 H        1.1130     1.3320     2.2670 H     1 <1>   0.0800 
 41 H        2.0230     1.7410     0.8010 H     1 <1>   0.0800 
 42 H       -0.2880     5.7210     1.5450 H     1 <1>   0.1500 
 43 H       -4.7290    -5.2330    -0.0260 H     1 <1>   0.1500 
 44 H       -7.0440    -1.6720    -0.2530 H     1 <1>   0.1500 
 45 H       -6.5310    -6.2190     1.2750 H     1 <1>   0.1500 
 46 H       -8.7530    -2.8020     1.0580 H     1 <1>   0.1500 
@<TRIPOS>BOND
  1   1   2  2   
  2   2   3  am  
  3   2   4  1   
  4   3   5  1   
  5   3  25  1   
  6   4   6  ar  
  7   4   7  ar  
  8   5   8  1   
  9   5   9  1   
 10   5  26  1   
 11   6  10  1   
 12   6  11  ar  
 13   7  12  ar  
 14   7  13  1   
 15   8  14  1   
 16   8  15  1   
 17   8  27  1   
 18   9  16  1   
 19   9  28  1   
 20   9  29  1   
 21  10  17  1   
 22  11  18  ar  
 23  11  30  1   
 24  12  18  ar  
 25  12  31  1   
 26  13  32  1   
 27  13  33  1   
 28  13  34  1   
 29  14  16  1   
 30  14  35  1   
 31  14  36  1   
 32  15  19  1   
 33  15  37  1   
 34  15  38  1   
 35  17  39  1   
 36  17  40  1   
 37  17  41  1   
 38  18  42  1   
 39  19  20  ar  
 40  19  21  ar  
 41  20  22  ar  
 42  20  43  1   
 43  21  23  ar  
 44  21  44  1   
 45  22  24  ar  
 46  22  45  1   
 47  23  24  ar  
 48  23  46  1   
@<TRIPOS>SUBSTRUCTURE
  1 ****   3 GROUP 4 **** **** 0

# MOE 2024.06 (io_trps.svl 2023.06)
