@<TRIPOS>MOLECULE
NONAME
47 49 1 0 0 
SMALL
USER_CHARGES


@<TRIPOS>ATOM
  1 CL      -1.2810    -2.2000    -3.1510 Cl    1 <1>  -0.1770 
  2 C       -2.4360    -1.2560    -2.2440 C.ar  1 <1>   0.1770 
  3 C       -3.3240    -1.9020    -1.4080 C.ar  1 <1>  -0.1500 
  4 C       -2.4390     0.1190    -2.3810 C.ar  1 <1>  -0.1500 
  5 C       -4.2560    -1.1680    -0.6800 C.ar  1 <1>   0.1170 
  6 C       -3.3570     0.8610    -1.6590 C.ar  1 <1>  -0.1500 
  7 N       -5.1810    -1.8130     0.1650 N.am  1 <1>  -0.4770 
  8 C       -4.2530     0.2190    -0.8190 C.ar  1 <1>  -0.1500 
  9 C       -5.6810    -1.3810     1.3610 C.2   1 <1>   0.5690 
 10 C       -5.7720    -3.1170    -0.1990 C.3   1 <1>   0.1400 
 11 O       -5.4000    -0.3600     1.9370 O.2   1 <1>  -0.5700 
 12 C       -6.6800    -2.3540     1.9240 C.3   1 <1>  -0.0990 
 13 C       -6.9860    -3.2670     0.7250 C.3   1 <1>  -0.0190 
 14 C       -7.2300    -4.7290     1.0960 C.2   1 <1>   0.5690 
 15 O       -6.3900    -5.2620     1.7820 O.2   1 <1>  -0.5700 
 16 N       -8.3350    -5.4260     0.6710 N.am  1 <1>  -0.6600 
 17 C       -8.6020    -6.8010     1.1840 C.3   1 <1>   0.3200 
 18 C       -9.3220    -4.9390    -0.3520 C.3   1 <1>   0.1400 
 19 C       -8.4560    -7.8080     0.0600 C.2   1 <1>  -0.3320 
 20 C      -10.5830    -4.3480     0.2950 C.3   1 <1>   0.1200 
 21 N       -7.2850    -8.1720    -0.5010 N.pl3 1 <1>   0.0480 
 22 C       -9.4200    -8.5150    -0.5720 C.2   1 <1>   0.0770 
 23 O      -10.2360    -3.4570     1.3000 O.3   1 <1>  -0.6800 
 24 C       -7.6270    -9.0720    -1.4500 C.2   1 <1>   0.0360 
 25 C       -5.9240    -7.7220    -0.1570 C.3   1 <1>   0.0160 
 26 N       -8.8970    -9.3030    -1.5260 N.2   1 <1>  -0.5650 
 27 H       -3.2770    -2.9690    -1.3250 H     1 <1>   0.1500 
 28 H       -1.7340     0.5970    -3.0380 H     1 <1>   0.1500 
 29 H       -3.3750     1.9340    -1.7460 H     1 <1>   0.1500 
 30 H       -4.9620     0.8070    -0.2620 H     1 <1>   0.1500 
 31 H       -5.0490    -3.8920    -0.0090 H     1 <1>   0.0800 
 32 H       -6.0630    -3.1310    -1.2350 H     1 <1>   0.0800 
 33 H       -7.5590    -1.8450     2.2740 H     1 <1>   0.0800 
 34 H       -6.2160    -2.8860     2.7340 H     1 <1>   0.0800 
 35 H       -7.8320    -2.8430     0.2210 H     1 <1>   0.0800 
 36 H       -9.6040    -6.8420     1.5750 H     1 <1>   0.0800 
 37 H       -7.9330    -7.0570     1.9880 H     1 <1>   0.0800 
 38 H       -9.6120    -5.7520    -0.9960 H     1 <1>   0.0800 
 39 H       -8.8720    -4.2040    -0.9940 H     1 <1>   0.0800 
 40 H      -11.1880    -5.1260     0.7270 H     1 <1>   0.0800 
 41 H      -11.1700    -3.8190    -0.4360 H     1 <1>   0.0800 
 42 H      -10.4820    -8.5000    -0.3930 H     1 <1>   0.1500 
 43 H       -9.7130    -3.9250     1.9810 H     1 <1>   0.4000 
 44 H       -6.8920    -9.5480    -2.0750 H     1 <1>   0.1500 
 45 H       -5.7960    -7.7510     0.9100 H     1 <1>   0.0800 
 46 H       -5.7840    -6.7160    -0.5050 H     1 <1>   0.0800 
 47 H       -5.2000    -8.3670    -0.6200 H     1 <1>   0.0800 
@<TRIPOS>BOND
  1   1   2  1   
  2   2   3  ar  
  3   2   4  ar  
  4   3   5  ar  
  5   3  27  1   
  6   4   6  ar  
  7   4  28  1   
  8   5   7  1   
  9   5   8  ar  
 10   6   8  ar  
 11   6  29  1   
 12   7   9  am  
 13   7  10  1   
 14   8  30  1   
 15   9  11  2   
 16   9  12  1   
 17  10  13  1   
 18  10  31  1   
 19  10  32  1   
 20  12  13  1   
 21  12  33  1   
 22  12  34  1   
 23  13  14  1   
 24  13  35  1   
 25  14  15  2   
 26  14  16  am  
 27  16  17  1   
 28  16  18  1   
 29  17  19  1   
 30  17  36  1   
 31  17  37  1   
 32  18  20  1   
 33  18  38  1   
 34  18  39  1   
 35  19  21  1   
 36  19  22  2   
 37  20  23  1   
 38  20  40  1   
 39  20  41  1   
 40  21  24  1   
 41  21  25  1   
 42  22  26  1   
 43  22  42  1   
 44  23  43  1   
 45  24  26  2   
 46  24  44  1   
 47  25  45  1   
 48  25  46  1   
 49  25  47  1   
@<TRIPOS>SUBSTRUCTURE
  1 ****  10 GROUP 4 **** **** 0

# MOE 2024.06 (io_trps.svl 2023.06)
