@<TRIPOS>MOLECULE
NONAME
48 50 1 0 0 
SMALL
USER_CHARGES


@<TRIPOS>ATOM
  1 O       -0.0640     0.5100     1.4930 O.2   1 <1>  -0.5700 
  2 C       -1.0270     1.1260     1.0730 C.2   1 <1>   0.5440 
  3 N       -2.1220     0.4240     0.6000 N.am  1 <1>  -0.6600 
  4 C       -0.9970     2.5700     1.0990 C.ar  1 <1>   0.0860 
  5 C       -3.3650     1.1250     0.1550 C.3   1 <1>   0.2200 
  6 C       -2.1020    -1.0710     0.5610 C.3   1 <1>   0.0600 
  7 C       -0.8250     3.3750    -0.0420 C.ar  1 <1>   0.0830 
  8 C       -1.2020     3.2150     2.3200 C.ar  1 <1>  -0.1500 
  9 C       -4.6570     0.5640     0.7420 C.3   1 <1>  -0.1600 
 10 C       -3.5790     1.0630    -1.3530 C.3   1 <1>  -0.1600 
 11 O       -0.5720     2.8940    -1.2830 O.3   1 <1>  -0.3620 
 12 C       -0.9210     4.7540     0.0490 C.ar  1 <1>  -0.1500 
 13 C       -1.2800     4.5910     2.4070 C.ar  1 <1>  -0.1500 
 14 C       -5.7520     1.0940    -0.1930 C.3   1 <1>  -0.0800 
 15 C       -5.0640     1.4020    -1.5370 C.3   1 <1>  -0.0800 
 16 C        0.3250     1.8200    -1.4830 C.3   1 <1>   0.0400 
 17 C       -1.1520     5.3720     1.2710 C.ar  1 <1>   0.0830 
 18 C       -6.3770     2.4120     0.2870 C.3   1 <1>  -0.1600 
 19 C       -5.3110     2.8920    -1.8190 C.3   1 <1>  -0.1600 
 20 O       -1.2590     6.7100     1.4320 O.3   1 <1>  -0.3630 
 21 C       -6.5220     3.2510    -0.9730 C.3   1 <1>   0.2000 
 22 C       -1.1160     7.6000     0.3470 C.3   1 <1>   0.0400 
 23 O       -6.5000     4.5900    -0.6560 O.3   1 <1>  -0.6800 
 24 H       -3.3250     2.1640     0.4320 H     1 <1>   0.0800 
 25 H       -2.6520    -1.4390    -0.2850 H     1 <1>   0.0800 
 26 H       -2.5380    -1.4580     1.4650 H     1 <1>   0.0800 
 27 H       -1.0910    -1.4330     0.4870 H     1 <1>   0.0800 
 28 H       -1.3070     2.6170     3.2080 H     1 <1>   0.1500 
 29 H       -4.6660    -0.5090     0.6920 H     1 <1>   0.0800 
 30 H       -4.7990     0.8730     1.7630 H     1 <1>   0.0800 
 31 H       -2.9340     1.7440    -1.8770 H     1 <1>   0.0800 
 32 H       -3.4050     0.0660    -1.7140 H     1 <1>   0.0800 
 33 H       -0.8040     5.3250    -0.8510 H     1 <1>   0.1500 
 34 H       -1.4440     5.0710     3.3560 H     1 <1>   0.1500 
 35 H       -6.5250     0.3560    -0.3320 H     1 <1>   0.0800 
 36 H       -5.4960     0.8060    -2.3230 H     1 <1>   0.0800 
 37 H        0.7390     1.9090    -2.4700 H     1 <1>   0.0800 
 38 H       -0.2120     0.8920    -1.4010 H     1 <1>   0.0800 
 39 H        1.1120     1.8700    -0.7490 H     1 <1>   0.0800 
 40 H       -5.7170     2.9070     0.9780 H     1 <1>   0.0800 
 41 H       -7.3310     2.2460     0.7560 H     1 <1>   0.0800 
 42 H       -5.5000     3.0670    -2.8630 H     1 <1>   0.0800 
 43 H       -4.4630     3.4760    -1.5050 H     1 <1>   0.0800 
 44 H       -7.4400     3.0230    -1.4890 H     1 <1>   0.0800 
 45 H       -1.2330     8.6020     0.7180 H     1 <1>   0.0800 
 46 H       -1.8800     7.3890    -0.3810 H     1 <1>   0.0800 
 47 H       -0.1350     7.4780    -0.0770 H     1 <1>   0.0800 
 48 H       -5.6700     4.8070    -0.1930 H     1 <1>   0.4000 
@<TRIPOS>BOND
  1   1   2  2   
  2   2   3  am  
  3   2   4  1   
  4   3   5  1   
  5   3   6  1   
  6   4   7  ar  
  7   4   8  ar  
  8   5   9  1   
  9   5  10  1   
 10   5  24  1   
 11   6  25  1   
 12   6  26  1   
 13   6  27  1   
 14   7  11  1   
 15   7  12  ar  
 16   8  13  ar  
 17   8  28  1   
 18   9  14  1   
 19   9  29  1   
 20   9  30  1   
 21  10  15  1   
 22  10  31  1   
 23  10  32  1   
 24  11  16  1   
 25  12  17  ar  
 26  12  33  1   
 27  13  17  ar  
 28  13  34  1   
 29  14  15  1   
 30  14  18  1   
 31  14  35  1   
 32  15  19  1   
 33  15  36  1   
 34  16  37  1   
 35  16  38  1   
 36  16  39  1   
 37  17  20  1   
 38  18  21  1   
 39  18  40  1   
 40  18  41  1   
 41  19  21  1   
 42  19  42  1   
 43  19  43  1   
 44  20  22  1   
 45  21  23  1   
 46  21  44  1   
 47  22  45  1   
 48  22  46  1   
 49  22  47  1   
 50  23  48  1   
@<TRIPOS>SUBSTRUCTURE
  1 ****   5 GROUP 4 **** **** 0

# MOE 2024.06 (io_trps.svl 2023.06)
