@<TRIPOS>MOLECULE
NONAME
61 65 1 0 0 
SMALL
USER_CHARGES


@<TRIPOS>ATOM
  1 O        0.5990     0.1770    -0.2210 O.3   1 <1>  -0.5600 
  2 C        0.5370    -1.1920    -0.5280 C.3   1 <1>   0.1200 
  3 C        1.8530     0.7420    -0.4490 C.3   1 <1>   0.1200 
  4 C        1.5710    -1.9930     0.2930 C.3   1 <1>   0.3340 
  5 C        2.9040     0.0470     0.4390 C.3   1 <1>   0.1900 
  6 N        2.9340    -1.4060     0.1620 N.3   1 <1>  -0.8100 
  7 C        1.5770    -3.4510    -0.1560 C.ar  1 <1>  -0.1430 
  8 C        4.3030     0.6580     0.2020 C.3   1 <1>   0.3430 
  9 C        3.9200    -2.1010     1.0130 C.3   1 <1>   0.1100 
 10 C        1.0730    -4.4380     0.6790 C.ar  1 <1>  -0.1500 
 11 C        2.0890    -3.8130    -1.3950 C.ar  1 <1>  -0.1500 
 12 N        5.3870    -0.0310     1.0140 N.4   1 <1>  -0.9590 
 13 C        5.3310    -1.5270     0.7890 C.3   1 <1>   0.3430 
 14 C        1.0830    -5.7640     0.2830 C.ar  1 <1>  -0.1500 
 15 C        2.0990    -5.1380    -1.7930 C.ar  1 <1>  -0.1500 
 16 C        6.7720     0.5050     0.8420 C.3   1 <1>   0.4230 
 17 C        1.5960    -6.1150    -0.9520 C.ar  1 <1>  -0.1500 
 18 C        6.8700     1.9200     1.4180 C.3   1 <1>  -0.1600 
 19 C        7.2380     0.4890    -0.6210 C.3   1 <1>  -0.1600 
 20 C        8.2930     2.4630     1.2800 C.3   1 <1>   0.3430 
 21 C        8.6580     1.0460    -0.7450 C.3   1 <1>   0.3430 
 22 N        8.7160     2.4090    -0.1500 N.4   1 <1>  -0.9590 
 23 C       10.0640     3.0370    -0.3190 C.3   1 <1>   0.5230 
 24 C        9.8650     4.5260    -0.5280 C.2   1 <1>  -0.0400 
 25 O        9.1410     5.2070     0.3420 O.3   1 <1>  -0.2800 
 26 C       10.3090     5.3400    -1.5110 C.2   1 <1>  -0.1500 
 27 C        9.1140     6.4640    -0.0570 C.2   1 <1>  -0.0100 
 28 C        9.8160     6.6130    -1.2000 C.2   1 <1>  -0.1500 
 29 H       -0.4560    -1.5360    -0.3040 H     1 <1>   0.0800 
 30 H        0.7110    -1.3160    -1.5820 H     1 <1>   0.0800 
 31 H        2.0900     0.6370    -1.4940 H     1 <1>   0.0800 
 32 H        1.7790     1.7880    -0.2100 H     1 <1>   0.0800 
 33 H        1.2670    -1.9480     1.3260 H     1 <1>   0.0800 
 34 H        2.6220     0.2150     1.4650 H     1 <1>   0.0800 
 35 H        4.2660     1.7050     0.4490 H     1 <1>   0.0800 
 36 H        4.5240     0.5700    -0.8480 H     1 <1>   0.0800 
 37 H        3.6430    -2.0180     2.0500 H     1 <1>   0.0800 
 38 H        3.9420    -3.1490     0.7620 H     1 <1>   0.0800 
 39 H        0.6660    -4.1850     1.6430 H     1 <1>   0.1500 
 40 H        2.4830    -3.0600    -2.0550 H     1 <1>   0.1500 
 41 H        5.1190     0.0980     2.0000 H     1 <1>   0.4500 
 42 H        5.6200    -1.7570    -0.2230 H     1 <1>   0.0800 
 43 H        6.0180    -2.0280     1.4520 H     1 <1>   0.0800 
 44 H        0.6900    -6.5250     0.9360 H     1 <1>   0.1500 
 45 H        2.4950    -5.4100    -2.7560 H     1 <1>   0.1500 
 46 H        7.4430    -0.1220     1.4090 H     1 <1>   0.0800 
 47 H        1.6030    -7.1460    -1.2600 H     1 <1>   0.1500 
 48 H        6.1990     2.5950     0.9170 H     1 <1>   0.0800 
 49 H        6.6160     1.9070     2.4640 H     1 <1>   0.0800 
 50 H        7.2440    -0.5180    -0.9980 H     1 <1>   0.0800 
 51 H        6.5890     1.0770    -1.2440 H     1 <1>   0.0800 
 52 H        8.9690     1.8790     1.8850 H     1 <1>   0.0800 
 53 H        8.3240     3.4810     1.6390 H     1 <1>   0.0800 
 54 H        8.9400     1.0870    -1.7870 H     1 <1>   0.0800 
 55 H        9.3520     0.3950    -0.2360 H     1 <1>   0.0800 
 56 H        8.1030     3.0500    -0.6790 H     1 <1>   0.4500 
 57 H       10.6780     2.8660     0.5510 H     1 <1>   0.0800 
 58 H       10.5670     2.6310    -1.1820 H     1 <1>   0.0800 
 59 H       10.9170     5.1180    -2.3730 H     1 <1>   0.1500 
 60 H        8.5770     7.1920     0.5270 H     1 <1>   0.1500 
 61 H        9.9840     7.5100    -1.7730 H     1 <1>   0.1500 
@<TRIPOS>BOND
  1   1   2  1   
  2   1   3  1   
  3   2   4  1   
  4   2  29  1   
  5   2  30  1   
  6   3   5  1   
  7   3  31  1   
  8   3  32  1   
  9   4   6  1   
 10   4   7  1   
 11   4  33  1   
 12   5   6  1   
 13   5   8  1   
 14   5  34  1   
 15   6   9  1   
 16   7  10  ar  
 17   7  11  ar  
 18   8  12  1   
 19   8  35  1   
 20   8  36  1   
 21   9  13  1   
 22   9  37  1   
 23   9  38  1   
 24  10  14  ar  
 25  10  39  1   
 26  11  15  ar  
 27  11  40  1   
 28  12  13  1   
 29  12  16  1   
 30  12  41  1   
 31  13  42  1   
 32  13  43  1   
 33  14  17  ar  
 34  14  44  1   
 35  15  17  ar  
 36  15  45  1   
 37  16  18  1   
 38  16  19  1   
 39  16  46  1   
 40  17  47  1   
 41  18  20  1   
 42  18  48  1   
 43  18  49  1   
 44  19  21  1   
 45  19  50  1   
 46  19  51  1   
 47  20  22  1   
 48  20  52  1   
 49  20  53  1   
 50  21  22  1   
 51  21  54  1   
 52  21  55  1   
 53  22  23  1   
 54  22  56  1   
 55  23  24  1   
 56  23  57  1   
 57  23  58  1   
 58  24  25  1   
 59  24  26  2   
 60  25  27  1   
 61  26  28  1   
 62  26  59  1   
 63  27  28  2   
 64  27  60  1   
 65  28  61  1   
@<TRIPOS>SUBSTRUCTURE
  1 ****   8 GROUP 4 **** **** 0

# MOE 2024.06 (io_trps.svl 2023.06)
