@<TRIPOS>MOLECULE
NONAME
21 21 1 0 0 
SMALL
USER_CHARGES


@<TRIPOS>ATOM
  1 O        6.5670     1.6550    -2.1730 O.2   1 <1>  -0.5700 
  2 C        6.0620     1.7180    -1.0580 C.2   1 <1>   0.5690 
  3 N        5.9900     0.6490    -0.2290 N.am  1 <1>  -0.6550 
  4 C        5.4600     3.0430    -0.5480 C.3   1 <1>   0.1710 
  5 C        6.4850    -0.7100    -0.5130 C.3   1 <1>   0.2250 
  6 N        4.3380     2.8710     0.4130 N.3   1 <1>  -0.9900 
  7 C        5.4100    -1.8040    -0.2880 C.3   1 <1>   0.0000 
  8 C        7.2670    -1.3290     0.6740 C.3   1 <1>   0.0000 
  9 C        6.5280    -2.6560     0.3650 C.3   1 <1>   0.0000 
 10 H        5.4950     0.7880     0.6570 H     1 <1>   0.3700 
 11 H        5.1180     3.6150    -1.4120 H     1 <1>   0.0800 
 12 H        6.2600     3.5980    -0.0570 H     1 <1>   0.0800 
 13 H        6.9970    -0.8020    -1.4550 H     1 <1>   0.0000 
 14 H        3.5730     2.4100    -0.0660 H     1 <1>   0.3600 
 15 H        4.0250     3.7840     0.7200 H     1 <1>   0.3600 
 16 H        5.0260    -2.2330    -1.1970 H     1 <1>   0.0000 
 17 H        4.6480    -1.5200     0.4190 H     1 <1>   0.0000 
 18 H        6.9910    -0.9210     1.6310 H     1 <1>   0.0000 
 19 H        8.3290    -1.3880     0.5130 H     1 <1>   0.0000 
 20 H        7.0540    -3.2670    -0.3490 H     1 <1>   0.0000 
 21 H        6.2110    -3.1930     1.2420 H     1 <1>   0.0000 
@<TRIPOS>BOND
  1   1   2  2   
  2   2   3  am  
  3   2   4  1   
  4   3   5  1   
  5   3  10  1   
  6   4   6  1   
  7   4  11  1   
  8   4  12  1   
  9   5   7  1   
 10   5   8  1   
 11   5  13  1   
 12   6  14  1   
 13   6  15  1   
 14   7   9  1   
 15   7  16  1   
 16   7  17  1   
 17   8   9  1   
 18   8  18  1   
 19   8  19  1   
 20   9  20  1   
 21   9  21  1   
@<TRIPOS>SUBSTRUCTURE
  1 ****   3 GROUP 4 **** **** 0

# MOE 2024.06 (io_trps.svl 2023.06)
