@<TRIPOS>MOLECULE
NONAME
42 43 1 0 0 
SMALL
USER_CHARGES


@<TRIPOS>ATOM
  1 F       -1.7610    -0.3870     2.4420 F     1 <1>  -0.3400 
  2 C       -2.2860    -1.4260     1.8030 C.3   1 <1>   1.1640 
  3 F       -1.3000    -2.3000     1.6720 F     1 <1>  -0.3400 
  4 F       -3.1600    -1.9530     2.6490 F     1 <1>  -0.3400 
  5 C       -2.9240    -1.0280     0.4600 C.ar  1 <1>  -0.1440 
  6 C       -3.6230    -1.9840    -0.2890 C.ar  1 <1>   0.0860 
  7 C       -2.8120     0.2730    -0.0270 C.ar  1 <1>  -0.1500 
  8 C       -3.7940    -3.3610     0.1300 C.2   1 <1>   0.5440 
  9 C       -4.1650    -1.5940    -1.5100 C.ar  1 <1>  -0.1500 
 10 C       -3.3670     0.6550    -1.2440 C.ar  1 <1>  -0.1440 
 11 O       -2.9000    -4.1500    -0.1020 O.2   1 <1>  -0.5700 
 12 N       -4.9270    -3.7930     0.7800 N.am  1 <1>  -0.6600 
 13 C       -4.0490    -0.3030    -1.9820 C.ar  1 <1>  -0.1500 
 14 C       -3.2320     2.1030    -1.7480 C.3   1 <1>   1.1640 
 15 C       -5.1390    -5.2500     1.0510 C.3   1 <1>   0.3210 
 16 C       -6.0370    -2.8960     1.2460 C.3   1 <1>   0.1400 
 17 F       -2.0320     2.6140    -1.5010 F     1 <1>  -0.3400 
 18 F       -4.1080     2.9080    -1.1630 F     1 <1>  -0.3400 
 19 F       -3.4250     2.2240    -3.0560 F     1 <1>  -0.3400 
 20 C       -6.1890    -5.8200     0.1040 C.2   1 <1>   0.0460 
 21 C       -6.9060    -2.2820     0.1290 C.3   1 <1>   0.1200 
 22 N       -7.5080    -5.7020     0.3730 N.2   1 <1>  -0.5650 
 23 C       -5.9970    -6.4590    -1.0740 C.2   1 <1>  -0.3320 
 24 O       -7.0400    -3.1350    -0.9560 O.3   1 <1>  -0.6800 
 25 C       -8.0840    -6.2750    -0.6340 C.2   1 <1>   0.0360 
 26 N       -7.2190    -6.7560    -1.5500 N.pl3 1 <1>   0.0330 
 27 C       -4.7150    -6.8020    -1.8140 C.3   1 <1>  -0.0600 
 28 H       -2.2770     1.0160     0.5460 H     1 <1>   0.1500 
 29 H       -4.6980    -2.3280    -2.0950 H     1 <1>   0.1500 
 30 H       -4.4970    -0.0550    -2.9310 H     1 <1>   0.1500 
 31 H       -5.4620    -5.3880     2.0670 H     1 <1>   0.0800 
 32 H       -4.2220    -5.7980     0.9310 H     1 <1>   0.0800 
 33 H       -5.6260    -2.1000     1.8410 H     1 <1>   0.0800 
 34 H       -6.6870    -3.4560     1.8960 H     1 <1>   0.0800 
 35 H       -6.4820    -1.3600    -0.2250 H     1 <1>   0.0800 
 36 H       -7.8910    -2.0740     0.5090 H     1 <1>   0.0800 
 37 H       -7.1060    -4.0680    -0.6220 H     1 <1>   0.4000 
 38 H       -9.1500    -6.3680    -0.7510 H     1 <1>   0.1500 
 39 H       -7.4490    -7.2340    -2.4260 H     1 <1>   0.2700 
 40 H       -3.8560    -6.4450    -1.2750 H     1 <1>   0.0800 
 41 H       -4.7150    -6.3410    -2.7850 H     1 <1>   0.0800 
 42 H       -4.6250    -7.8670    -1.9310 H     1 <1>   0.0800 
@<TRIPOS>BOND
  1   1   2  1   
  2   2   3  1   
  3   2   4  1   
  4   2   5  1   
  5   5   6  ar  
  6   5   7  ar  
  7   6   8  1   
  8   6   9  ar  
  9   7  10  ar  
 10   7  28  1   
 11   8  11  2   
 12   8  12  am  
 13   9  13  ar  
 14   9  29  1   
 15  10  13  ar  
 16  10  14  1   
 17  12  15  1   
 18  12  16  1   
 19  13  30  1   
 20  14  17  1   
 21  14  18  1   
 22  14  19  1   
 23  15  20  1   
 24  15  31  1   
 25  15  32  1   
 26  16  21  1   
 27  16  33  1   
 28  16  34  1   
 29  20  22  1   
 30  20  23  2   
 31  21  24  1   
 32  21  35  1   
 33  21  36  1   
 34  22  25  2   
 35  23  26  1   
 36  23  27  1   
 37  24  37  1   
 38  25  26  1   
 39  25  38  1   
 40  26  39  1   
 41  27  40  1   
 42  27  41  1   
 43  27  42  1   
@<TRIPOS>SUBSTRUCTURE
  1 ****   6 GROUP 4 **** **** 0

# MOE 2024.06 (io_trps.svl 2023.06)
