@<TRIPOS>MOLECULE
NONAME
38 40 1 0 0 
SMALL
USER_CHARGES


@<TRIPOS>ATOM
  1 CL       0.1360     0.7970    -0.8810 Cl    1 <1>  -0.1770 
  2 C        1.6590     1.5830    -0.5360 C.ar  1 <1>   0.1770 
  3 C        2.0090     2.7430    -1.2090 C.ar  1 <1>   0.1600 
  4 C        2.5020     1.0380     0.4080 C.ar  1 <1>  -0.1500 
  5 N        3.1420     3.4150    -1.0200 N.ar  1 <1>  -0.6200 
  6 C        3.6700     1.7330     0.6030 C.ar  1 <1>   0.1900 
  7 C        3.9700     2.9070    -0.1090 C.ar  1 <1>   0.4100 
  8 F        4.5260     1.2720     1.4850 F     1 <1>  -0.1900 
  9 N        5.1430     3.6010     0.1100 N.pl3 1 <1>  -0.8690 
 10 C        5.7390     4.4720    -0.9290 C.3   1 <1>   0.3890 
 11 C        6.8620     5.2860    -0.3130 C.2   1 <1>   0.0070 
 12 N        8.0930     4.8950    -0.3290 N.2   1 <1>  -0.3380 
 13 N        6.7280     6.4690     0.3100 N.pl3 1 <1>   0.0480 
 14 N        8.8110     5.8260     0.2940 N.2   1 <1>  -0.3380 
 15 C        7.9870     6.7430     0.6620 C.2   1 <1>   0.0370 
 16 C        5.5730     7.3700     0.5780 C.3   1 <1>   0.1760 
 17 C        4.4210     6.6690     1.3160 C.3   1 <1>  -0.1600 
 18 C        5.0830     8.0470    -0.7140 C.3   1 <1>  -0.1600 
 19 C        3.2920     7.6620     1.6240 C.3   1 <1>  -0.1600 
 20 C        3.9400     9.0300    -0.4160 C.3   1 <1>  -0.1600 
 21 C        2.7940     8.3410     0.3400 C.3   1 <1>  -0.1600 
 22 H        1.3210     3.1340    -1.9390 H     1 <1>   0.1500 
 23 H        2.2630     0.1410     0.9470 H     1 <1>   0.1500 
 24 H        5.8610     3.1060     0.6490 H     1 <1>   0.4000 
 25 H        4.9940     5.1190    -1.3520 H     1 <1>   0.0800 
 26 H        6.1370     3.8570    -1.7170 H     1 <1>   0.0800 
 27 H        8.2690     7.6340     1.1920 H     1 <1>   0.1500 
 28 H        5.9330     8.1490     1.2280 H     1 <1>   0.0800 
 29 H        4.7820     6.2370     2.2330 H     1 <1>   0.0800 
 30 H        4.0100     5.8850     0.7090 H     1 <1>   0.0800 
 31 H        4.7270     7.3080    -1.4070 H     1 <1>   0.0800 
 32 H        5.8960     8.5810    -1.1750 H     1 <1>   0.0800 
 33 H        3.6440     8.4100     2.3140 H     1 <1>   0.0800 
 34 H        2.4740     7.1410     2.0940 H     1 <1>   0.0800 
 35 H        3.5660     9.4390    -1.3390 H     1 <1>   0.0800 
 36 H        4.3140     9.8480     0.1770 H     1 <1>   0.0800 
 37 H        2.0380     9.0670     0.5870 H     1 <1>   0.0800 
 38 H        2.3410     7.6020    -0.2980 H     1 <1>   0.0800 
@<TRIPOS>BOND
  1   1   2  1   
  2   2   3  ar  
  3   2   4  ar  
  4   3   5  ar  
  5   3  22  1   
  6   4   6  ar  
  7   4  23  1   
  8   5   7  ar  
  9   6   7  ar  
 10   6   8  1   
 11   7   9  1   
 12   9  10  1   
 13   9  24  1   
 14  10  11  1   
 15  10  25  1   
 16  10  26  1   
 17  11  12  2   
 18  11  13  1   
 19  12  14  1   
 20  13  15  1   
 21  13  16  1   
 22  14  15  2   
 23  15  27  1   
 24  16  17  1   
 25  16  18  1   
 26  16  28  1   
 27  17  19  1   
 28  17  29  1   
 29  17  30  1   
 30  18  20  1   
 31  18  31  1   
 32  18  32  1   
 33  19  21  1   
 34  19  33  1   
 35  19  34  1   
 36  20  21  1   
 37  20  35  1   
 38  20  36  1   
 39  21  37  1   
 40  21  38  1   
@<TRIPOS>SUBSTRUCTURE
  1 ****   9 GROUP 4 **** **** 0

# MOE 2024.06 (io_trps.svl 2023.06)
