@<TRIPOS>MOLECULE
NONAME
45 48 1 0 0 
SMALL
USER_CHARGES


@<TRIPOS>ATOM
  1 S        0.0700    -0.6410     0.0890 S.3   1 <1>  -0.0800 
  2 C       -1.6460    -0.4720    -0.3220 C.2   1 <1>   0.4620 
  3 C        0.1880     1.0890     0.3020 C.ar  1 <1>   0.0400 
  4 N       -2.0640     0.7420    -0.3010 N.2   1 <1>  -0.5650 
  5 N       -2.3870    -1.5930    -0.6320 N.pl3 1 <1>  -0.8220 
  6 C       -1.0580     1.6280     0.0460 C.ar  1 <1>   0.2270 
  7 C        1.2920     1.8400     0.6590 C.ar  1 <1>  -0.1500 
  8 C       -3.7740    -1.4120    -1.1680 C.3   1 <1>   0.2090 
  9 C       -1.8940    -2.9840    -0.4250 C.3   1 <1>   0.2090 
 10 C       -1.2050     3.0050     0.1550 C.ar  1 <1>  -0.1500 
 11 C        1.1260     3.2110     0.7630 C.ar  1 <1>  -0.1500 
 12 C       -4.8110    -1.3740    -0.0350 C.3   1 <1>   0.2090 
 13 C       -2.9680    -3.9620     0.0690 C.3   1 <1>  -0.1600 
 14 C       -0.1170     3.7890     0.5110 C.ar  1 <1>  -0.1500 
 15 N       -5.0720    -2.7260     0.5540 N.pl3 1 <1>  -0.8210 
 16 C       -3.8880    -3.3950     1.1580 C.3   1 <1>   0.2090 
 17 C       -6.0700    -3.5170    -0.0200 C.2   1 <1>   0.5990 
 18 N       -6.8620    -3.1550    -0.9550 N.2   1 <1>  -0.4100 
 19 N       -6.2710    -4.7670     0.3810 N.2   1 <1>  -0.5650 
 20 O       -7.6420    -4.1710    -1.2100 O.3   1 <1>  -0.0190 
 21 C       -7.2350    -5.0940    -0.3750 C.2   1 <1>   0.2980 
 22 C       -7.9300    -6.4430    -0.3830 C.3   1 <1>   0.0200 
 23 C       -9.3790    -6.3360     0.1150 C.3   1 <1>  -0.1600 
 24 C      -10.0770    -7.7010     0.1220 C.3   1 <1>  -0.2400 
 25 H        2.2400     1.3690     0.8470 H     1 <1>   0.1500 
 26 H       -4.0180    -2.1950    -1.8630 H     1 <1>   0.0800 
 27 H       -3.8240    -0.4810    -1.7050 H     1 <1>   0.0800 
 28 H       -1.1070    -2.9780     0.3080 H     1 <1>   0.0800 
 29 H       -1.4770    -3.3480    -1.3490 H     1 <1>   0.0800 
 30 H       -2.1670     3.4420    -0.0400 H     1 <1>   0.1500 
 31 H        1.9590     3.8350     1.0380 H     1 <1>   0.1500 
 32 H       -5.7290    -0.9660    -0.4180 H     1 <1>   0.0800 
 33 H       -4.4670    -0.7070     0.7360 H     1 <1>   0.0800 
 34 H       -2.4570    -4.8140     0.4770 H     1 <1>   0.0800 
 35 H       -3.5490    -4.3230    -0.7600 H     1 <1>   0.0800 
 36 H       -0.2330     4.8560     0.5950 H     1 <1>   0.1500 
 37 H       -3.3520    -2.6960     1.7780 H     1 <1>   0.0800 
 38 H       -4.2280    -4.1950     1.7930 H     1 <1>   0.0800 
 39 H       -7.3810    -7.1170     0.2510 H     1 <1>   0.0800 
 40 H       -7.9120    -6.8350    -1.3830 H     1 <1>   0.0800 
 41 H       -9.9280    -5.6590    -0.5190 H     1 <1>   0.0800 
 42 H       -9.3810    -5.9290     1.1120 H     1 <1>   0.0800 
 43 H      -10.1060    -8.1160    -0.8710 H     1 <1>   0.0800 
 44 H      -11.0870    -7.5940     0.4760 H     1 <1>   0.0800 
 45 H       -9.5600    -8.3860     0.7710 H     1 <1>   0.0800 
@<TRIPOS>BOND
  1   1   2  1   
  2   1   3  1   
  3   2   4  2   
  4   2   5  1   
  5   3   6  ar  
  6   3   7  ar  
  7   4   6  1   
  8   5   8  1   
  9   5   9  1   
 10   6  10  ar  
 11   7  11  ar  
 12   7  25  1   
 13   8  12  1   
 14   8  26  1   
 15   8  27  1   
 16   9  13  1   
 17   9  28  1   
 18   9  29  1   
 19  10  14  ar  
 20  10  30  1   
 21  11  14  ar  
 22  11  31  1   
 23  12  15  1   
 24  12  32  1   
 25  12  33  1   
 26  13  16  1   
 27  13  34  1   
 28  13  35  1   
 29  14  36  1   
 30  15  16  1   
 31  15  17  1   
 32  16  37  1   
 33  16  38  1   
 34  17  18  2   
 35  17  19  1   
 36  18  20  1   
 37  19  21  2   
 38  20  21  1   
 39  21  22  1   
 40  22  23  1   
 41  22  39  1   
 42  22  40  1   
 43  23  24  1   
 44  23  41  1   
 45  23  42  1   
 46  24  43  1   
 47  24  44  1   
 48  24  45  1   
@<TRIPOS>SUBSTRUCTURE
  1 ****  12 GROUP 4 **** **** 0

# MOE 2024.06 (io_trps.svl 2023.06)
