@<TRIPOS>MOLECULE
NONAME
32 32 1 0 0 
SMALL
USER_CHARGES


@<TRIPOS>ATOM
  1 O        0.2980    -0.0760     2.7630 O.2   1 <1>  -0.5700 
  2 C        0.7930    -0.5590     1.7750 C.2   1 <1>   0.5690 
  3 N        1.6170     0.1130     0.9200 N.am  1 <1>  -0.4940 
  4 C        0.4960    -2.0190     1.4510 C.3   1 <1>   0.1810 
  5 C        2.0970     1.4250     0.9590 C.2   1 <1>   0.2040 
  6 O        0.9180    -2.3540     0.1470 O.3   1 <1>  -0.5600 
  7 O        1.7960     2.2540     1.9300 O.3   1 <1>  -0.0190 
  8 C        2.9050     2.0770     0.1000 C.2   1 <1>  -0.1810 
  9 C        0.8100    -3.7270    -0.1480 C.3   1 <1>   0.1810 
 10 N        2.3630     3.4220     1.7640 N.2   1 <1>  -0.4100 
 11 C        3.0350     3.3410     0.6730 C.2   1 <1>   0.1080 
 12 C        3.5370     1.5770    -1.1880 C.3   1 <1>   0.0210 
 13 C        1.1940    -4.0300    -1.5970 C.2   1 <1>   0.5690 
 14 C        3.8470     4.4890     0.1130 C.3   1 <1>  -0.0590 
 15 C        4.9510     1.0550    -0.9260 C.3   1 <1>  -0.2400 
 16 O        1.6760    -5.0980    -1.8720 O.2   1 <1>  -0.5700 
 17 N        0.9830    -3.1140    -2.5630 N.am  1 <1>  -0.8000 
 18 H        1.9230    -0.4580     0.1310 H     1 <1>   0.3700 
 19 H       -0.5630    -2.1910     1.5270 H     1 <1>   0.0800 
 20 H        1.0140    -2.6420     2.1590 H     1 <1>   0.0800 
 21 H       -0.2050    -4.0400     0.0150 H     1 <1>   0.0800 
 22 H        1.4650    -4.2730     0.5090 H     1 <1>   0.0800 
 23 H        3.5680     2.3740    -1.9110 H     1 <1>   0.0800 
 24 H        2.9370     0.7850    -1.6000 H     1 <1>   0.0800 
 25 H        4.8780     4.2040     0.0320 H     1 <1>   0.0800 
 26 H        3.7740     5.3410     0.7660 H     1 <1>   0.0800 
 27 H        3.4730     4.7630    -0.8560 H     1 <1>   0.0800 
 28 H        5.5730     1.8390    -0.5320 H     1 <1>   0.0800 
 29 H        5.3890     0.6950    -1.8400 H     1 <1>   0.0800 
 30 H        4.9240     0.2500    -0.2140 H     1 <1>   0.0800 
 31 H        1.2370    -3.3220    -3.5290 H     1 <1>   0.3700 
 32 H        0.5990    -2.1910    -2.3630 H     1 <1>   0.3700 
@<TRIPOS>BOND
  1   1   2  2   
  2   2   3  am  
  3   2   4  1   
  4   3   5  1   
  5   3  18  1   
  6   4   6  1   
  7   4  19  1   
  8   4  20  1   
  9   5   7  1   
 10   5   8  2   
 11   6   9  1   
 12   7  10  1   
 13   8  11  1   
 14   8  12  1   
 15   9  13  1   
 16   9  21  1   
 17   9  22  1   
 18  10  11  2   
 19  11  14  1   
 20  12  15  1   
 21  12  23  1   
 22  12  24  1   
 23  13  16  2   
 24  13  17  am  
 25  14  25  1   
 26  14  26  1   
 27  14  27  1   
 28  15  28  1   
 29  15  29  1   
 30  15  30  1   
 31  17  31  1   
 32  17  32  1   
@<TRIPOS>SUBSTRUCTURE
  1 ****   3 GROUP 4 **** **** 0

# MOE 2024.06 (io_trps.svl 2023.06)
