@<TRIPOS>MOLECULE
NONAME
48 50 1 0 0 
SMALL
USER_CHARGES


@<TRIPOS>ATOM
  1 O       -0.2370     0.7630    -2.0240 O.2   1 <1>  -0.5700 
  2 C        0.6610     0.0460    -1.6550 C.2   1 <1>   0.5690 
  3 N        1.7360     0.4720    -0.9260 N.am  1 <1>  -0.4940 
  4 C        0.6000    -1.4250    -1.9990 C.3   1 <1>  -0.0990 
  5 C        2.0380     1.7650    -0.4300 C.2   1 <1>  -0.0880 
  6 C        0.0170    -2.2320    -0.8340 C.3   1 <1>   0.0210 
  7 N        3.1150     2.0870     0.3440 N.pl3 1 <1>   0.3140 
  8 C        1.3470     2.9150    -0.6080 C.2   1 <1>  -0.1500 
  9 C        0.1210    -3.7310    -1.0590 C.2   1 <1>  -0.1810 
 10 N        3.1170     3.4050     0.6550 N.2   1 <1>  -0.7070 
 11 C        4.2100     1.2060     0.8460 C.3   1 <1>   0.1760 
 12 C        2.0610     3.8840     0.0820 C.2   1 <1>   0.1080 
 13 C       -0.1690    -4.6820    -0.0530 C.ar  1 <1>   0.0000 
 14 C        0.4830    -4.4150    -2.1720 C.2   1 <1>  -0.3020 
 15 C        5.0530     0.6640    -0.3270 C.3   1 <1>  -0.1600 
 16 C        3.6540     0.0980     1.7590 C.3   1 <1>  -0.2400 
 17 C        1.6800     5.3430     0.1770 C.3   1 <1>  -0.0590 
 18 C        0.0440    -5.9340    -0.6190 C.ar  1 <1>  -0.1520 
 19 C       -0.5910    -4.5930     1.2780 C.ar  1 <1>  -0.1500 
 20 N        0.4410    -5.7570    -1.9190 N.pl3 1 <1>   0.0330 
 21 C        6.3230    -0.0700     0.1250 C.3   1 <1>  -0.2400 
 22 C       -0.1510    -7.1030     0.1210 C.ar  1 <1>  -0.1500 
 23 C       -0.7840    -5.7430     2.0080 C.ar  1 <1>  -0.1500 
 24 C       -0.5630    -6.9990     1.4300 C.ar  1 <1>  -0.1500 
 25 H        2.4090    -0.2540    -0.6910 H     1 <1>   0.3700 
 26 H        1.5880    -1.7740    -2.2320 H     1 <1>   0.0800 
 27 H       -0.0160    -1.5560    -2.8700 H     1 <1>   0.0800 
 28 H       -1.0170    -1.9670    -0.6940 H     1 <1>   0.0800 
 29 H        0.5450    -1.9900     0.0720 H     1 <1>   0.0800 
 30 H        0.4390     3.0650    -1.1620 H     1 <1>   0.1500 
 31 H        4.8460     1.8330     1.4460 H     1 <1>   0.0800 
 32 H        0.7690    -4.0370    -3.1380 H     1 <1>   0.1500 
 33 H        5.3500     1.4990    -0.9410 H     1 <1>   0.0800 
 34 H        4.4670     0.0000    -0.9350 H     1 <1>   0.0800 
 35 H        3.1060    -0.6370     1.2010 H     1 <1>   0.0800 
 36 H        3.0080     0.5320     2.5030 H     1 <1>   0.0800 
 37 H        4.4580    -0.3970     2.2730 H     1 <1>   0.0800 
 38 H        0.7720     5.5290    -0.3650 H     1 <1>   0.0800 
 39 H        2.4680     5.9450    -0.2340 H     1 <1>   0.0800 
 40 H        1.5380     5.6090     1.2080 H     1 <1>   0.0800 
 41 H       -0.7610    -3.6250     1.7130 H     1 <1>   0.1500 
 42 H        0.6580    -6.5110    -2.5770 H     1 <1>   0.2700 
 43 H        6.9200     0.5640     0.7580 H     1 <1>   0.0800 
 44 H        6.9140    -0.3400    -0.7330 H     1 <1>   0.0800 
 45 H        6.0820    -0.9710     0.6620 H     1 <1>   0.0800 
 46 H        0.0190    -8.0630    -0.3320 H     1 <1>   0.1500 
 47 H       -1.1080    -5.6890     3.0320 H     1 <1>   0.1500 
 48 H       -0.7210    -7.8840     2.0220 H     1 <1>   0.1500 
@<TRIPOS>BOND
  1   1   2  2   
  2   2   3  am  
  3   2   4  1   
  4   3   5  1   
  5   3  25  1   
  6   4   6  1   
  7   4  26  1   
  8   4  27  1   
  9   5   7  1   
 10   5   8  2   
 11   6   9  1   
 12   6  28  1   
 13   6  29  1   
 14   7  10  1   
 15   7  11  1   
 16   8  12  1   
 17   8  30  1   
 18   9  13  1   
 19   9  14  2   
 20  10  12  2   
 21  11  15  1   
 22  11  16  1   
 23  11  31  1   
 24  12  17  1   
 25  13  18  ar  
 26  13  19  ar  
 27  14  20  1   
 28  14  32  1   
 29  15  21  1   
 30  15  33  1   
 31  15  34  1   
 32  16  35  1   
 33  16  36  1   
 34  16  37  1   
 35  17  38  1   
 36  17  39  1   
 37  17  40  1   
 38  18  20  1   
 39  18  22  ar  
 40  19  23  ar  
 41  19  41  1   
 42  20  42  1   
 43  21  43  1   
 44  21  44  1   
 45  21  45  1   
 46  22  24  ar  
 47  22  46  1   
 48  23  24  ar  
 49  23  47  1   
 50  24  48  1   
@<TRIPOS>SUBSTRUCTURE
  1 ****   6 GROUP 4 **** **** 0

# MOE 2024.06 (io_trps.svl 2023.06)
