@<TRIPOS>MOLECULE
NONAME
47 48 1 0 0 
SMALL
USER_CHARGES


@<TRIPOS>ATOM
  1 O       -1.2290    -0.8040    -2.3400 O.co2 1 <1>  -0.9000 
  2 C       -2.0800    -1.0980    -1.4810 C.2   1 <1>   0.9790 
  3 O       -2.2100    -2.2820    -1.1310 O.co2 1 <1>  -0.9000 
  4 C       -2.8890    -0.0480    -0.8810 C.ar  1 <1>  -0.1790 
  5 C       -2.8390     1.2540    -1.3750 C.ar  1 <1>  -0.1500 
  6 C       -3.7250    -0.2820     0.2110 C.ar  1 <1>  -0.1500 
  7 C       -3.5520     2.2810    -0.7900 C.ar  1 <1>  -0.1430 
  8 C       -4.4540     0.7340     0.8010 C.ar  1 <1>  -0.1500 
  9 C       -4.3620     2.0340     0.3100 C.ar  1 <1>   0.0830 
 10 C       -3.4110     3.6800    -1.3330 C.3   1 <1>   0.4870 
 11 O       -5.0130     3.0920     0.8580 O.3   1 <1>  -0.3620 
 12 N       -2.5750     4.4440    -0.3720 N.4   1 <1>  -0.9590 
 13 C       -5.9800     2.9020     1.8700 C.3   1 <1>   0.0400 
 14 C       -2.6290     5.9000    -0.6580 C.3   1 <1>   0.3430 
 15 C       -1.1790     3.8960    -0.3340 C.3   1 <1>   0.2630 
 16 C       -2.1110     6.7060     0.5320 C.3   1 <1>  -0.1600 
 17 C       -2.2020     8.2020     0.2300 C.3   1 <1>   0.2000 
 18 O       -1.6170     8.4020    -1.0190 O.3   1 <1>  -0.5600 
 19 C       -1.4710     9.0480     1.2840 C.3   1 <1>  -0.1600 
 20 C       -1.6840     9.7140    -1.5010 C.3   1 <1>   0.1200 
 21 C       -1.4470    10.5260     0.8770 C.3   1 <1>  -0.1600 
 22 C       -0.9220    10.6510    -0.5570 C.3   1 <1>  -0.1600 
 23 H       -2.2090     1.4360    -2.2320 H     1 <1>   0.1500 
 24 H       -3.7880    -1.2890     0.5950 H     1 <1>   0.1500 
 25 H       -5.0750     0.4890     1.6410 H     1 <1>   0.1500 
 26 H       -4.3890     4.1250    -1.4150 H     1 <1>   0.0800 
 27 H       -2.9500     3.6600    -2.3070 H     1 <1>   0.0800 
 28 H       -3.0270     4.2510     0.5370 H     1 <1>   0.4500 
 29 H       -6.4160     3.8560     2.1070 H     1 <1>   0.0800 
 30 H       -5.5010     2.4920     2.7420 H     1 <1>   0.0800 
 31 H       -6.7420     2.2340     1.5050 H     1 <1>   0.0800 
 32 H       -3.6460     6.1950    -0.8580 H     1 <1>   0.0800 
 33 H       -2.0370     6.1270    -1.5310 H     1 <1>   0.0800 
 34 H       -0.6990     4.0260    -1.2900 H     1 <1>   0.0800 
 35 H       -1.1940     2.8430    -0.1000 H     1 <1>   0.0800 
 36 H       -0.5950     4.4000     0.4180 H     1 <1>   0.0800 
 37 H       -1.0830     6.4620     0.7280 H     1 <1>   0.0800 
 38 H       -2.6940     6.4920     1.4100 H     1 <1>   0.0800 
 39 H       -3.2350     8.5030     0.1640 H     1 <1>   0.0800 
 40 H       -0.4610     8.6930     1.3900 H     1 <1>   0.0800 
 41 H       -1.9590     8.9460     2.2370 H     1 <1>   0.0800 
 42 H       -2.7190    10.0010    -1.5800 H     1 <1>   0.0800 
 43 H       -1.2420     9.7290    -2.4820 H     1 <1>   0.0800 
 44 H       -0.8210    11.0870     1.5510 H     1 <1>   0.0800 
 45 H       -2.4430    10.9300     0.9300 H     1 <1>   0.0800 
 46 H       -1.0260    11.6670    -0.8960 H     1 <1>   0.0800 
 47 H        0.1240    10.4000    -0.5890 H     1 <1>   0.0800 
@<TRIPOS>BOND
  1   1   2  ar  
  2   2   3  ar  
  3   2   4  1   
  4   4   5  ar  
  5   4   6  ar  
  6   5   7  ar  
  7   5  23  1   
  8   6   8  ar  
  9   6  24  1   
 10   7   9  ar  
 11   7  10  1   
 12   8   9  ar  
 13   8  25  1   
 14   9  11  1   
 15  10  12  1   
 16  10  26  1   
 17  10  27  1   
 18  11  13  1   
 19  12  14  1   
 20  12  15  1   
 21  12  28  1   
 22  13  29  1   
 23  13  30  1   
 24  13  31  1   
 25  14  16  1   
 26  14  32  1   
 27  14  33  1   
 28  15  34  1   
 29  15  35  1   
 30  15  36  1   
 31  16  17  1   
 32  16  37  1   
 33  16  38  1   
 34  17  18  1   
 35  17  19  1   
 36  17  39  1   
 37  18  20  1   
 38  19  21  1   
 39  19  40  1   
 40  19  41  1   
 41  20  22  1   
 42  20  42  1   
 43  20  43  1   
 44  21  22  1   
 45  21  44  1   
 46  21  45  1   
 47  22  46  1   
 48  22  47  1   
@<TRIPOS>SUBSTRUCTURE
  1 ****  12 GROUP 4 **** **** 0

# MOE 2024.06 (io_trps.svl 2023.06)
