@<TRIPOS>MOLECULE
NONAME
45 47 1 0 0 
SMALL
USER_CHARGES


@<TRIPOS>ATOM
  1 O        4.2860    -1.6500    -1.6270 O.2   1 <1>  -0.5700 
  2 C        3.2930    -1.5380    -0.9310 C.2   1 <1>   0.5440 
  3 N        3.0700    -0.2910    -0.4050 N.am  1 <1>  -0.6600 
  4 C        2.4410    -2.6720    -0.6130 C.ar  1 <1>   0.0860 
  5 C        3.5920    -0.0400     0.9850 C.3   1 <1>   0.2200 
  6 C        2.9410     0.8590    -1.3540 C.3   1 <1>   0.1400 
  7 C        1.1620    -2.5000    -0.0720 C.ar  1 <1>  -0.1500 
  8 C        2.8790    -3.9800    -0.8350 C.ar  1 <1>  -0.1500 
  9 C        2.9050     1.1470     1.6790 C.3   1 <1>   0.1200 
 10 C        5.1340     0.1380     0.9860 C.3   1 <1>   0.3430 
 11 C        3.8090     2.0880    -1.0210 C.3   1 <1>  -0.0800 
 12 C        0.3570    -3.5870     0.2490 C.ar  1 <1>   0.0820 
 13 C        2.0910    -5.0710    -0.5200 C.ar  1 <1>  -0.1500 
 14 O        3.5570     2.3420     1.3700 O.3   1 <1>  -0.5600 
 15 N        5.6910     0.4660    -0.3730 N.4   1 <1>  -0.9590 
 16 C        3.2350     2.9090     0.1450 C.3   1 <1>   0.1200 
 17 C        5.3230     1.8290    -0.8690 C.3   1 <1>   0.3430 
 18 O       -0.8950    -3.4730     0.7770 O.3   1 <1>  -0.3630 
 19 C        0.8370    -4.8730     0.0230 C.ar  1 <1>   0.0830 
 20 C        7.1590     0.2300    -0.4390 C.3   1 <1>   0.2630 
 21 C       -1.5380    -2.2200     0.8810 C.3   1 <1>   0.0400 
 22 O        0.0730    -5.9300     0.3330 O.3   1 <1>  -0.5330 
 23 H        3.3640    -0.9080     1.5790 H     1 <1>   0.0800 
 24 H        3.1930     0.5220    -2.3470 H     1 <1>   0.0800 
 25 H        1.9070     1.1560    -1.3840 H     1 <1>   0.0800 
 26 H        0.8080    -1.5020     0.0910 H     1 <1>   0.1500 
 27 H        3.8530    -4.1460    -1.2640 H     1 <1>   0.1500 
 28 H        2.9850     1.0260     2.7450 H     1 <1>   0.0800 
 29 H        1.8610     1.2140     1.4250 H     1 <1>   0.0800 
 30 H        5.5680    -0.7870     1.3250 H     1 <1>   0.0800 
 31 H        5.4100     0.9020     1.6950 H     1 <1>   0.0800 
 32 H        3.7130     2.7400    -1.8710 H     1 <1>   0.0800 
 33 H        2.4380    -6.0750    -0.6930 H     1 <1>   0.1500 
 34 H        5.2220    -0.2210    -1.0090 H     1 <1>   0.4500 
 35 H        2.1640     3.0120     0.0750 H     1 <1>   0.0800 
 36 H        3.6630     3.8970     0.1400 H     1 <1>   0.0800 
 37 H        5.7400     2.5750    -0.2120 H     1 <1>   0.0800 
 38 H        5.7760     1.9630    -1.8380 H     1 <1>   0.0800 
 39 H        7.6780     0.9020     0.2250 H     1 <1>   0.0800 
 40 H        7.5170     0.3890    -1.4440 H     1 <1>   0.0800 
 41 H        7.3850    -0.7850    -0.1550 H     1 <1>   0.0800 
 42 H       -2.5320    -2.3850     1.2570 H     1 <1>   0.0800 
 43 H       -1.5890    -1.7700    -0.0950 H     1 <1>   0.0800 
 44 H       -0.9890    -1.6000     1.5670 H     1 <1>   0.0800 
 45 H       -0.7840    -5.6300     0.6970 H     1 <1>   0.4500 
@<TRIPOS>BOND
  1   1   2  2   
  2   2   3  am  
  3   2   4  1   
  4   3   5  1   
  5   3   6  1   
  6   4   7  ar  
  7   4   8  ar  
  8   5   9  1   
  9   5  10  1   
 10   5  23  1   
 11   6  11  1   
 12   6  24  1   
 13   6  25  1   
 14   7  12  ar  
 15   7  26  1   
 16   8  13  ar  
 17   8  27  1   
 18   9  14  1   
 19   9  28  1   
 20   9  29  1   
 21  10  15  1   
 22  10  30  1   
 23  10  31  1   
 24  11  16  1   
 25  11  17  1   
 26  11  32  1   
 27  12  18  1   
 28  12  19  ar  
 29  13  19  ar  
 30  13  33  1   
 31  14  16  1   
 32  15  17  1   
 33  15  20  1   
 34  15  34  1   
 35  16  35  1   
 36  16  36  1   
 37  17  37  1   
 38  17  38  1   
 39  18  21  1   
 40  19  22  1   
 41  20  39  1   
 42  20  40  1   
 43  20  41  1   
 44  21  42  1   
 45  21  43  1   
 46  21  44  1   
 47  22  45  1   
@<TRIPOS>SUBSTRUCTURE
  1 ****   3 GROUP 4 **** **** 0

# MOE 2024.06 (io_trps.svl 2023.06)
