@<TRIPOS>MOLECULE
NONAME
55 58 1 0 0 
SMALL
USER_CHARGES


@<TRIPOS>ATOM
  1 F        0.7360    -2.5790     2.4450 F     1 <1>  -0.3400 
  2 C        1.0560    -3.3310     1.3980 C.3   1 <1>   1.1640 
  3 F        1.6020    -2.5160     0.5050 F     1 <1>  -0.3400 
  4 F        2.0280    -4.1390     1.8070 F     1 <1>  -0.3400 
  5 C       -0.1350    -4.1100     0.8170 C.ar  1 <1>  -0.1440 
  6 C        0.0890    -5.1810    -0.0420 C.ar  1 <1>  -0.1500 
  7 C       -1.4480    -3.7660     1.1250 C.ar  1 <1>  -0.1500 
  8 C       -0.9680    -5.9030    -0.5780 C.ar  1 <1>  -0.1440 
  9 C       -2.5060    -4.4790     0.5900 C.ar  1 <1>  -0.1500 
 10 C       -2.2660    -5.5440    -0.2580 C.ar  1 <1>  -0.1500 
 11 C       -0.7190    -7.0820    -1.5090 C.3   1 <1>   0.2840 
 12 N       -1.1770    -8.3490    -0.8670 N.am  1 <1>  -0.6600 
 13 C       -2.1520    -9.1130    -1.4580 C.2   1 <1>   0.5690 
 14 C       -0.5230    -8.6730     0.4370 C.3   1 <1>   0.1400 
 15 O       -2.6330    -8.7890    -2.5170 O.2   1 <1>  -0.5700 
 16 C       -2.7280   -10.3840    -0.8500 C.3   1 <1>  -0.0990 
 17 C        0.1940   -10.0500     0.4620 C.3   1 <1>   0.2800 
 18 C       -1.9870   -11.0430     0.3130 C.3   1 <1>   0.1200 
 19 O       -0.6280   -11.0990     0.0230 O.3   1 <1>  -0.5600 
 20 C        1.4000   -10.0370    -0.4950 C.3   1 <1>  -0.1600 
 21 C        0.6650   -10.3870     1.8900 C.3   1 <1>  -0.1600 
 22 C        2.2070   -11.3340    -0.4140 C.3   1 <1>   0.1400 
 23 C        1.4950   -11.6730     1.9390 C.3   1 <1>   0.1400 
 24 N        2.6350   -11.5510     0.9930 N.am  1 <1>  -0.6600 
 25 C        3.8850   -12.0300     1.3200 C.2   1 <1>   0.7150 
 26 O        4.0010   -12.7880     2.2650 O.2   1 <1>  -0.5700 
 27 C        5.0490   -11.6380     0.5740 C.2   1 <1>  -0.2370 
 28 N        5.2350   -10.3720     0.0900 N.pl3 1 <1>   0.0330 
 29 C        6.1550   -12.3720     0.2310 C.2   1 <1>  -0.1500 
 30 C        6.4240   -10.3240    -0.5560 C.2   1 <1>  -0.3020 
 31 C        7.0170   -11.5460    -0.4870 C.2   1 <1>  -0.1500 
 32 H        1.0990    -5.4560    -0.2970 H     1 <1>   0.1500 
 33 H       -1.6610    -2.9390     1.7820 H     1 <1>   0.1500 
 34 H       -3.5190    -4.2050     0.8330 H     1 <1>   0.1500 
 35 H       -3.0930    -6.0980    -0.6730 H     1 <1>   0.1500 
 36 H        0.3290    -7.1650    -1.7380 H     1 <1>   0.0800 
 37 H       -1.2370    -6.9070    -2.4360 H     1 <1>   0.0800 
 38 H       -1.2590    -8.6140     1.2190 H     1 <1>   0.0800 
 39 H        0.2100    -7.9200     0.6670 H     1 <1>   0.0800 
 40 H       -2.7940   -11.1080    -1.6410 H     1 <1>   0.0800 
 41 H       -3.7340   -10.1740    -0.5410 H     1 <1>   0.0800 
 42 H       -2.3310   -12.0570     0.4240 H     1 <1>   0.0800 
 43 H       -2.1540   -10.5340     1.2460 H     1 <1>   0.0800 
 44 H        2.0460    -9.2120    -0.2580 H     1 <1>   0.0800 
 45 H        1.0520    -9.8990    -1.5030 H     1 <1>   0.0800 
 46 H       -0.1810   -10.4850     2.5450 H     1 <1>   0.0800 
 47 H        1.2710    -9.5830     2.2680 H     1 <1>   0.0800 
 48 H        3.0520   -11.2930    -1.0780 H     1 <1>   0.0800 
 49 H        1.5910   -12.1630    -0.7220 H     1 <1>   0.0800 
 50 H        0.8910   -12.5180     1.6560 H     1 <1>   0.0800 
 51 H        1.8540   -11.8350     2.9410 H     1 <1>   0.0800 
 52 H        4.5760    -9.5980     0.2220 H     1 <1>   0.2700 
 53 H        6.3340   -13.4060     0.4720 H     1 <1>   0.1500 
 54 H        6.7970    -9.4320    -1.0280 H     1 <1>   0.1500 
 55 H        7.9690   -11.8420    -0.8940 H     1 <1>   0.1500 
@<TRIPOS>BOND
  1   1   2  1   
  2   2   3  1   
  3   2   4  1   
  4   2   5  1   
  5   5   6  ar  
  6   5   7  ar  
  7   6   8  ar  
  8   6  32  1   
  9   7   9  ar  
 10   7  33  1   
 11   8  10  ar  
 12   8  11  1   
 13   9  10  ar  
 14   9  34  1   
 15  10  35  1   
 16  11  12  1   
 17  11  36  1   
 18  11  37  1   
 19  12  13  am  
 20  12  14  1   
 21  13  15  2   
 22  13  16  1   
 23  14  17  1   
 24  14  38  1   
 25  14  39  1   
 26  16  18  1   
 27  16  40  1   
 28  16  41  1   
 29  17  19  1   
 30  17  20  1   
 31  17  21  1   
 32  18  19  1   
 33  18  42  1   
 34  18  43  1   
 35  20  22  1   
 36  20  44  1   
 37  20  45  1   
 38  21  23  1   
 39  21  46  1   
 40  21  47  1   
 41  22  24  1   
 42  22  48  1   
 43  22  49  1   
 44  23  24  1   
 45  23  50  1   
 46  23  51  1   
 47  24  25  am  
 48  25  26  2   
 49  25  27  1   
 50  27  28  1   
 51  27  29  2   
 52  28  30  1   
 53  28  52  1   
 54  29  31  1   
 55  29  53  1   
 56  30  31  2   
 57  30  54  1   
 58  31  55  1   
@<TRIPOS>SUBSTRUCTURE
  1 ****  14 GROUP 4 **** **** 0

# MOE 2024.06 (io_trps.svl 2023.06)
