@<TRIPOS>MOLECULE
NONAME
42 45 1 0 0 
SMALL
USER_CHARGES


@<TRIPOS>ATOM
  1 O       -0.0460     0.1040     0.8830 O.3   1 <1>  -0.0190 
  2 N        0.4280     1.2610     0.5190 N.2   1 <1>  -0.4100 
  3 C        0.8360    -0.8500     0.7440 C.2   1 <1>  -0.0400 
  4 C        1.6380     1.0470     0.1400 C.2   1 <1>   0.1080 
  5 C        1.9630    -0.3020     0.2640 C.2   1 <1>  -0.1500 
  6 C        0.4820    -2.2780     1.1200 C.3   1 <1>   0.3890 
  7 C        2.5760     2.1240    -0.3730 C.3   1 <1>   0.0210 
  8 N       -0.2620    -2.9580     0.0130 N.pl3 1 <1>  -0.8380 
  9 C        3.6300     2.4900     0.6760 C.3   1 <1>  -0.2400 
 10 C       -0.1690    -4.3940     0.1350 C.2   1 <1>   0.1460 
 11 C       -1.6310    -2.3320    -0.1660 C.3   1 <1>   0.2090 
 12 C        1.0250    -5.0460    -0.0720 C.2   1 <1>   0.1000 
 13 C       -1.4050    -5.0880     0.4510 C.2   1 <1>   0.1810 
 14 C       -2.7350    -3.2880    -0.6550 C.3   1 <1>   0.0200 
 15 N        1.1590    -6.4250     0.2310 N.pl3 1 <1>  -0.6000 
 16 C        2.2230    -4.4490    -0.6000 C.2   1 <1>  -0.1500 
 17 N       -1.5830    -6.2780     1.0940 N.2   1 <1>  -0.5650 
 18 C       -2.6110    -4.5980     0.0880 C.2   1 <1>  -0.3320 
 19 C        2.3480    -7.1260     0.0960 C.2   1 <1>  -0.0500 
 20 C        3.3870    -5.1300    -0.7470 C.2   1 <1>  -0.1500 
 21 C       -2.8640    -6.4600     1.0870 C.2   1 <1>   0.0360 
 22 N       -3.5530    -5.4680     0.4830 N.pl3 1 <1>   0.0330 
 23 C        3.4520    -6.5070    -0.3790 C.2   1 <1>  -0.1500 
 24 H        2.9020    -0.7610     0.0210 H     1 <1>   0.1500 
 25 H       -0.1080    -2.2830     2.0200 H     1 <1>   0.0800 
 26 H        1.3930    -2.8110     1.3310 H     1 <1>   0.0800 
 27 H        2.0010     2.9980    -0.6240 H     1 <1>   0.0800 
 28 H        3.0570     1.7740    -1.2690 H     1 <1>   0.0800 
 29 H        3.1490     2.8450     1.5710 H     1 <1>   0.0800 
 30 H        4.2740     3.2650     0.3000 H     1 <1>   0.0800 
 31 H        4.2280     1.6310     0.9230 H     1 <1>   0.0800 
 32 H       -1.5460    -1.5130    -0.8590 H     1 <1>   0.0800 
 33 H       -1.9550    -1.9240     0.7770 H     1 <1>   0.0800 
 34 H       -2.6150    -3.4610    -1.7100 H     1 <1>   0.0800 
 35 H       -3.6970    -2.8400    -0.4870 H     1 <1>   0.0800 
 36 H        0.2970    -6.8590     0.6070 H     1 <1>   0.4000 
 37 H        2.1530    -3.4190    -0.8950 H     1 <1>   0.1500 
 38 H        2.3400    -8.1640     0.3840 H     1 <1>   0.1500 
 39 H        4.2740    -4.6700    -1.1430 H     1 <1>   0.1500 
 40 H       -3.3550    -7.3160     1.5160 H     1 <1>   0.1500 
 41 H       -4.5660    -5.4050     0.3560 H     1 <1>   0.2700 
 42 H        4.3880    -7.0220    -0.4960 H     1 <1>   0.1500 
@<TRIPOS>BOND
  1   1   2  1   
  2   1   3  1   
  3   2   4  2   
  4   3   5  2   
  5   3   6  1   
  6   4   5  1   
  7   4   7  1   
  8   5  24  1   
  9   6   8  1   
 10   6  25  1   
 11   6  26  1   
 12   7   9  1   
 13   7  27  1   
 14   7  28  1   
 15   8  10  1   
 16   8  11  1   
 17   9  29  1   
 18   9  30  1   
 19   9  31  1   
 20  10  12  2   
 21  10  13  1   
 22  11  14  1   
 23  11  32  1   
 24  11  33  1   
 25  12  15  1   
 26  12  16  1   
 27  13  17  1   
 28  13  18  2   
 29  14  18  1   
 30  14  34  1   
 31  14  35  1   
 32  15  19  1   
 33  15  36  1   
 34  16  20  2   
 35  16  37  1   
 36  17  21  2   
 37  18  22  1   
 38  19  23  2   
 39  19  38  1   
 40  20  23  1   
 41  20  39  1   
 42  21  22  1   
 43  21  40  1   
 44  22  41  1   
 45  23  42  1   
@<TRIPOS>SUBSTRUCTURE
  1 ****   8 GROUP 4 **** **** 0

# MOE 2024.06 (io_trps.svl 2023.06)
