@<TRIPOS>MOLECULE
NONAME
36 38 1 0 0 
SMALL
USER_CHARGES


@<TRIPOS>ATOM
  1 S       -0.5520     0.0880     1.2800 S.3   1 <1>  -0.0800 
  2 C       -0.1580     1.7910     1.3260 C.2   1 <1>  -0.1100 
  3 C       -1.3880     0.2850    -0.2460 C.2   1 <1>  -0.1100 
  4 C       -0.6240     2.4520     0.2360 C.2   1 <1>  -0.0860 
  5 C       -1.3380     1.5670    -0.6490 C.2   1 <1>  -0.1500 
  6 C       -0.4800     3.8650    -0.0570 C.2   1 <1>   0.7160 
  7 O       -1.3990     4.4560    -0.5940 O.2   1 <1>  -0.5700 
  8 N        0.6710     4.5630     0.2470 N.am  1 <1>  -0.6600 
  9 C        2.0160     3.9110     0.3410 C.3   1 <1>   0.1400 
 10 C        0.6400     6.0480     0.3690 C.3   1 <1>   0.1400 
 11 C        3.0020     4.4360    -0.7120 C.3   1 <1>   0.1400 
 12 C        1.1400     6.7010    -0.9240 C.3   1 <1>  -0.1600 
 13 N        3.4590     5.8220    -0.3940 N.am  1 <1>  -0.6600 
 14 C        2.6540     6.9490    -0.9500 C.3   1 <1>   0.1400 
 15 C        4.5730     6.0120     0.4110 C.2   1 <1>   0.7160 
 16 O        4.9170     5.0790     1.1190 O.2   1 <1>  -0.5700 
 17 C        5.3420     7.2470     0.4700 C.2   1 <1>   0.1410 
 18 N        5.3530     8.2090    -0.4850 N.2   1 <1>  -0.2270 
 19 C        6.1900     7.6500     1.4470 C.2   1 <1>  -0.3020 
 20 N        6.1430     9.1540    -0.1240 N.2   1 <1>  -0.4180 
 21 N        6.6690     8.8240     1.0560 N.pl3 1 <1>   0.3000 
 22 H        0.3920     2.1460     2.1790 H     1 <1>   0.1500 
 23 H       -1.8380    -0.5890    -0.6820 H     1 <1>   0.1500 
 24 H       -1.7830     1.9530    -1.5520 H     1 <1>   0.1500 
 25 H        1.9210     2.8530     0.1850 H     1 <1>   0.0800 
 26 H        2.4250     4.0620     1.3250 H     1 <1>   0.0800 
 27 H        1.2360     6.3600     1.2100 H     1 <1>   0.0800 
 28 H       -0.3730     6.3650     0.5540 H     1 <1>   0.0800 
 29 H        2.5550     4.4020    -1.6900 H     1 <1>   0.0800 
 30 H        3.8600     3.7850    -0.7300 H     1 <1>   0.0800 
 31 H        0.6590     7.6560    -1.0260 H     1 <1>   0.0800 
 32 H        0.8370     6.1140    -1.7730 H     1 <1>   0.0800 
 33 H        2.8430     7.8340    -0.3680 H     1 <1>   0.0800 
 34 H        2.9720     7.1470    -1.9600 H     1 <1>   0.0800 
 35 H        6.4580     7.1550     2.3620 H     1 <1>   0.1500 
 36 H        7.3420     9.4230     1.5460 H     1 <1>   0.2700 
@<TRIPOS>BOND
  1   1   2  1   
  2   1   3  1   
  3   2   4  2   
  4   2  22  1   
  5   3   5  2   
  6   3  23  1   
  7   4   5  1   
  8   4   6  1   
  9   5  24  1   
 10   6   7  2   
 11   6   8  am  
 12   8   9  1   
 13   8  10  1   
 14   9  11  1   
 15   9  25  1   
 16   9  26  1   
 17  10  12  1   
 18  10  27  1   
 19  10  28  1   
 20  11  13  1   
 21  11  29  1   
 22  11  30  1   
 23  12  14  1   
 24  12  31  1   
 25  12  32  1   
 26  13  14  1   
 27  13  15  am  
 28  14  33  1   
 29  14  34  1   
 30  15  16  2   
 31  15  17  1   
 32  17  18  1   
 33  17  19  2   
 34  18  20  2   
 35  19  21  1   
 36  19  35  1   
 37  20  21  1   
 38  21  36  1   
@<TRIPOS>SUBSTRUCTURE
  1 ****   9 GROUP 4 **** **** 0

# MOE 2024.06 (io_trps.svl 2023.06)
