@<TRIPOS>MOLECULE
NONAME
43 45 1 0 0 
SMALL
USER_CHARGES


@<TRIPOS>ATOM
  1 CL      -0.0160     0.2140     0.0810 Cl    1 <1>  -0.1770 
  2 C       -0.0370    -1.5000     0.3900 C.ar  1 <1>   0.1770 
  3 C        0.4700    -2.3690    -0.5530 C.ar  1 <1>  -0.1500 
  4 C       -0.5590    -1.9680     1.5820 C.ar  1 <1>  -0.1500 
  5 C        0.4590    -3.7330    -0.3060 C.ar  1 <1>   0.0830 
  6 C       -0.5840    -3.3300     1.8180 C.ar  1 <1>  -0.1500 
  7 O        1.0050    -4.5170    -1.2600 O.3   1 <1>  -0.3630 
  8 C       -0.0970    -4.2440     0.8800 C.ar  1 <1>   0.0860 
  9 C        2.0630    -5.3880    -0.9110 C.3   1 <1>   0.0400 
 10 C       -0.2080    -5.6590     1.1580 C.2   1 <1>   0.5440 
 11 O        0.3800    -6.1370     2.1100 O.2   1 <1>  -0.5700 
 12 N       -0.9820    -6.4910     0.3860 N.am  1 <1>  -0.6600 
 13 C       -1.8150    -6.0790    -0.7720 C.3   1 <1>   0.1400 
 14 C       -1.1310    -7.9430     0.6440 C.3   1 <1>   0.1400 
 15 C       -2.8180    -7.2190    -0.9340 C.3   1 <1>   0.2000 
 16 C       -2.0320    -8.4580    -0.4860 C.3   1 <1>  -0.0800 
 17 O       -3.8680    -6.9950    -0.0570 O.3   1 <1>  -0.6800 
 18 C       -2.8990    -9.6690    -0.0920 C.3   1 <1>   0.0200 
 19 C       -2.0840   -10.9170     0.2010 C.2   1 <1>  -0.0400 
 20 O       -2.6990   -11.9690     0.6710 O.3   1 <1>  -0.0190 
 21 C       -0.7820   -11.2270     0.0820 C.2   1 <1>  -0.1500 
 22 N       -1.8820   -12.9620     0.8760 N.2   1 <1>  -0.4100 
 23 C       -0.7190   -12.5430     0.5300 C.2   1 <1>   0.1080 
 24 C        0.5410   -13.3760     0.6040 C.3   1 <1>  -0.0590 
 25 H        0.8780    -1.9900    -1.4710 H     1 <1>   0.1500 
 26 H       -0.9390    -1.2710     2.3080 H     1 <1>   0.1500 
 27 H       -0.9890    -3.7050     2.7430 H     1 <1>   0.1500 
 28 H        2.6460    -5.5770    -1.7940 H     1 <1>   0.0800 
 29 H        1.6570    -6.3120    -0.5430 H     1 <1>   0.0800 
 30 H        2.6760    -4.9200    -0.1600 H     1 <1>   0.0800 
 31 H       -2.3050    -5.1340    -0.6050 H     1 <1>   0.0800 
 32 H       -1.1910    -6.0130    -1.6460 H     1 <1>   0.0800 
 33 H       -0.1690    -8.4260     0.6450 H     1 <1>   0.0800 
 34 H       -1.5960    -8.0820     1.6060 H     1 <1>   0.0800 
 35 H       -3.2140    -7.2970    -1.9320 H     1 <1>   0.0800 
 36 H       -1.3960    -8.7470    -1.3050 H     1 <1>   0.0800 
 37 H       -3.5010    -6.7730     0.8230 H     1 <1>   0.4000 
 38 H       -3.5840    -9.8910    -0.8910 H     1 <1>   0.0800 
 39 H       -3.4840    -9.4340     0.7800 H     1 <1>   0.0800 
 40 H        0.0470   -10.6420    -0.2690 H     1 <1>   0.1500 
 41 H        1.2690   -12.8830     1.2220 H     1 <1>   0.0800 
 42 H        0.9450   -13.5150    -0.3810 H     1 <1>   0.0800 
 43 H        0.3200   -14.3380     1.0290 H     1 <1>   0.0800 
@<TRIPOS>BOND
  1   1   2  1   
  2   2   3  ar  
  3   2   4  ar  
  4   3   5  ar  
  5   3  25  1   
  6   4   6  ar  
  7   4  26  1   
  8   5   7  1   
  9   5   8  ar  
 10   6   8  ar  
 11   6  27  1   
 12   7   9  1   
 13   8  10  1   
 14   9  28  1   
 15   9  29  1   
 16   9  30  1   
 17  10  11  2   
 18  10  12  am  
 19  12  13  1   
 20  12  14  1   
 21  13  15  1   
 22  13  31  1   
 23  13  32  1   
 24  14  16  1   
 25  14  33  1   
 26  14  34  1   
 27  15  16  1   
 28  15  17  1   
 29  15  35  1   
 30  16  18  1   
 31  16  36  1   
 32  17  37  1   
 33  18  19  1   
 34  18  38  1   
 35  18  39  1   
 36  19  20  1   
 37  19  21  2   
 38  20  22  1   
 39  21  23  1   
 40  21  40  1   
 41  22  23  2   
 42  23  24  1   
 43  24  41  1   
 44  24  42  1   
 45  24  43  1   
@<TRIPOS>SUBSTRUCTURE
  1 ****  12 GROUP 4 **** **** 0

# MOE 2024.06 (io_trps.svl 2023.06)
