@<TRIPOS>MOLECULE
NONAME
40 41 1 0 0 
SMALL
USER_CHARGES


@<TRIPOS>ATOM
  1 O       -2.7300     1.3340    -2.1990 O.2   1 <1>  -0.5700 
  2 C       -2.8490     1.1800    -1.0130 C.2   1 <1>   0.4230 
  3 C       -3.5290     0.0460    -0.4500 C.ar  1 <1>   0.0860 
  4 C       -2.1800     2.2100    -0.1240 C.3   1 <1>  -0.1790 
  5 C       -4.4210     0.0630     0.6220 C.ar  1 <1>   0.1660 
  6 C       -3.3050    -1.2060    -0.9990 C.ar  1 <1>   0.1600 
  7 N       -4.9540    -1.0300     1.1070 N.ar  1 <1>  -0.6200 
  8 C       -4.8720     1.3480     1.2970 C.3   1 <1>  -0.0960 
  9 N       -3.8330    -2.3110    -0.5370 N.ar  1 <1>  -0.6200 
 10 C       -4.6310    -2.1680     0.5130 C.ar  1 <1>   0.7200 
 11 N       -5.2000    -3.2630     1.0490 N.pl3 1 <1>  -0.8690 
 12 C       -5.0760    -4.6570     0.5830 C.3   1 <1>   0.2090 
 13 C       -6.3460    -5.0340    -0.1740 C.3   1 <1>  -0.1600 
 14 C       -6.2360    -6.4470    -0.7370 C.3   1 <1>   0.2090 
 15 N       -7.5030    -6.7880    -1.4180 N.pl3 1 <1>  -0.8690 
 16 C       -8.4400    -7.5820    -0.7530 C.ar  1 <1>   0.1000 
 17 C       -9.7480    -7.1470    -0.5210 C.ar  1 <1>   0.1600 
 18 C       -8.1000    -8.8460    -0.3040 C.ar  1 <1>  -0.1500 
 19 N      -10.6920    -7.8320     0.1060 N.ar  1 <1>  -0.6200 
 20 C       -9.0670    -9.5780     0.3500 C.ar  1 <1>  -0.1500 
 21 C      -10.3280    -9.0330     0.5280 C.ar  1 <1>   0.1600 
 22 H       -2.0120     1.8170     0.8620 H     1 <1>   0.0800 
 23 H       -2.7900     3.0930    -0.0650 H     1 <1>   0.0800 
 24 H       -1.2300     2.4810    -0.5480 H     1 <1>   0.0800 
 25 H       -2.6530    -1.2820    -1.8550 H     1 <1>   0.1500 
 26 H       -4.9550     2.1490     0.5860 H     1 <1>   0.0800 
 27 H       -4.1790     1.6200     2.0720 H     1 <1>   0.0800 
 28 H       -5.8400     1.2070     1.7440 H     1 <1>   0.0800 
 29 H       -5.8410    -3.0750     1.8170 H     1 <1>   0.4000 
 30 H       -4.9380    -5.3030     1.4330 H     1 <1>   0.0800 
 31 H       -4.2170    -4.7570    -0.0600 H     1 <1>   0.0800 
 32 H       -6.4860    -4.3400    -0.9830 H     1 <1>   0.0800 
 33 H       -7.1850    -4.9810     0.4970 H     1 <1>   0.0800 
 34 H       -6.0440    -7.1470     0.0590 H     1 <1>   0.0800 
 35 H       -5.4280    -6.5050    -1.4470 H     1 <1>   0.0800 
 36 H       -7.8950    -5.9750    -1.9070 H     1 <1>   0.4000 
 37 H      -10.0170    -6.1710    -0.8770 H     1 <1>   0.1500 
 38 H       -7.1140    -9.2390    -0.4720 H     1 <1>   0.1500 
 39 H       -8.8510   -10.5640     0.7180 H     1 <1>   0.1500 
 40 H      -11.0750    -9.6140     1.0410 H     1 <1>   0.1500 
@<TRIPOS>BOND
  1   1   2  2   
  2   2   3  1   
  3   2   4  1   
  4   3   5  ar  
  5   3   6  ar  
  6   4  22  1   
  7   4  23  1   
  8   4  24  1   
  9   5   7  ar  
 10   5   8  1   
 11   6   9  ar  
 12   6  25  1   
 13   7  10  ar  
 14   8  26  1   
 15   8  27  1   
 16   8  28  1   
 17   9  10  ar  
 18  10  11  1   
 19  11  12  1   
 20  11  29  1   
 21  12  13  1   
 22  12  30  1   
 23  12  31  1   
 24  13  14  1   
 25  13  32  1   
 26  13  33  1   
 27  14  15  1   
 28  14  34  1   
 29  14  35  1   
 30  15  16  1   
 31  15  36  1   
 32  16  17  ar  
 33  16  18  ar  
 34  17  19  ar  
 35  17  37  1   
 36  18  20  ar  
 37  18  38  1   
 38  19  21  ar  
 39  20  21  ar  
 40  20  39  1   
 41  21  40  1   
@<TRIPOS>SUBSTRUCTURE
  1 ****  11 GROUP 4 **** **** 0

# MOE 2024.06 (io_trps.svl 2023.06)
