@<TRIPOS>MOLECULE
NONAME
51 53 1 0 0 
SMALL
USER_CHARGES


@<TRIPOS>ATOM
  1 F        1.1580     0.7350    -0.9170 F     1 <1>  -0.1900 
  2 C        1.8710    -0.2990    -0.5630 C.ar  1 <1>   0.1900 
  3 C        1.5990    -1.5200    -1.1440 C.ar  1 <1>  -0.1500 
  4 C        2.8640    -0.1370     0.3790 C.ar  1 <1>  -0.1500 
  5 C        2.3430    -2.6310    -0.7650 C.ar  1 <1>  -0.1440 
  6 C        3.6110    -1.2420     0.7430 C.ar  1 <1>  -0.1500 
  7 C        3.3650    -2.4880     0.1760 C.ar  1 <1>  -0.1430 
  8 C        2.0060    -3.9730    -1.3900 C.3   1 <1>   0.4870 
  9 C        4.2510    -3.6500     0.6090 C.3   1 <1>  -0.0970 
 10 N        1.2160    -4.7640    -0.4010 N.4   1 <1>  -0.9590 
 11 C        1.0890    -6.2060    -0.8300 C.3   1 <1>   0.3430 
 12 C       -0.1160    -4.1220    -0.1740 C.3   1 <1>   0.3430 
 13 C        0.2040    -7.0770     0.1210 C.3   1 <1>   0.4230 
 14 C       -0.9180    -4.9310     0.8510 C.3   1 <1>  -0.1600 
 15 N        0.0810    -8.5540    -0.2610 N.4   1 <1>  -0.9590 
 16 C       -1.1650    -6.4070     0.4390 C.3   1 <1>   0.0000 
 17 C       -1.0330    -9.2730     0.4490 C.3   1 <1>   0.3430 
 18 C       -0.0360    -8.8240    -1.7350 C.3   1 <1>   0.2630 
 19 C       -1.8040    -7.1460     1.6500 C.3   1 <1>  -0.1600 
 20 C       -2.1770    -6.4490    -0.7440 C.3   1 <1>   0.1200 
 21 C       -1.3520    -8.6150     1.7920 C.3   1 <1>  -0.1600 
 22 O       -1.5940    -6.0330    -1.9330 O.3   1 <1>  -0.6800 
 23 H        0.8150    -1.5750    -1.8790 H     1 <1>   0.1500 
 24 H        3.0470     0.8310     0.8120 H     1 <1>   0.1500 
 25 H        4.3940    -1.1180     1.4730 H     1 <1>   0.1500 
 26 H        2.9200    -4.4850    -1.6410 H     1 <1>   0.0800 
 27 H        1.4390    -3.8270    -2.2950 H     1 <1>   0.0800 
 28 H        5.1350    -3.2840     1.1040 H     1 <1>   0.0800 
 29 H        4.5790    -4.2230    -0.2390 H     1 <1>   0.0800 
 30 H        3.7310    -4.2880     1.3000 H     1 <1>   0.0800 
 31 H        1.7410    -4.6770     0.4800 H     1 <1>   0.4500 
 32 H        0.6600    -6.2320    -1.8160 H     1 <1>   0.0800 
 33 H        2.0720    -6.6440    -0.8830 H     1 <1>   0.0800 
 34 H        0.0170    -3.1170     0.1950 H     1 <1>   0.0800 
 35 H       -0.6620    -4.0640    -1.1030 H     1 <1>   0.0800 
 36 H        0.7300    -7.0680     1.0610 H     1 <1>   0.0800 
 37 H       -0.3920    -4.8820     1.7890 H     1 <1>   0.0800 
 38 H       -1.8630    -4.4370     1.0040 H     1 <1>   0.0800 
 39 H        0.9440    -9.0200     0.0610 H     1 <1>   0.4500 
 40 H       -1.9250    -9.2560    -0.1580 H     1 <1>   0.0800 
 41 H       -0.7640   -10.3060     0.6040 H     1 <1>   0.0800 
 42 H       -0.9220    -8.3620    -2.1370 H     1 <1>   0.0800 
 43 H       -0.0970    -9.8860    -1.9160 H     1 <1>   0.0800 
 44 H        0.8220    -8.4440    -2.2650 H     1 <1>   0.0800 
 45 H       -1.5640    -6.6510     2.5770 H     1 <1>   0.0800 
 46 H       -2.8790    -7.1140     1.5710 H     1 <1>   0.0800 
 47 H       -3.0160    -5.8020    -0.5410 H     1 <1>   0.0800 
 48 H       -2.5600    -7.4420    -0.9010 H     1 <1>   0.0800 
 49 H       -2.1300    -9.1750     2.2820 H     1 <1>   0.0800 
 50 H       -0.4830    -8.6760     2.4260 H     1 <1>   0.0800 
 51 H       -2.2870    -5.9070    -2.6230 H     1 <1>   0.4000 
@<TRIPOS>BOND
  1   1   2  1   
  2   2   3  ar  
  3   2   4  ar  
  4   3   5  ar  
  5   3  23  1   
  6   4   6  ar  
  7   4  24  1   
  8   5   7  ar  
  9   5   8  1   
 10   6   7  ar  
 11   6  25  1   
 12   7   9  1   
 13   8  10  1   
 14   8  26  1   
 15   8  27  1   
 16   9  28  1   
 17   9  29  1   
 18   9  30  1   
 19  10  11  1   
 20  10  12  1   
 21  10  31  1   
 22  11  13  1   
 23  11  32  1   
 24  11  33  1   
 25  12  14  1   
 26  12  34  1   
 27  12  35  1   
 28  13  15  1   
 29  13  16  1   
 30  13  36  1   
 31  14  16  1   
 32  14  37  1   
 33  14  38  1   
 34  15  17  1   
 35  15  18  1   
 36  15  39  1   
 37  16  19  1   
 38  16  20  1   
 39  17  21  1   
 40  17  40  1   
 41  17  41  1   
 42  18  42  1   
 43  18  43  1   
 44  18  44  1   
 45  19  21  1   
 46  19  45  1   
 47  19  46  1   
 48  20  22  1   
 49  20  47  1   
 50  20  48  1   
 51  21  49  1   
 52  21  50  1   
 53  22  51  1   
@<TRIPOS>SUBSTRUCTURE
  1 ****  10 GROUP 4 **** **** 0

# MOE 2024.06 (io_trps.svl 2023.06)
