@<TRIPOS>MOLECULE
NONAME
49 51 1 0 0 
SMALL
USER_CHARGES


@<TRIPOS>ATOM
  1 O        0.0130     0.0630    -1.4720 O.2   1 <1>  -0.5700 
  2 C        1.0330    -0.4170    -1.0460 C.2   1 <1>   0.5690 
  3 N        2.0580     0.3020    -0.4960 N.am  1 <1>  -0.4940 
  4 C        1.1950    -1.9160    -1.1090 C.3   1 <1>  -0.0990 
  5 C        2.2640     1.6770    -0.2300 C.2   1 <1>  -0.0880 
  6 C        0.7610    -2.5600     0.2150 C.3   1 <1>   0.1760 
  7 N        1.3730     2.7100    -0.2080 N.pl3 1 <1>   0.3140 
  8 C        3.4810     2.2100     0.0750 C.2   1 <1>  -0.0540 
  9 N        1.3100    -3.9390     0.2840 N.pl3 1 <1>   0.3140 
 10 C       -0.7650    -2.5360     0.4170 C.3   1 <1>  -0.2400 
 11 N        1.9830     3.8770     0.0970 N.2   1 <1>  -0.7070 
 12 C       -0.0810     2.7080    -0.4090 C.3   1 <1>   0.0160 
 13 C        4.7480     1.5310     0.1810 C.ar  1 <1>   0.0540 
 14 C        3.2260     3.5710     0.2630 C.2   1 <1>   0.1080 
 15 N        2.5450    -4.1550     0.7760 N.2   1 <1>  -0.7070 
 16 C        0.7480    -5.0930    -0.1380 C.2   1 <1>  -0.3020 
 17 C        4.9540     0.5470     1.1430 C.ar  1 <1>  -0.1500 
 18 C        5.7970     1.8340    -0.6820 C.ar  1 <1>  -0.1500 
 19 C        4.2620     4.6100     0.6310 C.3   1 <1>  -0.0590 
 20 C        2.7310    -5.4360     0.6670 C.2   1 <1>   0.1390 
 21 C        1.6390    -6.0780     0.1000 C.2   1 <1>  -0.1500 
 22 C        6.1640    -0.1140     1.2360 C.ar  1 <1>  -0.1500 
 23 C        7.0130     1.1800    -0.5920 C.ar  1 <1>  -0.1500 
 24 C        7.2030     0.1960     0.3730 C.ar  1 <1>   0.0820 
 25 O        8.3590    -0.4960     0.5330 O.3   1 <1>  -0.3630 
 26 C        9.4770    -0.2520    -0.2910 C.3   1 <1>   0.0400 
 27 H        2.8910    -0.2570    -0.2960 H     1 <1>   0.3700 
 28 H        2.2280    -2.1410    -1.3050 H     1 <1>   0.0800 
 29 H        0.6070    -2.3030    -1.9210 H     1 <1>   0.0800 
 30 H        1.2140    -2.0170     1.0260 H     1 <1>   0.0800 
 31 H       -1.2700    -3.0100    -0.4050 H     1 <1>   0.0800 
 32 H       -1.1140    -1.5210     0.4830 H     1 <1>   0.0800 
 33 H       -1.0250    -3.0380     1.3330 H     1 <1>   0.0800 
 34 H       -0.5190     1.9170     0.1680 H     1 <1>   0.0800 
 35 H       -0.2920     2.5670    -1.4520 H     1 <1>   0.0800 
 36 H       -0.4850     3.6500    -0.0880 H     1 <1>   0.0800 
 37 H       -0.2310    -5.1530    -0.5750 H     1 <1>   0.1500 
 38 H        4.1590     0.3050     1.8260 H     1 <1>   0.1500 
 39 H        5.6490     2.5910    -1.4320 H     1 <1>   0.1500 
 40 H        5.0280     4.1740     1.2440 H     1 <1>   0.0800 
 41 H        3.7940     5.4090     1.1760 H     1 <1>   0.0800 
 42 H        4.7030     5.0100    -0.2620 H     1 <1>   0.0800 
 43 H        3.6340    -5.9320     0.9810 H     1 <1>   0.1500 
 44 H        1.5530    -7.1320    -0.0960 H     1 <1>   0.1500 
 45 H        6.3150    -0.8750     1.9810 H     1 <1>   0.1500 
 46 H        7.7950     1.4460    -1.2780 H     1 <1>   0.1500 
 47 H       10.2680    -0.9120     0.0170 H     1 <1>   0.0800 
 48 H        9.7860     0.7700    -0.1670 H     1 <1>   0.0800 
 49 H        9.2100    -0.4550    -1.3130 H     1 <1>   0.0800 
@<TRIPOS>BOND
  1   1   2  2   
  2   2   3  am  
  3   2   4  1   
  4   3   5  1   
  5   3  27  1   
  6   4   6  1   
  7   4  28  1   
  8   4  29  1   
  9   5   7  1   
 10   5   8  2   
 11   6   9  1   
 12   6  10  1   
 13   6  30  1   
 14   7  11  1   
 15   7  12  1   
 16   8  13  1   
 17   8  14  1   
 18   9  15  1   
 19   9  16  1   
 20  10  31  1   
 21  10  32  1   
 22  10  33  1   
 23  11  14  2   
 24  12  34  1   
 25  12  35  1   
 26  12  36  1   
 27  13  17  ar  
 28  13  18  ar  
 29  14  19  1   
 30  15  20  2   
 31  16  21  2   
 32  16  37  1   
 33  17  22  ar  
 34  17  38  1   
 35  18  23  ar  
 36  18  39  1   
 37  19  40  1   
 38  19  41  1   
 39  19  42  1   
 40  20  21  1   
 41  20  43  1   
 42  21  44  1   
 43  22  24  ar  
 44  22  45  1   
 45  23  24  ar  
 46  23  46  1   
 47  24  25  1   
 48  25  26  1   
 49  26  47  1   
 50  26  48  1   
 51  26  49  1   
@<TRIPOS>SUBSTRUCTURE
  1 ****   3 GROUP 4 **** **** 0

# MOE 2024.06 (io_trps.svl 2023.06)
