@<TRIPOS>MOLECULE
NONAME
45 46 1 0 0 
SMALL
USER_CHARGES


@<TRIPOS>ATOM
  1 S       -0.5230     0.3180     1.4000 S.o2  1 <1>   1.4470 
  2 O       -0.3850    -0.9180     2.1350 O.2   1 <1>  -0.6500 
  3 O       -1.1530     1.4400     2.0530 O.2   1 <1>  -0.6500 
  4 N       -1.5450     0.0090     0.1000 N.am  1 <1>  -0.9140 
  5 C        1.0680     0.8100     0.6570 C.ar  1 <1>  -0.0090 
  6 C       -1.6010    -1.3210    -0.5150 C.3   1 <1>   0.2760 
  7 C        1.2140     1.8910    -0.2200 C.ar  1 <1>  -0.1430 
  8 C        2.2070     0.0730     0.9700 C.ar  1 <1>  -0.1500 
  9 C       -2.3240    -2.3680     0.3370 C.3   1 <1>  -0.0800 
 10 C       -0.2620    -1.9770    -0.8730 C.3   1 <1>   0.1200 
 11 C        2.4570     2.1900    -0.7610 C.ar  1 <1>  -0.1500 
 12 C        0.0380     2.7780    -0.6110 C.3   1 <1>  -0.0970 
 13 C        3.4440     0.3740     0.4310 C.ar  1 <1>  -0.1500 
 14 C       -1.2860    -3.4890     0.4480 C.3   1 <1>   0.1200 
 15 C       -3.6090    -2.8540    -0.3630 C.3   1 <1>  -0.0550 
 16 O       -0.4730    -3.3360    -0.6680 O.3   1 <1>  -0.5600 
 17 C        3.5690     1.4360    -0.4400 C.ar  1 <1>  -0.1500 
 18 S       -4.6910    -3.8110     0.6980 S.o2  1 <1>   1.3330 
 19 O       -4.0550    -5.0570     1.0610 O.2   1 <1>  -0.6500 
 20 O       -5.1730    -2.9200     1.7280 O.2   1 <1>  -0.6500 
 21 N       -5.9860    -4.1730    -0.3380 N.am  1 <1>  -0.8490 
 22 C       -7.2490    -4.3360     0.3910 C.3   1 <1>   0.1160 
 23 C       -5.7450    -5.3490    -1.1810 C.3   1 <1>   0.1160 
 24 H       -2.4660     0.2360     0.4720 H     1 <1>   0.4200 
 25 H       -2.1340    -1.2070    -1.4440 H     1 <1>   0.0800 
 26 H        2.1300    -0.7590     1.6500 H     1 <1>   0.1500 
 27 H       -2.5700    -1.9990     1.3180 H     1 <1>   0.0800 
 28 H        0.5410    -1.6820    -0.2270 H     1 <1>   0.0800 
 29 H        0.0070    -1.8190    -1.9020 H     1 <1>   0.0800 
 30 H        2.5700     3.0190    -1.4380 H     1 <1>   0.1500 
 31 H        0.3620     3.6040    -1.2190 H     1 <1>   0.0800 
 32 H       -0.4360     3.1840     0.2640 H     1 <1>   0.0800 
 33 H       -0.6850     2.2170    -1.1750 H     1 <1>   0.0800 
 34 H        4.3060    -0.2170     0.6900 H     1 <1>   0.1500 
 35 H       -1.7050    -4.4800     0.4440 H     1 <1>   0.0800 
 36 H       -0.6740    -3.3640     1.3260 H     1 <1>   0.0800 
 37 H       -3.3430    -3.4320    -1.2270 H     1 <1>   0.0800 
 38 H       -4.1610    -1.9980    -0.7010 H     1 <1>   0.0800 
 39 H        4.5270     1.6780    -0.8660 H     1 <1>   0.1500 
 40 H       -8.0510    -4.5480    -0.2950 H     1 <1>   0.0800 
 41 H       -7.4910    -3.4280     0.9180 H     1 <1>   0.0800 
 42 H       -7.1690    -5.1390     1.1050 H     1 <1>   0.0800 
 43 H       -6.5550    -5.4760    -1.8790 H     1 <1>   0.0800 
 44 H       -5.6640    -6.2380    -0.5750 H     1 <1>   0.0800 
 45 H       -4.8320    -5.2280    -1.7380 H     1 <1>   0.0800 
@<TRIPOS>BOND
  1   1   2  2   
  2   1   3  2   
  3   1   4  am  
  4   1   5  1   
  5   4   6  1   
  6   4  24  1   
  7   5   7  ar  
  8   5   8  ar  
  9   6   9  1   
 10   6  10  1   
 11   6  25  1   
 12   7  11  ar  
 13   7  12  1   
 14   8  13  ar  
 15   8  26  1   
 16   9  14  1   
 17   9  15  1   
 18   9  27  1   
 19  10  16  1   
 20  10  28  1   
 21  10  29  1   
 22  11  17  ar  
 23  11  30  1   
 24  12  31  1   
 25  12  32  1   
 26  12  33  1   
 27  13  17  ar  
 28  13  34  1   
 29  14  16  1   
 30  14  35  1   
 31  14  36  1   
 32  15  18  1   
 33  15  37  1   
 34  15  38  1   
 35  17  39  1   
 36  18  19  2   
 37  18  20  2   
 38  18  21  am  
 39  21  22  1   
 40  21  23  1   
 41  22  40  1   
 42  22  41  1   
 43  22  42  1   
 44  23  43  1   
 45  23  44  1   
 46  23  45  1   
@<TRIPOS>SUBSTRUCTURE
  1 ****   6 GROUP 4 **** **** 0

# MOE 2024.06 (io_trps.svl 2023.06)
