@<TRIPOS>MOLECULE
NONAME
55 58 1 0 0 
SMALL
USER_CHARGES


@<TRIPOS>ATOM
  1 F        0.6220    -1.0280     0.5350 F     1 <1>  -0.3400 
  2 C        0.1830    -1.4350    -0.6480 C.3   1 <1>   1.1640 
  3 F        1.1420    -2.1940    -1.1610 F     1 <1>  -0.3400 
  4 F        0.1130    -0.3520    -1.4140 F     1 <1>  -0.3400 
  5 C       -1.1410    -2.1840    -0.5390 C.ar  1 <1>  -0.1440 
  6 C       -1.1850    -3.3390     0.2250 C.ar  1 <1>   0.1600 
  7 C       -2.3060    -1.7660    -1.1670 C.ar  1 <1>  -0.1500 
  8 N       -2.2570    -4.0910     0.4120 N.ar  1 <1>  -0.6200 
  9 C       -3.4280    -2.5380    -0.9810 C.ar  1 <1>  -0.1500 
 10 C       -3.3630    -3.6810    -0.1940 C.ar  1 <1>   0.4100 
 11 N       -4.4880    -4.4520    -0.0060 N.pl3 1 <1>  -0.8380 
 12 C       -5.0910    -4.3360     1.3380 C.3   1 <1>   0.2090 
 13 C       -4.3790    -5.8400    -0.5030 C.3   1 <1>   0.2090 
 14 C       -6.5150    -4.8800     1.2690 C.3   1 <1>  -0.1600 
 15 C       -5.7860    -6.4210    -0.6130 C.3   1 <1>  -0.1600 
 16 C       -6.5130    -6.3120     0.7310 C.3   1 <1>   0.4230 
 17 N       -7.9190    -6.7390     0.5750 N.4   1 <1>  -0.9060 
 18 C       -8.1370    -8.1950     0.3550 C.3   1 <1>   0.4230 
 19 C       -9.6190    -8.4180     0.0650 C.3   1 <1>  -0.0800 
 20 C       -8.0020    -8.9120     1.6940 C.3   1 <1>   0.1200 
 21 C      -10.2310    -8.5620     1.4720 C.3   1 <1>   0.1200 
 22 C       -9.8490    -9.6770    -0.7960 C.3   1 <1>  -0.0160 
 23 O       -9.1550    -8.5260     2.3630 O.3   1 <1>  -0.5600 
 24 C      -11.3280    -9.8760    -1.0840 C.ar  1 <1>  -0.1430 
 25 C      -12.0830   -10.8240    -0.4220 C.ar  1 <1>  -0.1500 
 26 C      -11.9940    -9.1190    -2.0290 C.ar  1 <1>  -0.1500 
 27 C      -13.4300   -10.9560    -0.7170 C.ar  1 <1>   0.1600 
 28 C      -13.3450    -9.3320    -2.2490 C.ar  1 <1>   0.1600 
 29 N      -14.0780   -10.2290    -1.6120 N.ar  1 <1>  -0.6200 
 30 H       -0.2840    -3.6710     0.7170 H     1 <1>   0.1500 
 31 H       -2.3440    -0.8770    -1.7760 H     1 <1>   0.1500 
 32 H       -4.3640    -2.2770    -1.4360 H     1 <1>   0.1500 
 33 H       -4.4970    -4.8890     2.0480 H     1 <1>   0.0800 
 34 H       -5.1020    -3.3010     1.6420 H     1 <1>   0.0800 
 35 H       -3.8980    -5.8400    -1.4680 H     1 <1>   0.0800 
 36 H       -3.7720    -6.4190     0.1750 H     1 <1>   0.0800 
 37 H       -7.0850    -4.2320     0.6280 H     1 <1>   0.0800 
 38 H       -6.9380    -4.8540     2.2570 H     1 <1>   0.0800 
 39 H       -5.7000    -7.4460    -0.9200 H     1 <1>   0.0800 
 40 H       -6.3120    -5.8710    -1.3750 H     1 <1>   0.0800 
 41 H       -6.0130    -6.9420     1.4500 H     1 <1>   0.0800 
 42 H       -8.3510    -6.1870    -0.1720 H     1 <1>   0.4500 
 43 H       -8.4270    -6.5250     1.4470 H     1 <1>   0.4500 
 44 H       -7.4910    -8.5900    -0.4120 H     1 <1>   0.0800 
 45 H      -10.0550    -7.5790    -0.4480 H     1 <1>   0.0800 
 46 H       -7.1360    -8.6210     2.2630 H     1 <1>   0.0800 
 47 H       -8.0180    -9.9830     1.5780 H     1 <1>   0.0800 
 48 H      -10.7470    -9.4980     1.6080 H     1 <1>   0.0800 
 49 H      -10.9000    -7.7520     1.7110 H     1 <1>   0.0800 
 50 H       -9.4610   -10.5530    -0.3030 H     1 <1>   0.0800 
 51 H       -9.3300    -9.5790    -1.7350 H     1 <1>   0.0800 
 52 H      -11.6460   -11.4660     0.3210 H     1 <1>   0.1500 
 53 H      -11.4830    -8.3680    -2.6020 H     1 <1>   0.1500 
 54 H      -14.0050   -11.6990    -0.1910 H     1 <1>   0.1500 
 55 H      -13.8500    -8.7350    -2.9900 H     1 <1>   0.1500 
@<TRIPOS>BOND
  1   1   2  1   
  2   2   3  1   
  3   2   4  1   
  4   2   5  1   
  5   5   6  ar  
  6   5   7  ar  
  7   6   8  ar  
  8   6  30  1   
  9   7   9  ar  
 10   7  31  1   
 11   8  10  ar  
 12   9  10  ar  
 13   9  32  1   
 14  10  11  1   
 15  11  12  1   
 16  11  13  1   
 17  12  14  1   
 18  12  33  1   
 19  12  34  1   
 20  13  15  1   
 21  13  35  1   
 22  13  36  1   
 23  14  16  1   
 24  14  37  1   
 25  14  38  1   
 26  15  16  1   
 27  15  39  1   
 28  15  40  1   
 29  16  17  1   
 30  16  41  1   
 31  17  18  1   
 32  17  42  1   
 33  17  43  1   
 34  18  19  1   
 35  18  20  1   
 36  18  44  1   
 37  19  21  1   
 38  19  22  1   
 39  19  45  1   
 40  20  23  1   
 41  20  46  1   
 42  20  47  1   
 43  21  23  1   
 44  21  48  1   
 45  21  49  1   
 46  22  24  1   
 47  22  50  1   
 48  22  51  1   
 49  24  25  ar  
 50  24  26  ar  
 51  25  27  ar  
 52  25  52  1   
 53  26  28  ar  
 54  26  53  1   
 55  27  29  ar  
 56  27  54  1   
 57  28  29  ar  
 58  28  55  1   
@<TRIPOS>SUBSTRUCTURE
  1 ****  15 GROUP 4 **** **** 0

# MOE 2024.06 (io_trps.svl 2023.06)
