@<TRIPOS>MOLECULE
NONAME
36 38 1 0 0 
SMALL
USER_CHARGES


@<TRIPOS>ATOM
  1 S        2.0950    -0.2200     0.9270 S.3   1 <1>  -0.0800 
  2 C        0.4290    -0.4070     0.4350 C.2   1 <1>   0.4620 
  3 C        2.2480    -1.9480     0.9420 C.2   1 <1>  -0.1100 
  4 N        0.0500    -1.6180     0.3020 N.2   1 <1>  -0.5650 
  5 N       -0.3210     0.7030     0.2340 N.pl3 1 <1>  -0.8840 
  6 C        1.0800    -2.5320     0.5870 C.2   1 <1>   0.1410 
  7 C        0.9080    -3.9860     0.5140 C.2   1 <1>   0.7160 
  8 O        1.8230    -4.6950     0.8990 O.2   1 <1>  -0.5700 
  9 N       -0.2200    -4.6260     0.0320 N.am  1 <1>  -0.6600 
 10 C       -1.4280    -3.9880    -0.5490 C.3   1 <1>   0.1400 
 11 C       -0.3550    -6.1030     0.0090 C.3   1 <1>   0.1400 
 12 C       -2.3190    -5.1470    -0.9980 C.3   1 <1>   0.2000 
 13 C       -1.8480    -6.3610    -0.2010 C.3   1 <1>  -0.0800 
 14 O       -3.6570    -4.9010    -0.7320 O.3   1 <1>  -0.6800 
 15 C       -2.1650    -7.6920    -0.9030 C.3   1 <1>  -0.0170 
 16 C       -1.7050    -8.8820    -0.0790 C.ar  1 <1>   0.1670 
 17 N       -0.4390    -9.2430    -0.2170 N.ar  1 <1>  -0.6200 
 18 C       -2.6000    -9.5280     0.7710 C.ar  1 <1>   0.1600 
 19 C       -0.1310   -10.2790     0.5450 C.ar  1 <1>   0.1600 
 20 N       -2.2950   -10.5640     1.5350 N.ar  1 <1>  -0.6200 
 21 C       -1.0290   -10.9180     1.3920 C.ar  1 <1>   0.1600 
 22 H        3.1970    -2.3740     1.2150 H     1 <1>   0.1500 
 23 H        0.0480     1.6430     0.3770 H     1 <1>   0.4000 
 24 H       -1.3000     0.6160    -0.0380 H     1 <1>   0.4000 
 25 H       -1.9170    -3.3980     0.2060 H     1 <1>   0.0800 
 26 H       -1.1580    -3.3690    -1.3870 H     1 <1>   0.0800 
 27 H        0.2240    -6.4960    -0.8100 H     1 <1>   0.0800 
 28 H       -0.0050    -6.5410     0.9300 H     1 <1>   0.0800 
 29 H       -2.2060    -5.3050    -2.0580 H     1 <1>   0.0800 
 30 H       -2.3090    -6.3510     0.7710 H     1 <1>   0.0800 
 31 H       -3.7800    -4.6850     0.2130 H     1 <1>   0.4000 
 32 H       -1.6850    -7.7250    -1.8660 H     1 <1>   0.0800 
 33 H       -3.2260    -7.7590    -1.0700 H     1 <1>   0.0800 
 34 H       -3.6130    -9.1710     0.8250 H     1 <1>   0.1500 
 35 H        0.8800   -10.6410     0.4970 H     1 <1>   0.1500 
 36 H       -0.6840   -11.7540     1.9740 H     1 <1>   0.1500 
@<TRIPOS>BOND
  1   1   2  1   
  2   1   3  1   
  3   2   4  2   
  4   2   5  1   
  5   3   6  2   
  6   3  22  1   
  7   4   6  1   
  8   5  23  1   
  9   5  24  1   
 10   6   7  1   
 11   7   8  2   
 12   7   9  am  
 13   9  10  1   
 14   9  11  1   
 15  10  12  1   
 16  10  25  1   
 17  10  26  1   
 18  11  13  1   
 19  11  27  1   
 20  11  28  1   
 21  12  13  1   
 22  12  14  1   
 23  12  29  1   
 24  13  15  1   
 25  13  30  1   
 26  14  31  1   
 27  15  16  1   
 28  15  32  1   
 29  15  33  1   
 30  16  17  ar  
 31  16  18  ar  
 32  17  19  ar  
 33  18  20  ar  
 34  18  34  1   
 35  19  21  ar  
 36  19  35  1   
 37  20  21  ar  
 38  21  36  1   
@<TRIPOS>SUBSTRUCTURE
  1 ****  11 GROUP 4 **** **** 0

# MOE 2024.06 (io_trps.svl 2023.06)
