@<TRIPOS>MOLECULE
NONAME
41 44 1 0 0 
SMALL
USER_CHARGES


@<TRIPOS>ATOM
  1 S       -0.2180     1.1210     2.4350 S.3   1 <1>  -0.0800 
  2 C       -1.0750     1.3130     0.9130 C.2   1 <1>  -0.1400 
  3 C       -1.3060    -0.1740     2.9190 C.2   1 <1>  -0.1100 
  4 C       -2.0990     0.4540     0.8340 C.2   1 <1>  -0.1810 
  5 C       -0.6670     2.3370    -0.1400 C.3   1 <1>   0.4600 
  6 C       -2.2350    -0.4030     1.9710 C.2   1 <1>  -0.1500 
  7 C       -2.9840     0.4620    -0.3920 C.3   1 <1>   0.0210 
  8 O       -1.4640     2.1480    -1.2930 O.3   1 <1>  -0.5600 
  9 C       -0.8640     3.7730     0.3660 C.3   1 <1>  -0.1600 
 10 C        0.7840     2.1170    -0.5820 C.3   1 <1>  -0.1600 
 11 C       -2.8220     1.8110    -1.1190 C.3   1 <1>   0.1200 
 12 C       -0.4030     4.7970    -0.6730 C.3   1 <1>   0.1400 
 13 C        1.2310     3.1700    -1.5980 C.3   1 <1>   0.1400 
 14 N        1.0220     4.5290    -1.0180 N.am  1 <1>  -0.6600 
 15 C        2.0750     5.4040    -0.8610 C.2   1 <1>   0.5690 
 16 O        3.1860     5.1250    -1.2530 O.2   1 <1>  -0.5700 
 17 C        1.8780     6.7670    -0.1700 C.3   1 <1>   0.2810 
 18 N        3.0520     7.6820    -0.2480 N.am  1 <1>  -0.7300 
 19 C        1.6740     6.6050     1.3500 C.3   1 <1>   0.1400 
 20 C        3.4890     7.9930     0.9780 C.2   1 <1>   0.6900 
 21 N        2.6670     7.5300     1.9290 N.am  1 <1>  -0.7300 
 22 O        4.5540     8.5170     1.2100 O.2   1 <1>  -0.5700 
 23 H       -1.1320    -0.6340     3.8750 H     1 <1>   0.1500 
 24 H       -3.0150    -1.1430     2.0230 H     1 <1>   0.1500 
 25 H       -4.0120     0.3310    -0.1080 H     1 <1>   0.0800 
 26 H       -2.7060    -0.3440    -1.0480 H     1 <1>   0.0800 
 27 H       -0.2940     3.9100     1.2660 H     1 <1>   0.0800 
 28 H       -1.8960     3.9350     0.6150 H     1 <1>   0.0800 
 29 H        0.8800     1.1350    -1.0050 H     1 <1>   0.0800 
 30 H        1.4370     2.1680     0.2700 H     1 <1>   0.0800 
 31 H       -3.2980     2.5960    -0.5580 H     1 <1>   0.0800 
 32 H       -3.2740     1.7630    -2.0940 H     1 <1>   0.0800 
 33 H       -0.5400     5.7900    -0.2880 H     1 <1>   0.0800 
 34 H       -1.0010     4.7040    -1.5640 H     1 <1>   0.0800 
 35 H        0.6550     3.0770    -2.5030 H     1 <1>   0.0800 
 36 H        2.2670     3.0100    -1.8480 H     1 <1>   0.0800 
 37 H        1.0340     7.2660    -0.6080 H     1 <1>   0.0800 
 38 H        3.7750     7.4280    -0.9250 H     1 <1>   0.3700 
 39 H        1.8800     5.5960     1.6640 H     1 <1>   0.0800 
 40 H        0.6770     6.8850     1.6410 H     1 <1>   0.0800 
 41 H        3.0530     7.3980     2.8640 H     1 <1>   0.3700 
@<TRIPOS>BOND
  1   1   2  1   
  2   1   3  1   
  3   2   4  2   
  4   2   5  1   
  5   3   6  2   
  6   3  23  1   
  7   4   6  1   
  8   4   7  1   
  9   5   8  1   
 10   5   9  1   
 11   5  10  1   
 12   6  24  1   
 13   7  11  1   
 14   7  25  1   
 15   7  26  1   
 16   8  11  1   
 17   9  12  1   
 18   9  27  1   
 19   9  28  1   
 20  10  13  1   
 21  10  29  1   
 22  10  30  1   
 23  11  31  1   
 24  11  32  1   
 25  12  14  1   
 26  12  33  1   
 27  12  34  1   
 28  13  14  1   
 29  13  35  1   
 30  13  36  1   
 31  14  15  am  
 32  15  16  2   
 33  15  17  1   
 34  17  18  1   
 35  17  19  1   
 36  17  37  1   
 37  18  20  am  
 38  18  38  1   
 39  19  21  1   
 40  19  39  1   
 41  19  40  1   
 42  20  21  am  
 43  20  22  2   
 44  21  41  1   
@<TRIPOS>SUBSTRUCTURE
  1 ****   9 GROUP 4 **** **** 0

# MOE 2024.06 (io_trps.svl 2023.06)
