@<TRIPOS>MOLECULE
NONAME
54 58 1 0 0 
SMALL
USER_CHARGES


@<TRIPOS>ATOM
  1 F       -2.6690    -1.6910     2.3780 F     1 <1>  -0.1900 
  2 C       -2.1240    -2.6770     1.7200 C.ar  1 <1>   0.1900 
  3 C       -2.2740    -2.7370     0.3340 C.ar  1 <1>   0.0000 
  4 C       -1.4190    -3.6180     2.4450 C.ar  1 <1>  -0.1500 
  5 C       -3.0270    -1.7600    -0.4260 C.ar  1 <1>   0.0000 
  6 C       -1.6480    -3.8030    -0.3120 C.ar  1 <1>  -0.1500 
  7 C       -0.8210    -4.6700     1.7750 C.ar  1 <1>  -0.1500 
  8 C       -4.4070    -1.5390    -0.2440 C.ar  1 <1>   0.0860 
  9 C       -2.3440    -1.0080    -1.3790 C.ar  1 <1>  -0.1500 
 10 C       -0.9350    -4.7570     0.3960 C.ar  1 <1>  -0.1500 
 11 C       -5.2150    -2.2880     0.7030 C.2   1 <1>   0.5440 
 12 C       -5.0250    -0.5540    -1.0160 C.ar  1 <1>  -0.1500 
 13 C       -2.9820    -0.0500    -2.1410 C.ar  1 <1>  -0.1500 
 14 O       -6.0590    -1.7230     1.3720 O.2   1 <1>  -0.5700 
 15 N       -5.1330    -3.6560     0.8430 N.am  1 <1>  -0.6600 
 16 C       -4.3310     0.1810    -1.9560 C.ar  1 <1>  -0.1500 
 17 C       -5.5800    -4.3210     2.1020 C.3   1 <1>   0.1400 
 18 C       -4.9790    -4.5730    -0.3170 C.3   1 <1>   0.1400 
 19 C       -6.8940    -5.1000     1.8840 C.3   1 <1>   0.4230 
 20 C       -6.2870    -5.3560    -0.5450 C.3   1 <1>   0.3430 
 21 N       -6.7880    -6.0520     0.7020 N.4   1 <1>  -0.9590 
 22 C       -8.0980    -4.1410     1.7210 C.3   1 <1>   0.1200 
 23 C       -8.1110    -6.7310     0.5060 C.3   1 <1>   0.5180 
 24 O       -9.2790    -4.8740     1.5300 O.3   1 <1>  -0.5600 
 25 C       -8.0460    -7.6550    -0.7160 C.3   1 <1>  -0.1950 
 26 C       -9.2750    -5.7190     0.4130 C.3   1 <1>   0.1200 
 27 C       -8.7270    -8.9880    -0.6840 C.3   1 <1>  -0.2000 
 28 C       -7.2280    -8.9120    -0.7100 C.3   1 <1>  -0.2000 
 29 H       -1.3360    -3.5210     3.5130 H     1 <1>   0.1500 
 30 H       -1.7160    -3.8830    -1.3830 H     1 <1>   0.1500 
 31 H       -0.2600    -5.4110     2.3200 H     1 <1>   0.1500 
 32 H       -1.2880    -1.1690    -1.5200 H     1 <1>   0.1500 
 33 H       -0.4570    -5.5690    -0.1260 H     1 <1>   0.1500 
 34 H       -6.0740    -0.3580    -0.8690 H     1 <1>   0.1500 
 35 H       -2.4320     0.5200    -2.8700 H     1 <1>   0.1500 
 36 H       -4.8340     0.9350    -2.5380 H     1 <1>   0.1500 
 37 H       -4.8100    -4.9950     2.4330 H     1 <1>   0.0800 
 38 H       -5.7160    -3.5910     2.8820 H     1 <1>   0.0800 
 39 H       -4.7420    -4.0140    -1.2050 H     1 <1>   0.0800 
 40 H       -4.1670    -5.2550    -0.1290 H     1 <1>   0.0800 
 41 H       -7.0780    -5.6720     2.7780 H     1 <1>   0.0800 
 42 H       -6.1250    -6.0800    -1.3270 H     1 <1>   0.0800 
 43 H       -7.0340    -4.6620    -0.8920 H     1 <1>   0.0800 
 44 H       -6.1130    -6.7850     0.9420 H     1 <1>   0.4500 
 45 H       -7.9630    -3.4730     0.8880 H     1 <1>   0.0800 
 46 H       -8.2210    -3.5450     2.6080 H     1 <1>   0.0800 
 47 H       -8.3030    -7.3500     1.3680 H     1 <1>   0.0800 
 48 H       -8.1450    -7.1220    -1.6460 H     1 <1>   0.1000 
 49 H      -10.2160    -6.2430     0.3990 H     1 <1>   0.0800 
 50 H       -9.2070    -5.1180    -0.4760 H     1 <1>   0.0800 
 51 H       -9.2020    -9.3370     0.2180 H     1 <1>   0.1000 
 52 H       -9.2330    -9.3420    -1.5690 H     1 <1>   0.1000 
 53 H       -6.7270    -9.2230    -1.6120 H     1 <1>   0.1000 
 54 H       -6.7060    -9.2340     0.1750 H     1 <1>   0.1000 
@<TRIPOS>BOND
  1   1   2  1   
  2   2   3  ar  
  3   2   4  ar  
  4   3   5  1   
  5   3   6  ar  
  6   4   7  ar  
  7   4  29  1   
  8   5   8  ar  
  9   5   9  ar  
 10   6  10  ar  
 11   6  30  1   
 12   7  10  ar  
 13   7  31  1   
 14   8  11  1   
 15   8  12  ar  
 16   9  13  ar  
 17   9  32  1   
 18  10  33  1   
 19  11  14  2   
 20  11  15  am  
 21  12  16  ar  
 22  12  34  1   
 23  13  16  ar  
 24  13  35  1   
 25  15  17  1   
 26  15  18  1   
 27  16  36  1   
 28  17  19  1   
 29  17  37  1   
 30  17  38  1   
 31  18  20  1   
 32  18  39  1   
 33  18  40  1   
 34  19  21  1   
 35  19  22  1   
 36  19  41  1   
 37  20  21  1   
 38  20  42  1   
 39  20  43  1   
 40  21  23  1   
 41  21  44  1   
 42  22  24  1   
 43  22  45  1   
 44  22  46  1   
 45  23  25  1   
 46  23  26  1   
 47  23  47  1   
 48  24  26  1   
 49  25  27  1   
 50  25  28  1   
 51  25  48  1   
 52  26  49  1   
 53  26  50  1   
 54  27  28  1   
 55  27  51  1   
 56  27  52  1   
 57  28  53  1   
 58  28  54  1   
@<TRIPOS>SUBSTRUCTURE
  1 ****  15 GROUP 4 **** **** 0

# MOE 2024.06 (io_trps.svl 2023.06)
