@<TRIPOS>MOLECULE
NONAME
41 43 1 0 0 
SMALL
USER_CHARGES


@<TRIPOS>ATOM
  1 CL      -0.9220    -1.3800    -3.0060 Cl    1 <1>  -0.1770 
  2 C       -1.0270    -2.7820    -1.9680 C.ar  1 <1>   0.1770 
  3 C       -1.6840    -3.9200    -2.3980 C.ar  1 <1>   0.1600 
  4 C       -0.4500    -2.7490    -0.7170 C.ar  1 <1>  -0.1500 
  5 N       -1.8120    -5.0270    -1.6770 N.ar  1 <1>  -0.6200 
  6 C       -0.5760    -3.8940     0.0380 C.ar  1 <1>  -0.1500 
  7 C       -1.2600    -5.0010    -0.4700 C.ar  1 <1>   0.4270 
  8 N       -1.4250    -6.1770     0.2240 N.am  1 <1>  -0.5470 
  9 C       -1.2590    -6.5330     1.5280 C.2   1 <1>   0.5690 
 10 O       -0.8430    -5.7890     2.3820 O.2   1 <1>  -0.5700 
 11 C       -1.6440    -7.9660     1.9060 C.3   1 <1>   0.1710 
 12 N       -2.5900    -8.6050     0.9470 N.3   1 <1>  -0.8100 
 13 C       -2.5830   -10.0820     1.1090 C.3   1 <1>   0.2910 
 14 C       -3.9630    -8.0470     1.0630 C.3   1 <1>   0.1100 
 15 C       -3.6810   -10.7060     0.2630 C.2   1 <1>  -0.1810 
 16 C       -4.8590    -8.5190    -0.0990 C.3   1 <1>   0.0200 
 17 C       -3.8790   -12.0410    -0.1140 C.2   1 <1>   0.2030 
 18 C       -4.6950   -10.0160    -0.2790 C.2   1 <1>  -0.3320 
 19 N       -4.9660   -12.1360    -0.8670 N.2   1 <1>  -0.7070 
 20 C       -3.0260   -13.1590     0.2660 C.2   1 <1>   0.7160 
 21 N       -5.4520   -10.8910    -0.9650 N.pl3 1 <1>   0.3140 
 22 O       -2.0690   -13.0460     1.0110 O.2   1 <1>  -0.5700 
 23 N       -3.2820   -14.4030    -0.2020 N.am  1 <1>  -0.8000 
 24 C       -6.6590   -10.5870    -1.7410 C.3   1 <1>   0.0160 
 25 H       -2.1220    -3.9150    -3.3800 H     1 <1>   0.1500 
 26 H        0.0680    -1.8760    -0.3620 H     1 <1>   0.1500 
 27 H       -0.1430    -3.9310     1.0200 H     1 <1>   0.1500 
 28 H       -1.8580    -6.9170    -0.3350 H     1 <1>   0.3700 
 29 H       -2.0670    -7.9650     2.8940 H     1 <1>   0.0800 
 30 H       -0.7320    -8.5360     1.9370 H     1 <1>   0.0800 
 31 H       -2.7420   -10.3470     2.1400 H     1 <1>   0.0800 
 32 H       -1.6270   -10.4690     0.7980 H     1 <1>   0.0800 
 33 H       -3.9340    -6.9710     1.0610 H     1 <1>   0.0800 
 34 H       -4.3970    -8.3680     1.9960 H     1 <1>   0.0800 
 35 H       -4.5710    -8.0120    -1.0030 H     1 <1>   0.0800 
 36 H       -5.8830    -8.2750     0.1200 H     1 <1>   0.0800 
 37 H       -2.7120   -15.1980     0.0760 H     1 <1>   0.3700 
 38 H       -4.0910   -14.5530    -0.8070 H     1 <1>   0.3700 
 39 H       -6.4320    -9.8230    -2.4600 H     1 <1>   0.0800 
 40 H       -7.4300   -10.2500    -1.0740 H     1 <1>   0.0800 
 41 H       -6.9840   -11.4760    -2.2490 H     1 <1>   0.0800 
@<TRIPOS>BOND
  1   1   2  1   
  2   2   3  ar  
  3   2   4  ar  
  4   3   5  ar  
  5   3  25  1   
  6   4   6  ar  
  7   4  26  1   
  8   5   7  ar  
  9   6   7  ar  
 10   6  27  1   
 11   7   8  1   
 12   8   9  am  
 13   8  28  1   
 14   9  10  2   
 15   9  11  1   
 16  11  12  1   
 17  11  29  1   
 18  11  30  1   
 19  12  13  1   
 20  12  14  1   
 21  13  15  1   
 22  13  31  1   
 23  13  32  1   
 24  14  16  1   
 25  14  33  1   
 26  14  34  1   
 27  15  17  1   
 28  15  18  2   
 29  16  18  1   
 30  16  35  1   
 31  16  36  1   
 32  17  19  2   
 33  17  20  1   
 34  18  21  1   
 35  19  21  1   
 36  20  22  2   
 37  20  23  am  
 38  21  24  1   
 39  23  37  1   
 40  23  38  1   
 41  24  39  1   
 42  24  40  1   
 43  24  41  1   
@<TRIPOS>SUBSTRUCTURE
  1 ****  12 GROUP 4 **** **** 0

# MOE 2024.06 (io_trps.svl 2023.06)
