@<TRIPOS>MOLECULE
NONAME
42 43 1 0 0 
SMALL
USER_CHARGES


@<TRIPOS>ATOM
  1 O        1.8450    -0.7970    -2.3610 O.2   1 <1>  -0.5700 
  2 C        1.7780    -0.9590    -1.1650 C.2   1 <1>   0.5690 
  3 N        1.9170     0.0810    -0.2960 N.am  1 <1>  -0.7300 
  4 C        1.5910    -2.3830    -0.6180 C.3   1 <1>   0.1710 
  5 C        2.1410     1.4930    -0.6850 C.3   1 <1>   0.1400 
  6 N        0.2320    -2.7240    -0.1010 N.3   1 <1>  -0.8100 
  7 C        3.3150     2.0950     0.1030 C.3   1 <1>  -0.0800 
  8 C        0.0910    -4.1890     0.0660 C.3   1 <1>   0.2910 
  9 C       -0.1010    -2.0110     1.1430 C.3   1 <1>   0.0300 
 10 C        3.4510     3.5930    -0.2250 C.3   1 <1>  -0.1600 
 11 C        4.6390     1.3630    -0.1930 C.3   1 <1>  -0.1600 
 12 C       -1.3510    -4.6090     0.3220 C.2   1 <1>   0.1080 
 13 C        4.6260     4.2320     0.5260 C.3   1 <1>  -0.1600 
 14 C        5.8190     2.0030     0.5530 C.3   1 <1>  -0.1600 
 15 N       -1.7150    -5.4510     1.2260 N.2   1 <1>  -0.4100 
 16 C       -2.4550    -4.1400    -0.3860 C.2   1 <1>  -0.1500 
 17 C        5.9380     3.4960     0.2280 C.3   1 <1>  -0.1600 
 18 O       -3.0110    -5.5470     1.1310 O.3   1 <1>  -0.0190 
 19 C       -3.4840    -4.7820     0.1840 C.2   1 <1>  -0.0100 
 20 H        1.8310    -0.0910     0.7040 H     1 <1>   0.3700 
 21 H        2.3220    -2.5510     0.1520 H     1 <1>   0.0800 
 22 H        1.8250    -3.0470    -1.4320 H     1 <1>   0.0800 
 23 H        1.2420     2.0510    -0.4870 H     1 <1>   0.0800 
 24 H        2.3430     1.5530    -1.7420 H     1 <1>   0.0800 
 25 H        3.0960     2.0060     1.1540 H     1 <1>   0.0800 
 26 H        0.7090    -4.5270     0.8800 H     1 <1>   0.0800 
 27 H        0.4170    -4.6850    -0.8310 H     1 <1>   0.0800 
 28 H       -0.1330    -0.9510     0.9650 H     1 <1>   0.0800 
 29 H        0.6240    -2.2260     1.9100 H     1 <1>   0.0800 
 30 H       -1.0740    -2.3060     1.4960 H     1 <1>   0.0800 
 31 H        2.5430     4.1080     0.0400 H     1 <1>   0.0800 
 32 H        3.6030     3.7160    -1.2840 H     1 <1>   0.0800 
 33 H        4.8330     1.3910    -1.2520 H     1 <1>   0.0800 
 34 H        4.5640     0.3290     0.0970 H     1 <1>   0.0800 
 35 H        4.4340     4.2020     1.5850 H     1 <1>   0.0800 
 36 H        4.7200     5.2650     0.2380 H     1 <1>   0.0800 
 37 H        6.7310     1.5010     0.2800 H     1 <1>   0.0800 
 38 H        5.6800     1.8790     1.6130 H     1 <1>   0.0800 
 39 H       -2.4300    -3.4250    -1.1890 H     1 <1>   0.1500 
 40 H        6.7360     3.9300     0.8060 H     1 <1>   0.0800 
 41 H        6.1840     3.6150    -0.8140 H     1 <1>   0.0800 
 42 H       -4.5410    -4.7590    -0.0050 H     1 <1>   0.1500 
@<TRIPOS>BOND
  1   1   2  2   
  2   2   3  am  
  3   2   4  1   
  4   3   5  1   
  5   3  20  1   
  6   4   6  1   
  7   4  21  1   
  8   4  22  1   
  9   5   7  1   
 10   5  23  1   
 11   5  24  1   
 12   6   8  1   
 13   6   9  1   
 14   7  10  1   
 15   7  11  1   
 16   7  25  1   
 17   8  12  1   
 18   8  26  1   
 19   8  27  1   
 20   9  28  1   
 21   9  29  1   
 22   9  30  1   
 23  10  13  1   
 24  10  31  1   
 25  10  32  1   
 26  11  14  1   
 27  11  33  1   
 28  11  34  1   
 29  12  15  2   
 30  12  16  1   
 31  13  17  1   
 32  13  35  1   
 33  13  36  1   
 34  14  17  1   
 35  14  37  1   
 36  14  38  1   
 37  15  18  1   
 38  16  19  2   
 39  16  39  1   
 40  17  40  1   
 41  17  41  1   
 42  18  19  1   
 43  19  42  1   
@<TRIPOS>SUBSTRUCTURE
  1 ****   2 GROUP 4 **** **** 0

# MOE 2024.06 (io_trps.svl 2023.06)
