@<TRIPOS>MOLECULE
NONAME
34 35 1 0 0 
SMALL
USER_CHARGES


@<TRIPOS>ATOM
  1 CL       2.0710     1.0820     1.1140 Cl    1 <1>  -0.1770 
  2 C        2.4310    -0.2050    -0.0170 C.ar  1 <1>   0.1770 
  3 C        2.8870     0.1300    -1.2890 C.ar  1 <1>   0.0860 
  4 C        2.2620    -1.5240     0.3910 C.ar  1 <1>  -0.1440 
  5 C        3.1800    -0.9340    -2.1340 C.ar  1 <1>   0.1900 
  6 C        3.0450     1.4990    -1.7050 C.2   1 <1>   0.5440 
  7 C        2.5620    -2.5510    -0.4940 C.ar  1 <1>  -0.1500 
  8 C        1.7540    -1.8570     1.7870 C.3   1 <1>  -0.0970 
  9 F        3.6360    -0.6910    -3.3320 F     1 <1>  -0.1900 
 10 C        3.0260    -2.2570    -1.7650 C.ar  1 <1>  -0.1500 
 11 O        2.1230     2.0420    -2.2810 O.2   1 <1>  -0.5700 
 12 N        4.2010     2.2110    -1.4530 N.am  1 <1>  -0.6600 
 13 C        4.3320     3.6560    -1.8390 C.3   1 <1>   0.1400 
 14 C        5.3730     1.6620    -0.7130 C.3   1 <1>   0.1400 
 15 C        4.5660     4.5030    -0.5840 C.3   1 <1>   0.2000 
 16 C        5.5960     2.4780     0.5650 C.3   1 <1>  -0.1600 
 17 O        4.8270     5.8190    -0.9390 O.3   1 <1>  -0.6800 
 18 C        5.7580     3.9610     0.2270 C.3   1 <1>   0.2000 
 19 O        5.8990     4.6790     1.4070 O.3   1 <1>  -0.6800 
 20 H        2.4370    -3.5810    -0.2010 H     1 <1>   0.1500 
 21 H        1.6670    -2.9200     1.9260 H     1 <1>   0.0800 
 22 H        0.7850    -1.4160     1.9410 H     1 <1>   0.0800 
 23 H        2.4310    -1.4720     2.5290 H     1 <1>   0.0800 
 24 H        3.2640    -3.0410    -2.4620 H     1 <1>   0.1500 
 25 H        5.1650     3.7640    -2.5110 H     1 <1>   0.0800 
 26 H        3.4450     4.0040    -2.3380 H     1 <1>   0.0800 
 27 H        5.2250     0.6280    -0.4600 H     1 <1>   0.0800 
 28 H        6.2430     1.7260    -1.3450 H     1 <1>   0.0800 
 29 H        3.6710     4.4910     0.0130 H     1 <1>   0.0800 
 30 H        6.4830     2.1230     1.0580 H     1 <1>   0.0800 
 31 H        4.7560     2.3330     1.2210 H     1 <1>   0.0800 
 32 H        5.2240     6.2700    -0.1640 H     1 <1>   0.4000 
 33 H        6.6600     4.0960    -0.3460 H     1 <1>   0.0800 
 34 H        5.1420     4.5070     2.0000 H     1 <1>   0.4000 
@<TRIPOS>BOND
  1   1   2  1   
  2   2   3  ar  
  3   2   4  ar  
  4   3   5  ar  
  5   3   6  1   
  6   4   7  ar  
  7   4   8  1   
  8   5   9  1   
  9   5  10  ar  
 10   6  11  2   
 11   6  12  am  
 12   7  10  ar  
 13   7  20  1   
 14   8  21  1   
 15   8  22  1   
 16   8  23  1   
 17  10  24  1   
 18  12  13  1   
 19  12  14  1   
 20  13  15  1   
 21  13  25  1   
 22  13  26  1   
 23  14  16  1   
 24  14  27  1   
 25  14  28  1   
 26  15  17  1   
 27  15  18  1   
 28  15  29  1   
 29  16  18  1   
 30  16  30  1   
 31  16  31  1   
 32  17  32  1   
 33  18  19  1   
 34  18  33  1   
 35  19  34  1   
@<TRIPOS>SUBSTRUCTURE
  1 ****   6 GROUP 4 **** **** 0

# MOE 2024.06 (io_trps.svl 2023.06)
