@<TRIPOS>MOLECULE
NONAME
41 43 1 0 0 
SMALL
USER_CHARGES


@<TRIPOS>ATOM
  1 CL       2.3750    -0.3870    -1.1520 Cl    1 <1>  -0.1770 
  2 C        2.7760    -0.1450     0.5320 C.ar  1 <1>   0.1770 
  3 C        3.9100     0.5630     0.9080 C.ar  1 <1>   0.0860 
  4 C        1.9350    -0.6890     1.4870 C.ar  1 <1>   0.1600 
  5 C        4.8290     1.1790    -0.0250 C.2   1 <1>   0.5440 
  6 C        4.1120     0.6400     2.2810 C.ar  1 <1>  -0.1500 
  7 N        2.1260    -0.5950     2.7940 N.ar  1 <1>  -0.6200 
  8 O        6.0300     1.1290     0.1660 O.2   1 <1>  -0.5700 
  9 N        4.4150     1.9440    -1.0890 N.am  1 <1>  -0.6600 
 10 C        3.2150     0.0620     3.1600 C.ar  1 <1>   0.1600 
 11 C        5.2040     1.9830    -2.3670 C.3   1 <1>   0.1400 
 12 C        3.4430     3.0490    -0.9030 C.3   1 <1>   0.1400 
 13 C        6.4500     2.8950    -2.2820 C.3   1 <1>   0.3430 
 14 C        4.1430     4.2570    -0.2620 C.3   1 <1>  -0.1600 
 15 N        6.4380     3.7100    -1.0320 N.4   1 <1>  -0.9590 
 16 C        5.3860     4.7640    -1.0040 C.3   1 <1>   0.3430 
 17 C        7.7740     4.1610    -0.5870 C.3   1 <1>   0.5240 
 18 C        7.6600     4.4690     0.8880 C.2   1 <1>  -0.1810 
 19 C        7.5760     3.5900     1.9110 C.2   1 <1>  -0.0100 
 20 C        7.6010     5.7410     1.4790 C.2   1 <1>  -0.1500 
 21 O        7.4580     4.2240     3.0580 O.3   1 <1>  -0.2800 
 22 C        7.4780     5.5170     2.8040 C.2   1 <1>  -0.0100 
 23 H        1.0650    -1.2290     1.1550 H     1 <1>   0.1500 
 24 H        4.9760     1.1530     2.6670 H     1 <1>   0.1500 
 25 H        3.4000     0.1410     4.2200 H     1 <1>   0.1500 
 26 H        4.5710     2.3120    -3.1720 H     1 <1>   0.0800 
 27 H        5.5250     0.9840    -2.6100 H     1 <1>   0.0800 
 28 H        2.6350     2.7210    -0.2690 H     1 <1>   0.0800 
 29 H        3.0160     3.3230    -1.8540 H     1 <1>   0.0800 
 30 H        6.5080     3.5280    -3.1520 H     1 <1>   0.0800 
 31 H        7.3190     2.2580    -2.2800 H     1 <1>   0.0800 
 32 H        4.4060     4.0260     0.7560 H     1 <1>   0.0800 
 33 H        3.4320     5.0630    -0.2160 H     1 <1>   0.0800 
 34 H        6.1560     3.0070    -0.3190 H     1 <1>   0.4500 
 35 H        5.7580     5.6350    -0.4890 H     1 <1>   0.0800 
 36 H        5.1250     5.0560    -2.0090 H     1 <1>   0.0800 
 37 H        8.0930     5.0300    -1.1380 H     1 <1>   0.0800 
 38 H        8.4940     3.3710    -0.7260 H     1 <1>   0.0800 
 39 H        7.5860     2.5110     1.9190 H     1 <1>   0.1500 
 40 H        7.6520     6.6910     0.9740 H     1 <1>   0.1500 
 41 H        7.4020     6.2060     3.6290 H     1 <1>   0.1500 
@<TRIPOS>BOND
  1   1   2  1   
  2   2   3  ar  
  3   2   4  ar  
  4   3   5  1   
  5   3   6  ar  
  6   4   7  ar  
  7   4  23  1   
  8   5   8  2   
  9   5   9  am  
 10   6  10  ar  
 11   6  24  1   
 12   7  10  ar  
 13   9  11  1   
 14   9  12  1   
 15  10  25  1   
 16  11  13  1   
 17  11  26  1   
 18  11  27  1   
 19  12  14  1   
 20  12  28  1   
 21  12  29  1   
 22  13  15  1   
 23  13  30  1   
 24  13  31  1   
 25  14  16  1   
 26  14  32  1   
 27  14  33  1   
 28  15  16  1   
 29  15  17  1   
 30  15  34  1   
 31  16  35  1   
 32  16  36  1   
 33  17  18  1   
 34  17  37  1   
 35  17  38  1   
 36  18  19  2   
 37  18  20  1   
 38  19  21  1   
 39  19  39  1   
 40  20  22  2   
 41  20  40  1   
 42  21  22  1   
 43  22  41  1   
@<TRIPOS>SUBSTRUCTURE
  1 ****   5 GROUP 4 **** **** 0

# MOE 2024.06 (io_trps.svl 2023.06)
