@<TRIPOS>MOLECULE
NONAME
52 55 1 0 0 
SMALL
USER_CHARGES


@<TRIPOS>ATOM
  1 O       -0.3620    -3.3790     1.9540 O.2   1 <1>  -0.5700 
  2 C        0.6440    -2.9510     1.4360 C.2   1 <1>   0.5690 
  3 N        0.6440    -2.4910     0.1460 N.am  1 <1>  -0.6600 
  4 C        1.9250    -2.9800     2.2520 C.3   1 <1>  -0.0990 
  5 C        1.8570    -2.0200    -0.5760 C.3   1 <1>   0.1400 
  6 C       -0.6300    -2.4490    -0.6510 C.3   1 <1>   0.2010 
  7 C        3.0660    -2.1580     1.6380 C.3   1 <1>  -0.1600 
  8 C        3.1470    -2.4410     0.1360 C.3   1 <1>  -0.1600 
  9 C       -1.0250    -3.8110    -1.2210 C.2   1 <1>   0.5690 
 10 O       -1.1510    -3.9450    -2.4160 O.2   1 <1>  -0.5700 
 11 N       -1.2180    -4.8390    -0.3580 N.am  1 <1>  -0.7300 
 12 C       -1.5080    -6.2410    -0.7190 C.3   1 <1>   0.2200 
 13 C       -2.6980    -6.7290     0.0900 C.3   1 <1>  -0.0800 
 14 C       -0.3750    -7.1490    -0.2320 C.3   1 <1>   0.1200 
 15 C       -2.0130    -7.1790     1.3800 C.3   1 <1>   0.1200 
 16 C       -3.4180    -7.8910    -0.6220 C.3   1 <1>  -0.0170 
 17 O       -0.7790    -7.6980     0.9910 O.3   1 <1>  -0.5600 
 18 C       -4.6240    -8.3890     0.1690 C.ar  1 <1>  -0.1440 
 19 C       -5.8570    -7.6950     0.1950 C.ar  1 <1>   0.0000 
 20 C       -4.5370    -9.5460     0.8860 C.ar  1 <1>  -0.1500 
 21 C       -6.9060    -8.2480     0.9700 C.ar  1 <1>   0.3100 
 22 C       -6.1130    -6.4910    -0.5020 C.ar  1 <1>  -0.1500 
 23 C       -5.6370   -10.0070     1.6180 C.ar  1 <1>   0.1600 
 24 N       -6.7800    -9.4020     1.6740 N.ar  1 <1>  -0.6200 
 25 C       -8.1410    -7.5810     1.0170 C.ar  1 <1>  -0.1500 
 26 C       -7.3280    -5.8660    -0.4350 C.ar  1 <1>  -0.1500 
 27 C       -8.3570    -6.4150     0.3340 C.ar  1 <1>  -0.1500 
 28 H        1.7140    -2.6230     3.2440 H     1 <1>   0.0800 
 29 H        2.2310    -4.0070     2.3320 H     1 <1>   0.0800 
 30 H        1.8590    -2.4190    -1.5770 H     1 <1>   0.0800 
 31 H        1.8200    -0.9460    -0.6420 H     1 <1>   0.0800 
 32 H       -1.4300    -2.1060    -0.0190 H     1 <1>   0.0800 
 33 H       -0.5310    -1.7490    -1.4610 H     1 <1>   0.0800 
 34 H        2.8790    -1.1090     1.7960 H     1 <1>   0.0800 
 35 H        3.9970    -2.4090     2.1170 H     1 <1>   0.0800 
 36 H        3.3180    -3.4910    -0.0310 H     1 <1>   0.0800 
 37 H        3.9760    -1.9050    -0.2930 H     1 <1>   0.0800 
 38 H       -1.0230    -4.6560     0.6390 H     1 <1>   0.3700 
 39 H       -1.6580    -6.3240    -1.7820 H     1 <1>   0.0800 
 40 H       -3.3960    -5.9350     0.2840 H     1 <1>   0.0800 
 41 H        0.5460    -6.6100    -0.0940 H     1 <1>   0.0800 
 42 H       -0.2220    -7.9640    -0.9160 H     1 <1>   0.0800 
 43 H       -2.5620    -7.9290     1.9210 H     1 <1>   0.0800 
 44 H       -1.8250    -6.3370     2.0250 H     1 <1>   0.0800 
 45 H       -2.7280    -8.7050    -0.7670 H     1 <1>   0.0800 
 46 H       -3.7390    -7.5810    -1.6010 H     1 <1>   0.0800 
 47 H       -3.6320   -10.1260     0.9110 H     1 <1>   0.1500 
 48 H       -5.3380    -6.0530    -1.1020 H     1 <1>   0.1500 
 49 H       -5.5230   -10.9250     2.1710 H     1 <1>   0.1500 
 50 H       -8.9170    -8.0220     1.6150 H     1 <1>   0.1500 
 51 H       -7.5080    -4.9500    -0.9710 H     1 <1>   0.1500 
 52 H       -9.3090    -5.9150     0.3800 H     1 <1>   0.1500 
@<TRIPOS>BOND
  1   1   2  2   
  2   2   3  am  
  3   2   4  1   
  4   3   5  1   
  5   3   6  1   
  6   4   7  1   
  7   4  28  1   
  8   4  29  1   
  9   5   8  1   
 10   5  30  1   
 11   5  31  1   
 12   6   9  1   
 13   6  32  1   
 14   6  33  1   
 15   7   8  1   
 16   7  34  1   
 17   7  35  1   
 18   8  36  1   
 19   8  37  1   
 20   9  10  2   
 21   9  11  am  
 22  11  12  1   
 23  11  38  1   
 24  12  13  1   
 25  12  14  1   
 26  12  39  1   
 27  13  15  1   
 28  13  16  1   
 29  13  40  1   
 30  14  17  1   
 31  14  41  1   
 32  14  42  1   
 33  15  17  1   
 34  15  43  1   
 35  15  44  1   
 36  16  18  1   
 37  16  45  1   
 38  16  46  1   
 39  18  19  ar  
 40  18  20  ar  
 41  19  21  ar  
 42  19  22  ar  
 43  20  23  ar  
 44  20  47  1   
 45  21  24  ar  
 46  21  25  ar  
 47  22  26  ar  
 48  22  48  1   
 49  23  24  ar  
 50  23  49  1   
 51  25  27  ar  
 52  25  50  1   
 53  26  27  ar  
 54  26  51  1   
 55  27  52  1   
@<TRIPOS>SUBSTRUCTURE
  1 ****  13 GROUP 4 **** **** 0

# MOE 2024.06 (io_trps.svl 2023.06)
