@<TRIPOS>MOLECULE
NONAME
51 53 1 0 0 
SMALL
USER_CHARGES


@<TRIPOS>ATOM
  1 O       -0.3980    -0.0720     0.7060 O.2   1 <1>  -0.5700 
  2 C       -1.3260     0.5720     0.2530 C.2   1 <1>   0.6900 
  3 N       -2.5800     0.0270     0.2170 N.am  1 <1>  -0.6600 
  4 N       -1.1630     1.8410    -0.2250 N.am  1 <1>  -0.5470 
  5 C       -3.8450     0.7560    -0.0180 C.3   1 <1>   0.1400 
  6 C       -2.8430    -1.3690     0.6200 C.3   1 <1>   0.1400 
  7 C       -0.0640     2.7150    -0.2740 C.ar  1 <1>   0.1170 
  8 C       -4.9360    -0.1230     0.6100 C.3   1 <1>  -0.0800 
  9 C       -4.3610    -1.5510     0.5370 C.3   1 <1>  -0.0800 
 10 C       -0.2780     4.0980    -0.3250 C.ar  1 <1>  -0.1430 
 11 C        1.2410     2.2320    -0.2970 C.ar  1 <1>  -0.1500 
 12 C       -6.3740     0.0410     0.0260 C.3   1 <1>   0.2800 
 13 C       -4.8020    -2.2520    -0.7570 C.3   1 <1>  -0.1600 
 14 C        0.8180     4.9510    -0.3970 C.ar  1 <1>  -0.1500 
 15 C       -1.7160     4.6370    -0.2960 C.3   1 <1>  -0.0170 
 16 C        2.3210     3.0900    -0.3650 C.ar  1 <1>  -0.1500 
 17 O       -6.3140     0.4930    -1.2790 O.3   1 <1>  -0.6800 
 18 C       -7.0900    -1.3220    -0.0170 C.3   1 <1>  -0.1600 
 19 C       -7.2250     1.0610     0.8150 C.3   1 <1>  -0.1600 
 20 C       -6.3340    -2.3920    -0.8330 C.3   1 <1>  -0.1600 
 21 C        2.1080     4.4530    -0.4160 C.ar  1 <1>  -0.1500 
 22 C       -1.8650     6.1610    -0.2150 C.3   1 <1>  -0.2400 
 23 C       -6.6670     2.4940     0.8680 C.3   1 <1>  -0.2400 
 24 H       -2.0260     2.2220    -0.5890 H     1 <1>   0.3700 
 25 H       -3.8230     1.7300     0.4360 H     1 <1>   0.0800 
 26 H       -3.9760     0.8540    -1.0820 H     1 <1>   0.0800 
 27 H       -2.3170    -2.0510    -0.0260 H     1 <1>   0.0800 
 28 H       -2.5010    -1.5080     1.6320 H     1 <1>   0.0800 
 29 H       -4.9740     0.1240     1.6560 H     1 <1>   0.0800 
 30 H       -4.6940    -2.1390     1.3760 H     1 <1>   0.0800 
 31 H        1.4210     1.1730    -0.2670 H     1 <1>   0.1500 
 32 H       -4.4630    -1.6700    -1.5980 H     1 <1>   0.0800 
 33 H       -4.3470    -3.2240    -0.8300 H     1 <1>   0.0800 
 34 H        0.6960     6.0160    -0.4390 H     1 <1>   0.1500 
 35 H       -2.2270     4.2960    -1.1790 H     1 <1>   0.0800 
 36 H       -2.2180     4.2150     0.5590 H     1 <1>   0.0800 
 37 H        3.3210     2.6950    -0.3790 H     1 <1>   0.1500 
 38 H       -7.2070     0.4750    -1.6660 H     1 <1>   0.4000 
 39 H       -7.1840    -1.6760     0.9950 H     1 <1>   0.0800 
 40 H       -8.0890    -1.2130    -0.4000 H     1 <1>   0.0800 
 41 H       -8.2120     1.0940     0.3890 H     1 <1>   0.0800 
 42 H       -7.3370     0.7060     1.8250 H     1 <1>   0.0800 
 43 H       -6.6250    -3.3650    -0.4760 H     1 <1>   0.0800 
 44 H       -6.6280    -2.3290    -1.8670 H     1 <1>   0.0800 
 45 H        2.9460     5.1260    -0.4700 H     1 <1>   0.1500 
 46 H       -1.4440     6.6280    -1.0880 H     1 <1>   0.0800 
 47 H       -1.3740     6.5390     0.6640 H     1 <1>   0.0800 
 48 H       -2.9060     6.4240    -0.1620 H     1 <1>   0.0800 
 49 H       -6.4930     2.8730    -0.1240 H     1 <1>   0.0800 
 50 H       -5.7460     2.5280     1.4220 H     1 <1>   0.0800 
 51 H       -7.3730     3.1410     1.3570 H     1 <1>   0.0800 
@<TRIPOS>BOND
  1   1   2  2   
  2   2   3  am  
  3   2   4  am  
  4   3   5  1   
  5   3   6  1   
  6   4   7  1   
  7   4  24  1   
  8   5   8  1   
  9   5  25  1   
 10   5  26  1   
 11   6   9  1   
 12   6  27  1   
 13   6  28  1   
 14   7  10  ar  
 15   7  11  ar  
 16   8   9  1   
 17   8  12  1   
 18   8  29  1   
 19   9  13  1   
 20   9  30  1   
 21  10  14  ar  
 22  10  15  1   
 23  11  16  ar  
 24  11  31  1   
 25  12  17  1   
 26  12  18  1   
 27  12  19  1   
 28  13  20  1   
 29  13  32  1   
 30  13  33  1   
 31  14  21  ar  
 32  14  34  1   
 33  15  22  1   
 34  15  35  1   
 35  15  36  1   
 36  16  21  ar  
 37  16  37  1   
 38  17  38  1   
 39  18  20  1   
 40  18  39  1   
 41  18  40  1   
 42  19  23  1   
 43  19  41  1   
 44  19  42  1   
 45  20  43  1   
 46  20  44  1   
 47  21  45  1   
 48  22  46  1   
 49  22  47  1   
 50  22  48  1   
 51  23  49  1   
 52  23  50  1   
 53  23  51  1   
@<TRIPOS>SUBSTRUCTURE
  1 ****   5 GROUP 4 **** **** 0

# MOE 2024.06 (io_trps.svl 2023.06)
