@<TRIPOS>MOLECULE
NONAME
53 55 1 0 0 
SMALL
USER_CHARGES


@<TRIPOS>ATOM
  1 O       -1.2740     0.2200     1.7090 O.2   1 <1>  -0.5700 
  2 C       -2.1840     0.5130     0.9550 C.2   1 <1>   0.5440 
  3 N       -1.9620     1.4800    -0.0090 N.am  1 <1>  -0.6600 
  4 C       -3.4510    -0.1690     1.0880 C.ar  1 <1>   0.0860 
  5 C       -2.7530     1.5900    -1.2650 C.3   1 <1>   0.0600 
  6 C       -0.7590     2.3560     0.0400 C.3   1 <1>   0.0600 
  7 C       -3.4900    -1.5460     1.2880 C.ar  1 <1>   0.1600 
  8 C       -4.6760     0.4910     1.0370 C.ar  1 <1>  -0.1500 
  9 N       -4.5800    -2.2850     1.4020 N.ar  1 <1>  -0.6200 
 10 C       -5.8190    -0.2600     1.1610 C.ar  1 <1>  -0.1500 
 11 C       -5.7380    -1.6380     1.3360 C.ar  1 <1>   0.4100 
 12 N       -6.8910    -2.3680     1.4420 N.pl3 1 <1>  -0.8690 
 13 C       -6.9730    -3.8570     1.4440 C.3   1 <1>   0.2090 
 14 C       -7.5640    -4.4060     0.1210 C.3   1 <1>   0.1430 
 15 C       -8.9290    -3.7360    -0.1390 C.ar  1 <1>  -0.1430 
 16 C       -6.5640    -4.2420    -1.0370 C.3   1 <1>  -0.1600 
 17 C       -7.6740    -5.9380     0.1970 C.3   1 <1>  -0.1600 
 18 C      -10.0740    -4.1990     0.5010 C.ar  1 <1>  -0.1500 
 19 C       -9.0500    -2.6410    -0.9890 C.ar  1 <1>  -0.1500 
 20 C       -5.5550    -5.3830    -0.8960 C.3   1 <1>  -0.1600 
 21 C       -6.2860    -6.4950    -0.1390 C.3   1 <1>  -0.1600 
 22 C      -11.3050    -3.6010     0.2900 C.ar  1 <1>  -0.1500 
 23 C      -10.2780    -2.0410    -1.2040 C.ar  1 <1>  -0.1500 
 24 C      -11.4130    -2.5140    -0.5710 C.ar  1 <1>   0.0830 
 25 O      -12.5780    -1.8710    -0.8370 O.3   1 <1>  -0.3630 
 26 C      -13.7960    -2.3000    -0.2720 C.3   1 <1>   0.0400 
 27 H       -3.3900     0.7330    -1.3960 H     1 <1>   0.0800 
 28 H       -2.0880     1.6460    -2.1100 H     1 <1>   0.0800 
 29 H       -3.3580     2.4800    -1.2360 H     1 <1>   0.0800 
 30 H       -0.3470     2.3770     1.0350 H     1 <1>   0.0800 
 31 H       -1.0230     3.3600    -0.2410 H     1 <1>   0.0800 
 32 H       -0.0100     1.9810    -0.6360 H     1 <1>   0.0800 
 33 H       -2.5470    -2.0620     1.3550 H     1 <1>   0.1500 
 34 H       -4.7140     1.5580     0.9100 H     1 <1>   0.1500 
 35 H       -6.7870     0.2030     1.1300 H     1 <1>   0.1500 
 36 H       -7.7690    -1.9250     1.1560 H     1 <1>   0.4000 
 37 H       -7.6090    -4.1510     2.2600 H     1 <1>   0.0800 
 38 H       -6.0040    -4.2870     1.6260 H     1 <1>   0.0800 
 39 H       -6.0750    -3.2830    -1.0300 H     1 <1>   0.0800 
 40 H       -7.0830    -4.3610    -1.9730 H     1 <1>   0.0800 
 41 H       -8.3670    -6.2740    -0.5560 H     1 <1>   0.0800 
 42 H       -8.0150    -6.2840     1.1560 H     1 <1>   0.0800 
 43 H      -10.0210    -5.0320     1.1770 H     1 <1>   0.1500 
 44 H       -8.1900    -2.2380    -1.4920 H     1 <1>   0.1500 
 45 H       -4.7090    -5.0470    -0.3200 H     1 <1>   0.0800 
 46 H       -5.2090    -5.7170    -1.8590 H     1 <1>   0.0800 
 47 H       -6.3680    -7.3870    -0.7360 H     1 <1>   0.0800 
 48 H       -5.7490    -6.7300     0.7650 H     1 <1>   0.0800 
 49 H      -12.1620    -3.9920     0.8020 H     1 <1>   0.1500 
 50 H      -10.3640    -1.1990    -1.8660 H     1 <1>   0.1500 
 51 H      -14.5770    -1.6550    -0.6330 H     1 <1>   0.0800 
 52 H      -13.7290    -2.2270     0.7990 H     1 <1>   0.0800 
 53 H      -13.9870    -3.3130    -0.5800 H     1 <1>   0.0800 
@<TRIPOS>BOND
  1   1   2  2   
  2   2   3  am  
  3   2   4  1   
  4   3   5  1   
  5   3   6  1   
  6   4   7  ar  
  7   4   8  ar  
  8   5  27  1   
  9   5  28  1   
 10   5  29  1   
 11   6  30  1   
 12   6  31  1   
 13   6  32  1   
 14   7   9  ar  
 15   7  33  1   
 16   8  10  ar  
 17   8  34  1   
 18   9  11  ar  
 19  10  11  ar  
 20  10  35  1   
 21  11  12  1   
 22  12  13  1   
 23  12  36  1   
 24  13  14  1   
 25  13  37  1   
 26  13  38  1   
 27  14  15  1   
 28  14  16  1   
 29  14  17  1   
 30  15  18  ar  
 31  15  19  ar  
 32  16  20  1   
 33  16  39  1   
 34  16  40  1   
 35  17  21  1   
 36  17  41  1   
 37  17  42  1   
 38  18  22  ar  
 39  18  43  1   
 40  19  23  ar  
 41  19  44  1   
 42  20  21  1   
 43  20  45  1   
 44  20  46  1   
 45  21  47  1   
 46  21  48  1   
 47  22  24  ar  
 48  22  49  1   
 49  23  24  ar  
 50  23  50  1   
 51  24  25  1   
 52  25  26  1   
 53  26  51  1   
 54  26  52  1   
 55  26  53  1   
@<TRIPOS>SUBSTRUCTURE
  1 ****  12 GROUP 4 **** **** 0

# MOE 2024.06 (io_trps.svl 2023.06)
