@<TRIPOS>MOLECULE
NONAME
59 62 1 0 0 
SMALL
USER_CHARGES


@<TRIPOS>ATOM
  1 O        1.0200     0.2840     1.3410 O.2   1 <1>  -0.5700 
  2 C        1.8160    -0.1620     0.5360 C.2   1 <1>   0.5440 
  3 N        1.3820    -1.0700    -0.4110 N.am  1 <1>  -0.6600 
  4 C        3.1980     0.2750     0.6060 C.ar  1 <1>   0.0860 
  5 C       -0.0670    -1.3700    -0.5980 C.3   1 <1>   0.1400 
  6 C        2.2910    -1.9530    -1.1930 C.3   1 <1>   0.1400 
  7 C        3.9280     0.1480     1.7850 C.ar  1 <1>  -0.1500 
  8 C        3.8430     0.8460    -0.4900 C.ar  1 <1>  -0.1500 
  9 C       -0.3450    -2.8290    -0.2220 C.3   1 <1>  -0.1600 
 10 C        2.0300    -3.4180    -0.8270 C.3   1 <1>  -0.1600 
 11 C        5.2470     0.5570     1.8660 C.ar  1 <1>  -0.1500 
 12 C        5.1620     1.2560    -0.4180 C.ar  1 <1>  -0.1500 
 13 C        0.5530    -3.7960    -1.0060 C.3   1 <1>  -0.1600 
 14 C        5.8770     1.1120     0.7620 C.ar  1 <1>  -0.1430 
 15 C        7.3210     1.5660     0.8480 C.3   1 <1>   0.3530 
 16 N        7.3230     3.0420     0.8890 N.pl3 1 <1>  -0.8690 
 17 C        8.1940     3.9830     0.5200 C.ar  1 <1>   0.7710 
 18 N        7.7820     5.2270     0.6380 N.ar  1 <1>  -0.6200 
 19 N        9.4170     3.6580     0.0620 N.ar  1 <1>  -0.1790 
 20 C        8.6100     6.1970     0.2950 C.ar  1 <1>   0.4100 
 21 C       10.2900     4.6210    -0.3240 C.ar  1 <1>   0.2110 
 22 N        8.1830     7.4780     0.4490 N.pl3 1 <1>  -0.8380 
 23 C        9.8920     5.9100    -0.2150 C.ar  1 <1>  -0.1500 
 24 C        9.0760     8.6470     0.7470 C.3   1 <1>   0.2090 
 25 C        6.7330     7.8500     0.4400 C.3   1 <1>   0.2090 
 26 C        8.8610     9.7620    -0.2900 C.3   1 <1>   0.2000 
 27 C        6.4930     8.9510    -0.6020 C.3   1 <1>  -0.1600 
 28 O        9.6120    10.8710     0.0550 O.3   1 <1>  -0.6800 
 29 C        7.3890    10.1810    -0.3730 C.3   1 <1>  -0.1600 
 30 H       -0.3270    -1.2020    -1.6290 H     1 <1>   0.0800 
 31 H       -0.6750    -0.7180     0.0060 H     1 <1>   0.0800 
 32 H        3.3220    -1.7220    -0.9950 H     1 <1>   0.0800 
 33 H        2.1070    -1.8010    -2.2430 H     1 <1>   0.0800 
 34 H        3.4400    -0.2760     2.6470 H     1 <1>   0.1500 
 35 H        3.2920     0.9700    -1.4060 H     1 <1>   0.1500 
 36 H       -1.3780    -3.0540    -0.4170 H     1 <1>   0.0800 
 37 H       -0.1780    -2.9480     0.8340 H     1 <1>   0.0800 
 38 H        2.3210    -3.5750     0.1970 H     1 <1>   0.0800 
 39 H        2.6420    -4.0530    -1.4420 H     1 <1>   0.0800 
 40 H        5.7710     0.4410     2.8000 H     1 <1>   0.1500 
 41 H        5.6230     1.6940    -1.2860 H     1 <1>   0.1500 
 42 H        0.2970    -3.7540    -2.0510 H     1 <1>   0.0800 
 43 H        0.3900    -4.8030    -0.6630 H     1 <1>   0.0800 
 44 H        7.8620     1.2040    -0.0100 H     1 <1>   0.0800 
 45 H        7.7760     1.1760     1.7430 H     1 <1>   0.0800 
 46 H        6.4250     3.4120     1.2270 H     1 <1>   0.4000 
 47 H        9.6460     2.6720     0.0240 H     1 <1>   0.4570 
 48 H       11.2590     4.3370    -0.7040 H     1 <1>   0.1500 
 49 H       10.5300     6.7170    -0.5240 H     1 <1>   0.1500 
 50 H       10.1100     8.3590     0.7580 H     1 <1>   0.0800 
 51 H        8.8270     9.0210     1.7250 H     1 <1>   0.0800 
 52 H        6.4500     8.1980     1.4190 H     1 <1>   0.0800 
 53 H        6.1170     7.0010     0.1980 H     1 <1>   0.0800 
 54 H        9.2090     9.4240    -1.2510 H     1 <1>   0.0800 
 55 H        5.4600     9.2490    -0.5680 H     1 <1>   0.0800 
 56 H        6.6810     8.5440    -1.5800 H     1 <1>   0.0800 
 57 H        9.1930    11.3530     0.7930 H     1 <1>   0.4000 
 58 H        7.2570    10.8770    -1.1830 H     1 <1>   0.0800 
 59 H        7.0930    10.6570     0.5460 H     1 <1>   0.0800 
@<TRIPOS>BOND
  1   1   2  2   
  2   2   3  am  
  3   2   4  1   
  4   3   5  1   
  5   3   6  1   
  6   4   7  ar  
  7   4   8  ar  
  8   5   9  1   
  9   5  30  1   
 10   5  31  1   
 11   6  10  1   
 12   6  32  1   
 13   6  33  1   
 14   7  11  ar  
 15   7  34  1   
 16   8  12  ar  
 17   8  35  1   
 18   9  13  1   
 19   9  36  1   
 20   9  37  1   
 21  10  13  1   
 22  10  38  1   
 23  10  39  1   
 24  11  14  ar  
 25  11  40  1   
 26  12  14  ar  
 27  12  41  1   
 28  13  42  1   
 29  13  43  1   
 30  14  15  1   
 31  15  16  1   
 32  15  44  1   
 33  15  45  1   
 34  16  17  1   
 35  16  46  1   
 36  17  18  ar  
 37  17  19  ar  
 38  18  20  ar  
 39  19  21  ar  
 40  19  47  1   
 41  20  22  1   
 42  20  23  ar  
 43  21  23  ar  
 44  21  48  1   
 45  22  24  1   
 46  22  25  1   
 47  23  49  1   
 48  24  26  1   
 49  24  50  1   
 50  24  51  1   
 51  25  27  1   
 52  25  52  1   
 53  25  53  1   
 54  26  28  1   
 55  26  29  1   
 56  26  54  1   
 57  27  29  1   
 58  27  55  1   
 59  27  56  1   
 60  28  57  1   
 61  29  58  1   
 62  29  59  1   
@<TRIPOS>SUBSTRUCTURE
  1 ****  12 GROUP 4 **** **** 0

# MOE 2024.06 (io_trps.svl 2023.06)
