@<TRIPOS>MOLECULE
NONAME
51 54 1 0 0 
SMALL
USER_CHARGES


@<TRIPOS>ATOM
  1 O       -0.3350    -0.9010    -0.3980 O.2   1 <1>  -0.5700 
  2 C       -1.4890    -0.5650    -0.5080 C.2   1 <1>   0.5690 
  3 N       -1.9600     0.7020    -0.4500 N.am  1 <1>  -0.6600 
  4 C       -2.6090    -1.5420    -0.7280 C.3   1 <1>  -0.0990 
  5 C       -1.0980     1.9030    -0.2910 C.3   1 <1>   0.2200 
  6 C       -3.4240     0.7490    -0.6320 C.3   1 <1>   0.1400 
  7 C       -3.8670    -0.7070    -0.4210 C.3   1 <1>  -0.0800 
  8 C       -1.5020     2.7140     0.9390 C.3   1 <1>  -0.1600 
  9 C       -1.2670     2.8690    -1.4610 C.3   1 <1>  -0.1600 
 10 C       -4.3280    -0.8950     1.0330 C.3   1 <1>   0.2090 
 11 C       -2.4430     3.8290     0.4630 C.3   1 <1>  -0.1600 
 12 C       -2.3860     3.8370    -1.0680 C.3   1 <1>  -0.1600 
 13 N       -4.7890    -2.2950     1.2600 N.pl3 1 <1>  -0.8380 
 14 C       -5.9470    -2.7530     0.6440 C.ar  1 <1>   0.4100 
 15 C       -4.4370    -2.8480     2.5950 C.3   1 <1>   0.1290 
 16 N       -6.9540    -1.9070     0.5430 N.ar  1 <1>  -0.3100 
 17 C       -6.0210    -4.0860     0.1620 C.ar  1 <1>   0.0000 
 18 N       -8.1110    -2.2970     0.0250 N.ar  1 <1>  -0.3100 
 19 C       -7.2560    -4.5000    -0.3580 C.ar  1 <1>   0.0000 
 20 C       -4.9460    -5.0020     0.1580 C.ar  1 <1>  -0.1500 
 21 C       -8.2680    -3.5220    -0.3930 C.ar  1 <1>   0.1670 
 22 C       -7.3890    -5.8350    -0.8100 C.ar  1 <1>  -0.1500 
 23 C       -5.0960    -6.2830    -0.2960 C.ar  1 <1>  -0.1500 
 24 C       -9.6390    -3.8670    -0.9510 C.3   1 <1>  -0.0970 
 25 C       -6.3360    -6.7070    -0.7800 C.ar  1 <1>  -0.1500 
 26 H       -2.5020    -2.4000    -0.0900 H     1 <1>   0.0800 
 27 H       -2.5990    -1.8530    -1.7560 H     1 <1>   0.0800 
 28 H       -0.0700     1.5870    -0.2120 H     1 <1>   0.0800 
 29 H       -3.6460     1.0690    -1.6350 H     1 <1>   0.0800 
 30 H       -3.8870     1.4170     0.0730 H     1 <1>   0.0800 
 31 H       -4.6800    -0.9460    -1.0840 H     1 <1>   0.0800 
 32 H       -0.6150     3.1670     1.3460 H     1 <1>   0.0800 
 33 H       -1.9450     2.0960     1.7000 H     1 <1>   0.0800 
 34 H       -1.4610     2.3570    -2.3870 H     1 <1>   0.0800 
 35 H       -0.3530     3.4280    -1.5660 H     1 <1>   0.0800 
 36 H       -5.1330    -0.2150     1.2560 H     1 <1>   0.0800 
 37 H       -3.5110    -0.6680     1.6970 H     1 <1>   0.0800 
 38 H       -2.1210     4.7780     0.8580 H     1 <1>   0.0800 
 39 H       -3.4490     3.6450     0.7960 H     1 <1>   0.0800 
 40 H       -3.3230     3.4910    -1.4670 H     1 <1>   0.0800 
 41 H       -2.1970     4.8250    -1.4520 H     1 <1>   0.0800 
 42 H       -3.3780    -3.0350     2.6440 H     1 <1>   0.0800 
 43 H       -4.9640    -3.7700     2.7710 H     1 <1>   0.0800 
 44 H       -4.7090    -2.1460     3.3650 H     1 <1>   0.0800 
 45 H       -3.9890    -4.6700     0.5190 H     1 <1>   0.1500 
 46 H       -8.3360    -6.1720    -1.1900 H     1 <1>   0.1500 
 47 H       -4.2690    -6.9730    -0.2890 H     1 <1>   0.1500 
 48 H      -10.2880    -3.0100    -0.9140 H     1 <1>   0.0800 
 49 H      -10.0840    -4.6530    -0.3700 H     1 <1>   0.0800 
 50 H       -9.5510    -4.1810    -1.9750 H     1 <1>   0.0800 
 51 H       -6.4440    -7.7200    -1.1270 H     1 <1>   0.1500 
@<TRIPOS>BOND
  1   1   2  2   
  2   2   3  am  
  3   2   4  1   
  4   3   5  1   
  5   3   6  1   
  6   4   7  1   
  7   4  26  1   
  8   4  27  1   
  9   5   8  1   
 10   5   9  1   
 11   5  28  1   
 12   6   7  1   
 13   6  29  1   
 14   6  30  1   
 15   7  10  1   
 16   7  31  1   
 17   8  11  1   
 18   8  32  1   
 19   8  33  1   
 20   9  12  1   
 21   9  34  1   
 22   9  35  1   
 23  10  13  1   
 24  10  36  1   
 25  10  37  1   
 26  11  12  1   
 27  11  38  1   
 28  11  39  1   
 29  12  40  1   
 30  12  41  1   
 31  13  14  1   
 32  13  15  1   
 33  14  16  ar  
 34  14  17  ar  
 35  15  42  1   
 36  15  43  1   
 37  15  44  1   
 38  16  18  ar  
 39  17  19  ar  
 40  17  20  ar  
 41  18  21  ar  
 42  19  21  ar  
 43  19  22  ar  
 44  20  23  ar  
 45  20  45  1   
 46  21  24  1   
 47  22  25  ar  
 48  22  46  1   
 49  23  25  ar  
 50  23  47  1   
 51  24  48  1   
 52  24  49  1   
 53  24  50  1   
 54  25  51  1   
@<TRIPOS>SUBSTRUCTURE
  1 ****   7 GROUP 4 **** **** 0

# MOE 2024.06 (io_trps.svl 2023.06)
