@<TRIPOS>MOLECULE
NONAME
51 53 1 0 0 
SMALL
USER_CHARGES


@<TRIPOS>ATOM
  1 O        0.3050     1.0470     0.3720 O.2   1 <1>  -0.5700 
  2 C        1.4140     0.5400     0.3810 C.2   1 <1>   0.5440 
  3 N        2.1330     0.5640     1.5560 N.am  1 <1>  -0.6600 
  4 C        1.9510    -0.0240    -0.8320 C.ar  1 <1>   0.0860 
  5 C        1.6800     1.2790     2.7680 C.3   1 <1>   0.1400 
  6 C        3.5490     0.1470     1.6850 C.3   1 <1>   0.1400 
  7 C        2.2410    -1.3960    -0.9560 C.ar  1 <1>   0.4100 
  8 C        2.1970     0.7950    -1.9250 C.ar  1 <1>  -0.1500 
  9 C        2.9600     1.5880     3.5340 C.3   1 <1>  -0.1600 
 10 C        3.9280     0.4830     3.1230 C.3   1 <1>  -0.1600 
 11 N        2.7910    -1.9360    -2.0430 N.ar  1 <1>  -0.6200 
 12 N        1.9630    -2.2670     0.0710 N.pl3 1 <1>  -0.8690 
 13 C        2.7420     0.2290    -3.0540 C.ar  1 <1>  -0.1500 
 14 C        3.0210    -1.1250    -3.0560 C.ar  1 <1>   0.1600 
 15 C        1.7030    -3.7000    -0.1090 C.3   1 <1>   0.4330 
 16 C        0.2090    -3.9430    -0.3240 C.ar  1 <1>  -0.1430 
 17 C        2.2100    -4.4260     1.1320 C.3   1 <1>  -0.2400 
 18 C       -0.7850    -3.3850     0.4820 C.ar  1 <1>   0.0830 
 19 C       -0.1700    -4.7610    -1.3800 C.ar  1 <1>  -0.1500 
 20 O       -0.4370    -2.5710     1.5140 O.3   1 <1>  -0.3620 
 21 C       -2.1250    -3.6640     0.2270 C.ar  1 <1>  -0.1500 
 22 C       -1.5020    -5.0370    -1.6400 C.ar  1 <1>   0.0830 
 23 C       -1.2010    -1.4070     1.7510 C.3   1 <1>   0.0400 
 24 C       -2.4850    -4.4830    -0.8270 C.ar  1 <1>  -0.1500 
 25 O       -1.7630    -5.8510    -2.6960 O.3   1 <1>  -0.3620 
 26 C       -3.0880    -6.1560    -3.0690 C.3   1 <1>   0.0400 
 27 H        1.0450     0.6270     3.3420 H     1 <1>   0.0800 
 28 H        1.1410     2.1770     2.5130 H     1 <1>   0.0800 
 29 H        4.1500     0.7120     0.9930 H     1 <1>   0.0800 
 30 H        3.6660    -0.9060     1.4910 H     1 <1>   0.0800 
 31 H        1.9630     1.8450    -1.8770 H     1 <1>   0.1500 
 32 H        2.7930     1.6150     4.5970 H     1 <1>   0.0800 
 33 H        3.3360     2.5440     3.2130 H     1 <1>   0.0800 
 34 H        4.9570     0.7860     3.2040 H     1 <1>   0.0800 
 35 H        3.7700    -0.3880     3.7350 H     1 <1>   0.0800 
 36 H        1.3180    -1.9130     0.7880 H     1 <1>   0.4000 
 37 H        2.9500     0.8260    -3.9240 H     1 <1>   0.1500 
 38 H        3.4550    -1.5620    -3.9400 H     1 <1>   0.1500 
 39 H        2.2530    -4.0680    -0.9580 H     1 <1>   0.0800 
 40 H        1.7000    -4.0770     2.0100 H     1 <1>   0.0800 
 41 H        3.2660    -4.2610     1.2410 H     1 <1>   0.0800 
 42 H        2.0340    -5.4800     1.0280 H     1 <1>   0.0800 
 43 H        0.5720    -5.1970    -2.0240 H     1 <1>   0.1500 
 44 H       -2.8930    -3.2520     0.8520 H     1 <1>   0.1500 
 45 H       -0.6250    -0.7470     2.3730 H     1 <1>   0.0800 
 46 H       -2.1120    -1.6780     2.2520 H     1 <1>   0.0800 
 47 H       -1.4100    -0.9260     0.8100 H     1 <1>   0.0800 
 48 H       -3.5260    -4.6790    -0.9960 H     1 <1>   0.1500 
 49 H       -3.0520    -6.7940    -3.9340 H     1 <1>   0.0800 
 50 H       -3.6020    -5.2420    -3.3110 H     1 <1>   0.0800 
 51 H       -3.5710    -6.6680    -2.2560 H     1 <1>   0.0800 
@<TRIPOS>BOND
  1   1   2  2   
  2   2   3  am  
  3   2   4  1   
  4   3   5  1   
  5   3   6  1   
  6   4   7  ar  
  7   4   8  ar  
  8   5   9  1   
  9   5  27  1   
 10   5  28  1   
 11   6  10  1   
 12   6  29  1   
 13   6  30  1   
 14   7  11  ar  
 15   7  12  1   
 16   8  13  ar  
 17   8  31  1   
 18   9  10  1   
 19   9  32  1   
 20   9  33  1   
 21  10  34  1   
 22  10  35  1   
 23  11  14  ar  
 24  12  15  1   
 25  12  36  1   
 26  13  14  ar  
 27  13  37  1   
 28  14  38  1   
 29  15  16  1   
 30  15  17  1   
 31  15  39  1   
 32  16  18  ar  
 33  16  19  ar  
 34  17  40  1   
 35  17  41  1   
 36  17  42  1   
 37  18  20  1   
 38  18  21  ar  
 39  19  22  ar  
 40  19  43  1   
 41  20  23  1   
 42  21  24  ar  
 43  21  44  1   
 44  22  24  ar  
 45  22  25  1   
 46  23  45  1   
 47  23  46  1   
 48  23  47  1   
 49  24  48  1   
 50  25  26  1   
 51  26  49  1   
 52  26  50  1   
 53  26  51  1   
@<TRIPOS>SUBSTRUCTURE
  1 ****  12 GROUP 4 **** **** 0

# MOE 2024.06 (io_trps.svl 2023.06)
