@<TRIPOS>MOLECULE
NONAME
48 51 1 0 0 
SMALL
USER_CHARGES


@<TRIPOS>ATOM
  1 O        0.2150     0.1220     0.5220 O.2   1 <1>  -0.5700 
  2 C       -0.6950     0.7380     0.0230 C.2   1 <1>   0.5690 
  3 N       -1.9040     0.1480    -0.2190 N.am  1 <1>  -0.6600 
  4 C       -0.4660     2.1990    -0.3130 C.3   1 <1>  -0.0990 
  5 C       -3.1300     0.7890    -0.7610 C.3   1 <1>   0.1400 
  6 C       -2.1780    -1.2670     0.1340 C.3   1 <1>   0.1400 
  7 C       -0.8040     3.0960     0.8830 C.3   1 <1>  -0.0160 
  8 C       -4.2650    -0.1060    -0.2700 C.3   1 <1>   0.2000 
  9 C       -3.6420    -1.5070    -0.2620 C.3   1 <1>  -0.0800 
 10 C       -0.6920     4.5620     0.4980 C.ar  1 <1>  -0.1440 
 11 O       -4.5740     0.2740     1.0280 O.3   1 <1>  -0.6800 
 12 C       -4.3690    -2.5350     0.6250 C.3   1 <1>   0.0200 
 13 C        0.5510     5.1870     0.5090 C.ar  1 <1>  -0.1500 
 14 C       -1.8310     5.2800     0.1330 C.ar  1 <1>  -0.1500 
 15 C       -3.8090    -3.9420     0.4930 C.2   1 <1>  -0.0400 
 16 C        0.6150     6.5180     0.1510 C.ar  1 <1>   0.0820 
 17 C       -1.7470     6.6200    -0.2250 C.ar  1 <1>  -0.1500 
 18 O       -4.2630    -4.8730     1.2890 O.3   1 <1>  -0.0190 
 19 C       -2.8910    -4.5060    -0.3100 C.2   1 <1>  -0.1500 
 20 O        1.6910     7.3110     0.0900 O.3   1 <1>  -0.3630 
 21 C       -0.5020     7.2160    -0.2060 C.ar  1 <1>   0.0820 
 22 N       -3.6980    -6.0240     1.0670 N.2   1 <1>  -0.4100 
 23 C       -2.8660    -5.8330     0.1090 C.2   1 <1>   0.1080 
 24 C        1.2290     8.5940    -0.3280 C.3   1 <1>   0.4000 
 25 O       -0.1810     8.4790    -0.5070 O.3   1 <1>  -0.3620 
 26 C       -1.9820    -6.9110    -0.4780 C.3   1 <1>  -0.0590 
 27 H        0.5680     2.3310    -0.5740 H     1 <1>   0.0800 
 28 H       -1.0520     2.4800    -1.1670 H     1 <1>   0.0800 
 29 H       -3.2500     1.8020    -0.4200 H     1 <1>   0.0800 
 30 H       -3.0880     0.7710    -1.8360 H     1 <1>   0.0800 
 31 H       -1.5070    -1.9220    -0.3950 H     1 <1>   0.0800 
 32 H       -2.0350    -1.3990     1.1930 H     1 <1>   0.0800 
 33 H       -0.1280     2.8810     1.6940 H     1 <1>   0.0800 
 34 H       -1.8000     2.8870     1.2300 H     1 <1>   0.0800 
 35 H       -5.1550    -0.0330    -0.8710 H     1 <1>   0.0800 
 36 H       -3.6510    -1.8670    -1.2760 H     1 <1>   0.0800 
 37 H       -3.7480     0.3120     1.5510 H     1 <1>   0.4000 
 38 H       -5.4120    -2.5600     0.3610 H     1 <1>   0.0800 
 39 H       -4.3040    -2.2420     1.6580 H     1 <1>   0.0800 
 40 H        1.4480     4.6630     0.7860 H     1 <1>   0.1500 
 41 H       -2.7930     4.7990     0.1260 H     1 <1>   0.1500 
 42 H       -2.6150     7.1860    -0.5080 H     1 <1>   0.1500 
 43 H       -2.2960    -4.0840    -1.0970 H     1 <1>   0.1500 
 44 H        1.4380     9.3190     0.4380 H     1 <1>   0.0800 
 45 H        1.6920     8.8560    -1.2630 H     1 <1>   0.0800 
 46 H       -0.9500    -6.6310    -0.3790 H     1 <1>   0.0800 
 47 H       -2.2160    -7.0490    -1.5170 H     1 <1>   0.0800 
 48 H       -2.1430    -7.8390     0.0410 H     1 <1>   0.0800 
@<TRIPOS>BOND
  1   1   2  2   
  2   2   3  am  
  3   2   4  1   
  4   3   5  1   
  5   3   6  1   
  6   4   7  1   
  7   4  27  1   
  8   4  28  1   
  9   5   8  1   
 10   5  29  1   
 11   5  30  1   
 12   6   9  1   
 13   6  31  1   
 14   6  32  1   
 15   7  10  1   
 16   7  33  1   
 17   7  34  1   
 18   8   9  1   
 19   8  11  1   
 20   8  35  1   
 21   9  12  1   
 22   9  36  1   
 23  10  13  ar  
 24  10  14  ar  
 25  11  37  1   
 26  12  15  1   
 27  12  38  1   
 28  12  39  1   
 29  13  16  ar  
 30  13  40  1   
 31  14  17  ar  
 32  14  41  1   
 33  15  18  1   
 34  15  19  2   
 35  16  20  1   
 36  16  21  ar  
 37  17  21  ar  
 38  17  42  1   
 39  18  22  1   
 40  19  23  1   
 41  19  43  1   
 42  20  24  1   
 43  21  25  1   
 44  22  23  2   
 45  23  26  1   
 46  24  25  1   
 47  24  44  1   
 48  24  45  1   
 49  26  46  1   
 50  26  47  1   
 51  26  48  1   
@<TRIPOS>SUBSTRUCTURE
  1 ****   3 GROUP 4 **** **** 0

# MOE 2024.06 (io_trps.svl 2023.06)
