@<TRIPOS>MOLECULE
NONAME
57 60 1 0 0 
SMALL
USER_CHARGES


@<TRIPOS>ATOM
  1 O        4.7200    -1.3160    -1.1190 O.2   1 <1>  -0.5700 
  2 C        3.5470    -1.3490    -0.7920 C.2   1 <1>   0.5440 
  3 N        2.6860    -0.5710    -1.5320 N.am  1 <1>  -0.6600 
  4 C        3.1060    -2.1090     0.3650 C.ar  1 <1>   0.0860 
  5 C        2.8710    -0.4160    -3.0130 C.3   1 <1>   0.1400 
  6 C        1.8610     0.4760    -0.8770 C.3   1 <1>   0.1400 
  7 C        1.7990    -2.6050     0.4560 C.ar  1 <1>  -0.1500 
  8 C        3.9800    -2.3710     1.4290 C.ar  1 <1>  -0.1500 
  9 C        4.0820     0.4690    -3.3830 C.3   1 <1>   0.3430 
 10 C        2.7080     1.7230    -0.5870 C.3   1 <1>  -0.1600 
 11 C        1.4010    -3.3090     1.5740 C.ar  1 <1>  -0.1440 
 12 C        3.5760    -3.0770     2.5500 C.ar  1 <1>  -0.1500 
 13 N        4.5080     1.3400    -2.2460 N.4   1 <1>  -0.9590 
 14 C        3.4590     2.2980    -1.7930 C.3   1 <1>   0.3430 
 15 C        2.2750    -3.5370     2.6020 C.ar  1 <1>   0.0820 
 16 C        0.0840    -3.9390     1.9220 C.3   1 <1>  -0.0170 
 17 C        5.8440     1.9510    -2.4600 C.3   1 <1>   0.5240 
 18 O        1.7320    -4.2310     3.6080 O.3   1 <1>  -0.3620 
 19 C        0.3810    -4.5500     3.3050 C.3   1 <1>   0.1200 
 20 C        6.2510     2.7050    -1.2120 C.2   1 <1>  -0.1810 
 21 C        6.6200     2.1610     0.0150 C.2   1 <1>   0.1080 
 22 C        6.3270     4.0420    -1.0270 C.2   1 <1>  -0.3020 
 23 N        6.8790     3.0780     0.8880 N.2   1 <1>  -0.7070 
 24 C        6.7320     0.6940     0.3720 C.3   1 <1>  -0.0590 
 25 N        6.7120     4.2470     0.2480 N.pl3 1 <1>   0.3140 
 26 C        6.9400     5.5470     0.9080 C.3   1 <1>   0.0960 
 27 C        8.3100     5.5670     1.5890 C.3   1 <1>   0.1200 
 28 O        8.5690     6.8520     2.0490 O.3   1 <1>  -0.6800 
 29 H        1.9780     0.0010    -3.4450 H     1 <1>   0.0800 
 30 H        3.0080    -1.3890    -3.4530 H     1 <1>   0.0800 
 31 H        1.4580     0.0980     0.0490 H     1 <1>   0.0800 
 32 H        1.0280     0.7290    -1.5120 H     1 <1>   0.0800 
 33 H        1.1040    -2.4440    -0.3480 H     1 <1>   0.1500 
 34 H        4.9940    -2.0170     1.3750 H     1 <1>   0.1500 
 35 H        3.8500     1.0610    -4.2530 H     1 <1>   0.0800 
 36 H        4.8960    -0.1900    -3.6400 H     1 <1>   0.0800 
 37 H        3.4080     1.5120     0.2040 H     1 <1>   0.0800 
 38 H        2.0490     2.4860    -0.2130 H     1 <1>   0.0800 
 39 H        4.2450    -3.2760     3.3670 H     1 <1>   0.1500 
 40 H        4.6280     0.6590    -1.4700 H     1 <1>   0.4500 
 41 H        3.9150     3.2280    -1.4940 H     1 <1>   0.0800 
 42 H        2.7710     2.5080    -2.5950 H     1 <1>   0.0800 
 43 H       -0.1860    -4.7030     1.2150 H     1 <1>   0.0800 
 44 H       -0.6990    -3.2050     1.9870 H     1 <1>   0.0800 
 45 H        5.8100     2.6310    -3.2940 H     1 <1>   0.0800 
 46 H        6.5740     1.1850    -2.6680 H     1 <1>   0.0800 
 47 H        0.2850    -5.6210     3.2940 H     1 <1>   0.0800 
 48 H       -0.2440    -4.1260     4.0700 H     1 <1>   0.0800 
 49 H        6.1360     4.8510    -1.7100 H     1 <1>   0.1500 
 50 H        6.9350     0.0960    -0.4960 H     1 <1>   0.0800 
 51 H        5.8210     0.3630     0.8340 H     1 <1>   0.0800 
 52 H        7.5360     0.5580     1.0730 H     1 <1>   0.0800 
 53 H        6.1710     5.6920     1.6430 H     1 <1>   0.0800 
 54 H        6.8850     6.3220     0.1680 H     1 <1>   0.0800 
 55 H        9.0940     5.2840     0.9080 H     1 <1>   0.0800 
 56 H        8.3120     4.9040     2.4380 H     1 <1>   0.0800 
 57 H        8.8980     7.4290     1.3320 H     1 <1>   0.4000 
@<TRIPOS>BOND
  1   1   2  2   
  2   2   3  am  
  3   2   4  1   
  4   3   5  1   
  5   3   6  1   
  6   4   7  ar  
  7   4   8  ar  
  8   5   9  1   
  9   5  29  1   
 10   5  30  1   
 11   6  10  1   
 12   6  31  1   
 13   6  32  1   
 14   7  11  ar  
 15   7  33  1   
 16   8  12  ar  
 17   8  34  1   
 18   9  13  1   
 19   9  35  1   
 20   9  36  1   
 21  10  14  1   
 22  10  37  1   
 23  10  38  1   
 24  11  15  ar  
 25  11  16  1   
 26  12  15  ar  
 27  12  39  1   
 28  13  14  1   
 29  13  17  1   
 30  13  40  1   
 31  14  41  1   
 32  14  42  1   
 33  15  18  1   
 34  16  19  1   
 35  16  43  1   
 36  16  44  1   
 37  17  20  1   
 38  17  45  1   
 39  17  46  1   
 40  18  19  1   
 41  19  47  1   
 42  19  48  1   
 43  20  21  1   
 44  20  22  2   
 45  21  23  2   
 46  21  24  1   
 47  22  25  1   
 48  22  49  1   
 49  23  25  1   
 50  24  50  1   
 51  24  51  1   
 52  24  52  1   
 53  25  26  1   
 54  26  27  1   
 55  26  53  1   
 56  26  54  1   
 57  27  28  1   
 58  27  55  1   
 59  27  56  1   
 60  28  57  1   
@<TRIPOS>SUBSTRUCTURE
  1 ****   2 GROUP 4 **** **** 0

# MOE 2024.06 (io_trps.svl 2023.06)
