@<TRIPOS>MOLECULE
NONAME
45 46 1 0 0 
SMALL
USER_CHARGES


@<TRIPOS>ATOM
  1 S       -0.1400    -0.0220     0.4280 S.o2  1 <1>   1.3330 
  2 O        0.0320    -0.7130     1.6860 O.2   1 <1>  -0.6500 
  3 O       -0.8590     1.2310     0.3970 O.2   1 <1>  -0.6500 
  4 N       -0.8890    -1.0940    -0.6540 N.am  1 <1>  -0.8490 
  5 C        1.4600     0.2460    -0.3370 C.3   1 <1>  -0.0550 
  6 C       -0.5510    -2.5010    -0.4100 C.3   1 <1>   0.1160 
  7 C       -2.3460    -0.9290    -0.6840 C.3   1 <1>   0.1160 
  8 C        2.3290     1.2850     0.4000 C.3   1 <1>  -0.0800 
  9 C        3.5750     1.6220    -0.4030 C.3   1 <1>   0.2200 
 10 C        2.9120     0.7320     1.7100 C.3   1 <1>   0.1200 
 11 N        4.0330     2.9780    -0.0290 N.am  1 <1>  -0.7300 
 12 C        4.5680     0.5940     0.1190 C.3   1 <1>   0.1200 
 13 O        4.2550     0.4280     1.4680 O.3   1 <1>  -0.5600 
 14 C        4.1470     4.0390    -0.8790 C.2   1 <1>   0.5440 
 15 O        3.8720     3.8720    -2.0510 O.2   1 <1>  -0.5700 
 16 C        4.5990     5.3320    -0.3970 C.ar  1 <1>   0.0860 
 17 C        5.2220     6.2420    -1.2510 C.ar  1 <1>  -0.1500 
 18 C        4.4370     5.7290     0.9320 C.ar  1 <1>  -0.1500 
 19 C        5.6670     7.4720    -0.8050 C.ar  1 <1>  -0.1500 
 20 C        4.8820     6.9590     1.3770 C.ar  1 <1>  -0.1500 
 21 C        5.5070     7.8680     0.5240 C.ar  1 <1>   0.0860 
 22 C        5.9620     9.1590     1.0130 C.2   1 <1>   0.5440 
 23 O        6.1630     9.3570     2.1910 O.2   1 <1>  -0.5700 
 24 N        6.1700    10.2130     0.1910 N.am  1 <1>  -0.8000 
 25 H        1.9870    -0.6850    -0.4030 H     1 <1>   0.0800 
 26 H        1.2890     0.5970    -1.3370 H     1 <1>   0.0800 
 27 H       -0.9760    -3.1220    -1.1790 H     1 <1>   0.0800 
 28 H       -0.9320    -2.8190     0.5480 H     1 <1>   0.0800 
 29 H        0.5170    -2.6340    -0.4170 H     1 <1>   0.0800 
 30 H       -2.7850    -1.6130    -1.3900 H     1 <1>   0.0800 
 31 H       -2.5970     0.0740    -0.9880 H     1 <1>   0.0800 
 32 H       -2.7630    -1.1090     0.2930 H     1 <1>   0.0800 
 33 H        1.7350     2.1650     0.5780 H     1 <1>   0.0800 
 34 H        3.4320     1.5460    -1.4680 H     1 <1>   0.0800 
 35 H        2.4200    -0.1610     2.0540 H     1 <1>   0.0800 
 36 H        2.8810     1.4750     2.4890 H     1 <1>   0.0800 
 37 H        4.3960     3.0410     0.9240 H     1 <1>   0.3700 
 38 H        5.5900     0.9140     0.0190 H     1 <1>   0.0800 
 39 H        4.4310    -0.3550    -0.3700 H     1 <1>   0.0800 
 40 H        5.3590     5.9690    -2.2840 H     1 <1>   0.1500 
 41 H        3.9490     5.0700     1.6280 H     1 <1>   0.1500 
 42 H        6.1530     8.1310    -1.5010 H     1 <1>   0.1500 
 43 H        4.7440     7.2330     2.4100 H     1 <1>   0.1500 
 44 H        6.4580    11.1000     0.6060 H     1 <1>   0.3700 
 45 H        5.9130    10.2300    -0.7950 H     1 <1>   0.3700 
@<TRIPOS>BOND
  1   1   2  2   
  2   1   3  2   
  3   1   4  am  
  4   1   5  1   
  5   4   6  1   
  6   4   7  1   
  7   5   8  1   
  8   5  25  1   
  9   5  26  1   
 10   6  27  1   
 11   6  28  1   
 12   6  29  1   
 13   7  30  1   
 14   7  31  1   
 15   7  32  1   
 16   8   9  1   
 17   8  10  1   
 18   8  33  1   
 19   9  11  1   
 20   9  12  1   
 21   9  34  1   
 22  10  13  1   
 23  10  35  1   
 24  10  36  1   
 25  11  14  am  
 26  11  37  1   
 27  12  13  1   
 28  12  38  1   
 29  12  39  1   
 30  14  15  2   
 31  14  16  1   
 32  16  17  ar  
 33  16  18  ar  
 34  17  19  ar  
 35  17  40  1   
 36  18  20  ar  
 37  18  41  1   
 38  19  21  ar  
 39  19  42  1   
 40  20  21  ar  
 41  20  43  1   
 42  21  22  1   
 43  22  23  2   
 44  22  24  am  
 45  24  44  1   
 46  24  45  1   
@<TRIPOS>SUBSTRUCTURE
  1 ****  11 GROUP 4 **** **** 0

# MOE 2024.06 (io_trps.svl 2023.06)
