@<TRIPOS>MOLECULE
NONAME
49 52 1 0 0 
SMALL
USER_CHARGES


@<TRIPOS>ATOM
  1 O        0.3150     0.1460    -0.0820 O.3   1 <1>  -0.5600 
  2 C        1.5650    -0.4900    -0.1110 C.3   1 <1>   0.3440 
  3 C        0.3270     1.5000    -0.4280 C.3   1 <1>   0.2950 
  4 C        1.4070    -1.9520     0.2780 C.ar  1 <1>  -0.1440 
  5 C        2.5280     0.2000     0.8830 C.3   1 <1>   0.3430 
  6 C       -1.1170     1.9990    -0.3830 C.3   1 <1>  -0.1950 
  7 C        1.2170     2.2910     0.5570 C.3   1 <1>   0.3430 
  8 C        0.4730    -2.3510     1.2250 C.ar  1 <1>  -0.1500 
  9 C        2.2230    -2.9100    -0.3090 C.ar  1 <1>  -0.1500 
 10 N        2.5980     1.6950     0.6970 N.4   1 <1>  -0.9590 
 11 C       -2.0430     1.7870    -1.5380 C.3   1 <1>  -0.2000 
 12 C       -1.5570     3.1700    -1.2060 C.3   1 <1>  -0.2000 
 13 C        0.3640    -3.6820     1.5870 C.ar  1 <1>  -0.1500 
 14 C        2.1140    -4.2420     0.0540 C.ar  1 <1>  -0.1500 
 15 C        3.3990     2.3640     1.7570 C.3   1 <1>   0.4860 
 16 C        1.1860    -4.6280     1.0030 C.ar  1 <1>  -0.1500 
 17 C        3.5610     3.8260     1.4010 C.ar  1 <1>  -0.1440 
 18 C        4.2110     4.1850     0.2240 C.ar  1 <1>   0.3930 
 19 C        3.0690     4.8160     2.2290 C.ar  1 <1>  -0.1500 
 20 O        4.6760     3.1880    -0.5670 O.3   1 <1>  -0.3630 
 21 N        4.3850     5.4360    -0.1780 N.ar  1 <1>  -0.6200 
 22 C        3.2570     6.1200     1.8200 C.ar  1 <1>  -0.1500 
 23 C        5.4570     3.4830    -1.7150 C.3   1 <1>   0.0400 
 24 C        3.9110     6.3720     0.6270 C.ar  1 <1>   0.1600 
 25 H        1.9480    -0.4260    -1.1150 H     1 <1>   0.0800 
 26 H        0.7060     1.5910    -1.4320 H     1 <1>   0.0800 
 27 H        3.5090    -0.2340     0.7750 H     1 <1>   0.0800 
 28 H        2.1820    -0.0260     1.8780 H     1 <1>   0.0800 
 29 H       -1.5500     1.9040     0.6000 H     1 <1>   0.1000 
 30 H        0.7250     2.2960     1.5150 H     1 <1>   0.0800 
 31 H        1.2880     3.3130     0.2200 H     1 <1>   0.0800 
 32 H       -0.1840    -1.6310     1.6840 H     1 <1>   0.1500 
 33 H        2.9500    -2.6380    -1.0540 H     1 <1>   0.1500 
 34 H        3.1130     1.8990    -0.1780 H     1 <1>   0.4500 
 35 H       -1.6740     1.3010    -2.4250 H     1 <1>   0.1000 
 36 H       -3.0700     1.5340    -1.3330 H     1 <1>   0.1000 
 37 H       -2.2670     3.8680    -0.7930 H     1 <1>   0.1000 
 38 H       -0.8820     3.6390    -1.9020 H     1 <1>   0.1000 
 39 H       -0.3650    -3.9840     2.3210 H     1 <1>   0.1500 
 40 H        2.7490    -4.9810    -0.4040 H     1 <1>   0.1500 
 41 H        2.9100     2.2670     2.7120 H     1 <1>   0.0800 
 42 H        4.3750     1.9100     1.8220 H     1 <1>   0.0800 
 43 H        1.1000    -5.6640     1.2840 H     1 <1>   0.1500 
 44 H        2.5640     4.6040     3.1570 H     1 <1>   0.1500 
 45 H        2.9020     6.9400     2.4200 H     1 <1>   0.1500 
 46 H        5.7570     2.5600    -2.1760 H     1 <1>   0.0800 
 47 H        6.3270     4.0410    -1.4110 H     1 <1>   0.0800 
 48 H        4.8680     4.0660    -2.4020 H     1 <1>   0.0800 
 49 H        4.0510     7.3960     0.3200 H     1 <1>   0.1500 
@<TRIPOS>BOND
  1   1   2  1   
  2   1   3  1   
  3   2   4  1   
  4   2   5  1   
  5   2  25  1   
  6   3   6  1   
  7   3   7  1   
  8   3  26  1   
  9   4   8  ar  
 10   4   9  ar  
 11   5  10  1   
 12   5  27  1   
 13   5  28  1   
 14   6  11  1   
 15   6  12  1   
 16   6  29  1   
 17   7  10  1   
 18   7  30  1   
 19   7  31  1   
 20   8  13  ar  
 21   8  32  1   
 22   9  14  ar  
 23   9  33  1   
 24  10  15  1   
 25  10  34  1   
 26  11  12  1   
 27  11  35  1   
 28  11  36  1   
 29  12  37  1   
 30  12  38  1   
 31  13  16  ar  
 32  13  39  1   
 33  14  16  ar  
 34  14  40  1   
 35  15  17  1   
 36  15  41  1   
 37  15  42  1   
 38  16  43  1   
 39  17  18  ar  
 40  17  19  ar  
 41  18  20  1   
 42  18  21  ar  
 43  19  22  ar  
 44  19  44  1   
 45  20  23  1   
 46  21  24  ar  
 47  22  24  ar  
 48  22  45  1   
 49  23  46  1   
 50  23  47  1   
 51  23  48  1   
 52  24  49  1   
@<TRIPOS>SUBSTRUCTURE
  1 ****  10 GROUP 4 **** **** 0

# MOE 2024.06 (io_trps.svl 2023.06)
