@<TRIPOS>MOLECULE
NONAME
66 69 1 0 0 
SMALL
USER_CHARGES


@<TRIPOS>ATOM
  1 O       -2.1470    -3.8670    -0.4010 O.2   1 <1>  -0.5700 
  2 C       -1.2770    -3.1380    -0.8170 C.2   1 <1>   0.5690 
  3 N       -0.0050    -3.0950    -0.3510 N.am  1 <1>  -0.6600 
  4 C       -1.4810    -2.1780    -1.9550 C.3   1 <1>  -0.0990 
  5 C        0.8090    -2.0860    -1.0630 C.3   1 <1>   0.1400 
  6 C        0.5270    -3.7040     0.9060 C.3   1 <1>   0.1400 
  7 C       -0.1890    -1.3480    -1.9660 C.3   1 <1>  -0.1600 
  8 C        0.6230    -5.2420     0.8350 C.3   1 <1>   0.3430 
  9 N       -0.7230    -5.8820     0.8120 N.4   1 <1>  -0.9590 
 10 C       -0.7130    -7.2000     0.0970 C.3   1 <1>   0.3430 
 11 C       -1.3270    -5.9930     2.1690 C.3   1 <1>   0.3430 
 12 C       -2.0690    -7.9610     0.1730 C.3   1 <1>   0.0000 
 13 C       -2.8070    -6.3920     2.0690 C.3   1 <1>  -0.1600 
 14 C       -3.1840    -7.0250     0.7150 C.3   1 <1>  -0.0800 
 15 C       -2.5040    -8.3890    -1.2480 C.3   1 <1>  -0.1600 
 16 C       -1.8420    -9.2420     1.0230 C.3   1 <1>   0.1200 
 17 C       -4.5780    -7.6790     0.7430 C.3   1 <1>  -0.1600 
 18 C       -3.9020    -9.0450    -1.2840 C.3   1 <1>  -0.1600 
 19 O       -1.1960    -8.9330     2.2160 O.3   1 <1>  -0.5600 
 20 C       -5.0010    -8.1580    -0.6600 C.3   1 <1>   0.4230 
 21 C       -0.9340   -10.0380     3.0250 C.3   1 <1>   0.0400 
 22 N       -6.3010    -8.9000    -0.5870 N.4   1 <1>  -0.9590 
 23 C       -6.7500    -9.4390    -1.9260 C.3   1 <1>   0.3430 
 24 C       -7.4140    -8.0600    -0.0030 C.3   1 <1>   0.3430 
 25 C       -8.1300   -10.1200    -1.8470 C.3   1 <1>   0.1200 
 26 C       -8.7660    -8.7990    -0.0080 C.3   1 <1>   0.1200 
 27 O       -9.0680    -9.2450    -1.2960 O.3   1 <1>  -0.5600 
 28 H       -1.5950    -2.7310    -2.8690 H     1 <1>   0.0800 
 29 H       -2.3480    -1.5660    -1.7850 H     1 <1>   0.0800 
 30 H        1.2730    -1.4040    -0.3690 H     1 <1>   0.0800 
 31 H        1.5650    -2.5780    -1.6520 H     1 <1>   0.0800 
 32 H        1.5120    -3.3120     1.0900 H     1 <1>   0.0800 
 33 H       -0.0960    -3.4110     1.7340 H     1 <1>   0.0800 
 34 H       -0.3800    -0.3720    -1.5530 H     1 <1>   0.0800 
 35 H        0.2000    -1.2260    -2.9620 H     1 <1>   0.0800 
 36 H        1.1790    -5.6090     1.6820 H     1 <1>   0.0800 
 37 H        1.1690    -5.5000    -0.0570 H     1 <1>   0.0800 
 38 H       -1.3370    -5.2320     0.2780 H     1 <1>   0.4500 
 39 H       -0.4610    -7.0310    -0.9370 H     1 <1>   0.0800 
 40 H        0.0560    -7.8250     0.5210 H     1 <1>   0.0800 
 41 H       -0.7930    -6.7390     2.7350 H     1 <1>   0.0800 
 42 H       -1.2480    -5.0550     2.6940 H     1 <1>   0.0800 
 43 H       -3.0190    -7.0740     2.8750 H     1 <1>   0.0800 
 44 H       -3.4090    -5.5160     2.2320 H     1 <1>   0.0800 
 45 H       -3.2620    -6.2020     0.0220 H     1 <1>   0.0800 
 46 H       -2.5170    -7.5230    -1.8900 H     1 <1>   0.0800 
 47 H       -1.7820    -9.0750    -1.6630 H     1 <1>   0.0800 
 48 H       -1.2130    -9.9330     0.4850 H     1 <1>   0.0800 
 49 H       -2.7670    -9.7350     1.2590 H     1 <1>   0.0800 
 50 H       -5.2700    -6.9350     1.0950 H     1 <1>   0.0800 
 51 H       -4.5830    -8.4990     1.4380 H     1 <1>   0.0800 
 52 H       -3.8640    -9.9900    -0.7710 H     1 <1>   0.0800 
 53 H       -4.1300    -9.2360    -2.3170 H     1 <1>   0.0800 
 54 H       -5.1260    -7.2890    -1.2880 H     1 <1>   0.0800 
 55 H       -0.4370    -9.6950     3.9160 H     1 <1>   0.0800 
 56 H       -0.2940   -10.7260     2.5000 H     1 <1>   0.0800 
 57 H       -1.8620   -10.5140     3.2930 H     1 <1>   0.0800 
 58 H       -6.1690    -9.7050     0.0370 H     1 <1>   0.4500 
 59 H       -6.8120    -8.6340    -2.6400 H     1 <1>   0.0800 
 60 H       -6.0360   -10.1560    -2.2970 H     1 <1>   0.0800 
 61 H       -7.1790    -7.7830     1.0110 H     1 <1>   0.0800 
 62 H       -7.5240    -7.1530    -0.5760 H     1 <1>   0.0800 
 63 H       -8.0930   -11.0140    -1.2490 H     1 <1>   0.0800 
 64 H       -8.4710   -10.3830    -2.8340 H     1 <1>   0.0800 
 65 H       -9.5530    -8.1320     0.2980 H     1 <1>   0.0800 
 66 H       -8.7540    -9.6430     0.6600 H     1 <1>   0.0800 
@<TRIPOS>BOND
  1   1   2  2   
  2   2   3  am  
  3   2   4  1   
  4   3   5  1   
  5   3   6  1   
  6   4   7  1   
  7   4  28  1   
  8   4  29  1   
  9   5   7  1   
 10   5  30  1   
 11   5  31  1   
 12   6   8  1   
 13   6  32  1   
 14   6  33  1   
 15   7  34  1   
 16   7  35  1   
 17   8   9  1   
 18   8  36  1   
 19   8  37  1   
 20   9  10  1   
 21   9  11  1   
 22   9  38  1   
 23  10  12  1   
 24  10  39  1   
 25  10  40  1   
 26  11  13  1   
 27  11  41  1   
 28  11  42  1   
 29  12  14  1   
 30  12  15  1   
 31  12  16  1   
 32  13  14  1   
 33  13  43  1   
 34  13  44  1   
 35  14  17  1   
 36  14  45  1   
 37  15  18  1   
 38  15  46  1   
 39  15  47  1   
 40  16  19  1   
 41  16  48  1   
 42  16  49  1   
 43  17  20  1   
 44  17  50  1   
 45  17  51  1   
 46  18  20  1   
 47  18  52  1   
 48  18  53  1   
 49  19  21  1   
 50  20  22  1   
 51  20  54  1   
 52  21  55  1   
 53  21  56  1   
 54  21  57  1   
 55  22  23  1   
 56  22  24  1   
 57  22  58  1   
 58  23  25  1   
 59  23  59  1   
 60  23  60  1   
 61  24  26  1   
 62  24  61  1   
 63  24  62  1   
 64  25  27  1   
 65  25  63  1   
 66  25  64  1   
 67  26  27  1   
 68  26  65  1   
 69  26  66  1   
@<TRIPOS>SUBSTRUCTURE
  1 ****  14 GROUP 4 **** **** 0

# MOE 2024.06 (io_trps.svl 2023.06)
