@<TRIPOS>MOLECULE
NONAME
54 57 1 0 0 
SMALL
USER_CHARGES


@<TRIPOS>ATOM
  1 O        0.0550    -0.2310     1.8630 O.2   1 <1>  -0.5700 
  2 C       -0.7590     0.1610     1.0590 C.2   1 <1>   0.5690 
  3 N       -2.0990    -0.1200     1.2010 N.am  1 <1>  -0.6600 
  4 C       -0.2140     0.9510    -0.1220 C.3   1 <1>   0.0810 
  5 C       -3.1830     0.2870     0.2620 C.3   1 <1>   0.1400 
  6 C       -2.6170    -0.8030     2.4210 C.3   1 <1>   0.1400 
  7 C       -0.4340     2.4450     0.0310 C.2   1 <1>  -0.0400 
  8 C       -3.9570    -0.9570    -0.1790 C.3   1 <1>  -0.1600 
  9 C       -3.3900    -2.0590     2.0120 C.3   1 <1>  -0.1600 
 10 O       -1.6140     2.9660    -0.1760 O.3   1 <1>  -0.0190 
 11 C        0.4020     3.4410     0.3600 C.2   1 <1>  -0.1500 
 12 C       -4.5190    -1.7390     1.0200 C.3   1 <1>   0.4240 
 13 N       -1.6130     4.2560    -0.0060 N.2   1 <1>  -0.4100 
 14 C       -0.4110     4.5700     0.3200 C.2   1 <1>   0.1080 
 15 O       -5.3960    -0.8910     1.7230 O.3   1 <1>  -0.5600 
 16 C       -5.2220    -3.0360     0.5610 C.ar  1 <1>  -0.1440 
 17 C        0.0480     5.9800     0.6210 C.3   1 <1>  -0.0590 
 18 C       -6.7050    -0.7840     1.2570 C.3   1 <1>   0.1200 
 19 C       -6.5840    -3.2180     0.7570 C.ar  1 <1>  -0.1440 
 20 C       -4.5020    -4.0460    -0.0700 C.ar  1 <1>  -0.1500 
 21 C       -7.4000    -2.1310     1.4270 C.3   1 <1>  -0.0170 
 22 C       -7.2000    -4.3860     0.3440 C.ar  1 <1>  -0.1500 
 23 C       -5.1090    -5.2250    -0.4970 C.ar  1 <1>   0.0820 
 24 C       -6.4840    -5.3970    -0.2710 C.ar  1 <1>   0.0820 
 25 O       -4.3990    -6.1980    -1.1410 O.3   1 <1>  -0.3620 
 26 O       -7.2170    -6.4950    -0.6120 O.3   1 <1>  -0.3620 
 27 C       -3.0330    -6.0530    -1.4630 C.3   1 <1>   0.0400 
 28 C       -6.6510    -7.7860    -0.5860 C.3   1 <1>   0.0400 
 29 H       -0.6490     0.6010    -1.0380 H     1 <1>   0.0800 
 30 H        0.8430     0.7680    -0.1830 H     1 <1>   0.0800 
 31 H       -2.7910     0.7820    -0.6050 H     1 <1>   0.0800 
 32 H       -3.8430     0.9740     0.7660 H     1 <1>   0.0800 
 33 H       -3.2660    -0.1280     2.9540 H     1 <1>   0.0800 
 34 H       -1.8120    -1.0760     3.0820 H     1 <1>   0.0800 
 35 H       -3.2890    -1.5850    -0.7380 H     1 <1>   0.0800 
 36 H       -4.7520    -0.6780    -0.8430 H     1 <1>   0.0800 
 37 H       -3.8100    -2.5280     2.8820 H     1 <1>   0.0800 
 38 H       -2.6920    -2.7490     1.5780 H     1 <1>   0.0800 
 39 H        1.4480     3.4110     0.6040 H     1 <1>   0.1500 
 40 H        0.4260     6.0320     1.6250 H     1 <1>   0.0800 
 41 H       -0.7770     6.6630     0.5240 H     1 <1>   0.0800 
 42 H        0.8210     6.2660    -0.0670 H     1 <1>   0.0800 
 43 H       -6.6930    -0.4820     0.2250 H     1 <1>   0.0800 
 44 H       -7.2020    -0.0280     1.8390 H     1 <1>   0.0800 
 45 H       -3.4530    -3.8960    -0.2280 H     1 <1>   0.1500 
 46 H       -8.3820    -2.0810     0.9920 H     1 <1>   0.0800 
 47 H       -7.5040    -2.3510     2.4750 H     1 <1>   0.0800 
 48 H       -8.2540    -4.5290     0.5000 H     1 <1>   0.1500 
 49 H       -2.7190    -6.9380    -1.9870 H     1 <1>   0.0800 
 50 H       -2.4690    -5.9490    -0.5530 H     1 <1>   0.0800 
 51 H       -2.9130    -5.1920    -2.0960 H     1 <1>   0.0800 
 52 H       -7.4500    -8.5010    -0.5180 H     1 <1>   0.0800 
 53 H       -6.0040    -7.8700     0.2690 H     1 <1>   0.0800 
 54 H       -6.1020    -7.9420    -1.4970 H     1 <1>   0.0800 
@<TRIPOS>BOND
  1   1   2  2   
  2   2   3  am  
  3   2   4  1   
  4   3   5  1   
  5   3   6  1   
  6   4   7  1   
  7   4  29  1   
  8   4  30  1   
  9   5   8  1   
 10   5  31  1   
 11   5  32  1   
 12   6   9  1   
 13   6  33  1   
 14   6  34  1   
 15   7  10  1   
 16   7  11  2   
 17   8  12  1   
 18   8  35  1   
 19   8  36  1   
 20   9  12  1   
 21   9  37  1   
 22   9  38  1   
 23  10  13  1   
 24  11  14  1   
 25  11  39  1   
 26  12  15  1   
 27  12  16  1   
 28  13  14  2   
 29  14  17  1   
 30  15  18  1   
 31  16  19  ar  
 32  16  20  ar  
 33  17  40  1   
 34  17  41  1   
 35  17  42  1   
 36  18  21  1   
 37  18  43  1   
 38  18  44  1   
 39  19  21  1   
 40  19  22  ar  
 41  20  23  ar  
 42  20  45  1   
 43  21  46  1   
 44  21  47  1   
 45  22  24  ar  
 46  22  48  1   
 47  23  24  ar  
 48  23  25  1   
 49  24  26  1   
 50  25  27  1   
 51  26  28  1   
 52  27  49  1   
 53  27  50  1   
 54  27  51  1   
 55  28  52  1   
 56  28  53  1   
 57  28  54  1   
@<TRIPOS>SUBSTRUCTURE
  1 ****   8 GROUP 4 **** **** 0

# MOE 2024.06 (io_trps.svl 2023.06)
