@<TRIPOS>MOLECULE
NONAME
48 49 1 0 0 
SMALL
USER_CHARGES


@<TRIPOS>ATOM
  1 O        1.5340    -0.5030     1.0350 O.co2 1 <1>  -0.9000 
  2 C        2.6340    -0.4830     0.4890 C.2   1 <1>   0.9060 
  3 O        3.2030    -1.4850     0.0400 O.co2 1 <1>  -0.9000 
  4 C        3.3520     0.8420     0.3830 C.3   1 <1>  -0.1860 
  5 C        4.7530     0.7210     0.9910 C.3   1 <1>   0.2000 
  6 C        3.4010     1.3760    -1.0730 C.3   1 <1>  -0.1600 
  7 O        5.4740    -0.1840     0.2300 O.3   1 <1>  -0.6800 
  8 C        5.4830     2.0790     0.9550 C.3   1 <1>   0.3430 
  9 C        4.6910     2.1380    -1.3940 C.3   1 <1>   0.3430 
 10 N        5.0820     2.9640    -0.2110 N.4   1 <1>  -0.9590 
 11 C        6.1850     3.9290    -0.5020 C.3   1 <1>   0.3430 
 12 C        5.7860     5.0230    -1.5050 C.3   1 <1>   0.1200 
 13 O        6.8650     5.9170    -1.6740 O.3   1 <1>  -0.3630 
 14 C        7.1110     6.7570    -0.6390 C.ar  1 <1>   0.0820 
 15 C        8.0340     6.4230     0.3540 C.ar  1 <1>   0.0820 
 16 C        6.4260     7.9590    -0.5700 C.ar  1 <1>  -0.1500 
 17 O        8.7290     5.2600     0.3060 O.3   1 <1>  -0.3630 
 18 C        8.2290     7.2750     1.4290 C.ar  1 <1>  -0.1500 
 19 C        6.6360     8.8140     0.5000 C.ar  1 <1>  -0.1500 
 20 C        9.8020     5.2060    -0.6110 C.3   1 <1>   0.2000 
 21 C        7.5320     8.4700     1.5000 C.ar  1 <1>  -0.1500 
 22 C       10.0190     3.7410    -0.9790 C.3   1 <1>  -0.2400 
 23 C       11.0440     5.8040     0.0510 C.3   1 <1>  -0.2400 
 24 H        2.7950     1.5380     0.9840 H     1 <1>   0.0800 
 25 H        4.7080     0.3330     1.9960 H     1 <1>   0.0800 
 26 H        2.5410     1.9950    -1.2580 H     1 <1>   0.0800 
 27 H        3.3390     0.5450    -1.7560 H     1 <1>   0.0800 
 28 H        4.8460    -0.9540     0.0590 H     1 <1>   0.4000 
 29 H        6.5410     1.8790     0.9240 H     1 <1>   0.0800 
 30 H        5.2730     2.6020     1.8720 H     1 <1>   0.0800 
 31 H        4.5380     2.7520    -2.2660 H     1 <1>   0.0800 
 32 H        5.4750     1.4280    -1.6070 H     1 <1>   0.0800 
 33 H        4.2370     3.4710     0.0820 H     1 <1>   0.4500 
 34 H        6.4780     4.4060     0.4180 H     1 <1>   0.0800 
 35 H        7.0370     3.3940    -0.8870 H     1 <1>   0.0800 
 36 H        4.9370     5.5830    -1.1550 H     1 <1>   0.0800 
 37 H        5.5760     4.6010    -2.4700 H     1 <1>   0.0800 
 38 H        5.7350     8.2280    -1.3490 H     1 <1>   0.1500 
 39 H        8.9280     7.0050     2.2000 H     1 <1>   0.1500 
 40 H        6.1050     9.7490     0.5550 H     1 <1>   0.1500 
 41 H        9.5390     5.7700    -1.4920 H     1 <1>   0.0800 
 42 H        7.6900     9.1350     2.3320 H     1 <1>   0.1500 
 43 H       10.2340     3.1600    -0.0990 H     1 <1>   0.0800 
 44 H       10.8500     3.6550    -1.6550 H     1 <1>   0.0800 
 45 H        9.1490     3.3480    -1.4700 H     1 <1>   0.0800 
 46 H       11.2750     5.2780     0.9600 H     1 <1>   0.0800 
 47 H       10.8860     6.8440     0.2690 H     1 <1>   0.0800 
 48 H       11.8850     5.7280    -0.6130 H     1 <1>   0.0800 
@<TRIPOS>BOND
  1   1   2  ar  
  2   2   3  ar  
  3   2   4  1   
  4   4   5  1   
  5   4   6  1   
  6   4  24  1   
  7   5   7  1   
  8   5   8  1   
  9   5  25  1   
 10   6   9  1   
 11   6  26  1   
 12   6  27  1   
 13   7  28  1   
 14   8  10  1   
 15   8  29  1   
 16   8  30  1   
 17   9  10  1   
 18   9  31  1   
 19   9  32  1   
 20  10  11  1   
 21  10  33  1   
 22  11  12  1   
 23  11  34  1   
 24  11  35  1   
 25  12  13  1   
 26  12  36  1   
 27  12  37  1   
 28  13  14  1   
 29  14  15  ar  
 30  14  16  ar  
 31  15  17  1   
 32  15  18  ar  
 33  16  19  ar  
 34  16  38  1   
 35  17  20  1   
 36  18  21  ar  
 37  18  39  1   
 38  19  21  ar  
 39  19  40  1   
 40  20  22  1   
 41  20  23  1   
 42  20  41  1   
 43  21  42  1   
 44  22  43  1   
 45  22  44  1   
 46  22  45  1   
 47  23  46  1   
 48  23  47  1   
 49  23  48  1   
@<TRIPOS>SUBSTRUCTURE
  1 ****  11 GROUP 4 **** **** 0

# MOE 2024.06 (io_trps.svl 2023.06)
