@<TRIPOS>MOLECULE
NONAME
56 57 1 0 0 
SMALL
USER_CHARGES


@<TRIPOS>ATOM
  1 O       -1.6370     0.1420     2.1960 O.2   1 <1>  -0.5700 
  2 C       -1.9820     0.5060     1.0950 C.2   1 <1>   0.5690 
  3 N       -2.6410    -0.3630     0.2510 N.am  1 <1>  -0.6600 
  4 C       -1.6460     1.9620     0.7410 C.3   1 <1>  -0.0190 
  5 C       -2.8520    -1.7810     0.6830 C.3   1 <1>   0.1400 
  6 C       -3.1250    -0.0710    -1.1300 C.3   1 <1>   0.1400 
  7 C       -2.8890     2.8550     0.5340 C.3   1 <1>  -0.1600 
  8 C       -0.5960     2.0950    -0.3910 C.3   1 <1>  -0.1600 
  9 C       -3.9840    -1.8700     1.7140 C.3   1 <1>   0.1200 
 10 C       -4.6530    -0.0430    -1.1630 C.3   1 <1>  -0.2400 
 11 C       -2.5190     4.3450     0.3820 C.3   1 <1>   0.2000 
 12 C       -0.7100     3.4150    -1.1750 C.3   1 <1>  -0.1600 
 13 O       -4.4820    -3.1940     1.7840 O.3   1 <1>  -0.3630 
 14 O       -3.4960     4.9490    -0.4320 O.3   1 <1>  -0.5600 
 15 C       -1.1170     4.5650    -0.2500 C.3   1 <1>   0.2000 
 16 C       -5.3280    -3.5860     0.8030 C.ar  1 <1>   0.0820 
 17 C       -4.6660     5.3240     0.2260 C.3   1 <1>   0.0400 
 18 O       -1.1290     5.7260    -0.9950 O.3   1 <1>  -0.6800 
 19 C       -6.6560    -3.1540     0.7520 C.ar  1 <1>  -0.1440 
 20 C       -4.8270    -4.4450    -0.1620 C.ar  1 <1>  -0.1500 
 21 C       -7.4510    -3.5510    -0.3210 C.ar  1 <1>  -0.1440 
 22 C       -7.2360    -2.2780     1.8610 C.3   1 <1>  -0.0970 
 23 C       -5.6260    -4.8450    -1.2140 C.ar  1 <1>  -0.1500 
 24 C       -6.9290    -4.3920    -1.2940 C.ar  1 <1>  -0.1500 
 25 C       -8.8980    -3.0950    -0.4640 C.3   1 <1>  -0.0970 
 26 H       -1.1680     2.3590     1.6210 H     1 <1>   0.0800 
 27 H       -3.0890    -2.3810    -0.1760 H     1 <1>   0.0800 
 28 H       -1.9460    -2.1610     1.1220 H     1 <1>   0.0800 
 29 H       -2.7480     0.8700    -1.4810 H     1 <1>   0.0800 
 30 H       -2.7610    -0.8290    -1.8020 H     1 <1>   0.0800 
 31 H       -3.5480     2.7390     1.3760 H     1 <1>   0.0800 
 32 H       -3.4160     2.5460    -0.3470 H     1 <1>   0.0800 
 33 H        0.3820     2.0380     0.0580 H     1 <1>   0.0800 
 34 H       -0.6590     1.2740    -1.0810 H     1 <1>   0.0800 
 35 H       -4.7900    -1.2120     1.4470 H     1 <1>   0.0800 
 36 H       -3.6160    -1.6050     2.6880 H     1 <1>   0.0800 
 37 H       -5.0330     0.6550    -0.4410 H     1 <1>   0.0800 
 38 H       -5.0570    -1.0200    -0.9660 H     1 <1>   0.0800 
 39 H       -4.9850     0.2600    -2.1390 H     1 <1>   0.0800 
 40 H       -2.5210     4.8280     1.3450 H     1 <1>   0.0800 
 41 H       -1.4550     3.3100    -1.9450 H     1 <1>   0.0800 
 42 H        0.2330     3.6380    -1.6430 H     1 <1>   0.0800 
 43 H       -0.3750     4.6770     0.5220 H     1 <1>   0.0800 
 44 H       -5.3240     5.7770    -0.4940 H     1 <1>   0.0800 
 45 H       -4.4280     6.0380     0.9960 H     1 <1>   0.0800 
 46 H       -5.1380     4.4540     0.6480 H     1 <1>   0.0800 
 47 H       -2.0650     5.8520    -1.2750 H     1 <1>   0.4000 
 48 H       -3.8140    -4.7930    -0.0840 H     1 <1>   0.1500 
 49 H       -8.2240    -2.6060     2.1240 H     1 <1>   0.0800 
 50 H       -7.2820    -1.2550     1.5340 H     1 <1>   0.0800 
 51 H       -6.6390    -2.3310     2.7520 H     1 <1>   0.0800 
 52 H       -5.2370    -5.5080    -1.9670 H     1 <1>   0.1500 
 53 H       -7.5400    -4.7070    -2.1220 H     1 <1>   0.1500 
 54 H       -9.2890    -3.3480    -1.4320 H     1 <1>   0.0800 
 55 H       -8.9660    -2.0290    -0.3460 H     1 <1>   0.0800 
 56 H       -9.5070    -3.5720     0.2830 H     1 <1>   0.0800 
@<TRIPOS>BOND
  1   1   2  2   
  2   2   3  am  
  3   2   4  1   
  4   3   5  1   
  5   3   6  1   
  6   4   7  1   
  7   4   8  1   
  8   4  26  1   
  9   5   9  1   
 10   5  27  1   
 11   5  28  1   
 12   6  10  1   
 13   6  29  1   
 14   6  30  1   
 15   7  11  1   
 16   7  31  1   
 17   7  32  1   
 18   8  12  1   
 19   8  33  1   
 20   8  34  1   
 21   9  13  1   
 22   9  35  1   
 23   9  36  1   
 24  10  37  1   
 25  10  38  1   
 26  10  39  1   
 27  11  14  1   
 28  11  15  1   
 29  11  40  1   
 30  12  15  1   
 31  12  41  1   
 32  12  42  1   
 33  13  16  1   
 34  14  17  1   
 35  15  18  1   
 36  15  43  1   
 37  16  19  ar  
 38  16  20  ar  
 39  17  44  1   
 40  17  45  1   
 41  17  46  1   
 42  18  47  1   
 43  19  21  ar  
 44  19  22  1   
 45  20  23  ar  
 46  20  48  1   
 47  21  24  ar  
 48  21  25  1   
 49  22  49  1   
 50  22  50  1   
 51  22  51  1   
 52  23  24  ar  
 53  23  52  1   
 54  24  53  1   
 55  25  54  1   
 56  25  55  1   
 57  25  56  1   
@<TRIPOS>SUBSTRUCTURE
  1 ****   3 GROUP 4 **** **** 0

# MOE 2024.06 (io_trps.svl 2023.06)
