@<TRIPOS>MOLECULE
NONAME
49 52 1 0 0 
SMALL
USER_CHARGES


@<TRIPOS>ATOM
  1 S       -0.2130     0.8980     2.3020 S.3   1 <1>  -0.0800 
  2 C       -1.1140     1.2660     0.8390 C.2   1 <1>  -0.1400 
  3 C       -1.4060    -0.3070     2.7710 C.2   1 <1>  -0.1100 
  4 C       -2.2240     0.5210     0.7670 C.2   1 <1>  -0.1810 
  5 C       -0.6510     2.3050    -0.1760 C.3   1 <1>   0.4600 
  6 C       -2.3960    -0.3840     1.8610 C.2   1 <1>  -0.1500 
  7 C       -3.1590     0.6910    -0.4090 C.3   1 <1>   0.0210 
  8 O       -1.5120     2.2570    -1.2980 O.3   1 <1>  -0.5600 
  9 C        0.7520     1.9750    -0.6970 C.3   1 <1>  -0.1600 
 10 C       -0.6820     3.7220     0.4140 C.3   1 <1>  -0.1600 
 11 C       -2.8890     2.0550    -1.0730 C.3   1 <1>   0.1200 
 12 C        1.2540     3.0340    -1.6800 C.3   1 <1>   0.1400 
 13 C       -0.1710     4.7570    -0.5910 C.3   1 <1>   0.1400 
 14 N        1.2010     4.3740    -1.0280 N.am  1 <1>  -0.6600 
 15 C        2.3340     5.1330    -0.8710 C.2   1 <1>   0.5690 
 16 O        3.4110     4.7570    -1.2700 O.2   1 <1>  -0.5700 
 17 C        2.2560     6.4850    -0.1740 C.3   1 <1>  -0.0990 
 18 C        3.6140     7.1880    -0.0460 C.3   1 <1>   0.0210 
 19 C        3.5830     8.5460     0.6550 C.2   1 <1>  -0.1810 
 20 C        2.6270     9.3180     1.2110 C.2   1 <1>  -0.0400 
 21 C        4.7420     9.3030     0.8490 C.2   1 <1>   0.1080 
 22 O        3.2030    10.3980     1.6680 O.3   1 <1>  -0.0190 
 23 C        1.1260     9.2220     1.4130 C.3   1 <1>  -0.0600 
 24 N        4.4820    10.4030     1.4560 N.2   1 <1>  -0.4100 
 25 C        6.1390     8.9130     0.4140 C.3   1 <1>  -0.0590 
 26 H       -1.2350    -0.8380     3.6900 H     1 <1>   0.1500 
 27 H       -3.2450    -1.0440     1.9130 H     1 <1>   0.1500 
 28 H       -4.1810     0.6510    -0.0790 H     1 <1>   0.0800 
 29 H       -2.9990    -0.1010    -1.1190 H     1 <1>   0.0800 
 30 H        0.7350     1.0110    -1.1720 H     1 <1>   0.0800 
 31 H        1.4430     1.9200     0.1240 H     1 <1>   0.0800 
 32 H       -0.0560     3.7540     1.2870 H     1 <1>   0.0800 
 33 H       -1.6780     3.9690     0.7270 H     1 <1>   0.0800 
 34 H       -3.2530     2.8520    -0.4490 H     1 <1>   0.0800 
 35 H       -3.3870     2.1090    -2.0250 H     1 <1>   0.0800 
 36 H        0.6340     3.0430    -2.5600 H     1 <1>   0.0800 
 37 H        2.2590     2.7930    -1.9850 H     1 <1>   0.0800 
 38 H       -0.1860     5.7320    -0.1410 H     1 <1>   0.0800 
 39 H       -0.8180     4.7790    -1.4520 H     1 <1>   0.0800 
 40 H        1.8570     6.3290     0.8090 H     1 <1>   0.0800 
 41 H        1.5950     7.1130    -0.7410 H     1 <1>   0.0800 
 42 H        4.0230     7.3260    -1.0320 H     1 <1>   0.0800 
 43 H        4.2840     6.5430     0.4950 H     1 <1>   0.0800 
 44 H        0.7160     8.3180     1.0150 H     1 <1>   0.0800 
 45 H        0.6480    10.0550     0.9300 H     1 <1>   0.0800 
 46 H        0.9050     9.2640     2.4640 H     1 <1>   0.0800 
 47 H        6.4310     7.9990     0.8970 H     1 <1>   0.0800 
 48 H        6.8370     9.6850     0.6840 H     1 <1>   0.0800 
 49 H        6.1670     8.7780    -0.6510 H     1 <1>   0.0800 
@<TRIPOS>BOND
  1   1   2  1   
  2   1   3  1   
  3   2   4  2   
  4   2   5  1   
  5   3   6  2   
  6   3  26  1   
  7   4   6  1   
  8   4   7  1   
  9   5   8  1   
 10   5   9  1   
 11   5  10  1   
 12   6  27  1   
 13   7  11  1   
 14   7  28  1   
 15   7  29  1   
 16   8  11  1   
 17   9  12  1   
 18   9  30  1   
 19   9  31  1   
 20  10  13  1   
 21  10  32  1   
 22  10  33  1   
 23  11  34  1   
 24  11  35  1   
 25  12  14  1   
 26  12  36  1   
 27  12  37  1   
 28  13  14  1   
 29  13  38  1   
 30  13  39  1   
 31  14  15  am  
 32  15  16  2   
 33  15  17  1   
 34  17  18  1   
 35  17  40  1   
 36  17  41  1   
 37  18  19  1   
 38  18  42  1   
 39  18  43  1   
 40  19  20  2   
 41  19  21  1   
 42  20  22  1   
 43  20  23  1   
 44  21  24  2   
 45  21  25  1   
 46  22  24  1   
 47  23  44  1   
 48  23  45  1   
 49  23  46  1   
 50  25  47  1   
 51  25  48  1   
 52  25  49  1   
@<TRIPOS>SUBSTRUCTURE
  1 ****  14 GROUP 4 **** **** 0

# MOE 2024.06 (io_trps.svl 2023.06)
