@<TRIPOS>MOLECULE
NONAME
52 55 1 0 0 
SMALL
USER_CHARGES


@<TRIPOS>ATOM
  1 F        2.2220     1.2480    -2.5730 F     1 <1>  -0.1900 
  2 C        2.5270     1.7190    -1.3940 C.ar  1 <1>   0.1900 
  3 C        2.6650     0.8490    -0.3270 C.ar  1 <1>   0.1600 
  4 C        2.7100     3.0730    -1.2420 C.ar  1 <1>  -0.1500 
  5 N        2.9730     1.2480     0.9010 N.ar  1 <1>  -0.6200 
  6 C        3.0420     3.5170     0.0320 C.ar  1 <1>   0.0860 
  7 C        3.1370     2.5580     1.0440 C.ar  1 <1>   0.1600 
  8 C        3.2760     4.9170     0.3120 C.2   1 <1>   0.5440 
  9 O        2.5540     5.7530    -0.1970 O.2   1 <1>  -0.5700 
 10 N        4.3200     5.3340     1.1110 N.am  1 <1>  -0.6600 
 11 C        5.6630     4.6870     1.0400 C.3   1 <1>   0.1400 
 12 C        4.2850     6.6710     1.7680 C.3   1 <1>   0.1400 
 13 C        6.3780     5.0470    -0.2750 C.3   1 <1>   0.1100 
 14 C        5.3900     7.6090     1.2670 C.3   1 <1>  -0.1600 
 15 N        6.8500     6.4540    -0.3650 N.3   1 <1>  -0.8100 
 16 C        5.7470     7.4330    -0.2140 C.3   1 <1>   0.1100 
 17 C        7.5470     6.6580    -1.6600 C.3   1 <1>   0.2480 
 18 C        8.4870     7.8620    -1.5690 C.2   1 <1>   0.2030 
 19 N        8.9800     8.1410    -0.3190 N.pl3 1 <1>  -0.6450 
 20 C        8.8580     8.6600    -2.5850 C.2   1 <1>  -0.1360 
 21 C        9.8180     9.1600    -0.0360 C.cat 1 <1>   0.7390 
 22 C        9.7410     9.7430    -2.3460 C.2   1 <1>   0.9370 
 23 N       10.2190     9.9730    -1.0470 N.pl3 1 <1>  -0.5760 
 24 C       10.2720     9.3930     1.2690 C.2   1 <1>  -0.1800 
 25 O       10.0880    10.4730    -3.2470 O.2   1 <1>  -0.5700 
 26 C       11.0760    11.0150    -0.7740 C.2   1 <1>   0.1910 
 27 C       11.1220    10.4300     1.5450 C.2   1 <1>  -0.1500 
 28 C       11.5330    11.2580     0.4940 C.2   1 <1>  -0.1380 
 29 C       12.4790    12.4080     0.8000 C.3   1 <1>  -0.1020 
 30 H        2.5160    -0.2040    -0.4920 H     1 <1>   0.1500 
 31 H        2.5970     3.7550    -2.0650 H     1 <1>   0.1500 
 32 H        3.3670     2.9050     2.0380 H     1 <1>   0.1500 
 33 H        5.5520     3.6190     1.0900 H     1 <1>   0.0800 
 34 H        6.2670     4.9850     1.8800 H     1 <1>   0.0800 
 35 H        4.3760     6.5420     2.8330 H     1 <1>   0.0800 
 36 H        3.3290     7.1340     1.5880 H     1 <1>   0.0800 
 37 H        5.7220     4.8270    -1.1010 H     1 <1>   0.0800 
 38 H        7.2320     4.3970    -0.3600 H     1 <1>   0.0800 
 39 H        6.2700     7.4970     1.8740 H     1 <1>   0.0800 
 40 H        5.0370     8.6140     1.4150 H     1 <1>   0.0800 
 41 H        6.0640     8.3930    -0.5830 H     1 <1>   0.0800 
 42 H        4.8820     7.1370    -0.7870 H     1 <1>   0.0800 
 43 H        6.8350     6.7820    -2.4590 H     1 <1>   0.0800 
 44 H        8.1490     5.7920    -1.8800 H     1 <1>   0.0800 
 45 H        8.5840     7.5490     0.4280 H     1 <1>   0.4500 
 46 H        8.5220     8.5280    -3.5960 H     1 <1>   0.1500 
 47 H        9.9420     8.7420     2.0560 H     1 <1>   0.1500 
 48 H       11.3890    11.6500    -1.5910 H     1 <1>   0.1500 
 49 H       11.4780    10.6160     2.5470 H     1 <1>   0.1500 
 50 H       12.0280    13.0790     1.5100 H     1 <1>   0.0800 
 51 H       12.7160    12.9660    -0.0900 H     1 <1>   0.0800 
 52 H       13.3960    12.0310     1.2180 H     1 <1>   0.0800 
@<TRIPOS>BOND
  1   1   2  1   
  2   2   3  ar  
  3   2   4  ar  
  4   3   5  ar  
  5   3  30  1   
  6   4   6  ar  
  7   4  31  1   
  8   5   7  ar  
  9   6   7  ar  
 10   6   8  1   
 11   7  32  1   
 12   8   9  2   
 13   8  10  am  
 14  10  11  1   
 15  10  12  1   
 16  11  13  1   
 17  11  33  1   
 18  11  34  1   
 19  12  14  1   
 20  12  35  1   
 21  12  36  1   
 22  13  15  1   
 23  13  37  1   
 24  13  38  1   
 25  14  16  1   
 26  14  39  1   
 27  14  40  1   
 28  15  16  1   
 29  15  17  1   
 30  16  41  1   
 31  16  42  1   
 32  17  18  1   
 33  17  43  1   
 34  17  44  1   
 35  18  19  1   
 36  18  20  2   
 37  19  21  ar  
 38  19  45  1   
 39  20  22  1   
 40  20  46  1   
 41  21  23  ar  
 42  21  24  1   
 43  22  23  1   
 44  22  25  2   
 45  23  26  1   
 46  24  27  2   
 47  24  47  1   
 48  26  28  2   
 49  26  48  1   
 50  27  28  1   
 51  27  49  1   
 52  28  29  1   
 53  29  50  1   
 54  29  51  1   
 55  29  52  1   
@<TRIPOS>SUBSTRUCTURE
  1 ****  15 GROUP 4 **** **** 0

# MOE 2024.06 (io_trps.svl 2023.06)
