@<TRIPOS>MOLECULE
NONAME
54 56 1 0 0 
SMALL
USER_CHARGES


@<TRIPOS>ATOM
  1 S        0.1640    -0.1310     1.7400 S.o2  1 <1>   1.4470 
  2 O       -0.3950    -1.1420     2.6150 O.2   1 <1>  -0.6500 
  3 O        0.5000     1.1480     2.3310 O.2   1 <1>  -0.6500 
  4 N       -1.0210     0.1720     0.5630 N.am  1 <1>  -0.8490 
  5 C        1.5290    -0.8970     0.8150 C.ar  1 <1>  -0.0090 
  6 C       -2.3150     0.4790     1.1950 C.3   1 <1>   0.1960 
  7 C       -0.6310     1.2560    -0.3430 C.3   1 <1>   0.1960 
  8 C        2.5630    -0.1570     0.2450 C.ar  1 <1>   0.0830 
  9 C        1.5440    -2.2770     0.6410 C.ar  1 <1>  -0.1500 
 10 C       -3.4470     0.5700     0.1520 C.3   1 <1>   0.0000 
 11 C       -1.6620     1.4200    -1.4650 C.3   1 <1>  -0.1600 
 12 O        2.5450     1.1920     0.3850 O.3   1 <1>  -0.3630 
 13 C        3.5800    -0.7970    -0.4590 C.ar  1 <1>  -0.1500 
 14 C        2.5500    -2.9260    -0.0570 C.ar  1 <1>  -0.1430 
 15 C       -4.7990     0.8330     0.8440 C.3   1 <1>   0.2000 
 16 C       -3.0780     1.6430    -0.9090 C.3   1 <1>  -0.1600 
 17 C       -3.7220    -0.7900    -0.5160 C.3   1 <1>  -0.1600 
 18 C        3.7070     1.9750     0.2270 C.3   1 <1>   0.0400 
 19 C        3.5720    -2.1700    -0.6050 C.ar  1 <1>  -0.1500 
 20 C        2.5150    -4.4460    -0.2080 C.3   1 <1>   0.0630 
 21 O       -5.0190     2.1700     1.1170 O.3   1 <1>  -0.6800 
 22 C       -5.8770     0.3010    -0.0990 C.3   1 <1>  -0.1600 
 23 C       -5.1790    -0.7380    -0.9870 C.3   1 <1>  -0.1600 
 24 C        3.7400    -5.0890     0.4500 C.3   1 <1>  -0.2400 
 25 C        2.4170    -4.8470    -1.6840 C.3   1 <1>  -0.2400 
 26 H       -2.5640    -0.2930     1.9040 H     1 <1>   0.0800 
 27 H       -2.2440     1.4080     1.7370 H     1 <1>   0.0800 
 28 H       -0.5340     2.1790     0.2060 H     1 <1>   0.0800 
 29 H        0.3200     1.0320    -0.7930 H     1 <1>   0.0800 
 30 H        0.7420    -2.8540     1.0690 H     1 <1>   0.1500 
 31 H       -1.3830     2.2590    -2.0770 H     1 <1>   0.0800 
 32 H       -1.6350     0.5470    -2.0910 H     1 <1>   0.0800 
 33 H        4.3830    -0.2430    -0.9060 H     1 <1>   0.1500 
 34 H       -4.8450     0.2950     1.7760 H     1 <1>   0.0800 
 35 H       -3.7890     1.6480    -1.7150 H     1 <1>   0.0800 
 36 H       -3.0880     2.6170    -0.4520 H     1 <1>   0.0800 
 37 H       -3.0470    -1.0160    -1.3210 H     1 <1>   0.0800 
 38 H       -3.6270    -1.5710     0.2190 H     1 <1>   0.0800 
 39 H        3.4820     2.9730     0.5600 H     1 <1>   0.0800 
 40 H        3.9820     1.9910    -0.8130 H     1 <1>   0.0800 
 41 H        4.4940     1.5590     0.8300 H     1 <1>   0.0800 
 42 H        4.3660    -2.6480    -1.1520 H     1 <1>   0.1500 
 43 H        1.6390    -4.8240     0.2920 H     1 <1>   0.0800 
 44 H       -5.0320     2.6740     0.2820 H     1 <1>   0.4000 
 45 H       -6.6720    -0.1520     0.4680 H     1 <1>   0.0800 
 46 H       -6.2800     1.0870    -0.7130 H     1 <1>   0.0800 
 47 H       -5.6440    -1.7050    -0.9060 H     1 <1>   0.0800 
 48 H       -5.2190    -0.4200    -2.0160 H     1 <1>   0.0800 
 49 H        4.6450    -4.7850    -0.0430 H     1 <1>   0.0800 
 50 H        3.6670    -6.1600     0.4060 H     1 <1>   0.0800 
 51 H        3.7960    -4.7920     1.4830 H     1 <1>   0.0800 
 52 H        3.2920    -4.5380    -2.2250 H     1 <1>   0.0800 
 53 H        1.5560    -4.3830    -2.1310 H     1 <1>   0.0800 
 54 H        2.3150    -5.9130    -1.7730 H     1 <1>   0.0800 
@<TRIPOS>BOND
  1   1   2  2   
  2   1   3  2   
  3   1   4  am  
  4   1   5  1   
  5   4   6  1   
  6   4   7  1   
  7   5   8  ar  
  8   5   9  ar  
  9   6  10  1   
 10   6  26  1   
 11   6  27  1   
 12   7  11  1   
 13   7  28  1   
 14   7  29  1   
 15   8  12  1   
 16   8  13  ar  
 17   9  14  ar  
 18   9  30  1   
 19  10  15  1   
 20  10  16  1   
 21  10  17  1   
 22  11  16  1   
 23  11  31  1   
 24  11  32  1   
 25  12  18  1   
 26  13  19  ar  
 27  13  33  1   
 28  14  19  ar  
 29  14  20  1   
 30  15  21  1   
 31  15  22  1   
 32  15  34  1   
 33  16  35  1   
 34  16  36  1   
 35  17  23  1   
 36  17  37  1   
 37  17  38  1   
 38  18  39  1   
 39  18  40  1   
 40  18  41  1   
 41  19  42  1   
 42  20  24  1   
 43  20  25  1   
 44  20  43  1   
 45  21  44  1   
 46  22  23  1   
 47  22  45  1   
 48  22  46  1   
 49  23  47  1   
 50  23  48  1   
 51  24  49  1   
 52  24  50  1   
 53  24  51  1   
 54  25  52  1   
 55  25  53  1   
 56  25  54  1   
@<TRIPOS>SUBSTRUCTURE
  1 ****   4 GROUP 4 **** **** 0

# MOE 2024.06 (io_trps.svl 2023.06)
