@<TRIPOS>MOLECULE
NONAME
42 43 1 0 0 
SMALL
USER_CHARGES


@<TRIPOS>ATOM
  1 O        3.5020    -0.9460     0.4250 O.2   1 <1>  -0.5700 
  2 C        2.7780    -1.1430    -0.5240 C.2   1 <1>   0.5690 
  3 N        2.5370    -0.1940    -1.4710 N.am  1 <1>  -0.4930 
  4 C        2.1140    -2.5200    -0.7170 C.3   1 <1>   0.3950 
  5 C        2.9430     1.1430    -1.5930 C.2   1 <1>   0.3520 
  6 N        2.0730    -2.9490    -2.1600 N.3   1 <1>  -0.8100 
  7 C        0.7100    -2.4610    -0.1050 C.ar  1 <1>  -0.1430 
  8 N        2.7640     1.7660    -2.6920 N.2   1 <1>  -0.4100 
  9 C        3.5440     2.0260    -0.6800 C.2   1 <1>   0.3520 
 10 C        1.3480    -4.2230    -2.3320 C.3   1 <1>   0.0300 
 11 C        3.4310    -3.1090    -2.7120 C.3   1 <1>   0.0300 
 12 C        0.4890    -2.9980     1.1560 C.ar  1 <1>  -0.1500 
 13 C       -0.3500    -1.8640    -0.7760 C.ar  1 <1>  -0.1500 
 14 O        3.2330     2.9540    -2.4600 O.3   1 <1>   0.2420 
 15 N        3.7090     3.1480    -1.2680 N.2   1 <1>  -0.4100 
 16 N        3.9130     1.7590     0.6520 N.am  1 <1>  -0.4930 
 17 C       -0.7650    -2.9460     1.7410 C.ar  1 <1>  -0.1430 
 18 C       -1.6050    -1.8110    -0.1970 C.ar  1 <1>  -0.1500 
 19 C        4.3490     2.5520     1.6620 C.2   1 <1>   0.5690 
 20 C       -1.8120    -2.3510     1.0590 C.ar  1 <1>  -0.1500 
 21 C       -0.9780    -3.5390     3.1220 C.3   1 <1>  -0.0970 
 22 O        4.6230     2.0650     2.7280 O.2   1 <1>  -0.5700 
 23 C        4.4980     4.0470     1.5030 C.3   1 <1>  -0.1790 
 24 H        2.0230    -0.5530    -2.2810 H     1 <1>   0.3700 
 25 H        2.6960    -3.2380    -0.1660 H     1 <1>   0.0800 
 26 H        0.3170    -4.1190    -2.0420 H     1 <1>   0.0800 
 27 H        1.7990    -4.9990    -1.7370 H     1 <1>   0.0800 
 28 H        1.3670    -4.5210    -3.3660 H     1 <1>   0.0800 
 29 H        3.9780    -2.1830    -2.6690 H     1 <1>   0.0800 
 30 H        3.3730    -3.4080    -3.7460 H     1 <1>   0.0800 
 31 H        3.9770    -3.8610    -2.1660 H     1 <1>   0.0800 
 32 H        1.2990    -3.4580     1.6940 H     1 <1>   0.1500 
 33 H       -0.2040    -1.4460    -1.7560 H     1 <1>   0.1500 
 34 H        3.8550     0.7670     0.9160 H     1 <1>   0.3700 
 35 H       -2.4220    -1.3490    -0.7240 H     1 <1>   0.1500 
 36 H       -2.7920    -2.3050     1.5000 H     1 <1>   0.1500 
 37 H       -0.2090    -3.1990     3.7920 H     1 <1>   0.0800 
 38 H       -0.9430    -4.6120     3.0680 H     1 <1>   0.0800 
 39 H       -1.9310    -3.2450     3.5230 H     1 <1>   0.0800 
 40 H        3.5640     4.4780     1.1960 H     1 <1>   0.0800 
 41 H        5.2530     4.2610     0.7700 H     1 <1>   0.0800 
 42 H        4.7900     4.4860     2.4400 H     1 <1>   0.0800 
@<TRIPOS>BOND
  1   1   2  2   
  2   2   3  am  
  3   2   4  1   
  4   3   5  1   
  5   3  24  1   
  6   4   6  1   
  7   4   7  1   
  8   4  25  1   
  9   5   8  2   
 10   5   9  1   
 11   6  10  1   
 12   6  11  1   
 13   7  12  ar  
 14   7  13  ar  
 15   8  14  1   
 16   9  15  2   
 17   9  16  1   
 18  10  26  1   
 19  10  27  1   
 20  10  28  1   
 21  11  29  1   
 22  11  30  1   
 23  11  31  1   
 24  12  17  ar  
 25  12  32  1   
 26  13  18  ar  
 27  13  33  1   
 28  14  15  1   
 29  16  19  am  
 30  16  34  1   
 31  17  20  ar  
 32  17  21  1   
 33  18  20  ar  
 34  18  35  1   
 35  19  22  2   
 36  19  23  1   
 37  20  36  1   
 38  21  37  1   
 39  21  38  1   
 40  21  39  1   
 41  23  40  1   
 42  23  41  1   
 43  23  42  1   
@<TRIPOS>SUBSTRUCTURE
  1 ****   2 GROUP 4 **** **** 0

# MOE 2024.06 (io_trps.svl 2023.06)
