@<TRIPOS>MOLECULE
NONAME
52 55 1 0 0 
SMALL
USER_CHARGES


@<TRIPOS>ATOM
  1 S        0.6820    -0.1790    -2.3850 S.3   1 <1>  -0.0800 
  2 C        0.1600    -0.9800    -0.8960 C.2   1 <1>   0.2930 
  3 C        1.6330     0.9250    -1.4560 C.2   1 <1>  -0.1400 
  4 N        0.6840    -0.4340     0.1600 N.2   1 <1>  -0.5650 
  5 C       -0.7510    -2.1130    -1.0340 C.2   1 <1>   0.7150 
  6 C        1.5060     0.6220    -0.1630 C.2   1 <1>   0.0460 
  7 C        2.4530     2.0280    -2.0850 C.3   1 <1>   0.0200 
  8 O       -0.9070    -2.6380    -2.1270 O.2   1 <1>  -0.5700 
  9 N       -1.4730    -2.6530     0.0250 N.am  1 <1>  -0.6600 
 10 C        2.2300     1.3990     0.9190 C.3   1 <1>   0.0210 
 11 C        2.8950     3.0060    -0.9780 C.3   1 <1>  -0.1600 
 12 C       -2.0550    -4.0250    -0.0940 C.3   1 <1>   0.1400 
 13 C       -1.7070    -1.9050     1.2960 C.3   1 <1>   0.1400 
 14 C        3.3470     2.2750     0.3080 C.3   1 <1>  -0.1600 
 15 C       -3.4890    -3.9710    -0.6370 C.3   1 <1>   0.1400 
 16 C       -3.0910    -2.1310     1.9220 C.3   1 <1>  -0.1600 
 17 N       -4.4610    -3.5090     0.4010 N.am  1 <1>  -0.6600 
 18 C       -4.2450    -2.1270     0.9130 C.3   1 <1>   0.1400 
 19 C       -5.5580    -4.2570     0.7860 C.2   1 <1>   0.7160 
 20 O       -6.4940    -3.7010     1.3300 O.2   1 <1>  -0.5700 
 21 C       -5.6180    -5.6840     0.5620 C.2   1 <1>  -0.0860 
 22 C       -6.6210    -6.4370     0.0320 C.2   1 <1>  -0.0400 
 23 C       -4.6130    -6.6250     0.8740 C.2   1 <1>  -0.1500 
 24 O       -6.2910    -7.7040    -0.0080 O.3   1 <1>  -0.2800 
 25 C       -7.9860    -6.0350    -0.4860 C.3   1 <1>  -0.0600 
 26 C       -5.0850    -7.8300     0.4990 C.2   1 <1>  -0.0400 
 27 C       -4.4740    -9.2110     0.5790 C.3   1 <1>  -0.0600 
 28 H        1.8720     2.5480    -2.8260 H     1 <1>   0.0800 
 29 H        3.3130     1.5930    -2.5630 H     1 <1>   0.0800 
 30 H        2.6560     0.7140     1.6300 H     1 <1>   0.0800 
 31 H        1.5140     2.0160     1.4310 H     1 <1>   0.0800 
 32 H        2.0670     3.6490    -0.7340 H     1 <1>   0.0800 
 33 H        3.6930     3.6260    -1.3470 H     1 <1>   0.0800 
 34 H       -2.0340    -4.5250     0.8580 H     1 <1>   0.0800 
 35 H       -1.4540    -4.6040    -0.7740 H     1 <1>   0.0800 
 36 H       -1.6200    -0.8500     1.0990 H     1 <1>   0.0800 
 37 H       -0.9410    -2.1670     2.0060 H     1 <1>   0.0800 
 38 H        4.1860     1.6450     0.0670 H     1 <1>   0.0800 
 39 H        3.6760     2.9930     1.0390 H     1 <1>   0.0800 
 40 H       -3.7610    -4.9460    -0.9960 H     1 <1>   0.0800 
 41 H       -3.5230    -3.3050    -1.4830 H     1 <1>   0.0800 
 42 H       -3.2560    -1.3310     2.6210 H     1 <1>   0.0800 
 43 H       -3.1020    -3.0430     2.4910 H     1 <1>   0.0800 
 44 H       -4.0370    -1.4580     0.0950 H     1 <1>   0.0800 
 45 H       -5.1350    -1.7720     1.4040 H     1 <1>   0.0800 
 46 H       -3.6700    -6.3880     1.3310 H     1 <1>   0.1500 
 47 H       -8.1250    -4.9720    -0.4060 H     1 <1>   0.0800 
 48 H       -8.7480    -6.5280     0.0890 H     1 <1>   0.0800 
 49 H       -8.0820    -6.3240    -1.5160 H     1 <1>   0.0800 
 50 H       -3.4940    -9.1610     1.0150 H     1 <1>   0.0800 
 51 H       -4.4010    -9.6320    -0.4060 H     1 <1>   0.0800 
 52 H       -5.0960    -9.8450     1.1840 H     1 <1>   0.0800 
@<TRIPOS>BOND
  1   1   2  1   
  2   1   3  1   
  3   2   4  2   
  4   2   5  1   
  5   3   6  2   
  6   3   7  1   
  7   4   6  1   
  8   5   8  2   
  9   5   9  am  
 10   6  10  1   
 11   7  11  1   
 12   7  28  1   
 13   7  29  1   
 14   9  12  1   
 15   9  13  1   
 16  10  14  1   
 17  10  30  1   
 18  10  31  1   
 19  11  14  1   
 20  11  32  1   
 21  11  33  1   
 22  12  15  1   
 23  12  34  1   
 24  12  35  1   
 25  13  16  1   
 26  13  36  1   
 27  13  37  1   
 28  14  38  1   
 29  14  39  1   
 30  15  17  1   
 31  15  40  1   
 32  15  41  1   
 33  16  18  1   
 34  16  42  1   
 35  16  43  1   
 36  17  18  1   
 37  17  19  am  
 38  18  44  1   
 39  18  45  1   
 40  19  20  2   
 41  19  21  1   
 42  21  22  2   
 43  21  23  1   
 44  22  24  1   
 45  22  25  1   
 46  23  26  2   
 47  23  46  1   
 48  24  26  1   
 49  25  47  1   
 50  25  48  1   
 51  25  49  1   
 52  26  27  1   
 53  27  50  1   
 54  27  51  1   
 55  27  52  1   
@<TRIPOS>SUBSTRUCTURE
  1 ****   9 GROUP 4 **** **** 0

# MOE 2024.06 (io_trps.svl 2023.06)
