@<TRIPOS>MOLECULE
NONAME
39 40 1 0 0 
SMALL
USER_CHARGES


@<TRIPOS>ATOM
  1 S        1.8870    -2.4400     1.0060 S.3   1 <1>  -0.0800 
  2 C        2.0170    -0.9070     0.1670 C.2   1 <1>   0.1980 
  3 C        0.1610    -2.2400     1.0530 C.2   1 <1>  -0.1100 
  4 N        0.8930    -0.3310    -0.0410 N.2   1 <1>  -0.5650 
  5 C        3.4250    -0.4350    -0.2090 C.3   1 <1>   0.4690 
  6 C       -0.1580    -1.0810     0.4570 C.2   1 <1>   0.0460 
  7 N        3.3570     0.9770    -0.6220 N.pl3 1 <1>  -0.8690 
  8 C        3.9930    -1.2290    -1.3820 C.3   1 <1>  -0.2400 
  9 C       -1.5480    -0.5140     0.2760 C.3   1 <1>  -0.0590 
 10 C        4.1520     1.9460    -0.0750 C.ar  1 <1>   0.4100 
 11 N        5.3640     1.5860     0.2930 N.ar  1 <1>  -0.6200 
 12 C        3.6980     3.2510     0.0780 C.ar  1 <1>  -0.1430 
 13 C        6.1170     2.5370     0.8030 C.ar  1 <1>   0.4770 
 14 C        4.5860     4.1430     0.6290 C.ar  1 <1>   0.1600 
 15 C        2.2760     3.6230    -0.3560 C.3   1 <1>  -0.0170 
 16 N        5.8040     3.8030     0.9990 N.ar  1 <1>  -0.6200 
 17 C        7.5090     2.1300     1.2230 C.3   1 <1>  -0.0970 
 18 C        1.8750     5.0860    -0.1120 C.3   1 <1>  -0.1600 
 19 C        0.4370     5.3510    -0.5680 C.3   1 <1>  -0.2400 
 20 H       -0.4270    -3.0090     1.5190 H     1 <1>   0.1500 
 21 H        4.0660    -0.5410     0.6500 H     1 <1>   0.0800 
 22 H        2.3710     1.2200    -0.7570 H     1 <1>   0.4000 
 23 H        3.3450    -1.1400    -2.2350 H     1 <1>   0.0800 
 24 H        4.0820    -2.2660    -1.1190 H     1 <1>   0.0800 
 25 H        4.9680    -0.8520    -1.6330 H     1 <1>   0.0800 
 26 H       -2.2820    -1.1760     0.6980 H     1 <1>   0.0800 
 27 H       -1.7520    -0.3860    -0.7710 H     1 <1>   0.0800 
 28 H       -1.6150     0.4410     0.7650 H     1 <1>   0.0800 
 29 H        4.3140     5.1710     0.7810 H     1 <1>   0.1500 
 30 H        1.5850     2.9870     0.1710 H     1 <1>   0.0800 
 31 H        2.1780     3.4110    -1.4070 H     1 <1>   0.0800 
 32 H        7.8100     1.2400     0.7020 H     1 <1>   0.0800 
 33 H        7.5190     1.9440     2.2790 H     1 <1>   0.0800 
 34 H        8.2030     2.9180     0.9950 H     1 <1>   0.0800 
 35 H        2.5390     5.7380    -0.6540 H     1 <1>   0.0800 
 36 H        1.9550     5.3120     0.9380 H     1 <1>   0.0800 
 37 H        0.3320     5.1540    -1.6200 H     1 <1>   0.0800 
 38 H        0.1770     6.3800    -0.3870 H     1 <1>   0.0800 
 39 H       -0.2520     4.7260    -0.0270 H     1 <1>   0.0800 
@<TRIPOS>BOND
  1   1   2  1   
  2   1   3  1   
  3   2   4  2   
  4   2   5  1   
  5   3   6  2   
  6   3  20  1   
  7   4   6  1   
  8   5   7  1   
  9   5   8  1   
 10   5  21  1   
 11   6   9  1   
 12   7  10  1   
 13   7  22  1   
 14   8  23  1   
 15   8  24  1   
 16   8  25  1   
 17   9  26  1   
 18   9  27  1   
 19   9  28  1   
 20  10  11  ar  
 21  10  12  ar  
 22  11  13  ar  
 23  12  14  ar  
 24  12  15  1   
 25  13  16  ar  
 26  13  17  1   
 27  14  16  ar  
 28  14  29  1   
 29  15  18  1   
 30  15  30  1   
 31  15  31  1   
 32  17  32  1   
 33  17  33  1   
 34  17  34  1   
 35  18  19  1   
 36  18  35  1   
 37  18  36  1   
 38  19  37  1   
 39  19  38  1   
 40  19  39  1   
@<TRIPOS>SUBSTRUCTURE
  1 ****   7 GROUP 4 **** **** 0

# MOE 2024.06 (io_trps.svl 2023.06)
