@<TRIPOS>MOLECULE
NONAME
45 45 1 0 0 
SMALL
USER_CHARGES


@<TRIPOS>ATOM
  1 O       -0.4150     1.5440     2.1260 O.2   1 <1>  -0.5700 
  2 C       -1.4130     1.5510     1.4380 C.2   1 <1>   0.5690 
  3 N       -2.4440     0.6630     1.6270 N.am  1 <1>  -0.6600 
  4 C       -1.4530     2.6130     0.3260 C.3   1 <1>   0.4040 
  5 C       -2.3760    -0.3860     2.6890 C.3   1 <1>   0.0600 
  6 C       -3.7300     0.6520     0.8700 C.3   1 <1>   0.0600 
  7 N       -0.0870     3.2140     0.0530 N.4   1 <1>  -0.9590 
  8 C       -0.0460     4.6570    -0.3960 C.3   1 <1>   0.5030 
  9 C        0.7480     2.2760    -0.7450 C.3   1 <1>   0.3430 
 10 C        1.3100     4.9320    -1.1040 C.3   1 <1>  -0.1600 
 11 C       -0.1410     5.5770     0.8550 C.3   1 <1>  -0.0220 
 12 C       -1.2120     4.9630    -1.3790 C.3   1 <1>  -0.0220 
 13 C        2.2250     2.6360    -0.5660 C.3   1 <1>  -0.1600 
 14 C        2.4900     4.1500    -0.5050 C.3   1 <1>  -0.1600 
 15 C       -1.2720     5.2690     1.8320 C.2   1 <1>  -0.2880 
 16 C       -1.1620     6.3490    -2.0150 C.2   1 <1>  -0.2880 
 17 C       -2.4120     5.9590     1.9180 C.2   1 <1>  -0.3000 
 18 C       -2.0620     7.3140    -1.8060 C.2   1 <1>  -0.3000 
 19 H       -2.1360     3.3800     0.6450 H     1 <1>   0.0800 
 20 H       -1.8440     2.1690    -0.5720 H     1 <1>   0.0800 
 21 H       -1.4200    -0.3780     3.1840 H     1 <1>   0.0800 
 22 H       -2.5240    -1.3590     2.2540 H     1 <1>   0.0800 
 23 H       -3.1410    -0.2100     3.4260 H     1 <1>   0.0800 
 24 H       -3.8050     1.4840     0.1930 H     1 <1>   0.0800 
 25 H       -4.5560     0.7030     1.5600 H     1 <1>   0.0800 
 26 H       -3.8110    -0.2630     0.3070 H     1 <1>   0.0800 
 27 H        0.3550     3.2030     0.9880 H     1 <1>   0.4500 
 28 H        0.4790     2.3510    -1.7860 H     1 <1>   0.0800 
 29 H        0.5910     1.2590    -0.4210 H     1 <1>   0.0800 
 30 H        1.5310     5.9860    -1.0730 H     1 <1>   0.0800 
 31 H        1.2320     4.6720    -2.1460 H     1 <1>   0.0800 
 32 H       -0.2500     6.5940     0.5220 H     1 <1>   0.0800 
 33 H        0.7830     5.5460     1.4030 H     1 <1>   0.0800 
 34 H       -2.1520     4.8820    -0.8650 H     1 <1>   0.0800 
 35 H       -1.2070     4.2400    -2.1750 H     1 <1>   0.0800 
 36 H        2.7720     2.2100    -1.3890 H     1 <1>   0.0800 
 37 H        2.5990     2.1710     0.3310 H     1 <1>   0.0800 
 38 H        2.6420     4.4470     0.5190 H     1 <1>   0.0800 
 39 H        3.3960     4.3820    -1.0410 H     1 <1>   0.0800 
 40 H       -1.0610     4.4360     2.4850 H     1 <1>   0.1500 
 41 H       -0.3240     6.4970    -2.6780 H     1 <1>   0.1500 
 42 H       -3.1970     5.7410     2.6250 H     1 <1>   0.1500 
 43 H       -2.6620     6.8080     1.3040 H     1 <1>   0.1500 
 44 H       -2.0140     8.2860    -2.2690 H     1 <1>   0.1500 
 45 H       -2.9230     7.2270    -1.1660 H     1 <1>   0.1500 
@<TRIPOS>BOND
  1   1   2  2   
  2   2   3  am  
  3   2   4  1   
  4   3   5  1   
  5   3   6  1   
  6   4   7  1   
  7   4  19  1   
  8   4  20  1   
  9   5  21  1   
 10   5  22  1   
 11   5  23  1   
 12   6  24  1   
 13   6  25  1   
 14   6  26  1   
 15   7   8  1   
 16   7   9  1   
 17   7  27  1   
 18   8  10  1   
 19   8  11  1   
 20   8  12  1   
 21   9  13  1   
 22   9  28  1   
 23   9  29  1   
 24  10  14  1   
 25  10  30  1   
 26  10  31  1   
 27  11  15  1   
 28  11  32  1   
 29  11  33  1   
 30  12  16  1   
 31  12  34  1   
 32  12  35  1   
 33  13  14  1   
 34  13  36  1   
 35  13  37  1   
 36  14  38  1   
 37  14  39  1   
 38  15  17  2   
 39  15  40  1   
 40  16  18  2   
 41  16  41  1   
 42  17  42  1   
 43  17  43  1   
 44  18  44  1   
 45  18  45  1   
@<TRIPOS>SUBSTRUCTURE
  1 ****   7 GROUP 4 **** **** 0

# MOE 2024.06 (io_trps.svl 2023.06)
