@<TRIPOS>MOLECULE
NONAME
59 62 1 0 0 
SMALL
USER_CHARGES


@<TRIPOS>ATOM
  1 O       -1.0090    -0.0560     1.0200 O.2   1 <1>  -0.5700 
  2 C       -1.5260     0.9220     0.5090 C.2   1 <1>   0.6900 
  3 N       -0.7780     2.0550     0.3160 N.am  1 <1>  -0.6600 
  4 N       -2.8480     0.8900     0.1400 N.am  1 <1>  -0.6600 
  5 C       -0.7830     2.7760    -0.9810 C.3   1 <1>   0.1400 
  6 C        0.4050     2.3260     1.1690 C.3   1 <1>   0.1400 
  7 C       -3.7280     2.0700     0.3020 C.3   1 <1>   0.1400 
  8 C       -3.6440    -0.3590     0.2010 C.3   1 <1>   0.1400 
  9 C       -0.7280     4.2810    -0.7180 C.3   1 <1>  -0.1600 
 10 C        0.4910     3.8290     1.4470 C.3   1 <1>  -0.1600 
 11 C       -5.1500     1.5200     0.2840 C.3   1 <1>  -0.1600 
 12 C       -5.0090     0.0680     0.7250 C.3   1 <1>  -0.1600 
 13 C        0.4890     4.6260     0.1420 C.3   1 <1>   0.2890 
 14 N        0.4570     6.0630     0.4700 N.pl3 1 <1>  -0.8690 
 15 C        0.9240     7.0440    -0.3740 C.ar  1 <1>   0.4100 
 16 N        1.6420     6.6690    -1.4240 N.ar  1 <1>  -0.6200 
 17 C        0.6220     8.3680    -0.0930 C.ar  1 <1>  -0.1500 
 18 C        2.0580     7.6410    -2.2160 C.ar  1 <1>   0.1600 
 19 C        1.0670     9.3890    -0.9100 C.ar  1 <1>   0.0860 
 20 C        1.8040     8.9810    -2.0130 C.ar  1 <1>  -0.1500 
 21 C        0.7700    10.7800    -0.6350 C.2   1 <1>   0.5440 
 22 O       -0.3920    11.1100    -0.4910 O.2   1 <1>  -0.5700 
 23 N        1.7640    11.7320    -0.5260 N.am  1 <1>  -0.6600 
 24 C        1.4460    13.1860    -0.4400 C.3   1 <1>   0.1400 
 25 C        3.2000    11.4080    -0.2930 C.3   1 <1>   0.1400 
 26 C        1.8630    13.7270     0.9320 C.3   1 <1>  -0.1600 
 27 C        3.6350    11.9390     1.0770 C.3   1 <1>  -0.1600 
 28 C        3.3420    13.4390     1.2270 C.3   1 <1>  -0.1600 
 29 H       -1.6590     2.5240    -1.5540 H     1 <1>   0.0800 
 30 H        0.0800     2.4730    -1.5500 H     1 <1>   0.0800 
 31 H        1.2920     1.9860     0.6610 H     1 <1>   0.0800 
 32 H        0.3200     1.7870     2.0980 H     1 <1>   0.0800 
 33 H       -3.5790     2.7780    -0.4940 H     1 <1>   0.0800 
 34 H       -3.5160     2.5400     1.2480 H     1 <1>   0.0800 
 35 H       -3.1920    -1.0930     0.8460 H     1 <1>   0.0800 
 36 H       -3.7300    -0.7620    -0.7930 H     1 <1>   0.0800 
 37 H       -1.6320     4.5840    -0.2230 H     1 <1>   0.0800 
 38 H       -0.6580     4.8000    -1.6570 H     1 <1>   0.0800 
 39 H        1.3950     4.0360     1.9900 H     1 <1>   0.0800 
 40 H       -0.3480     4.1130     2.0560 H     1 <1>   0.0800 
 41 H       -5.5270     1.5600    -0.7230 H     1 <1>   0.0800 
 42 H       -5.8050     2.0820     0.9260 H     1 <1>   0.0800 
 43 H       -4.9990     0.0110     1.8000 H     1 <1>   0.0800 
 44 H       -5.7970    -0.5580     0.3470 H     1 <1>   0.0800 
 45 H        1.3900     4.3950    -0.4030 H     1 <1>   0.0800 
 46 H       -0.3230     6.3250     1.0720 H     1 <1>   0.4000 
 47 H        0.0350     8.6060     0.7720 H     1 <1>   0.1500 
 48 H        2.6350     7.3480    -3.0770 H     1 <1>   0.1500 
 49 H        2.1720     9.7150    -2.7070 H     1 <1>   0.1500 
 50 H        0.3940    13.3580    -0.5910 H     1 <1>   0.0800 
 51 H        1.9800    13.7060    -1.2160 H     1 <1>   0.0800 
 52 H        3.7910    11.8670    -1.0670 H     1 <1>   0.0800 
 53 H        3.3700    10.3470    -0.3250 H     1 <1>   0.0800 
 54 H        1.2440    13.2690     1.6840 H     1 <1>   0.0800 
 55 H        1.6860    14.7870     0.9640 H     1 <1>   0.0800 
 56 H        4.6880    11.7630     1.2090 H     1 <1>   0.0800 
 57 H        3.1120    11.3910     1.8420 H     1 <1>   0.0800 
 58 H        3.5820    13.7590     2.2260 H     1 <1>   0.0800 
 59 H        3.9580    13.9940     0.5400 H     1 <1>   0.0800 
@<TRIPOS>BOND
  1   1   2  2   
  2   2   3  am  
  3   2   4  am  
  4   3   5  1   
  5   3   6  1   
  6   4   7  1   
  7   4   8  1   
  8   5   9  1   
  9   5  29  1   
 10   5  30  1   
 11   6  10  1   
 12   6  31  1   
 13   6  32  1   
 14   7  11  1   
 15   7  33  1   
 16   7  34  1   
 17   8  12  1   
 18   8  35  1   
 19   8  36  1   
 20   9  13  1   
 21   9  37  1   
 22   9  38  1   
 23  10  13  1   
 24  10  39  1   
 25  10  40  1   
 26  11  12  1   
 27  11  41  1   
 28  11  42  1   
 29  12  43  1   
 30  12  44  1   
 31  13  14  1   
 32  13  45  1   
 33  14  15  1   
 34  14  46  1   
 35  15  16  ar  
 36  15  17  ar  
 37  16  18  ar  
 38  17  19  ar  
 39  17  47  1   
 40  18  20  ar  
 41  18  48  1   
 42  19  20  ar  
 43  19  21  1   
 44  20  49  1   
 45  21  22  2   
 46  21  23  am  
 47  23  24  1   
 48  23  25  1   
 49  24  26  1   
 50  24  50  1   
 51  24  51  1   
 52  25  27  1   
 53  25  52  1   
 54  25  53  1   
 55  26  28  1   
 56  26  54  1   
 57  26  55  1   
 58  27  28  1   
 59  27  56  1   
 60  27  57  1   
 61  28  58  1   
 62  28  59  1   
@<TRIPOS>SUBSTRUCTURE
  1 ****  14 GROUP 4 **** **** 0

# MOE 2024.06 (io_trps.svl 2023.06)
