@<TRIPOS>MOLECULE
NONAME
49 51 1 0 0 
SMALL
USER_CHARGES


@<TRIPOS>ATOM
  1 O        0.7520    -0.2830     1.0570 O.3   1 <1>  -0.5600 
  2 C        1.9780     0.3530     0.8190 C.3   1 <1>   0.1200 
  3 C        0.5700    -1.4960     0.3830 C.3   1 <1>   0.1200 
  4 C        3.1510    -0.5720     1.2160 C.3   1 <1>   0.4230 
  5 C        1.6920    -2.4980     0.7540 C.3   1 <1>   0.4230 
  6 N        3.0550    -1.9110     0.5090 N.4   1 <1>  -0.9590 
  7 C        4.5040     0.1210     0.9350 C.3   1 <1>   0.1100 
  8 C        1.5500    -3.8490     0.0330 C.3   1 <1>  -0.1600 
  9 C        3.4000    -1.7740    -0.9560 C.3   1 <1>   0.3430 
 10 N        4.7650     0.2610    -0.5170 N.3   1 <1>  -0.8100 
 11 C        0.3440    -4.6590     0.5370 C.3   1 <1>  -0.1600 
 12 C        4.7460    -1.0530    -1.1840 C.3   1 <1>   0.1100 
 13 C        6.0150     1.0000    -0.7980 C.3   1 <1>   0.2910 
 14 C        0.2860    -6.0290    -0.1430 C.3   1 <1>  -0.2400 
 15 C        5.9560     2.3870    -0.1870 C.2   1 <1>  -0.1810 
 16 C        6.6960     2.9330     0.7920 C.2   1 <1>  -0.0400 
 17 C        5.0730     3.4120    -0.5300 C.2   1 <1>   0.1080 
 18 O        6.2630     4.1480     0.9920 O.3   1 <1>  -0.0190 
 19 C        7.8470     2.4200     1.6330 C.3   1 <1>  -0.0600 
 20 N        5.2770     4.4490     0.1990 N.2   1 <1>  -0.4100 
 21 C        4.0130     3.3470    -1.6070 C.3   1 <1>  -0.0590 
 22 H        2.0310     0.6310    -0.2190 H     1 <1>   0.0800 
 23 H        1.9980     1.2520     1.4100 H     1 <1>   0.0800 
 24 H       -0.3890    -1.8810     0.6810 H     1 <1>   0.0800 
 25 H        0.5440    -1.3040    -0.6750 H     1 <1>   0.0800 
 26 H        3.0790    -0.7280     2.2790 H     1 <1>   0.0800 
 27 H        1.5960    -2.6900     1.8100 H     1 <1>   0.0800 
 28 H        3.7490    -2.5320     0.9390 H     1 <1>   0.4500 
 29 H        5.2980    -0.4380     1.3990 H     1 <1>   0.0800 
 30 H        4.4800     1.0930     1.3990 H     1 <1>   0.0800 
 31 H        1.4390    -3.6980    -1.0260 H     1 <1>   0.0800 
 32 H        2.4360    -4.4350     0.2070 H     1 <1>   0.0800 
 33 H        3.4450    -2.7480    -1.4150 H     1 <1>   0.0800 
 34 H        2.6310    -1.2090    -1.4560 H     1 <1>   0.0800 
 35 H        0.4150    -4.8040     1.6030 H     1 <1>   0.0800 
 36 H       -0.5760    -4.1380     0.3330 H     1 <1>   0.0800 
 37 H        4.8860    -0.9150    -2.2430 H     1 <1>   0.0800 
 38 H        5.5530    -1.6670    -0.8210 H     1 <1>   0.0800 
 39 H        6.8590     0.4610    -0.4030 H     1 <1>   0.0800 
 40 H        6.1460     1.0980    -1.8620 H     1 <1>   0.0800 
 41 H        1.1730    -6.6000     0.0690 H     1 <1>   0.0800 
 42 H        0.1870    -5.9230    -1.2090 H     1 <1>   0.0800 
 43 H       -0.5640    -6.5820     0.2200 H     1 <1>   0.0800 
 44 H        8.0970     1.4100     1.3670 H     1 <1>   0.0800 
 45 H        7.5800     2.4550     2.6730 H     1 <1>   0.0800 
 46 H        8.7100     3.0430     1.4780 H     1 <1>   0.0800 
 47 H        4.4710     3.1480    -2.5580 H     1 <1>   0.0800 
 48 H        3.4900     4.2850    -1.6640 H     1 <1>   0.0800 
 49 H        3.3080     2.5700    -1.3820 H     1 <1>   0.0800 
@<TRIPOS>BOND
  1   1   2  1   
  2   1   3  1   
  3   2   4  1   
  4   2  22  1   
  5   2  23  1   
  6   3   5  1   
  7   3  24  1   
  8   3  25  1   
  9   4   6  1   
 10   4   7  1   
 11   4  26  1   
 12   5   6  1   
 13   5   8  1   
 14   5  27  1   
 15   6   9  1   
 16   6  28  1   
 17   7  10  1   
 18   7  29  1   
 19   7  30  1   
 20   8  11  1   
 21   8  31  1   
 22   8  32  1   
 23   9  12  1   
 24   9  33  1   
 25   9  34  1   
 26  10  12  1   
 27  10  13  1   
 28  11  14  1   
 29  11  35  1   
 30  11  36  1   
 31  12  37  1   
 32  12  38  1   
 33  13  15  1   
 34  13  39  1   
 35  13  40  1   
 36  14  41  1   
 37  14  42  1   
 38  14  43  1   
 39  15  16  2   
 40  15  17  1   
 41  16  18  1   
 42  16  19  1   
 43  17  20  2   
 44  17  21  1   
 45  18  20  1   
 46  19  44  1   
 47  19  45  1   
 48  19  46  1   
 49  21  47  1   
 50  21  48  1   
 51  21  49  1   
@<TRIPOS>SUBSTRUCTURE
  1 ****   7 GROUP 4 **** **** 0

# MOE 2024.06 (io_trps.svl 2023.06)
