@<TRIPOS>MOLECULE
NONAME
49 52 1 0 0 
SMALL
USER_CHARGES


@<TRIPOS>ATOM
  1 O        0.4150    -0.3430    -0.5370 O.2   1 <1>  -0.5700 
  2 C       -0.4300     0.5160    -0.4470 C.2   1 <1>   0.5690 
  3 N       -1.7310     0.2050    -0.1250 N.am  1 <1>  -0.6600 
  4 C        0.0020     1.9540    -0.7280 C.3   1 <1>   0.1810 
  5 C       -2.1340    -1.1810     0.2740 C.3   1 <1>   0.1400 
  6 C       -2.8710     1.1750    -0.0790 C.3   1 <1>   0.1400 
  7 O       -0.2020     2.7790     0.4150 O.3   1 <1>  -0.3620 
  8 C       -3.4350    -1.6190    -0.4250 C.3   1 <1>   0.3440 
  9 C       -4.1300     0.6070    -0.7700 C.3   1 <1>   0.2950 
 10 C       -0.8860     3.9450     0.2750 C.ar  1 <1>   0.0820 
 11 O       -4.4360    -0.6510    -0.2450 O.3   1 <1>  -0.5600 
 12 C       -3.9150    -2.9570     0.1290 C.ar  1 <1>  -0.1440 
 13 C       -5.3870     1.4820    -0.6150 C.3   1 <1>  -0.1950 
 14 C       -1.8380     4.2670     1.2360 C.ar  1 <1>   0.0820 
 15 C       -0.6770     4.8060    -0.7950 C.ar  1 <1>  -0.1500 
 16 C       -4.7460    -3.0240     1.2390 C.ar  1 <1>  -0.1500 
 17 C       -3.5020    -4.1370    -0.4750 C.ar  1 <1>  -0.1500 
 18 C       -5.3500     2.9800    -0.5530 C.3   1 <1>  -0.2000 
 19 C       -5.7710     2.1840     0.6520 C.3   1 <1>  -0.2000 
 20 O       -2.0220     3.4460     2.2850 O.3   1 <1>  -0.5320 
 21 C       -2.5990     5.4150     1.1210 C.ar  1 <1>  -0.1500 
 22 C       -1.4370     5.9600    -0.9100 C.ar  1 <1>  -0.1500 
 23 C       -5.1580    -4.2480     1.7370 C.ar  1 <1>  -0.1500 
 24 C       -3.9130    -5.3620     0.0220 C.ar  1 <1>  -0.1500 
 25 C       -2.3990     6.2620     0.0430 C.ar  1 <1>  -0.1500 
 26 C       -4.7410    -5.4190     1.1290 C.ar  1 <1>  -0.1500 
 27 H       -0.5610     2.3310    -1.5600 H     1 <1>   0.0800 
 28 H        1.0490     1.9790    -0.9660 H     1 <1>   0.0800 
 29 H       -1.3570    -1.8860     0.0340 H     1 <1>   0.0800 
 30 H       -2.2840    -1.2120     1.3380 H     1 <1>   0.0800 
 31 H       -3.0980     1.3910     0.9490 H     1 <1>   0.0800 
 32 H       -2.6080     2.0940    -0.5650 H     1 <1>   0.0800 
 33 H       -3.2600    -1.7180    -1.4830 H     1 <1>   0.0800 
 34 H       -3.9290     0.4890    -1.8210 H     1 <1>   0.0800 
 35 H       -6.1980     1.0590    -1.1830 H     1 <1>   0.1000 
 36 H        0.0740     4.5920    -1.5330 H     1 <1>   0.1500 
 37 H       -5.0790    -2.1190     1.7170 H     1 <1>   0.1500 
 38 H       -2.8570    -4.1110    -1.3360 H     1 <1>   0.1500 
 39 H       -4.4190     3.5160    -0.4920 H     1 <1>   0.1000 
 40 H       -6.1030     3.5370    -1.0850 H     1 <1>   0.1000 
 41 H       -6.8080     2.1810     0.9390 H     1 <1>   0.1000 
 42 H       -5.1160     2.1580     1.5050 H     1 <1>   0.1000 
 43 H       -1.3430     2.7410     2.2780 H     1 <1>   0.4500 
 44 H       -3.3360     5.6420     1.8700 H     1 <1>   0.1500 
 45 H       -1.2800     6.6280    -1.7390 H     1 <1>   0.1500 
 46 H       -5.8040    -4.2880     2.5960 H     1 <1>   0.1500 
 47 H       -3.5880    -6.2720    -0.4520 H     1 <1>   0.1500 
 48 H       -2.9880     7.1580    -0.0510 H     1 <1>   0.1500 
 49 H       -5.0600    -6.3700     1.5160 H     1 <1>   0.1500 
@<TRIPOS>BOND
  1   1   2  2   
  2   2   3  am  
  3   2   4  1   
  4   3   5  1   
  5   3   6  1   
  6   4   7  1   
  7   4  27  1   
  8   4  28  1   
  9   5   8  1   
 10   5  29  1   
 11   5  30  1   
 12   6   9  1   
 13   6  31  1   
 14   6  32  1   
 15   7  10  1   
 16   8  11  1   
 17   8  12  1   
 18   8  33  1   
 19   9  11  1   
 20   9  13  1   
 21   9  34  1   
 22  10  14  ar  
 23  10  15  ar  
 24  12  16  ar  
 25  12  17  ar  
 26  13  18  1   
 27  13  19  1   
 28  13  35  1   
 29  14  20  1   
 30  14  21  ar  
 31  15  22  ar  
 32  15  36  1   
 33  16  23  ar  
 34  16  37  1   
 35  17  24  ar  
 36  17  38  1   
 37  18  19  1   
 38  18  39  1   
 39  18  40  1   
 40  19  41  1   
 41  19  42  1   
 42  20  43  1   
 43  21  25  ar  
 44  21  44  1   
 45  22  25  ar  
 46  22  45  1   
 47  23  26  ar  
 48  23  46  1   
 49  24  26  ar  
 50  24  47  1   
 51  25  48  1   
 52  26  49  1   
@<TRIPOS>SUBSTRUCTURE
  1 ****   6 GROUP 4 **** **** 0

# MOE 2024.06 (io_trps.svl 2023.06)
