@<TRIPOS>MOLECULE
NONAME
50 52 1 0 0 
SMALL
USER_CHARGES


@<TRIPOS>ATOM
  1 O       -0.9950    -0.0660    -2.5600 O.2   1 <1>  -0.5700 
  2 C       -1.5800     0.6810    -1.8090 C.2   1 <1>   0.5690 
  3 N       -2.5270     0.2050    -0.9390 N.am  1 <1>  -0.6600 
  4 C       -1.2620     2.1720    -1.8980 C.3   1 <1>   0.1810 
  5 C       -3.3060     1.0070     0.0380 C.3   1 <1>   0.1400 
  6 C       -2.8330    -1.2380    -0.8010 C.3   1 <1>   0.1400 
  7 O       -0.8840     2.7070    -0.6380 O.3   1 <1>  -0.3620 
  8 C       -4.2420     0.0030     0.7100 C.3   1 <1>   0.2000 
  9 C       -3.5800    -1.3620     0.5280 C.3   1 <1>  -0.0800 
 10 C       -0.6330     4.0340    -0.4910 C.ar  1 <1>   0.0820 
 11 O       -4.4020     0.2790     2.0590 O.3   1 <1>  -0.6800 
 12 C       -4.5840    -2.5240     0.5670 C.3   1 <1>  -0.0170 
 13 C       -0.3520     4.4750     0.7930 C.ar  1 <1>  -0.1500 
 14 C       -0.6460     4.9480    -1.5410 C.ar  1 <1>  -0.1500 
 15 C       -3.8830    -3.8590     0.3750 C.ar  1 <1>  -0.1440 
 16 C       -0.0910     5.8120     1.0390 C.ar  1 <1>  -0.1500 
 17 C       -0.3850     6.2850    -1.2940 C.ar  1 <1>  -0.1500 
 18 C       -3.2530    -4.5020     1.4210 C.ar  1 <1>  -0.1500 
 19 C       -3.8360    -4.4970    -0.8480 C.ar  1 <1>  -0.1500 
 20 C       -0.1080     6.7270    -0.0100 C.ar  1 <1>   0.0820 
 21 C       -2.6210    -5.7140     1.2000 C.ar  1 <1>   0.1600 
 22 C       -3.1760    -5.7090    -0.9630 C.ar  1 <1>   0.1600 
 23 O        0.1350     8.0550     0.1370 O.3   1 <1>  -0.3620 
 24 N       -2.5670    -6.3340     0.0320 N.ar  1 <1>  -0.6200 
 25 C        0.4470     8.6040     1.3960 C.3   1 <1>   0.1200 
 26 C        0.6690    10.1020     1.2150 C.3   1 <1>  -0.2400 
 27 H       -2.1310     2.6980    -2.2460 H     1 <1>   0.0800 
 28 H       -0.4460     2.3200    -2.5820 H     1 <1>   0.0800 
 29 H       -2.6330     1.4420     0.7570 H     1 <1>   0.0800 
 30 H       -3.8640     1.7780    -0.4640 H     1 <1>   0.0800 
 31 H       -3.4550    -1.5400    -1.6260 H     1 <1>   0.0800 
 32 H       -1.9300    -1.8260    -0.8030 H     1 <1>   0.0800 
 33 H       -5.2100     0.0370     0.2400 H     1 <1>   0.0800 
 34 H       -2.8390    -1.5040     1.2940 H     1 <1>   0.0800 
 35 H       -3.5390     0.2530     2.5160 H     1 <1>   0.4000 
 36 H       -5.3310    -2.3930    -0.1970 H     1 <1>   0.0800 
 37 H       -5.0910    -2.5230     1.5170 H     1 <1>   0.0800 
 38 H       -0.3390     3.7630     1.5980 H     1 <1>   0.1500 
 39 H       -0.8520     4.6470    -2.5500 H     1 <1>   0.1500 
 40 H        0.1220     6.1180     2.0450 H     1 <1>   0.1500 
 41 H       -0.3930     6.9990    -2.0980 H     1 <1>   0.1500 
 42 H       -3.2460    -4.0720     2.4060 H     1 <1>   0.1500 
 43 H       -4.3030    -4.0650    -1.7140 H     1 <1>   0.1500 
 44 H       -2.1350    -6.2010     2.0280 H     1 <1>   0.1500 
 45 H       -3.1480    -6.1920    -1.9250 H     1 <1>   0.1500 
 46 H       -0.3780     8.4200     2.0630 H     1 <1>   0.0800 
 47 H        1.3400     8.1290     1.7640 H     1 <1>   0.0800 
 48 H       -0.2240    10.5640     0.8320 H     1 <1>   0.0800 
 49 H        1.4830    10.2750     0.5350 H     1 <1>   0.0800 
 50 H        0.9100    10.5520     2.1610 H     1 <1>   0.0800 
@<TRIPOS>BOND
  1   1   2  2   
  2   2   3  am  
  3   2   4  1   
  4   3   5  1   
  5   3   6  1   
  6   4   7  1   
  7   4  27  1   
  8   4  28  1   
  9   5   8  1   
 10   5  29  1   
 11   5  30  1   
 12   6   9  1   
 13   6  31  1   
 14   6  32  1   
 15   7  10  1   
 16   8   9  1   
 17   8  11  1   
 18   8  33  1   
 19   9  12  1   
 20   9  34  1   
 21  10  13  ar  
 22  10  14  ar  
 23  11  35  1   
 24  12  15  1   
 25  12  36  1   
 26  12  37  1   
 27  13  16  ar  
 28  13  38  1   
 29  14  17  ar  
 30  14  39  1   
 31  15  18  ar  
 32  15  19  ar  
 33  16  20  ar  
 34  16  40  1   
 35  17  20  ar  
 36  17  41  1   
 37  18  21  ar  
 38  18  42  1   
 39  19  22  ar  
 40  19  43  1   
 41  20  23  1   
 42  21  24  ar  
 43  21  44  1   
 44  22  24  ar  
 45  22  45  1   
 46  23  25  1   
 47  25  26  1   
 48  25  46  1   
 49  25  47  1   
 50  26  48  1   
 51  26  49  1   
 52  26  50  1   
@<TRIPOS>SUBSTRUCTURE
  1 ****   5 GROUP 4 **** **** 0

# MOE 2024.06 (io_trps.svl 2023.06)
