@<TRIPOS>MOLECULE
NONAME
46 49 1 0 0 
SMALL
USER_CHARGES


@<TRIPOS>ATOM
  1 S       -1.8110    -0.4230     0.8440 S.3   1 <1>  -0.3320 
  2 C       -1.1690    -2.0730     0.5110 C.ar  1 <1>   0.1020 
  3 C       -0.5860     0.7830     0.1670 C.3   1 <1>  -0.0100 
  4 C       -1.8950    -3.1390     0.9620 C.ar  1 <1>  -0.1500 
  5 C        0.0280    -2.2670    -0.1850 C.ar  1 <1>  -0.1500 
  6 C       -1.4690    -4.4550     0.7380 C.ar  1 <1>   0.3100 
  7 C        0.4700    -3.5430    -0.4140 C.ar  1 <1>  -0.1500 
  8 N       -2.2540    -5.4580     1.1970 N.ar  1 <1>  -0.6200 
  9 C       -0.2560    -4.6680     0.0350 C.ar  1 <1>   0.0000 
 10 C       -1.8520    -6.6690     0.9770 C.ar  1 <1>   0.4100 
 11 C        0.1530    -6.0060    -0.1700 C.ar  1 <1>  -0.1430 
 12 N       -2.6800    -7.6470     1.4210 N.pl3 1 <1>  -0.8690 
 13 C       -0.6550    -6.9880     0.3120 C.ar  1 <1>  -0.1500 
 14 C        1.4500    -6.3470    -0.8900 C.3   1 <1>  -0.0970 
 15 C       -3.3610    -8.5250     0.4580 C.3   1 <1>   0.5640 
 16 C       -4.8540    -8.1650     0.4120 C.2   1 <1>   0.0070 
 17 C       -3.1050    -9.9800     0.8830 C.3   1 <1>  -0.1950 
 18 N       -5.8040    -8.8610     0.9640 N.2   1 <1>  -0.5650 
 19 N       -5.3130    -7.0530    -0.2240 N.pl3 1 <1>   0.0480 
 20 C       -1.8610   -10.7290     0.5080 C.3   1 <1>  -0.2000 
 21 C       -3.1820   -11.1090    -0.1010 C.3   1 <1>  -0.2000 
 22 C       -6.9250    -8.1800     0.6770 C.2   1 <1>   0.0770 
 23 C       -6.6450    -7.0760    -0.0450 C.2   1 <1>  -0.3020 
 24 C       -4.5880    -5.9900    -0.9480 C.3   1 <1>   0.0160 
 25 H       -0.9540     1.7710     0.3810 H     1 <1>   0.0800 
 26 H       -0.5140     0.6250    -0.8930 H     1 <1>   0.0800 
 27 H        0.3550     0.6130     0.6590 H     1 <1>   0.0800 
 28 H       -2.8110    -2.9860     1.5000 H     1 <1>   0.1500 
 29 H        0.5970    -1.4300    -0.5380 H     1 <1>   0.1500 
 30 H        1.3910    -3.6910    -0.9480 H     1 <1>   0.1500 
 31 H       -3.3820    -7.2790     2.0670 H     1 <1>   0.4000 
 32 H       -0.4070    -8.0260     0.2130 H     1 <1>   0.1500 
 33 H        2.2860    -5.9190    -0.3660 H     1 <1>   0.0800 
 34 H        1.4280    -5.9640    -1.8940 H     1 <1>   0.0800 
 35 H        1.5930    -7.4120    -0.9380 H     1 <1>   0.0800 
 36 H       -2.9430    -8.3820    -0.5220 H     1 <1>   0.0800 
 37 H       -3.5260   -10.1760     1.8540 H     1 <1>   0.1000 
 38 H       -1.4190   -11.3790     1.2440 H     1 <1>   0.1000 
 39 H       -1.1260   -10.2650    -0.1250 H     1 <1>   0.1000 
 40 H       -3.3650   -10.8850    -1.1370 H     1 <1>   0.1000 
 41 H       -3.6650   -12.0180     0.2130 H     1 <1>   0.1000 
 42 H       -7.8890    -8.5250     1.0120 H     1 <1>   0.1500 
 43 H       -7.3080    -6.3230    -0.4290 H     1 <1>   0.1500 
 44 H       -3.6160    -6.3340    -1.2460 H     1 <1>   0.0800 
 45 H       -4.4800    -5.1370    -0.3010 H     1 <1>   0.0800 
 46 H       -5.1470    -5.7060    -1.8200 H     1 <1>   0.0800 
@<TRIPOS>BOND
  1   1   2  1   
  2   1   3  1   
  3   2   4  ar  
  4   2   5  ar  
  5   3  25  1   
  6   3  26  1   
  7   3  27  1   
  8   4   6  ar  
  9   4  28  1   
 10   5   7  ar  
 11   5  29  1   
 12   6   8  ar  
 13   6   9  ar  
 14   7   9  ar  
 15   7  30  1   
 16   8  10  ar  
 17   9  11  ar  
 18  10  12  1   
 19  10  13  ar  
 20  11  13  ar  
 21  11  14  1   
 22  12  15  1   
 23  12  31  1   
 24  13  32  1   
 25  14  33  1   
 26  14  34  1   
 27  14  35  1   
 28  15  16  1   
 29  15  17  1   
 30  15  36  1   
 31  16  18  2   
 32  16  19  1   
 33  17  20  1   
 34  17  21  1   
 35  17  37  1   
 36  18  22  1   
 37  19  23  1   
 38  19  24  1   
 39  20  21  1   
 40  20  38  1   
 41  20  39  1   
 42  21  40  1   
 43  21  41  1   
 44  22  23  2   
 45  22  42  1   
 46  23  43  1   
 47  24  44  1   
 48  24  45  1   
 49  24  46  1   
@<TRIPOS>SUBSTRUCTURE
  1 ****   8 GROUP 4 **** **** 0

# MOE 2024.06 (io_trps.svl 2023.06)
