@<TRIPOS>MOLECULE
NONAME
44 45 1 0 0 
SMALL
USER_CHARGES


@<TRIPOS>ATOM
  1 F        1.2550     3.3130     2.9390 F     1 <1>  -0.1900 
  2 C        2.1790     3.3520     2.0170 C.ar  1 <1>   0.1900 
  3 C        3.0340     2.2750     1.8850 C.ar  1 <1>  -0.1500 
  4 C        2.2680     4.4690     1.2090 C.ar  1 <1>  -0.1500 
  5 C        4.0130     2.3210     0.9070 C.ar  1 <1>  -0.1500 
  6 C        3.2520     4.5030     0.2350 C.ar  1 <1>  -0.1500 
  7 C        4.1250     3.4330     0.0790 C.ar  1 <1>  -0.1440 
  8 C        5.2000     3.4860    -0.9990 C.3   1 <1>   0.2540 
  9 N        6.1490     4.5860    -0.7460 N.3   1 <1>  -0.8100 
 10 C        7.0800     4.7560    -1.9040 C.3   1 <1>   0.1710 
 11 C        6.9020     4.3550     0.5030 C.3   1 <1>   0.0300 
 12 C        7.7710     6.1210    -1.9510 C.2   1 <1>   0.5690 
 13 O        8.7610     6.2560    -2.6320 O.2   1 <1>  -0.5700 
 14 N        7.2170     7.1220    -1.2150 N.am  1 <1>  -0.4930 
 15 C        7.6190     8.4730    -1.0730 C.2   1 <1>   0.0630 
 16 C        8.6590     9.1510    -1.7090 C.2   1 <1>   0.1390 
 17 C        7.0530     9.3970    -0.2700 C.2   1 <1>  -0.3020 
 18 N        8.7390    10.3950    -1.3370 N.2   1 <1>  -0.7070 
 19 N        7.7400    10.5490    -0.4430 N.pl3 1 <1>   0.3140 
 20 C        7.4740    11.8410     0.2080 C.3   1 <1>   0.1570 
 21 C        8.4970    12.1140     1.2890 C.2   1 <1>   0.5690 
 22 O        8.1100    12.5700     2.3390 O.2   1 <1>  -0.5700 
 23 N        9.8130    11.8630     1.0510 N.am  1 <1>  -0.7300 
 24 C       10.9320    12.0790     1.9990 C.3   1 <1>   0.0600 
 25 H        2.9310     1.4240     2.5340 H     1 <1>   0.1500 
 26 H        1.5850     5.2870     1.3430 H     1 <1>   0.1500 
 27 H        4.6860     1.4890     0.7940 H     1 <1>   0.1500 
 28 H        3.3440     5.3640    -0.4040 H     1 <1>   0.1500 
 29 H        4.7140     3.6430    -1.9470 H     1 <1>   0.0800 
 30 H        5.7280     2.5490    -1.0480 H     1 <1>   0.0800 
 31 H        6.5290     4.6610    -2.8230 H     1 <1>   0.0800 
 32 H        7.8310     3.9860    -1.8910 H     1 <1>   0.0800 
 33 H        6.2300     4.3380     1.3440 H     1 <1>   0.0800 
 34 H        7.6160     5.1450     0.6670 H     1 <1>   0.0800 
 35 H        7.4290     3.4170     0.4600 H     1 <1>   0.0800 
 36 H        6.4140     6.8100    -0.6600 H     1 <1>   0.3700 
 37 H        9.3210     8.6960    -2.4280 H     1 <1>   0.1500 
 38 H        6.2200     9.3020     0.4000 H     1 <1>   0.1500 
 39 H        6.4910    11.8250     0.6370 H     1 <1>   0.0800 
 40 H        7.5250    12.6160    -0.5310 H     1 <1>   0.0800 
 41 H       10.0450    11.3950     0.1590 H     1 <1>   0.3700 
 42 H       10.5730    12.5420     2.9020 H     1 <1>   0.0800 
 43 H       11.6710    12.7190     1.5490 H     1 <1>   0.0800 
 44 H       11.3840    11.1340     2.2480 H     1 <1>   0.0800 
@<TRIPOS>BOND
  1   1   2  1   
  2   2   3  ar  
  3   2   4  ar  
  4   3   5  ar  
  5   3  25  1   
  6   4   6  ar  
  7   4  26  1   
  8   5   7  ar  
  9   5  27  1   
 10   6   7  ar  
 11   6  28  1   
 12   7   8  1   
 13   8   9  1   
 14   8  29  1   
 15   8  30  1   
 16   9  10  1   
 17   9  11  1   
 18  10  12  1   
 19  10  31  1   
 20  10  32  1   
 21  11  33  1   
 22  11  34  1   
 23  11  35  1   
 24  12  13  2   
 25  12  14  am  
 26  14  15  1   
 27  14  36  1   
 28  15  16  1   
 29  15  17  2   
 30  16  18  2   
 31  16  37  1   
 32  17  19  1   
 33  17  38  1   
 34  18  19  1   
 35  19  20  1   
 36  20  21  1   
 37  20  39  1   
 38  20  40  1   
 39  21  22  2   
 40  21  23  am  
 41  23  24  1   
 42  23  41  1   
 43  24  42  1   
 44  24  43  1   
 45  24  44  1   
@<TRIPOS>SUBSTRUCTURE
  1 ****  14 GROUP 4 **** **** 0

# MOE 2024.06 (io_trps.svl 2023.06)
