@<TRIPOS>MOLECULE
NONAME
61 64 1 0 0 
SMALL
USER_CHARGES


@<TRIPOS>ATOM
  1 O       -0.3710     0.7800     1.3050 O.2   1 <1>  -0.5700 
  2 C       -0.8300     1.1990     0.2670 C.2   1 <1>   0.5690 
  3 N       -1.6980     0.4440    -0.4500 N.am  1 <1>  -0.7300 
  4 C       -0.3960     2.5860    -0.2460 C.3   1 <1>   0.0610 
  5 C       -2.3860    -0.7650     0.0510 C.3   1 <1>   0.2840 
  6 C       -0.3400     3.6130     0.9220 C.3   1 <1>   0.2200 
  7 C       -1.4340     3.2790    -1.1920 C.3   1 <1>  -0.1600 
  8 C        0.9770     2.3760    -0.9540 C.3   1 <1>  -0.1600 
  9 C       -3.8780    -0.4740     0.1450 C.ar  1 <1>   0.1660 
 10 N       -0.5640     4.8700     0.2150 N.am  1 <1>  -0.6600 
 11 C       -1.6360     3.6080     1.7570 C.3   1 <1>  -0.1600 
 12 C       -1.8210     4.5590    -0.4400 C.3   1 <1>   0.2200 
 13 C        1.7520     3.6200    -1.4230 C.3   1 <1>  -0.2400 
 14 N       -4.5190    -0.2610    -1.0000 N.ar  1 <1>  -0.6200 
 15 C       -4.4860    -0.4290     1.3920 C.ar  1 <1>  -0.1500 
 16 C        0.1230     6.0380     0.3560 C.2   1 <1>   0.5690 
 17 C       -2.6760     4.1860     0.7780 C.3   1 <1>  -0.1600 
 18 C       -5.8130    -0.0060    -0.8930 C.ar  1 <1>   0.1600 
 19 C       -5.8340    -0.1580     1.4860 C.ar  1 <1>  -0.1500 
 20 O        1.0740     6.1370     1.0940 O.2   1 <1>  -0.5700 
 21 C       -0.3090     7.2610    -0.4190 C.3   1 <1>  -0.0990 
 22 C       -6.5070     0.0570     0.3040 C.ar  1 <1>  -0.1500 
 23 C       -1.4080     8.0170     0.3310 C.3   1 <1>   0.0210 
 24 C       -1.9550     9.1350    -0.5310 C.2   1 <1>   0.1080 
 25 N       -2.8770     8.9210    -1.4170 N.2   1 <1>  -0.7070 
 26 C       -1.5520    10.4700    -0.4950 C.2   1 <1>  -0.1810 
 27 N       -3.0950    10.1260    -1.9720 N.pl3 1 <1>   0.3000 
 28 C       -2.3070    11.0810    -1.4340 C.2   1 <1>  -0.3320 
 29 C       -0.4900    11.0550     0.4190 C.3   1 <1>  -0.0590 
 30 C       -2.3550    12.5320    -1.8850 C.3   1 <1>  -0.0600 
 31 H       -2.1390     0.8200    -1.2910 H     1 <1>   0.3700 
 32 H       -2.2230    -1.5770    -0.6350 H     1 <1>   0.0800 
 33 H       -1.9940    -1.0480     1.0120 H     1 <1>   0.0800 
 34 H        0.5670     3.5890     1.5040 H     1 <1>   0.0800 
 35 H       -2.3150     2.7000    -1.3920 H     1 <1>   0.0800 
 36 H       -0.9960     3.5430    -2.1360 H     1 <1>   0.0800 
 37 H        1.6210     1.8370    -0.2800 H     1 <1>   0.0800 
 38 H        0.8200     1.7380    -1.8060 H     1 <1>   0.0800 
 39 H       -1.9130     2.6400     2.1330 H     1 <1>   0.0800 
 40 H       -1.5090     4.2680     2.5980 H     1 <1>   0.0800 
 41 H       -2.2270     5.3450    -1.0550 H     1 <1>   0.0800 
 42 H        2.0680     4.2050    -0.5780 H     1 <1>   0.0800 
 43 H        1.1590     4.2380    -2.0700 H     1 <1>   0.0800 
 44 H        2.6330     3.3170    -1.9600 H     1 <1>   0.0800 
 45 H       -3.9090    -0.6010     2.2840 H     1 <1>   0.1500 
 46 H       -3.1400     5.0640     1.1910 H     1 <1>   0.0800 
 47 H       -3.4400     3.4710     0.5250 H     1 <1>   0.0800 
 48 H       -6.3530     0.1630    -1.8090 H     1 <1>   0.1500 
 49 H       -6.3360    -0.1170     2.4370 H     1 <1>   0.1500 
 50 H        0.5390     7.9060    -0.5580 H     1 <1>   0.0800 
 51 H       -0.6580     6.9690    -1.3910 H     1 <1>   0.0800 
 52 H       -7.5610     0.2710     0.3060 H     1 <1>   0.1500 
 53 H       -1.0190     8.4100     1.2530 H     1 <1>   0.0800 
 54 H       -2.2150     7.3500     0.5720 H     1 <1>   0.0800 
 55 H       -3.7870    10.2650    -2.7170 H     1 <1>   0.2700 
 56 H        0.4290    10.5090     0.3070 H     1 <1>   0.0800 
 57 H       -0.8130    10.9890     1.4420 H     1 <1>   0.0800 
 58 H       -0.3040    12.0860     0.1830 H     1 <1>   0.0800 
 59 H       -1.6660    13.1320    -1.3200 H     1 <1>   0.0800 
 60 H       -3.3440    12.9290    -1.7440 H     1 <1>   0.0800 
 61 H       -2.0930    12.6030    -2.9260 H     1 <1>   0.0800 
@<TRIPOS>BOND
  1   1   2  2   
  2   2   3  am  
  3   2   4  1   
  4   3   5  1   
  5   3  31  1   
  6   4   6  1   
  7   4   7  1   
  8   4   8  1   
  9   5   9  1   
 10   5  32  1   
 11   5  33  1   
 12   6  10  1   
 13   6  11  1   
 14   6  34  1   
 15   7  12  1   
 16   7  35  1   
 17   7  36  1   
 18   8  13  1   
 19   8  37  1   
 20   8  38  1   
 21   9  14  ar  
 22   9  15  ar  
 23  10  12  1   
 24  10  16  am  
 25  11  17  1   
 26  11  39  1   
 27  11  40  1   
 28  12  17  1   
 29  12  41  1   
 30  13  42  1   
 31  13  43  1   
 32  13  44  1   
 33  14  18  ar  
 34  15  19  ar  
 35  15  45  1   
 36  16  20  2   
 37  16  21  1   
 38  17  46  1   
 39  17  47  1   
 40  18  22  ar  
 41  18  48  1   
 42  19  22  ar  
 43  19  49  1   
 44  21  23  1   
 45  21  50  1   
 46  21  51  1   
 47  22  52  1   
 48  23  24  1   
 49  23  53  1   
 50  23  54  1   
 51  24  25  2   
 52  24  26  1   
 53  25  27  1   
 54  26  28  2   
 55  26  29  1   
 56  27  28  1   
 57  27  55  1   
 58  28  30  1   
 59  29  56  1   
 60  29  57  1   
 61  29  58  1   
 62  30  59  1   
 63  30  60  1   
 64  30  61  1   
@<TRIPOS>SUBSTRUCTURE
  1 ****  12 GROUP 4 **** **** 0

# MOE 2024.06 (io_trps.svl 2023.06)
