@<TRIPOS>MOLECULE
NONAME
49 50 1 0 0 
SMALL
USER_CHARGES


@<TRIPOS>ATOM
  1 O       -2.4070     0.5090    -1.2490 O.2   1 <1>  -0.5700 
  2 C       -1.7610     1.0100    -0.3580 C.2   1 <1>   0.5690 
  3 N       -1.2390     0.2810     0.6740 N.am  1 <1>  -0.7300 
  4 C       -1.5640     2.5340    -0.3550 C.3   1 <1>   0.1710 
  5 C       -1.2860    -1.1780     0.8810 C.3   1 <1>   0.2200 
  6 N       -0.2540     3.0430    -0.8580 N.3   1 <1>  -0.8100 
  7 C       -0.5860    -1.8960    -0.2710 C.3   1 <1>  -0.2400 
  8 C       -2.7320    -1.6390     1.0530 C.3   1 <1>  -0.2400 
  9 C       -0.2560     4.5230    -0.9050 C.3   1 <1>   0.1100 
 10 C        0.9080     2.5520    -0.0780 C.3   1 <1>   0.1100 
 11 C        1.0670     5.0990    -1.4450 C.3   1 <1>   0.2090 
 12 C        2.2500     3.1110    -0.5910 C.3   1 <1>   0.2090 
 13 N        2.2250     4.6030    -0.6470 N.pl3 1 <1>  -0.8380 
 14 C        3.4010     5.3210    -0.6020 C.ar  1 <1>   0.4100 
 15 N        4.5180     4.7040    -0.9300 N.ar  1 <1>  -0.6200 
 16 C        3.4140     6.6500    -0.2220 C.ar  1 <1>  -0.1500 
 17 C        5.6110     5.4400    -0.8830 C.ar  1 <1>   0.4700 
 18 C        4.6090     7.3200    -0.2070 C.ar  1 <1>   0.1670 
 19 N        5.7330     6.7120    -0.5460 N.ar  1 <1>  -0.6200 
 20 C        4.6720     8.7930     0.2070 C.3   1 <1>   0.0630 
 21 C        5.1890     9.6710    -0.9410 C.3   1 <1>  -0.2400 
 22 C        5.5430     8.9830     1.4560 C.3   1 <1>  -0.2400 
 23 H       -0.7120     0.7820     1.3860 H     1 <1>   0.3700 
 24 H       -1.7220     2.8900     0.6470 H     1 <1>   0.0800 
 25 H       -2.3450     2.9460    -0.9690 H     1 <1>   0.0800 
 26 H       -0.7520    -1.4010     1.7890 H     1 <1>   0.0800 
 27 H       -1.1140    -1.7410    -1.1950 H     1 <1>   0.0800 
 28 H       -0.5530    -2.9520    -0.0770 H     1 <1>   0.0800 
 29 H        0.4210    -1.5360    -0.3760 H     1 <1>   0.0800 
 30 H       -3.2920    -1.4840     0.1480 H     1 <1>   0.0800 
 31 H       -3.2000    -1.1020     1.8560 H     1 <1>   0.0800 
 32 H       -2.7550    -2.6880     1.2850 H     1 <1>   0.0800 
 33 H       -0.4240     4.9180     0.0820 H     1 <1>   0.0800 
 34 H       -1.0580     4.8550    -1.5410 H     1 <1>   0.0800 
 35 H        0.9550     1.4800    -0.1440 H     1 <1>   0.0800 
 36 H        0.7970     2.8280     0.9560 H     1 <1>   0.0800 
 37 H        1.0270     6.1720    -1.4200 H     1 <1>   0.0800 
 38 H        1.1890     4.7940    -2.4700 H     1 <1>   0.0800 
 39 H        2.4470     2.7210    -1.5750 H     1 <1>   0.0800 
 40 H        3.0420     2.7860     0.0620 H     1 <1>   0.0800 
 41 H        2.4990     7.1270     0.0610 H     1 <1>   0.1500 
 42 H        6.5240     4.9400    -1.1560 H     1 <1>   0.1500 
 43 H        3.6770     9.1230     0.4490 H     1 <1>   0.0800 
 44 H        6.1970     9.3950    -1.1970 H     1 <1>   0.0800 
 45 H        5.1760    10.7080    -0.6580 H     1 <1>   0.0800 
 46 H        4.5700     9.5420    -1.8100 H     1 <1>   0.0800 
 47 H        6.5580     8.6920     1.2510 H     1 <1>   0.0800 
 48 H        5.1700     8.3720     2.2590 H     1 <1>   0.0800 
 49 H        5.5330    10.0110     1.7710 H     1 <1>   0.0800 
@<TRIPOS>BOND
  1   1   2  2   
  2   2   3  am  
  3   2   4  1   
  4   3   5  1   
  5   3  23  1   
  6   4   6  1   
  7   4  24  1   
  8   4  25  1   
  9   5   7  1   
 10   5   8  1   
 11   5  26  1   
 12   6   9  1   
 13   6  10  1   
 14   7  27  1   
 15   7  28  1   
 16   7  29  1   
 17   8  30  1   
 18   8  31  1   
 19   8  32  1   
 20   9  11  1   
 21   9  33  1   
 22   9  34  1   
 23  10  12  1   
 24  10  35  1   
 25  10  36  1   
 26  11  13  1   
 27  11  37  1   
 28  11  38  1   
 29  12  13  1   
 30  12  39  1   
 31  12  40  1   
 32  13  14  1   
 33  14  15  ar  
 34  14  16  ar  
 35  15  17  ar  
 36  16  18  ar  
 37  16  41  1   
 38  17  19  ar  
 39  17  42  1   
 40  18  19  ar  
 41  18  20  1   
 42  20  21  1   
 43  20  22  1   
 44  20  43  1   
 45  21  44  1   
 46  21  45  1   
 47  21  46  1   
 48  22  47  1   
 49  22  48  1   
 50  22  49  1   
@<TRIPOS>SUBSTRUCTURE
  1 ****  13 GROUP 4 **** **** 0

# MOE 2024.06 (io_trps.svl 2023.06)
