@<TRIPOS>MOLECULE
NONAME
50 53 1 0 0 
SMALL
USER_CHARGES


@<TRIPOS>ATOM
  1 O        1.7850    -1.7020     0.9880 O.3   1 <1>  -0.0190 
  2 N        2.0310    -0.4640     1.3070 N.2   1 <1>  -0.4100 
  3 C        1.9750    -1.9230    -0.2860 C.2   1 <1>  -0.0400 
  4 C        2.3910     0.1240     0.2190 C.2   1 <1>   0.1080 
  5 C        2.3760    -0.7730    -0.8470 C.2   1 <1>  -0.1500 
  6 C        1.7460    -3.3090    -0.8740 C.3   1 <1>   0.2900 
  7 C        2.7790     1.5940     0.1040 C.3   1 <1>   0.1010 
  8 N        0.3200    -3.6620    -0.9920 N.3   1 <1>  -0.8100 
  9 C        3.9880     1.9190     0.9990 C.3   1 <1>  -0.1600 
 10 C        1.5880     2.5040     0.4480 C.3   1 <1>  -0.1600 
 11 C       -0.3090    -3.8650     0.3310 C.3   1 <1>   0.2530 
 12 C       -0.4260    -2.7300    -1.8460 C.3   1 <1>   0.0300 
 13 C        4.3730     3.4030     0.9130 C.3   1 <1>  -0.1600 
 14 C        1.9680     3.9900     0.3620 C.3   1 <1>  -0.1600 
 15 C       -1.5910    -4.6840     0.2190 C.ar  1 <1>  -0.1430 
 16 C        3.1780     4.3040     1.2530 C.3   1 <1>  -0.1600 
 17 C       -1.5340    -6.0970     0.2680 C.ar  1 <1>   0.3100 
 18 C       -2.7940    -4.0350     0.0860 C.ar  1 <1>  -0.1500 
 19 N       -0.3420    -6.7330     0.4520 N.ar  1 <1>  -0.6200 
 20 C       -2.7450    -6.8200     0.1400 C.ar  1 <1>   0.0000 
 21 C       -3.9850    -4.7560    -0.0280 C.ar  1 <1>  -0.1500 
 22 C       -0.3390    -8.0300     0.4760 C.ar  1 <1>   0.1600 
 23 C       -2.6940    -8.2240     0.1710 C.ar  1 <1>  -0.1500 
 24 C       -3.9590    -6.1210    -0.0060 C.ar  1 <1>  -0.1500 
 25 C       -1.4840    -8.8240     0.3380 C.ar  1 <1>  -0.1500 
 26 H        2.6300    -0.5600    -1.8680 H     1 <1>   0.1500 
 27 H        2.2480    -4.0440    -0.2690 H     1 <1>   0.0800 
 28 H        2.1860    -3.3470    -1.8550 H     1 <1>   0.0800 
 29 H        3.0610     1.7850    -0.9170 H     1 <1>   0.0800 
 30 H        4.8250     1.3100     0.7060 H     1 <1>   0.0800 
 31 H        3.7470     1.6740     2.0200 H     1 <1>   0.0800 
 32 H        1.2520     2.2820     1.4470 H     1 <1>   0.0800 
 33 H        0.7740     2.2990    -0.2240 H     1 <1>   0.0800 
 34 H       -0.5260    -2.9100     0.7780 H     1 <1>   0.0800 
 35 H        0.3770    -4.3740     0.9870 H     1 <1>   0.0800 
 36 H        0.0900    -2.5960    -2.7810 H     1 <1>   0.0800 
 37 H       -0.5340    -1.7740    -1.3620 H     1 <1>   0.0800 
 38 H       -1.4020    -3.1290    -2.0600 H     1 <1>   0.0800 
 39 H        4.7180     3.6270    -0.0820 H     1 <1>   0.0800 
 40 H        5.1800     3.6050     1.5950 H     1 <1>   0.0800 
 41 H        1.1310     4.5940     0.6670 H     1 <1>   0.0800 
 42 H        2.2020     4.2420    -0.6590 H     1 <1>   0.0800 
 43 H        3.4580     5.3360     1.1300 H     1 <1>   0.0800 
 44 H        2.9060     4.1580     2.2840 H     1 <1>   0.0800 
 45 H       -2.8380    -2.9610     0.0620 H     1 <1>   0.1500 
 46 H       -4.9140    -4.2210    -0.1360 H     1 <1>   0.1500 
 47 H        0.6050    -8.5290     0.6120 H     1 <1>   0.1500 
 48 H       -3.5990    -8.7940     0.0640 H     1 <1>   0.1500 
 49 H       -4.8700    -6.6840    -0.0980 H     1 <1>   0.1500 
 50 H       -1.3840    -9.8930     0.3680 H     1 <1>   0.1500 
@<TRIPOS>BOND
  1   1   2  1   
  2   1   3  1   
  3   2   4  2   
  4   3   5  2   
  5   3   6  1   
  6   4   5  1   
  7   4   7  1   
  8   5  26  1   
  9   6   8  1   
 10   6  27  1   
 11   6  28  1   
 12   7   9  1   
 13   7  10  1   
 14   7  29  1   
 15   8  11  1   
 16   8  12  1   
 17   9  13  1   
 18   9  30  1   
 19   9  31  1   
 20  10  14  1   
 21  10  32  1   
 22  10  33  1   
 23  11  15  1   
 24  11  34  1   
 25  11  35  1   
 26  12  36  1   
 27  12  37  1   
 28  12  38  1   
 29  13  16  1   
 30  13  39  1   
 31  13  40  1   
 32  14  16  1   
 33  14  41  1   
 34  14  42  1   
 35  15  17  ar  
 36  15  18  ar  
 37  16  43  1   
 38  16  44  1   
 39  17  19  ar  
 40  17  20  ar  
 41  18  21  ar  
 42  18  45  1   
 43  19  22  ar  
 44  20  23  ar  
 45  20  24  ar  
 46  21  24  ar  
 47  21  46  1   
 48  22  25  ar  
 49  22  47  1   
 50  23  25  ar  
 51  23  48  1   
 52  24  49  1   
 53  25  50  1   
@<TRIPOS>SUBSTRUCTURE
  1 ****  11 GROUP 4 **** **** 0

# MOE 2024.06 (io_trps.svl 2023.06)
