@<TRIPOS>MOLECULE
NONAME
40 41 1 0 0 
SMALL
USER_CHARGES


@<TRIPOS>ATOM
  1 O        0.6040    -0.9360     1.3980 O.co2 1 <1>  -0.9000 
  2 C        1.6960    -0.3780     1.5020 C.2   1 <1>   0.9060 
  3 O        2.4500    -0.5850     2.4630 O.co2 1 <1>  -0.9000 
  4 C        2.2410     0.4940     0.3570 C.3   1 <1>  -0.1060 
  5 C        3.3440    -0.3670    -0.3080 C.3   1 <1>   0.2000 
  6 C        2.8950     1.7990     0.9070 C.3   1 <1>  -0.1600 
  7 C        1.1420     0.8360    -0.7060 C.3   1 <1>  -0.1600 
  8 O        4.3060    -0.7120     0.6430 O.3   1 <1>  -0.6800 
  9 C        4.0920     0.4320    -1.3820 C.3   1 <1>   0.3430 
 10 C        3.7240     2.5410    -0.1430 C.3   1 <1>   0.3430 
 11 C       -0.0090     1.7290    -0.2060 C.3   1 <1>  -0.1600 
 12 N        4.7360     1.6070    -0.7190 N.4   1 <1>  -0.9590 
 13 C       -1.0900     1.8780    -1.2810 C.3   1 <1>  -0.2400 
 14 C        5.7790     2.2490    -1.5480 C.3   1 <1>   0.5240 
 15 C        6.4910     3.2980    -0.7230 C.2   1 <1>  -0.1810 
 16 C        7.4540     3.1250     0.2090 C.2   1 <1>  -0.0100 
 17 C        6.2690     4.6830    -0.7820 C.2   1 <1>  -0.1500 
 18 O        7.8220     4.2830     0.7140 O.3   1 <1>  -0.2800 
 19 C        7.1150     5.2230     0.1210 C.2   1 <1>  -0.0100 
 20 H        2.9260    -1.2760    -0.7070 H     1 <1>   0.0800 
 21 H        3.5440     1.5620     1.7330 H     1 <1>   0.0800 
 22 H        2.1460     2.4520     1.3130 H     1 <1>   0.0800 
 23 H        1.5660     1.3160    -1.5660 H     1 <1>   0.0800 
 24 H        0.7110    -0.0930    -1.0440 H     1 <1>   0.0800 
 25 H        3.8080    -0.8710     1.5080 H     1 <1>   0.4000 
 26 H        3.4150     0.7520    -2.1550 H     1 <1>   0.0800 
 27 H        4.8380    -0.2090    -1.8220 H     1 <1>   0.0800 
 28 H        4.2150     3.3770     0.3300 H     1 <1>   0.0800 
 29 H        3.0780     2.9160    -0.9200 H     1 <1>   0.0800 
 30 H       -0.4550     1.2920     0.6730 H     1 <1>   0.0800 
 31 H        0.3480     2.7080     0.0550 H     1 <1>   0.0800 
 32 H        5.1910     1.1700     0.1030 H     1 <1>   0.4500 
 33 H       -1.5000     0.9150    -1.5280 H     1 <1>   0.0800 
 34 H       -0.6860     2.3260    -2.1710 H     1 <1>   0.0800 
 35 H       -1.8870     2.5000    -0.9130 H     1 <1>   0.0800 
 36 H        6.4920     1.5080    -1.8700 H     1 <1>   0.0800 
 37 H        5.3380     2.7040    -2.4190 H     1 <1>   0.0800 
 38 H        7.9340     2.2330     0.5770 H     1 <1>   0.1500 
 39 H        5.5720     5.1970    -1.4210 H     1 <1>   0.1500 
 40 H        7.2810     6.2500     0.4030 H     1 <1>   0.1500 
@<TRIPOS>BOND
  1   1   2  ar  
  2   2   3  ar  
  3   2   4  1   
  4   4   5  1   
  5   4   6  1   
  6   4   7  1   
  7   5   8  1   
  8   5   9  1   
  9   5  20  1   
 10   6  10  1   
 11   6  21  1   
 12   6  22  1   
 13   7  11  1   
 14   7  23  1   
 15   7  24  1   
 16   8  25  1   
 17   9  12  1   
 18   9  26  1   
 19   9  27  1   
 20  10  12  1   
 21  10  28  1   
 22  10  29  1   
 23  11  13  1   
 24  11  30  1   
 25  11  31  1   
 26  12  14  1   
 27  12  32  1   
 28  13  33  1   
 29  13  34  1   
 30  13  35  1   
 31  14  15  1   
 32  14  36  1   
 33  14  37  1   
 34  15  16  2   
 35  15  17  1   
 36  16  18  1   
 37  16  38  1   
 38  17  19  2   
 39  17  39  1   
 40  18  19  1   
 41  19  40  1   
@<TRIPOS>SUBSTRUCTURE
  1 ****  10 GROUP 4 **** **** 0

# MOE 2024.06 (io_trps.svl 2023.06)
