@<TRIPOS>MOLECULE
NONAME
51 53 1 0 0 
SMALL
USER_CHARGES


@<TRIPOS>ATOM
  1 S       -0.2890    -0.1790     1.3860 S.o2  1 <1>   1.4470 
  2 O        0.9160    -0.3100     2.1770 O.2   1 <1>  -0.6500 
  3 O       -1.5740    -0.3970     2.0160 O.2   1 <1>  -0.6500 
  4 N       -0.2940     1.4070     0.7820 N.am  1 <1>  -0.8490 
  5 C       -0.1780    -1.2010    -0.1100 C.ar  1 <1>  -0.0090 
  6 C        1.0100     1.7820     0.2190 C.3   1 <1>   0.1960 
  7 C       -0.7270     2.3600     1.8090 C.3   1 <1>   0.1960 
  8 C        0.8590    -2.1110    -0.2890 C.ar  1 <1>  -0.1500 
  9 C       -1.1290    -1.0920    -1.1180 C.ar  1 <1>  -0.1500 
 10 C        0.9290     3.1620    -0.4320 C.3   1 <1>  -0.1600 
 11 C       -0.8550     3.7640     1.2140 C.3   1 <1>  -0.1600 
 12 C        0.9450    -2.8840    -1.4340 C.ar  1 <1>  -0.1500 
 13 C       -1.0500    -1.8610    -2.2670 C.ar  1 <1>  -0.1500 
 14 C        0.4690     4.1930     0.5930 C.3   1 <1>   0.2890 
 15 C       -0.0100    -2.7590    -2.4260 C.ar  1 <1>  -0.1500 
 16 N        0.2970     5.5020    -0.0670 N.pl3 1 <1>  -0.8690 
 17 C        1.3020     6.4370    -0.2350 C.ar  1 <1>   0.4100 
 18 N        2.4660     6.1230     0.3280 N.ar  1 <1>  -0.6200 
 19 C        1.0940     7.6190    -0.9730 C.ar  1 <1>   0.0860 
 20 C        3.4740     6.9510     0.1510 C.ar  1 <1>   0.1670 
 21 C       -0.1900     7.9850    -1.5290 C.2   1 <1>   0.5440 
 22 C        2.1830     8.4590    -1.1550 C.ar  1 <1>  -0.1500 
 23 C        3.3930     8.1270    -0.5870 C.ar  1 <1>  -0.1430 
 24 C        4.7760     6.5360     0.8120 C.3   1 <1>  -0.0970 
 25 O       -0.2800     8.5760    -2.5840 O.2   1 <1>  -0.5700 
 26 N       -1.3600     7.7360    -0.8950 N.am  1 <1>  -0.8000 
 27 C        4.5870     9.0520    -0.7840 C.3   1 <1>  -0.0970 
 28 H        1.3060     1.0630    -0.5270 H     1 <1>   0.0800 
 29 H        1.7600     1.7890     0.9950 H     1 <1>   0.0800 
 30 H       -0.0210     2.3640     2.6250 H     1 <1>   0.0800 
 31 H       -1.6870     2.0650     2.1990 H     1 <1>   0.0800 
 32 H        1.6080    -2.2180     0.4780 H     1 <1>   0.1500 
 33 H       -1.9420    -0.3960    -0.9980 H     1 <1>   0.1500 
 34 H        0.2440     3.1220    -1.2590 H     1 <1>   0.0800 
 35 H        1.9000     3.4370    -0.8000 H     1 <1>   0.0800 
 36 H       -1.1250     4.4540     1.9910 H     1 <1>   0.0800 
 37 H       -1.6310     3.7560     0.4710 H     1 <1>   0.0800 
 38 H        1.7550    -3.5840    -1.5530 H     1 <1>   0.1500 
 39 H       -1.7980    -1.7620    -3.0350 H     1 <1>   0.1500 
 40 H        1.2060     4.2710     1.3770 H     1 <1>   0.0800 
 41 H        0.0530    -3.3590    -3.3170 H     1 <1>   0.1500 
 42 H       -0.4470     5.5130    -0.7710 H     1 <1>   0.4000 
 43 H        2.0650     9.3600    -1.7330 H     1 <1>   0.1500 
 44 H        4.6340     5.6410     1.3930 H     1 <1>   0.0800 
 45 H        5.1210     7.3120     1.4690 H     1 <1>   0.0800 
 46 H        5.5200     6.3410     0.0640 H     1 <1>   0.0800 
 47 H       -2.2240     8.1240    -1.2770 H     1 <1>   0.3700 
 48 H       -1.3910     7.3490     0.0510 H     1 <1>   0.3700 
 49 H        5.4010     8.5160    -1.2380 H     1 <1>   0.0800 
 50 H        4.9100     9.4460     0.1630 H     1 <1>   0.0800 
 51 H        4.3320     9.8780    -1.4230 H     1 <1>   0.0800 
@<TRIPOS>BOND
  1   1   2  2   
  2   1   3  2   
  3   1   4  am  
  4   1   5  1   
  5   4   6  1   
  6   4   7  1   
  7   5   8  ar  
  8   5   9  ar  
  9   6  10  1   
 10   6  28  1   
 11   6  29  1   
 12   7  11  1   
 13   7  30  1   
 14   7  31  1   
 15   8  12  ar  
 16   8  32  1   
 17   9  13  ar  
 18   9  33  1   
 19  10  14  1   
 20  10  34  1   
 21  10  35  1   
 22  11  14  1   
 23  11  36  1   
 24  11  37  1   
 25  12  15  ar  
 26  12  38  1   
 27  13  15  ar  
 28  13  39  1   
 29  14  16  1   
 30  14  40  1   
 31  15  41  1   
 32  16  17  1   
 33  16  42  1   
 34  17  18  ar  
 35  17  19  ar  
 36  18  20  ar  
 37  19  21  1   
 38  19  22  ar  
 39  20  23  ar  
 40  20  24  1   
 41  21  25  2   
 42  21  26  am  
 43  22  23  ar  
 44  22  43  1   
 45  23  27  1   
 46  24  44  1   
 47  24  45  1   
 48  24  46  1   
 49  26  47  1   
 50  26  48  1   
 51  27  49  1   
 52  27  50  1   
 53  27  51  1   
@<TRIPOS>SUBSTRUCTURE
  1 ****  10 GROUP 4 **** **** 0

# MOE 2024.06 (io_trps.svl 2023.06)
