@<TRIPOS>MOLECULE
NONAME
39 39 1 0 0 
SMALL
USER_CHARGES


@<TRIPOS>ATOM
  1 O        0.4050    -2.1660     1.6580 O.2   1 <1>  -0.5700 
  2 C        0.1420    -2.1610     0.4700 C.2   1 <1>   0.7800 
  3 O        0.9760    -1.6080    -0.4130 O.3   1 <1>  -0.4300 
  4 N       -0.9900    -2.7650    -0.0150 N.am  1 <1>  -0.6600 
  5 C        2.2030    -0.9630    -0.1490 C.3   1 <1>   0.2800 
  6 C       -1.9650    -2.0920    -0.9390 C.3   1 <1>   0.2200 
  7 C       -1.4420    -4.0230     0.6550 C.3   1 <1>   0.2200 
  8 C        2.7210    -0.5200    -1.5180 C.3   1 <1>  -0.2400 
  9 C        3.1980    -1.9500     0.4730 C.3   1 <1>  -0.2400 
 10 C        1.9740     0.2730     0.7280 C.3   1 <1>  -0.2400 
 11 C       -3.3420    -2.0990    -0.2650 C.3   1 <1>  -0.1600 
 12 C       -1.6020    -0.6470    -1.3050 C.3   1 <1>  -0.2400 
 13 C       -2.7350    -4.5660     0.0350 C.3   1 <1>  -0.1600 
 14 C       -0.3450    -5.0890     0.5440 C.3   1 <1>  -0.2400 
 15 C       -3.8470    -3.5160     0.0250 C.3   1 <1>   0.2000 
 16 O       -4.7450    -3.8750    -0.9590 O.3   1 <1>  -0.6800 
 17 H       -2.0150    -2.6620    -1.8510 H     1 <1>   0.0800 
 18 H       -1.6200    -3.8090     1.6970 H     1 <1>   0.0800 
 19 H        3.6650    -0.0160    -1.4150 H     1 <1>   0.0800 
 20 H        2.0240     0.1550    -1.9800 H     1 <1>   0.0800 
 21 H        2.8600    -1.3730    -2.1570 H     1 <1>   0.0800 
 22 H        4.1700    -1.4970     0.5390 H     1 <1>   0.0800 
 23 H        3.2730    -2.8350    -0.1330 H     1 <1>   0.0800 
 24 H        2.9000    -2.2260     1.4670 H     1 <1>   0.0800 
 25 H        2.8860     0.8370     0.8110 H     1 <1>   0.0800 
 26 H        1.6750    -0.0060     1.7210 H     1 <1>   0.0800 
 27 H        1.2200     0.9050     0.2950 H     1 <1>   0.0800 
 28 H       -4.0650    -1.5650    -0.8570 H     1 <1>   0.0800 
 29 H       -3.2510    -1.5730     0.6690 H     1 <1>   0.0800 
 30 H       -1.4480    -0.0530    -0.4220 H     1 <1>   0.0800 
 31 H       -2.3970    -0.2020    -1.8760 H     1 <1>   0.0800 
 32 H       -0.7220    -0.6230    -1.9200 H     1 <1>   0.0800 
 33 H       -3.0700    -5.4190     0.5970 H     1 <1>   0.0800 
 34 H       -2.5190    -4.8930    -0.9670 H     1 <1>   0.0800 
 35 H       -0.0920    -5.2630    -0.4870 H     1 <1>   0.0800 
 36 H       -0.6830    -6.0120     0.9770 H     1 <1>   0.0800 
 37 H        0.5370    -4.7830     1.0770 H     1 <1>   0.0800 
 38 H       -4.3790    -3.5220     0.9630 H     1 <1>   0.0800 
 39 H       -4.2990    -3.9070    -1.8250 H     1 <1>   0.4000 
@<TRIPOS>BOND
  1   1   2  2   
  2   2   3  1   
  3   2   4  am  
  4   3   5  1   
  5   4   6  1   
  6   4   7  1   
  7   5   8  1   
  8   5   9  1   
  9   5  10  1   
 10   6  11  1   
 11   6  12  1   
 12   6  17  1   
 13   7  13  1   
 14   7  14  1   
 15   7  18  1   
 16   8  19  1   
 17   8  20  1   
 18   8  21  1   
 19   9  22  1   
 20   9  23  1   
 21   9  24  1   
 22  10  25  1   
 23  10  26  1   
 24  10  27  1   
 25  11  15  1   
 26  11  28  1   
 27  11  29  1   
 28  12  30  1   
 29  12  31  1   
 30  12  32  1   
 31  13  15  1   
 32  13  33  1   
 33  13  34  1   
 34  14  35  1   
 35  14  36  1   
 36  14  37  1   
 37  15  16  1   
 38  15  38  1   
 39  16  39  1   
@<TRIPOS>SUBSTRUCTURE
  1 ****   4 GROUP 4 **** **** 0

# MOE 2024.06 (io_trps.svl 2023.06)
