@<TRIPOS>MOLECULE
NONAME
47 49 1 0 0 
SMALL
USER_CHARGES


@<TRIPOS>ATOM
  1 S       -0.0560     0.2260     0.1360 S.o2  1 <1>   1.3330 
  2 O       -0.7270     1.4950     0.3040 O.2   1 <1>  -0.6500 
  3 O        0.0950    -0.6550     1.2720 O.2   1 <1>  -0.6500 
  4 N       -0.8530    -0.6400    -1.0880 N.am  1 <1>  -0.8490 
  5 C        1.5470     0.5520    -0.6010 C.3   1 <1>  -0.0550 
  6 C       -2.3040    -0.4360    -1.0590 C.3   1 <1>   0.1160 
  7 C       -0.5510    -2.0760    -1.0760 C.3   1 <1>   0.1160 
  8 C        2.4700     1.4150     0.2840 C.3   1 <1>  -0.0800 
  9 C        3.7070     1.8520    -0.4800 C.3   1 <1>   0.2200 
 10 C        3.0820     0.6090     1.4330 C.3   1 <1>   0.1200 
 11 N        4.2680     3.0660     0.1560 N.am  1 <1>  -0.7300 
 12 C        4.6490     0.6720    -0.2620 C.3   1 <1>   0.1200 
 13 O        4.2950     0.1000     0.9630 O.3   1 <1>  -0.5600 
 14 C        4.3870     4.2870    -0.4420 C.2   1 <1>   0.5440 
 15 O        4.0040     4.4110    -1.5890 O.2   1 <1>  -0.5700 
 16 C        4.9430     5.3980     0.3000 C.ar  1 <1>   0.0860 
 17 C        6.1000     6.0980    -0.1520 C.ar  1 <1>   0.0000 
 18 C        4.3480     5.7800     1.4850 C.ar  1 <1>  -0.1500 
 19 C        6.6110     7.1590     0.6330 C.ar  1 <1>   0.0000 
 20 C        6.7850     5.7840    -1.3490 C.ar  1 <1>  -0.1500 
 21 C        4.8520     6.8290     2.2530 C.ar  1 <1>  -0.1500 
 22 C        5.9620     7.5030     1.8330 C.ar  1 <1>  -0.1500 
 23 C        7.7610     7.8490     0.1980 C.ar  1 <1>  -0.1500 
 24 C        7.9000     6.4690    -1.7470 C.ar  1 <1>  -0.1500 
 25 C        8.3950     7.5150    -0.9650 C.ar  1 <1>  -0.1500 
 26 H        2.0320    -0.3760    -0.8290 H     1 <1>   0.0800 
 27 H        1.3810     1.0710    -1.5250 H     1 <1>   0.0800 
 28 H       -2.7750    -0.9850    -1.8560 H     1 <1>   0.0800 
 29 H       -2.5330     0.6090    -1.1920 H     1 <1>   0.0800 
 30 H       -2.7090    -0.7610    -0.1150 H     1 <1>   0.0800 
 31 H       -1.0060    -2.5560    -1.9260 H     1 <1>   0.0800 
 32 H       -0.9240    -2.5320    -0.1740 H     1 <1>   0.0800 
 33 H        0.5130    -2.2330    -1.1270 H     1 <1>   0.0800 
 34 H        1.9150     2.2650     0.6450 H     1 <1>   0.0800 
 35 H        3.5190     2.0270    -1.5270 H     1 <1>   0.0800 
 36 H        2.4690    -0.2090     1.7680 H     1 <1>   0.0800 
 37 H        3.3030     1.2500     2.2700 H     1 <1>   0.0800 
 38 H        4.6700     2.9180     1.0840 H     1 <1>   0.3700 
 39 H        5.6840     0.9690    -0.2390 H     1 <1>   0.0800 
 40 H        4.5030    -0.0740    -1.0220 H     1 <1>   0.0800 
 41 H        3.4680     5.2670     1.8320 H     1 <1>   0.1500 
 42 H        6.4190     4.9860    -1.9700 H     1 <1>   0.1500 
 43 H        4.3570     7.0990     3.1710 H     1 <1>   0.1500 
 44 H        6.3590     8.3130     2.4180 H     1 <1>   0.1500 
 45 H        8.1360     8.6540     0.8040 H     1 <1>   0.1500 
 46 H        8.4040     6.2150    -2.6630 H     1 <1>   0.1500 
 47 H        9.2720     8.0460    -1.2920 H     1 <1>   0.1500 
@<TRIPOS>BOND
  1   1   2  2   
  2   1   3  2   
  3   1   4  am  
  4   1   5  1   
  5   4   6  1   
  6   4   7  1   
  7   5   8  1   
  8   5  26  1   
  9   5  27  1   
 10   6  28  1   
 11   6  29  1   
 12   6  30  1   
 13   7  31  1   
 14   7  32  1   
 15   7  33  1   
 16   8   9  1   
 17   8  10  1   
 18   8  34  1   
 19   9  11  1   
 20   9  12  1   
 21   9  35  1   
 22  10  13  1   
 23  10  36  1   
 24  10  37  1   
 25  11  14  am  
 26  11  38  1   
 27  12  13  1   
 28  12  39  1   
 29  12  40  1   
 30  14  15  2   
 31  14  16  1   
 32  16  17  ar  
 33  16  18  ar  
 34  17  19  ar  
 35  17  20  ar  
 36  18  21  ar  
 37  18  41  1   
 38  19  22  ar  
 39  19  23  ar  
 40  20  24  ar  
 41  20  42  1   
 42  21  22  ar  
 43  21  43  1   
 44  22  44  1   
 45  23  25  ar  
 46  23  45  1   
 47  24  25  ar  
 48  24  46  1   
 49  25  47  1   
@<TRIPOS>SUBSTRUCTURE
  1 ****  11 GROUP 4 **** **** 0

# MOE 2024.06 (io_trps.svl 2023.06)
