@<TRIPOS>MOLECULE
NONAME
51 54 1 0 0 
SMALL
USER_CHARGES


@<TRIPOS>ATOM
  1 O       -1.0160     1.0110     1.2820 O.2   1 <1>  -0.5700 
  2 C       -1.9800     1.3940     0.6350 C.2   1 <1>   0.7160 
  3 N       -3.1820     0.7250     0.8250 N.am  1 <1>  -0.6600 
  4 C       -1.7980     2.5050    -0.2990 C.2   1 <1>   0.2030 
  5 C       -3.4240    -0.1420     2.0120 C.3   1 <1>   0.1400 
  6 C       -4.3160     0.7480    -0.1400 C.3   1 <1>   0.1400 
  7 N       -2.7110     3.3540    -0.7490 N.2   1 <1>  -0.7070 
  8 C       -0.5430     2.8260    -0.8400 C.2   1 <1>  -0.1500 
  9 C       -3.6900    -1.5750     1.5480 C.3   1 <1>  -0.1600 
 10 C       -4.5990    -0.6780    -0.6190 C.3   1 <1>  -0.1600 
 11 N       -2.0410     4.1930    -1.5660 N.pl3 1 <1>   0.3000 
 12 C       -0.7220     3.9000    -1.6360 C.2   1 <1>  -0.0680 
 13 C       -4.8540    -1.6450     0.5500 C.3   1 <1>   0.4240 
 14 N        0.2300     4.5880    -2.3970 N.pl3 1 <1>  -0.8840 
 15 O       -5.9810    -1.1880     1.2610 O.3   1 <1>  -0.5600 
 16 C       -5.0460    -3.0910     0.0450 C.ar  1 <1>  -0.1440 
 17 C       -7.2380    -1.5510     0.7810 C.3   1 <1>   0.1200 
 18 C       -6.2480    -3.7640     0.2180 C.ar  1 <1>  -0.1430 
 19 C       -4.0110    -3.7530    -0.6040 C.ar  1 <1>  -0.1500 
 20 C       -7.3980    -3.0620     0.9140 C.3   1 <1>  -0.0170 
 21 C       -6.4040    -5.0620    -0.2420 C.ar  1 <1>  -0.1500 
 22 C       -4.1470    -5.0510    -1.0640 C.ar  1 <1>   0.0830 
 23 C       -5.3670    -5.7220    -0.8940 C.ar  1 <1>   0.0830 
 24 O       -3.0370    -5.5650    -1.6670 O.3   1 <1>  -0.3630 
 25 O       -5.5230    -6.9890    -1.3810 O.3   1 <1>  -0.3620 
 26 C       -2.7100    -6.9310    -1.5370 C.3   1 <1>   0.0400 
 27 C       -6.7740    -7.6410    -1.3920 C.3   1 <1>   0.0400 
 28 H       -4.2770     0.2340     2.5510 H     1 <1>   0.0800 
 29 H       -2.5800    -0.1260     2.6800 H     1 <1>   0.0800 
 30 H       -4.0900     1.3540    -0.9970 H     1 <1>   0.0800 
 31 H       -5.1840     1.1590     0.3460 H     1 <1>   0.0800 
 32 H        0.3670     2.2940    -0.6330 H     1 <1>   0.1500 
 33 H       -3.9140    -2.1970     2.3950 H     1 <1>   0.0800 
 34 H       -2.7890    -1.9510     1.1010 H     1 <1>   0.0800 
 35 H       -3.7480    -1.0140    -1.1810 H     1 <1>   0.0800 
 36 H       -5.4360    -0.6810    -1.2900 H     1 <1>   0.0800 
 37 H       -2.4970     4.9510    -2.0850 H     1 <1>   0.2700 
 38 H        0.1980     5.6120    -2.3320 H     1 <1>   0.4000 
 39 H        1.1950     4.2690    -2.2470 H     1 <1>   0.4000 
 40 H       -7.3300    -1.2400    -0.2450 H     1 <1>   0.0800 
 41 H       -7.9770    -1.0400     1.3720 H     1 <1>   0.0800 
 42 H       -3.0670    -3.2650    -0.7640 H     1 <1>   0.1500 
 43 H       -8.3350    -3.3570     0.4780 H     1 <1>   0.0800 
 44 H       -7.4090    -3.3290     1.9560 H     1 <1>   0.0800 
 45 H       -7.3490    -5.5440    -0.0820 H     1 <1>   0.1500 
 46 H       -1.6600    -7.0440    -1.7340 H     1 <1>   0.0800 
 47 H       -3.2770    -7.4920    -2.2570 H     1 <1>   0.0800 
 48 H       -2.9370    -7.2540    -0.5370 H     1 <1>   0.0800 
 49 H       -6.6520    -8.5870    -1.8870 H     1 <1>   0.0800 
 50 H       -7.4790    -7.0340    -1.9320 H     1 <1>   0.0800 
 51 H       -7.0940    -7.7990    -0.3780 H     1 <1>   0.0800 
@<TRIPOS>BOND
  1   1   2  2   
  2   2   3  am  
  3   2   4  1   
  4   3   5  1   
  5   3   6  1   
  6   4   7  2   
  7   4   8  1   
  8   5   9  1   
  9   5  28  1   
 10   5  29  1   
 11   6  10  1   
 12   6  30  1   
 13   6  31  1   
 14   7  11  1   
 15   8  12  2   
 16   8  32  1   
 17   9  13  1   
 18   9  33  1   
 19   9  34  1   
 20  10  13  1   
 21  10  35  1   
 22  10  36  1   
 23  11  12  1   
 24  11  37  1   
 25  12  14  1   
 26  13  15  1   
 27  13  16  1   
 28  14  38  1   
 29  14  39  1   
 30  15  17  1   
 31  16  18  ar  
 32  16  19  ar  
 33  17  20  1   
 34  17  40  1   
 35  17  41  1   
 36  18  20  1   
 37  18  21  ar  
 38  19  22  ar  
 39  19  42  1   
 40  20  43  1   
 41  20  44  1   
 42  21  23  ar  
 43  21  45  1   
 44  22  23  ar  
 45  22  24  1   
 46  23  25  1   
 47  24  26  1   
 48  25  27  1   
 49  26  46  1   
 50  26  47  1   
 51  26  48  1   
 52  27  49  1   
 53  27  50  1   
 54  27  51  1   
@<TRIPOS>SUBSTRUCTURE
  1 ****  10 GROUP 4 **** **** 0

# MOE 2024.06 (io_trps.svl 2023.06)
