@<TRIPOS>MOLECULE
NONAME
45 47 1 0 0 
SMALL
USER_CHARGES


@<TRIPOS>ATOM
  1 CL      -0.4760     0.9820     1.6980 Cl    1 <1>  -0.1770 
  2 C       -1.6240     1.1670     0.3830 C.ar  1 <1>   0.1770 
  3 C       -1.5620     2.2590    -0.5010 C.ar  1 <1>   0.4100 
  4 C       -2.5890     0.1990     0.2360 C.ar  1 <1>  -0.1500 
  5 N       -2.4060     2.3990    -1.5170 N.ar  1 <1>  -0.6200 
  6 N       -0.6230     3.2710    -0.3990 N.pl3 1 <1>  -0.8380 
  7 C       -3.4680     0.3620    -0.8170 C.ar  1 <1>  -0.1500 
  8 C       -3.3300     1.4600    -1.6480 C.ar  1 <1>   0.1600 
  9 C       -0.6790     4.1920     0.7610 C.3   1 <1>   0.4330 
 10 C        0.7780     2.9850    -0.7760 C.3   1 <1>   0.2090 
 11 C       -1.7020     5.3180     0.5920 C.ar  1 <1>  -0.1430 
 12 C        0.7440     4.7280     0.8850 C.3   1 <1>  -0.1600 
 13 C        1.6250     3.6170     0.3220 C.3   1 <1>  -0.1600 
 14 C       -2.1490     6.0040     1.7130 C.ar  1 <1>  -0.1500 
 15 C       -2.2070     5.6730    -0.6510 C.ar  1 <1>  -0.1500 
 16 C       -3.0790     7.0220     1.5950 C.ar  1 <1>  -0.1500 
 17 C       -3.1380     6.6860    -0.7740 C.ar  1 <1>  -0.1500 
 18 C       -3.5770     7.3720     0.3480 C.ar  1 <1>  -0.1430 
 19 C       -4.5890     8.4890     0.2060 C.3   1 <1>   0.4860 
 20 N       -3.8710     9.7930     0.3040 N.4   1 <1>  -0.9590 
 21 C       -4.8250    10.9370     0.4120 C.3   1 <1>   0.2630 
 22 C       -2.9190     9.9820    -0.8360 C.3   1 <1>   0.2630 
 23 H       -2.6490    -0.6380     0.9070 H     1 <1>   0.1500 
 24 H       -4.2500    -0.3550    -0.9930 H     1 <1>   0.1500 
 25 H       -4.0190     1.5770    -2.4670 H     1 <1>   0.1500 
 26 H       -0.9220     3.6260     1.6440 H     1 <1>   0.0800 
 27 H        0.9790     3.4560    -1.7230 H     1 <1>   0.0800 
 28 H        0.9580     1.9260    -0.8580 H     1 <1>   0.0800 
 29 H        0.9880     4.9720     1.9030 H     1 <1>   0.0800 
 30 H        0.8410     5.6100     0.2770 H     1 <1>   0.0800 
 31 H        2.5600     3.9860    -0.0590 H     1 <1>   0.0800 
 32 H        1.8200     2.8800     1.0810 H     1 <1>   0.0800 
 33 H       -1.7730     5.7400     2.6870 H     1 <1>   0.1500 
 34 H       -1.8800     5.1450    -1.5330 H     1 <1>   0.1500 
 35 H       -3.4090     7.5260     2.4870 H     1 <1>   0.1500 
 36 H       -3.5140     6.9190    -1.7560 H     1 <1>   0.1500 
 37 H       -5.3190     8.4050     0.9930 H     1 <1>   0.0800 
 38 H       -5.0950     8.4080    -0.7420 H     1 <1>   0.0800 
 39 H       -3.3070     9.7340     1.1640 H     1 <1>   0.4500 
 40 H       -5.4310    11.0060    -0.4770 H     1 <1>   0.0800 
 41 H       -4.2850    11.8630     0.5340 H     1 <1>   0.0800 
 42 H       -5.4740    10.8060     1.2640 H     1 <1>   0.0800 
 43 H       -3.4500     9.9970    -1.7740 H     1 <1>   0.0800 
 44 H       -2.2010     9.1770    -0.8610 H     1 <1>   0.0800 
 45 H       -2.3830    10.9110    -0.7270 H     1 <1>   0.0800 
@<TRIPOS>BOND
  1   1   2  1   
  2   2   3  ar  
  3   2   4  ar  
  4   3   5  ar  
  5   3   6  1   
  6   4   7  ar  
  7   4  23  1   
  8   5   8  ar  
  9   6   9  1   
 10   6  10  1   
 11   7   8  ar  
 12   7  24  1   
 13   8  25  1   
 14   9  11  1   
 15   9  12  1   
 16   9  26  1   
 17  10  13  1   
 18  10  27  1   
 19  10  28  1   
 20  11  14  ar  
 21  11  15  ar  
 22  12  13  1   
 23  12  29  1   
 24  12  30  1   
 25  13  31  1   
 26  13  32  1   
 27  14  16  ar  
 28  14  33  1   
 29  15  17  ar  
 30  15  34  1   
 31  16  18  ar  
 32  16  35  1   
 33  17  18  ar  
 34  17  36  1   
 35  18  19  1   
 36  19  20  1   
 37  19  37  1   
 38  19  38  1   
 39  20  21  1   
 40  20  22  1   
 41  20  39  1   
 42  21  40  1   
 43  21  41  1   
 44  21  42  1   
 45  22  43  1   
 46  22  44  1   
 47  22  45  1   
@<TRIPOS>SUBSTRUCTURE
  1 ****  11 GROUP 4 **** **** 0

# MOE 2024.06 (io_trps.svl 2023.06)
