@<TRIPOS>MOLECULE
NONAME
43 44 1 0 0 
SMALL
USER_CHARGES


@<TRIPOS>ATOM
  1 O       -0.2390     1.0920     1.6100 O.2   1 <1>  -0.5700 
  2 C       -0.0830     2.0820     0.9180 C.2   1 <1>   0.6900 
  3 N       -1.0940     2.9960     0.7660 N.am  1 <1>  -0.6600 
  4 N        1.0850     2.2810     0.2640 N.am  1 <1>  -0.7300 
  5 C       -2.5020     2.6520     1.1160 C.3   1 <1>   0.1400 
  6 C       -0.9110     4.3830     0.2670 C.3   1 <1>   0.1400 
  7 C        2.2450     1.3650     0.2670 C.3   1 <1>   0.1400 
  8 C       -3.4400     2.8350    -0.1020 C.3   1 <1>   0.0000 
  9 C       -1.7960     4.6020    -0.9630 C.3   1 <1>  -0.1600 
 10 C        3.4780     2.1540    -0.1440 C.3   1 <1>  -0.2660 
 11 C       -4.8850     2.5150     0.3360 C.3   1 <1>   0.2000 
 12 C       -3.2680     4.2670    -0.6670 C.3   1 <1>  -0.1600 
 13 C       -3.1620     1.7540    -1.1620 C.3   1 <1>  -0.1600 
 14 C        4.6460     1.2200    -0.2750 C.2   1 <1>   0.9060 
 15 O       -5.7880     3.0500    -0.5910 O.3   1 <1>  -0.5600 
 16 C       -4.9870     0.9850     0.2890 C.3   1 <1>  -0.1600 
 17 C       -3.9150     0.5030    -0.6980 C.3   1 <1>  -0.1600 
 18 O        4.7180     0.5190    -1.2870 O.co2 1 <1>  -0.9000 
 19 O        5.4850     1.1890     0.6280 O.co2 1 <1>  -0.9000 
 20 C       -7.0680     3.2870    -0.0980 C.3   1 <1>   0.0400 
 21 H        1.0850     2.9620    -0.4860 H     1 <1>   0.3700 
 22 H       -2.5570     1.6390     1.4740 H     1 <1>   0.0800 
 23 H       -2.8170     3.2970     1.9170 H     1 <1>   0.0800 
 24 H       -1.1970     5.0680     1.0470 H     1 <1>   0.0800 
 25 H        0.1180     4.5760     0.0230 H     1 <1>   0.0800 
 26 H        2.3810     0.9410     1.2480 H     1 <1>   0.0800 
 27 H        2.0720     0.5640    -0.4330 H     1 <1>   0.0800 
 28 H       -1.7180     5.6270    -1.2770 H     1 <1>   0.0800 
 29 H       -1.4350     3.9860    -1.7670 H     1 <1>   0.0800 
 30 H        3.7150     2.8930     0.5970 H     1 <1>   0.0800 
 31 H        3.3310     2.6220    -1.0960 H     1 <1>   0.0800 
 32 H       -5.1010     2.9180     1.3110 H     1 <1>   0.0800 
 33 H       -3.8440     4.3800    -1.5690 H     1 <1>   0.0800 
 34 H       -3.6520     4.9720     0.0490 H     1 <1>   0.0800 
 35 H       -3.5760     2.0690    -2.1050 H     1 <1>   0.0800 
 36 H       -2.1120     1.5590    -1.2970 H     1 <1>   0.0800 
 37 H       -4.7670     0.5870     1.2630 H     1 <1>   0.0800 
 38 H       -5.9670     0.6540    -0.0040 H     1 <1>   0.0800 
 39 H       -3.2360    -0.1710    -0.2030 H     1 <1>   0.0800 
 40 H       -4.3570    -0.0030    -1.5390 H     1 <1>   0.0800 
 41 H       -7.6710     3.6620    -0.9060 H     1 <1>   0.0800 
 42 H       -7.0150     4.0220     0.6850 H     1 <1>   0.0800 
 43 H       -7.4890     2.3680     0.2710 H     1 <1>   0.0800 
@<TRIPOS>BOND
  1   1   2  2   
  2   2   3  am  
  3   2   4  am  
  4   3   5  1   
  5   3   6  1   
  6   4   7  1   
  7   4  21  1   
  8   5   8  1   
  9   5  22  1   
 10   5  23  1   
 11   6   9  1   
 12   6  24  1   
 13   6  25  1   
 14   7  10  1   
 15   7  26  1   
 16   7  27  1   
 17   8  11  1   
 18   8  12  1   
 19   8  13  1   
 20   9  12  1   
 21   9  28  1   
 22   9  29  1   
 23  10  14  1   
 24  10  30  1   
 25  10  31  1   
 26  11  15  1   
 27  11  16  1   
 28  11  32  1   
 29  12  33  1   
 30  12  34  1   
 31  13  17  1   
 32  13  35  1   
 33  13  36  1   
 34  14  18  ar  
 35  14  19  ar  
 36  15  20  1   
 37  16  17  1   
 38  16  37  1   
 39  16  38  1   
 40  17  39  1   
 41  17  40  1   
 42  20  41  1   
 43  20  42  1   
 44  20  43  1   
@<TRIPOS>SUBSTRUCTURE
  1 ****   3 GROUP 4 **** **** 0

# MOE 2024.06 (io_trps.svl 2023.06)
