@<TRIPOS>MOLECULE
NONAME
37 37 1 0 0 
SMALL
USER_CHARGES


@<TRIPOS>ATOM
  1 O        0.7970     1.2730     0.4330 O.co2 1 <1>  -0.9000 
  2 C        0.0010     1.9430    -0.2490 C.2   1 <1>   0.9060 
  3 O        0.1800     2.0510    -1.4740 O.co2 1 <1>  -0.9000 
  4 C       -1.2440     2.5750     0.4530 C.3   1 <1>   0.2280 
  5 N       -2.4670     1.6760     0.5620 N.3   1 <1>  -0.8100 
  6 C       -1.5130     4.0470     0.0250 C.ar  1 <1>  -0.1440 
  7 C       -2.6540     0.9140    -0.7170 C.3   1 <1>   0.1710 
  8 C       -2.2940     0.7580     1.6960 C.3   1 <1>   0.0300 
  9 C       -2.5930     4.5330    -0.7280 C.ar  1 <1>   0.0820 
 10 C       -0.5650     4.9910     0.4330 C.ar  1 <1>   0.0820 
 11 C       -3.8670    -0.0280    -0.7690 C.2   1 <1>   0.5690 
 12 O       -3.5920     3.7570    -1.1910 O.3   1 <1>  -0.3630 
 13 C       -2.6920     5.8780    -1.0590 C.ar  1 <1>  -0.1500 
 14 O        0.5030     4.6280     1.1770 O.3   1 <1>  -0.3630 
 15 C       -0.6770     6.3360     0.1140 C.ar  1 <1>  -0.1500 
 16 O       -4.9650     0.3550    -1.0960 O.2   1 <1>  -0.5700 
 17 N       -3.6960    -1.3320    -0.4590 N.am  1 <1>  -0.8000 
 18 C       -4.7320     3.6610    -0.3690 C.3   1 <1>   0.0400 
 19 C       -1.7410     6.7860    -0.6400 C.ar  1 <1>  -0.1500 
 20 C        1.7230     4.4800     0.4820 C.3   1 <1>   0.0400 
 21 H       -0.9010     2.6860     1.4640 H     1 <1>   0.0800 
 22 H       -1.7830     0.3100    -0.9020 H     1 <1>   0.0800 
 23 H       -2.7250     1.5970    -1.5410 H     1 <1>   0.0800 
 24 H       -2.1580     1.3220     2.6020 H     1 <1>   0.0800 
 25 H       -1.4290     0.1330     1.5440 H     1 <1>   0.0800 
 26 H       -3.1680     0.1440     1.8160 H     1 <1>   0.0800 
 27 H       -3.5250     6.2050    -1.6530 H     1 <1>   0.1500 
 28 H        0.0740     7.0220     0.4590 H     1 <1>   0.1500 
 29 H       -4.4920    -1.9660    -0.4950 H     1 <1>   0.3700 
 30 H       -2.7920    -1.7120    -0.1780 H     1 <1>   0.3700 
 31 H       -5.3900     2.9250    -0.7960 H     1 <1>   0.0800 
 32 H       -5.2150     4.6190    -0.3290 H     1 <1>   0.0800 
 33 H       -4.4270     3.3510     0.6140 H     1 <1>   0.0800 
 34 H       -1.8280     7.8250    -0.8970 H     1 <1>   0.1500 
 35 H        2.3280     3.7700     1.0170 H     1 <1>   0.0800 
 36 H        2.2120     5.4340     0.4330 H     1 <1>   0.0800 
 37 H        1.5300     4.1080    -0.5100 H     1 <1>   0.0800 
@<TRIPOS>BOND
  1   1   2  ar  
  2   2   3  ar  
  3   2   4  1   
  4   4   5  1   
  5   4   6  1   
  6   4  21  1   
  7   5   7  1   
  8   5   8  1   
  9   6   9  ar  
 10   6  10  ar  
 11   7  11  1   
 12   7  22  1   
 13   7  23  1   
 14   8  24  1   
 15   8  25  1   
 16   8  26  1   
 17   9  12  1   
 18   9  13  ar  
 19  10  14  1   
 20  10  15  ar  
 21  11  16  2   
 22  11  17  am  
 23  12  18  1   
 24  13  19  ar  
 25  13  27  1   
 26  14  20  1   
 27  15  19  ar  
 28  15  28  1   
 29  17  29  1   
 30  17  30  1   
 31  18  31  1   
 32  18  32  1   
 33  18  33  1   
 34  19  34  1   
 35  20  35  1   
 36  20  36  1   
 37  20  37  1   
@<TRIPOS>SUBSTRUCTURE
  1 ****   4 GROUP 4 **** **** 0

# MOE 2024.06 (io_trps.svl 2023.06)
