@<TRIPOS>MOLECULE
NONAME
52 55 1 0 0 
SMALL
USER_CHARGES


@<TRIPOS>ATOM
  1 S       -0.0640    -0.0250     1.8290 S.o2  1 <1>   1.5010 
  2 O       -0.0420    -1.4650     1.9340 O.2   1 <1>  -0.6500 
  3 O       -0.3310     0.7660     3.0050 O.2   1 <1>  -0.6500 
  4 N       -1.3070     0.4120     0.7840 N.am  1 <1>  -0.9140 
  5 C        1.4090     0.5710     0.9930 C.2   1 <1>  -0.0630 
  6 C       -1.7790    -0.5170    -0.2480 C.3   1 <1>   0.2760 
  7 C        2.5620    -0.1810     0.8150 C.2   1 <1>   0.1390 
  8 C        1.7080     1.7610     0.4120 C.2   1 <1>  -0.3020 
  9 C       -2.5510    -1.7240     0.3000 C.3   1 <1>  -0.0800 
 10 C       -0.7030    -1.1260    -1.1550 C.3   1 <1>   0.1200 
 11 N        3.4900     0.4650     0.1790 N.2   1 <1>  -0.7070 
 12 N        2.9620     1.6750    -0.0680 N.pl3 1 <1>   0.3140 
 13 C       -1.8140    -2.9110    -0.3330 C.3   1 <1>   0.1200 
 14 C       -4.0350    -1.6850    -0.1200 C.3   1 <1>  -0.0160 
 15 O       -1.1750    -2.3970    -1.4540 O.3   1 <1>  -0.5600 
 16 C        3.7140     2.7300    -0.7760 C.3   1 <1>   0.0960 
 17 C       -4.9260    -2.8130     0.4160 C.ar  1 <1>  -0.1430 
 18 C        4.2730     3.7630     0.2130 C.3   1 <1>  -0.1600 
 19 C       -6.2500    -2.9560    -0.0720 C.ar  1 <1>   0.0000 
 20 C       -4.5190    -3.7090     1.3660 C.ar  1 <1>  -0.1500 
 21 C        5.0540     4.8640    -0.5120 C.3   1 <1>  -0.2400 
 22 C       -7.0380    -4.0160     0.4400 C.ar  1 <1>   0.3100 
 23 C       -6.8420    -2.1050    -1.0360 C.ar  1 <1>  -0.1500 
 24 C       -5.3810    -4.7190     1.8080 C.ar  1 <1>   0.1600 
 25 N       -6.5900    -4.8870     1.3780 N.ar  1 <1>  -0.6200 
 26 C       -8.3490    -4.1840    -0.0340 C.ar  1 <1>  -0.1500 
 27 C       -8.1240    -2.2940    -1.4750 C.ar  1 <1>  -0.1500 
 28 C       -8.8890    -3.3470    -0.9710 C.ar  1 <1>  -0.1500 
 29 H       -2.0760     0.6380     1.4100 H     1 <1>   0.4200 
 30 H       -2.4340     0.0430    -0.8950 H     1 <1>   0.0800 
 31 H        2.6800    -1.1960     1.1620 H     1 <1>   0.1500 
 32 H        1.1010     2.6430     0.3240 H     1 <1>   0.1500 
 33 H       -2.4880    -1.7760     1.3710 H     1 <1>   0.0800 
 34 H        0.2460    -1.2460    -0.6670 H     1 <1>   0.0800 
 35 H       -0.5860    -0.5760    -2.0710 H     1 <1>   0.0800 
 36 H       -2.4700    -3.7080    -0.6380 H     1 <1>   0.0800 
 37 H       -1.0580    -3.2960     0.3320 H     1 <1>   0.0800 
 38 H       -4.0690    -1.7070    -1.1960 H     1 <1>   0.0800 
 39 H       -4.4600    -0.7510     0.2030 H     1 <1>   0.0800 
 40 H        4.5180     2.2640    -1.3160 H     1 <1>   0.0800 
 41 H        3.0560     3.2040    -1.4800 H     1 <1>   0.0800 
 42 H        3.4640     4.2090     0.7660 H     1 <1>   0.0800 
 43 H        4.9280     3.2650     0.9090 H     1 <1>   0.0800 
 44 H       -3.5430    -3.6850     1.8110 H     1 <1>   0.1500 
 45 H        4.4170     5.3900    -1.2020 H     1 <1>   0.0800 
 46 H        5.8830     4.4430    -1.0550 H     1 <1>   0.0800 
 47 H        5.4390     5.5710     0.2020 H     1 <1>   0.0800 
 48 H       -6.2780    -1.2850    -1.4380 H     1 <1>   0.1500 
 49 H       -5.0140    -5.4010     2.5560 H     1 <1>   0.1500 
 50 H       -8.9190    -5.0010     0.3700 H     1 <1>   0.1500 
 51 H       -8.5580    -1.6380    -2.2110 H     1 <1>   0.1500 
 52 H       -9.8960    -3.4880    -1.3250 H     1 <1>   0.1500 
@<TRIPOS>BOND
  1   1   2  2   
  2   1   3  2   
  3   1   4  am  
  4   1   5  1   
  5   4   6  1   
  6   4  29  1   
  7   5   7  1   
  8   5   8  2   
  9   6   9  1   
 10   6  10  1   
 11   6  30  1   
 12   7  11  2   
 13   7  31  1   
 14   8  12  1   
 15   8  32  1   
 16   9  13  1   
 17   9  14  1   
 18   9  33  1   
 19  10  15  1   
 20  10  34  1   
 21  10  35  1   
 22  11  12  1   
 23  12  16  1   
 24  13  15  1   
 25  13  36  1   
 26  13  37  1   
 27  14  17  1   
 28  14  38  1   
 29  14  39  1   
 30  16  18  1   
 31  16  40  1   
 32  16  41  1   
 33  17  19  ar  
 34  17  20  ar  
 35  18  21  1   
 36  18  42  1   
 37  18  43  1   
 38  19  22  ar  
 39  19  23  ar  
 40  20  24  ar  
 41  20  44  1   
 42  21  45  1   
 43  21  46  1   
 44  21  47  1   
 45  22  25  ar  
 46  22  26  ar  
 47  23  27  ar  
 48  23  48  1   
 49  24  25  ar  
 50  24  49  1   
 51  26  28  ar  
 52  26  50  1   
 53  27  28  ar  
 54  27  51  1   
 55  28  52  1   
@<TRIPOS>SUBSTRUCTURE
  1 ****   6 GROUP 4 **** **** 0

# MOE 2024.06 (io_trps.svl 2023.06)
