@<TRIPOS>MOLECULE
NONAME
40 41 1 0 0 
SMALL
USER_CHARGES


@<TRIPOS>ATOM
  1 S        0.2240    -0.0440     0.6900 S.o2  1 <1>   1.3330 
  2 O        1.6210    -0.0030     1.0590 O.2   1 <1>  -0.6500 
  3 O       -0.7900    -0.0330     1.7210 O.2   1 <1>  -0.6500 
  4 N       -0.0190    -1.4080    -0.2910 N.am  1 <1>  -0.8490 
  5 C       -0.1220     1.3160    -0.4220 C.3   1 <1>  -0.0550 
  6 C       -0.4720    -2.5720     0.4770 C.3   1 <1>   0.1160 
  7 C        1.1560    -1.7670    -1.0930 C.3   1 <1>   0.1160 
  8 C       -0.0720     2.6890     0.2700 C.3   1 <1>  -0.0800 
  9 C       -0.4660     3.8260    -0.6660 C.3   1 <1>   0.2000 
 10 C        1.3160     3.0930     0.7750 C.3   1 <1>   0.1400 
 11 O       -1.8450     3.9280    -0.7400 O.3   1 <1>  -0.6800 
 12 C        0.1670     5.0770    -0.0620 C.3   1 <1>   0.1400 
 13 N        1.3530     4.5750     0.6770 N.am  1 <1>  -0.6600 
 14 C        2.5130     5.2920     0.8800 C.2   1 <1>   0.7150 
 15 O        3.5400     4.6710     1.0790 O.2   1 <1>  -0.5700 
 16 C        2.5510     6.7330     0.8360 C.2   1 <1>  -0.0450 
 17 S        1.2590     7.6680     1.5650 S.3   1 <1>  -0.0800 
 18 C        3.4490     7.6220     0.3460 C.2   1 <1>   0.0460 
 19 C        2.0720     9.1400     1.1120 C.2   1 <1>   0.2280 
 20 N        3.1700     8.9640     0.4960 N.2   1 <1>  -0.5650 
 21 C        4.7480     7.2940    -0.3630 C.3   1 <1>  -0.0590 
 22 H        0.5750     1.3000    -1.2360 H     1 <1>   0.0800 
 23 H       -1.1050     1.1780    -0.8300 H     1 <1>   0.0800 
 24 H       -0.6330    -3.4120    -0.1770 H     1 <1>   0.0800 
 25 H       -1.4040    -2.3490     0.9700 H     1 <1>   0.0800 
 26 H        0.2590    -2.8370     1.2230 H     1 <1>   0.0800 
 27 H        0.9150    -2.5780    -1.7580 H     1 <1>   0.0800 
 28 H        1.9710    -2.0670    -0.4540 H     1 <1>   0.0800 
 29 H        1.4730    -0.9250    -1.6840 H     1 <1>   0.0800 
 30 H       -0.7320     2.6840     1.1220 H     1 <1>   0.0800 
 31 H       -0.0820     3.6700    -1.6600 H     1 <1>   0.0800 
 32 H        2.0920     2.6790     0.1510 H     1 <1>   0.0800 
 33 H        1.4780     2.7750     1.7920 H     1 <1>   0.0800 
 34 H       -2.2350     4.0040     0.1520 H     1 <1>   0.4000 
 35 H       -0.5090     5.5450     0.6320 H     1 <1>   0.0800 
 36 H        0.4570     5.7720    -0.8310 H     1 <1>   0.0800 
 37 H        1.5980    10.0690     1.3780 H     1 <1>   0.1500 
 38 H        4.8740     6.2340    -0.4820 H     1 <1>   0.0800 
 39 H        5.5740     7.6770     0.2090 H     1 <1>   0.0800 
 40 H        4.7570     7.7540    -1.3330 H     1 <1>   0.0800 
@<TRIPOS>BOND
  1   1   2  2   
  2   1   3  2   
  3   1   4  am  
  4   1   5  1   
  5   4   6  1   
  6   4   7  1   
  7   5   8  1   
  8   5  22  1   
  9   5  23  1   
 10   6  24  1   
 11   6  25  1   
 12   6  26  1   
 13   7  27  1   
 14   7  28  1   
 15   7  29  1   
 16   8   9  1   
 17   8  10  1   
 18   8  30  1   
 19   9  11  1   
 20   9  12  1   
 21   9  31  1   
 22  10  13  1   
 23  10  32  1   
 24  10  33  1   
 25  11  34  1   
 26  12  13  1   
 27  12  35  1   
 28  12  36  1   
 29  13  14  am  
 30  14  15  2   
 31  14  16  1   
 32  16  17  1   
 33  16  18  2   
 34  17  19  1   
 35  18  20  1   
 36  18  21  1   
 37  19  20  2   
 38  19  37  1   
 39  21  38  1   
 40  21  39  1   
 41  21  40  1   
@<TRIPOS>SUBSTRUCTURE
  1 ****  10 GROUP 4 **** **** 0

# MOE 2024.06 (io_trps.svl 2023.06)
