@<TRIPOS>MOLECULE
NONAME
29 31 1 0 0 
SMALL
USER_CHARGES


@<TRIPOS>ATOM
  1 S        0.6910    -0.5020    -0.4960 S.3   1 <1>  -0.4600 
  2 C        0.8270     1.2110    -1.0810 C.3   1 <1>   0.0700 
  3 C        2.2980    -0.7140     0.3250 C.3   1 <1>   0.0700 
  4 C        1.1500     2.1300     0.1040 C.3   1 <1>   0.2090 
  5 C        2.4940     0.3980     1.3640 C.3   1 <1>   0.2090 
  6 N        2.4460     1.7610     0.7470 N.pl3 1 <1>  -0.8380 
  7 C        3.6100     2.3880     0.3590 C.ar  1 <1>   0.4100 
  8 N        4.5440     1.6370    -0.1990 N.ar  1 <1>  -0.6200 
  9 C        3.8020     3.7580     0.5280 C.ar  1 <1>   0.0000 
 10 C        5.6420     2.2550    -0.6130 C.ar  1 <1>   0.4770 
 11 C        4.9900     4.2420     0.0410 C.ar  1 <1>   0.2970 
 12 C        2.9880     4.7790     1.1370 C.2   1 <1>  -0.1500 
 13 N        5.9370     3.5380    -0.5390 N.ar  1 <1>  -0.5670 
 14 C        6.6810     1.3650    -1.2530 C.3   1 <1>  -0.0970 
 15 S        5.0990     5.9830     0.3030 S.3   1 <1>  -0.0800 
 16 C        3.5230     6.0120     1.0990 C.2   1 <1>  -0.1100 
 17 H       -0.1140     1.4700    -1.5320 H     1 <1>   0.0800 
 18 H        1.6100     1.2440    -1.8170 H     1 <1>   0.0800 
 19 H        3.0600    -0.6710    -0.4320 H     1 <1>   0.0800 
 20 H        2.2950    -1.6840     0.7870 H     1 <1>   0.0800 
 21 H        0.3610     2.0700     0.8320 H     1 <1>   0.0800 
 22 H        1.1990     3.1440    -0.2530 H     1 <1>   0.0800 
 23 H        3.4460     0.2620     1.8470 H     1 <1>   0.0800 
 24 H        1.7290     0.3240     2.1170 H     1 <1>   0.0800 
 25 H        2.0430     4.5190     1.5780 H     1 <1>   0.1500 
 26 H        6.2340     0.8160    -2.0610 H     1 <1>   0.0800 
 27 H        7.0570     0.6740    -0.5230 H     1 <1>   0.0800 
 28 H        7.4970     1.9490    -1.6360 H     1 <1>   0.0800 
 29 H        3.1740     6.9650     1.4590 H     1 <1>   0.1500 
@<TRIPOS>BOND
  1   1   2  1   
  2   1   3  1   
  3   2   4  1   
  4   2  17  1   
  5   2  18  1   
  6   3   5  1   
  7   3  19  1   
  8   3  20  1   
  9   4   6  1   
 10   4  21  1   
 11   4  22  1   
 12   5   6  1   
 13   5  23  1   
 14   5  24  1   
 15   6   7  1   
 16   7   8  ar  
 17   7   9  ar  
 18   8  10  ar  
 19   9  11  ar  
 20   9  12  1   
 21  10  13  ar  
 22  10  14  1   
 23  11  13  ar  
 24  11  15  1   
 25  12  16  2   
 26  12  25  1   
 27  14  26  1   
 28  14  27  1   
 29  14  28  1   
 30  15  16  1   
 31  16  29  1   
@<TRIPOS>SUBSTRUCTURE
  1 ****   7 GROUP 4 **** **** 0

# MOE 2024.06 (io_trps.svl 2023.06)
