@<TRIPOS>MOLECULE
NONAME
53 56 1 0 0 
SMALL
USER_CHARGES


@<TRIPOS>ATOM
  1 O       -0.1130     2.8350     2.2230 O.3   1 <1>  -0.6800 
  2 C       -0.3770     4.0950     1.7280 C.3   1 <1>   0.2000 
  3 C       -0.7050     3.9800     0.2400 C.3   1 <1>  -0.1600 
  4 C        0.8570     4.9650     1.9580 C.3   1 <1>  -0.1600 
  5 C       -0.8940     5.3690    -0.3720 C.3   1 <1>   0.2090 
  6 C        0.6570     6.3470     1.3370 C.3   1 <1>   0.2090 
  7 N        0.3060     6.2050    -0.1000 N.pl3 1 <1>  -0.8380 
  8 C        0.5900     7.2580    -0.9440 C.ar  1 <1>   0.4100 
  9 N       -0.4250     7.8950    -1.4980 N.ar  1 <1>  -0.6200 
 10 C        1.8860     7.6440    -1.1850 C.ar  1 <1>  -0.1500 
 11 C       -0.1000     8.9100    -2.2720 C.ar  1 <1>   0.4700 
 12 C        2.1030     8.7340    -1.9900 C.ar  1 <1>   0.4100 
 13 N        1.0990     9.3850    -2.5460 N.ar  1 <1>  -0.6200 
 14 N        3.3740     9.1960    -2.2190 N.pl3 1 <1>  -0.8690 
 15 C        3.7030    10.5740    -2.6650 C.3   1 <1>   0.3890 
 16 C        4.3670    11.3340    -1.5280 C.2   1 <1>   0.0060 
 17 N        5.6110    11.6800    -1.5290 N.2   1 <1>  -0.3380 
 18 N        3.7500    11.7250    -0.4050 N.pl3 1 <1>   0.0480 
 19 N        5.8440    12.3140    -0.3810 N.2   1 <1>  -0.3380 
 20 C        4.7330    12.3270     0.2680 C.2   1 <1>   0.0360 
 21 C        2.3410    11.5240     0.0220 C.3   1 <1>   0.1760 
 22 C        1.6900    12.8480     0.4560 C.3   1 <1>  -0.1600 
 23 C        2.2660    10.4790     1.1480 C.3   1 <1>  -0.1600 
 24 C        0.2330    12.6170     0.8850 C.3   1 <1>  -0.1600 
 25 C        0.8110    10.2430     1.5750 C.3   1 <1>  -0.1600 
 26 C        0.1370    11.5580     1.9920 C.3   1 <1>  -0.1600 
 27 H       -0.8630     2.2370     2.0490 H     1 <1>   0.4000 
 28 H       -1.2190     4.4960     2.2670 H     1 <1>   0.0800 
 29 H       -1.6070     3.4120     0.1010 H     1 <1>   0.0800 
 30 H        0.1000     3.4870    -0.2770 H     1 <1>   0.0800 
 31 H        1.7180     4.5040     1.5070 H     1 <1>   0.0800 
 32 H        1.0330     5.0690     3.0120 H     1 <1>   0.0800 
 33 H       -1.7620     5.8490     0.0480 H     1 <1>   0.0800 
 34 H       -1.0390     5.2800    -1.4360 H     1 <1>   0.0800 
 35 H        1.5570     6.9270     1.4450 H     1 <1>   0.0800 
 36 H       -0.1410     6.8650     1.8430 H     1 <1>   0.0800 
 37 H        2.6990     7.1050    -0.7480 H     1 <1>   0.1500 
 38 H       -0.9250     9.4250    -2.7360 H     1 <1>   0.1500 
 39 H        4.1510     8.7410    -1.7340 H     1 <1>   0.4000 
 40 H        2.8250    11.1020    -2.9930 H     1 <1>   0.0800 
 41 H        4.3830    10.5160    -3.4970 H     1 <1>   0.0800 
 42 H        4.5980    12.7660     1.2400 H     1 <1>   0.1500 
 43 H        1.7880    11.1570    -0.8200 H     1 <1>   0.0800 
 44 H        1.7120    13.5460    -0.3620 H     1 <1>   0.0800 
 45 H        2.2320    13.2720     1.2830 H     1 <1>   0.0800 
 46 H        2.8310    10.8200     1.9980 H     1 <1>   0.0800 
 47 H        2.6920     9.5520     0.8090 H     1 <1>   0.0800 
 48 H       -0.3430    12.2940     0.0340 H     1 <1>   0.0800 
 49 H       -0.1920    13.5430     1.2350 H     1 <1>   0.0800 
 50 H        0.7830     9.5480     2.3970 H     1 <1>   0.0800 
 51 H        0.2640     9.8050     0.7570 H     1 <1>   0.0800 
 52 H       -0.8980    11.3720     2.2220 H     1 <1>   0.0800 
 53 H        0.6090    11.9320     2.8850 H     1 <1>   0.0800 
@<TRIPOS>BOND
  1   1   2  1   
  2   1  27  1   
  3   2   3  1   
  4   2   4  1   
  5   2  28  1   
  6   3   5  1   
  7   3  29  1   
  8   3  30  1   
  9   4   6  1   
 10   4  31  1   
 11   4  32  1   
 12   5   7  1   
 13   5  33  1   
 14   5  34  1   
 15   6   7  1   
 16   6  35  1   
 17   6  36  1   
 18   7   8  1   
 19   8   9  ar  
 20   8  10  ar  
 21   9  11  ar  
 22  10  12  ar  
 23  10  37  1   
 24  11  13  ar  
 25  11  38  1   
 26  12  13  ar  
 27  12  14  1   
 28  14  15  1   
 29  14  39  1   
 30  15  16  1   
 31  15  40  1   
 32  15  41  1   
 33  16  17  2   
 34  16  18  1   
 35  17  19  1   
 36  18  20  1   
 37  18  21  1   
 38  19  20  2   
 39  20  42  1   
 40  21  22  1   
 41  21  23  1   
 42  21  43  1   
 43  22  24  1   
 44  22  44  1   
 45  22  45  1   
 46  23  25  1   
 47  23  46  1   
 48  23  47  1   
 49  24  26  1   
 50  24  48  1   
 51  24  49  1   
 52  25  26  1   
 53  25  50  1   
 54  25  51  1   
 55  26  52  1   
 56  26  53  1   
@<TRIPOS>SUBSTRUCTURE
  1 ****  10 GROUP 4 **** **** 0

# MOE 2024.06 (io_trps.svl 2023.06)
