@<TRIPOS>MOLECULE
NONAME
58 60 1 0 0 
SMALL
USER_CHARGES


@<TRIPOS>ATOM
  1 O       -0.0640     0.5100     0.4320 O.2   1 <1>  -0.5700 
  2 C        0.4900     0.6020    -0.6370 C.2   1 <1>   0.5690 
  3 N        1.3900     1.5730    -0.9010 N.am  1 <1>  -0.7300 
  4 C        0.1660    -0.3900    -1.7340 C.3   1 <1>  -0.0990 
  5 C        1.8770     2.5790     0.0650 C.3   1 <1>   0.2840 
  6 C       -0.6170    -1.6070    -1.2260 C.3   1 <1>   0.2000 
  7 C        3.3890     2.4520     0.1690 C.ar  1 <1>  -0.1440 
  8 O       -0.7350    -2.4960    -2.3010 O.3   1 <1>  -0.5600 
  9 C       -2.0300    -1.2500    -0.6940 C.3   1 <1>   0.3430 
 10 C        4.1930     3.0980    -0.7700 C.ar  1 <1>   0.3920 
 11 C        3.9920     1.7090     1.1690 C.ar  1 <1>  -0.1440 
 12 C       -1.3700    -3.7080    -2.0030 C.3   1 <1>   0.1200 
 13 N       -2.8400    -2.4760    -0.3770 N.4   1 <1>  -0.9590 
 14 O        3.5790     3.8010    -1.7510 O.3   1 <1>  -0.3620 
 15 N        5.5220     3.0650    -0.7730 N.ar  1 <1>  -0.6200 
 16 C        5.3720     1.6750     1.1630 C.ar  1 <1>  -0.1500 
 17 C        3.2140     0.9510     2.2360 C.3   1 <1>  -0.0970 
 18 C       -2.8100    -3.4550    -1.5190 C.3   1 <1>   0.3430 
 19 C       -4.2280    -2.1280     0.0280 C.3   1 <1>   0.4860 
 20 C        4.3280     4.5080    -2.7220 C.3   1 <1>   0.0400 
 21 C        6.0800     2.3580     0.1900 C.ar  1 <1>   0.1670 
 22 C       -4.9250    -3.3940     0.4870 C.ar  1 <1>  -0.1440 
 23 C        7.5940     2.3220     0.1850 C.3   1 <1>  -0.0970 
 24 C       -5.8640    -4.0100    -0.3290 C.ar  1 <1>  -0.1500 
 25 C       -4.6240    -3.9510     1.7230 C.ar  1 <1>  -0.1500 
 26 C       -6.4840    -5.1770     0.0800 C.ar  1 <1>  -0.1500 
 27 C       -5.2460    -5.1190     2.1290 C.ar  1 <1>  -0.1500 
 28 C       -6.1730    -5.7330     1.3080 C.ar  1 <1>  -0.1500 
 29 H        1.8890     1.6050    -1.7940 H     1 <1>   0.3700 
 30 H        1.0930    -0.7310    -2.1590 H     1 <1>   0.0800 
 31 H       -0.3960     0.1140    -2.4980 H     1 <1>   0.0800 
 32 H        1.4120     2.4340     1.0240 H     1 <1>   0.0800 
 33 H        1.6060     3.5630    -0.2780 H     1 <1>   0.0800 
 34 H       -0.0450    -2.0900    -0.4520 H     1 <1>   0.0800 
 35 H       -2.5330    -0.6640    -1.4460 H     1 <1>   0.0800 
 36 H       -1.9390    -0.6410     0.1890 H     1 <1>   0.0800 
 37 H       -0.7940    -4.2300    -1.2580 H     1 <1>   0.0800 
 38 H       -1.3810    -4.3010    -2.9010 H     1 <1>   0.0800 
 39 H       -2.4110    -2.9430     0.4300 H     1 <1>   0.4500 
 40 H        5.9000     1.1180     1.9150 H     1 <1>   0.1500 
 41 H        2.4670     0.3270     1.7790 H     1 <1>   0.0800 
 42 H        2.7320     1.6440     2.9020 H     1 <1>   0.0800 
 43 H        3.8670     0.3230     2.8140 H     1 <1>   0.0800 
 44 H       -3.2540    -4.3900    -1.2150 H     1 <1>   0.0800 
 45 H       -3.3830    -3.0700    -2.3460 H     1 <1>   0.0800 
 46 H       -4.7630    -1.6930    -0.8000 H     1 <1>   0.0800 
 47 H       -4.2120    -1.4160     0.8380 H     1 <1>   0.0800 
 48 H        3.6430     4.9980    -3.3900 H     1 <1>   0.0800 
 49 H        4.9410     3.8100    -3.2650 H     1 <1>   0.0800 
 50 H        4.9430     5.2360    -2.2230 H     1 <1>   0.0800 
 51 H        7.9390     1.9060    -0.7440 H     1 <1>   0.0800 
 52 H        7.9720     1.7280     0.9950 H     1 <1>   0.0800 
 53 H        7.9750     3.3230     0.2780 H     1 <1>   0.0800 
 54 H       -6.1270    -3.5920    -1.2870 H     1 <1>   0.1500 
 55 H       -3.9130    -3.4880     2.3850 H     1 <1>   0.1500 
 56 H       -7.2130    -5.6550    -0.5530 H     1 <1>   0.1500 
 57 H       -5.0130    -5.5520     3.0880 H     1 <1>   0.1500 
 58 H       -6.6580    -6.6410     1.6260 H     1 <1>   0.1500 
@<TRIPOS>BOND
  1   1   2  2   
  2   2   3  am  
  3   2   4  1   
  4   3   5  1   
  5   3  29  1   
  6   4   6  1   
  7   4  30  1   
  8   4  31  1   
  9   5   7  1   
 10   5  32  1   
 11   5  33  1   
 12   6   8  1   
 13   6   9  1   
 14   6  34  1   
 15   7  10  ar  
 16   7  11  ar  
 17   8  12  1   
 18   9  13  1   
 19   9  35  1   
 20   9  36  1   
 21  10  14  1   
 22  10  15  ar  
 23  11  16  ar  
 24  11  17  1   
 25  12  18  1   
 26  12  37  1   
 27  12  38  1   
 28  13  18  1   
 29  13  19  1   
 30  13  39  1   
 31  14  20  1   
 32  15  21  ar  
 33  16  21  ar  
 34  16  40  1   
 35  17  41  1   
 36  17  42  1   
 37  17  43  1   
 38  18  44  1   
 39  18  45  1   
 40  19  22  1   
 41  19  46  1   
 42  19  47  1   
 43  20  48  1   
 44  20  49  1   
 45  20  50  1   
 46  21  23  1   
 47  22  24  ar  
 48  22  25  ar  
 49  23  51  1   
 50  23  52  1   
 51  23  53  1   
 52  24  26  ar  
 53  24  54  1   
 54  25  27  ar  
 55  25  55  1   
 56  26  28  ar  
 57  26  56  1   
 58  27  28  ar  
 59  27  57  1   
 60  28  58  1   
@<TRIPOS>SUBSTRUCTURE
  1 ****   1 GROUP 4 **** **** 0

# MOE 2024.06 (io_trps.svl 2023.06)
