@<TRIPOS>MOLECULE
NONAME
51 53 1 0 0 
SMALL
USER_CHARGES


@<TRIPOS>ATOM
  1 O        0.1220    -0.5120     2.5670 O.2   1 <1>  -0.5700 
  2 C       -0.4960     0.3870     2.0460 C.2   1 <1>   0.5690 
  3 N       -1.4530     0.1350     1.1000 N.am  1 <1>  -0.6600 
  4 C       -0.1880     1.8110     2.4920 C.3   1 <1>   0.0440 
  5 C       -2.1960     1.1400     0.2970 C.3   1 <1>   0.1400 
  6 C       -1.8230    -1.2400     0.6900 C.3   1 <1>   0.1400 
  7 C        0.4190     2.6720     1.3890 C.ar  1 <1>  -0.1440 
  8 C       -2.9860     0.3260    -0.7270 C.3   1 <1>   0.2000 
  9 C       -3.0990    -1.0770    -0.1360 C.3   1 <1>  -0.0800 
 10 C       -0.1460     3.8950     1.0590 C.ar  1 <1>  -0.1500 
 11 C        1.5390     2.2310     0.6990 C.ar  1 <1>  -0.1500 
 12 O       -4.2470     0.8600    -0.9390 O.3   1 <1>  -0.6800 
 13 C       -3.2870    -2.1700    -1.1990 C.3   1 <1>   0.0210 
 14 C        0.3880     4.6690     0.0420 C.ar  1 <1>   0.0830 
 15 C        2.0910     3.0060    -0.3070 C.ar  1 <1>  -0.1500 
 16 C       -3.2930    -3.5470    -0.5660 C.2   1 <1>   0.1080 
 17 O       -0.2490     5.8290    -0.2530 O.3   1 <1>  -0.3630 
 18 C        1.5330     4.2310    -0.6320 C.ar  1 <1>   0.0830 
 19 N       -4.1870    -3.9210     0.2950 N.2   1 <1>  -0.7070 
 20 C       -2.3560    -4.5440    -0.8180 C.2   1 <1>  -0.1500 
 21 C       -0.8160     5.9290    -1.5410 C.3   1 <1>   0.0400 
 22 O        2.1410     4.9580    -1.6010 O.3   1 <1>  -0.3630 
 23 N       -3.8410    -5.1810     0.6190 N.pl3 1 <1>   0.3000 
 24 C       -2.7340    -5.5800    -0.0410 C.2   1 <1>  -0.3320 
 25 C        2.7490     6.1600    -1.1860 C.3   1 <1>   0.0400 
 26 C       -2.0950    -6.9480     0.1150 C.3   1 <1>  -0.0600 
 27 H       -1.0970     2.2520     2.8560 H     1 <1>   0.0800 
 28 H        0.5020     1.7700     3.3150 H     1 <1>   0.0800 
 29 H       -2.8540     1.6970     0.9400 H     1 <1>   0.0800 
 30 H       -1.5140     1.8020    -0.2070 H     1 <1>   0.0800 
 31 H       -1.0260    -1.6530     0.0970 H     1 <1>   0.0800 
 32 H       -1.9890    -1.8680     1.5500 H     1 <1>   0.0800 
 33 H       -2.4580     0.3190    -1.6660 H     1 <1>   0.0800 
 34 H       -3.9240    -1.1140     0.5540 H     1 <1>   0.0800 
 35 H       -1.0110     4.2620     1.5800 H     1 <1>   0.1500 
 36 H        1.9860     1.2810     0.9420 H     1 <1>   0.1500 
 37 H       -4.8090     0.7160    -0.1530 H     1 <1>   0.4000 
 38 H       -2.5000    -2.1160    -1.9290 H     1 <1>   0.0800 
 39 H       -4.2240    -2.0200    -1.7050 H     1 <1>   0.0800 
 40 H        2.9610     2.6670    -0.8390 H     1 <1>   0.1500 
 41 H       -1.5190    -4.4760    -1.4900 H     1 <1>   0.1500 
 42 H       -1.3990     6.8310    -1.5820 H     1 <1>   0.0800 
 43 H       -1.4460     5.0740    -1.7120 H     1 <1>   0.0800 
 44 H       -0.0320     5.9680    -2.2760 H     1 <1>   0.0800 
 45 H       -4.3790    -5.7390     1.2930 H     1 <1>   0.2700 
 46 H        3.2600     6.5890    -2.0290 H     1 <1>   0.0800 
 47 H        3.4520     5.9400    -0.4010 H     1 <1>   0.0800 
 48 H        1.9940     6.8380    -0.8310 H     1 <1>   0.0800 
 49 H       -1.2270    -7.0240    -0.5150 H     1 <1>   0.0800 
 50 H       -2.7910    -7.7180    -0.1670 H     1 <1>   0.0800 
 51 H       -1.7920    -7.1030     1.1350 H     1 <1>   0.0800 
@<TRIPOS>BOND
  1   1   2  2   
  2   2   3  am  
  3   2   4  1   
  4   3   5  1   
  5   3   6  1   
  6   4   7  1   
  7   4  27  1   
  8   4  28  1   
  9   5   8  1   
 10   5  29  1   
 11   5  30  1   
 12   6   9  1   
 13   6  31  1   
 14   6  32  1   
 15   7  10  ar  
 16   7  11  ar  
 17   8   9  1   
 18   8  12  1   
 19   8  33  1   
 20   9  13  1   
 21   9  34  1   
 22  10  14  ar  
 23  10  35  1   
 24  11  15  ar  
 25  11  36  1   
 26  12  37  1   
 27  13  16  1   
 28  13  38  1   
 29  13  39  1   
 30  14  17  1   
 31  14  18  ar  
 32  15  18  ar  
 33  15  40  1   
 34  16  19  2   
 35  16  20  1   
 36  17  21  1   
 37  18  22  1   
 38  19  23  1   
 39  20  24  2   
 40  20  41  1   
 41  21  42  1   
 42  21  43  1   
 43  21  44  1   
 44  22  25  1   
 45  23  24  1   
 46  23  45  1   
 47  24  26  1   
 48  25  46  1   
 49  25  47  1   
 50  25  48  1   
 51  26  49  1   
 52  26  50  1   
 53  26  51  1   
@<TRIPOS>SUBSTRUCTURE
  1 ****   3 GROUP 4 **** **** 0

# MOE 2024.06 (io_trps.svl 2023.06)
