@<TRIPOS>MOLECULE
NONAME
60 62 1 0 0 
SMALL
USER_CHARGES


@<TRIPOS>ATOM
  1 O       -1.5590     4.6670    -2.2940 O.2   1 <1>  -0.5700 
  2 C       -1.6680     4.0500    -1.2610 C.2   1 <1>   0.5690 
  3 N       -2.1990     2.7940    -1.2540 N.am  1 <1>  -0.6600 
  4 C       -1.2540     4.7490     0.0260 C.3   1 <1>  -0.0990 
  5 C       -3.6460     2.6270    -1.5370 C.3   1 <1>   0.2200 
  6 C       -1.3440     1.7130    -1.8210 C.3   1 <1>   0.0600 
  7 C       -0.4810     3.9120     1.0790 C.3   1 <1>   0.1440 
  8 C       -4.5120     3.6520    -0.8020 C.3   1 <1>  -0.1600 
  9 C       -4.1790     1.2860    -1.0300 C.3   1 <1>  -0.1600 
 10 C        0.6490     3.0750     0.4390 C.ar  1 <1>  -0.1440 
 11 C       -1.4850     3.0610     1.8870 C.3   1 <1>  -0.2400 
 12 C        0.1740     4.8800     2.0780 C.3   1 <1>  -0.2400 
 13 C       -5.9020     3.0110    -0.7260 C.3   1 <1>  -0.0800 
 14 C       -5.6880     1.5000    -0.8500 C.3   1 <1>  -0.0800 
 15 C        0.8830     1.7440     0.7790 C.ar  1 <1>  -0.1500 
 16 C        1.4850     3.6550    -0.5100 C.ar  1 <1>  -0.1500 
 17 C       -6.6490     3.2240     0.6000 C.3   1 <1>  -0.1600 
 18 C       -6.2900     0.8870     0.4220 C.3   1 <1>  -0.1600 
 19 C        1.9010     1.0200     0.1830 C.ar  1 <1>  -0.1500 
 20 C        2.5030     2.9350    -1.1090 C.ar  1 <1>  -0.1500 
 21 C       -7.3450     1.8920     0.8970 C.3   1 <1>   0.4230 
 22 C        2.7130     1.6140    -0.7650 C.ar  1 <1>  -0.1500 
 23 N       -8.6050     1.7590     0.0960 N.4   1 <1>  -0.9590 
 24 C       -9.6180     2.8120     0.4320 C.3   1 <1>   0.2630 
 25 C       -9.2520     0.4160     0.2510 C.3   1 <1>   0.2630 
 26 H       -0.6450     5.5840    -0.2640 H     1 <1>   0.0800 
 27 H       -2.1340     5.1700     0.4710 H     1 <1>   0.0800 
 28 H       -3.8170     2.7110    -2.5980 H     1 <1>   0.0800 
 29 H       -1.3190     0.8750    -1.1480 H     1 <1>   0.0800 
 30 H       -0.3370     2.0680    -1.9620 H     1 <1>   0.0800 
 31 H       -1.7250     1.3980    -2.7770 H     1 <1>   0.0800 
 32 H       -4.1150     3.7990     0.1860 H     1 <1>   0.0800 
 33 H       -4.5350     4.5910    -1.3270 H     1 <1>   0.0800 
 34 H       -3.9780     0.4940    -1.7300 H     1 <1>   0.0800 
 35 H       -3.7110     1.0590    -0.0890 H     1 <1>   0.0800 
 36 H       -2.2890     3.6710     2.2580 H     1 <1>   0.0800 
 37 H       -1.0030     2.6090     2.7350 H     1 <1>   0.0800 
 38 H       -1.9040     2.2810     1.2810 H     1 <1>   0.0800 
 39 H       -0.5670     5.4880     2.5660 H     1 <1>   0.0800 
 40 H        0.8720     5.5280     1.5790 H     1 <1>   0.0800 
 41 H        0.7150     4.3300     2.8280 H     1 <1>   0.0800 
 42 H       -6.5010     3.3500    -1.5560 H     1 <1>   0.0800 
 43 H       -6.2090     1.1440    -1.7230 H     1 <1>   0.0800 
 44 H        0.2820     1.2400     1.5120 H     1 <1>   0.1500 
 45 H        1.3540     4.6810    -0.8020 H     1 <1>   0.1500 
 46 H       -7.2950     4.0810     0.5720 H     1 <1>   0.0800 
 47 H       -5.9370     3.3900     1.3900 H     1 <1>   0.0800 
 48 H       -5.5350     0.8360     1.1870 H     1 <1>   0.0800 
 49 H       -6.6510    -0.1120     0.2650 H     1 <1>   0.0800 
 50 H        2.0630    -0.0070     0.4590 H     1 <1>   0.1500 
 51 H        3.1320     3.4060    -1.8450 H     1 <1>   0.1500 
 52 H       -7.5540     1.7800     1.9490 H     1 <1>   0.0800 
 53 H        3.5040     1.0520    -1.2290 H     1 <1>   0.1500 
 54 H       -8.3300     1.8770    -0.8900 H     1 <1>   0.4500 
 55 H       -9.8580     2.7790     1.4820 H     1 <1>   0.0800 
 56 H      -10.5230     2.6520    -0.1330 H     1 <1>   0.0800 
 57 H       -9.2450     3.7940     0.1920 H     1 <1>   0.0800 
 58 H       -9.4690     0.2220     1.2890 H     1 <1>   0.0800 
 59 H       -8.6080    -0.3640    -0.1190 H     1 <1>   0.0800 
 60 H      -10.1740     0.3790    -0.3060 H     1 <1>   0.0800 
@<TRIPOS>BOND
  1   1   2  2   
  2   2   3  am  
  3   2   4  1   
  4   3   5  1   
  5   3   6  1   
  6   4   7  1   
  7   4  26  1   
  8   4  27  1   
  9   5   8  1   
 10   5   9  1   
 11   5  28  1   
 12   6  29  1   
 13   6  30  1   
 14   6  31  1   
 15   7  10  1   
 16   7  11  1   
 17   7  12  1   
 18   8  13  1   
 19   8  32  1   
 20   8  33  1   
 21   9  14  1   
 22   9  34  1   
 23   9  35  1   
 24  10  15  ar  
 25  10  16  ar  
 26  11  36  1   
 27  11  37  1   
 28  11  38  1   
 29  12  39  1   
 30  12  40  1   
 31  12  41  1   
 32  13  14  1   
 33  13  17  1   
 34  13  42  1   
 35  14  18  1   
 36  14  43  1   
 37  15  19  ar  
 38  15  44  1   
 39  16  20  ar  
 40  16  45  1   
 41  17  21  1   
 42  17  46  1   
 43  17  47  1   
 44  18  21  1   
 45  18  48  1   
 46  18  49  1   
 47  19  22  ar  
 48  19  50  1   
 49  20  22  ar  
 50  20  51  1   
 51  21  23  1   
 52  21  52  1   
 53  22  53  1   
 54  23  24  1   
 55  23  25  1   
 56  23  54  1   
 57  24  55  1   
 58  24  56  1   
 59  24  57  1   
 60  25  58  1   
 61  25  59  1   
 62  25  60  1   
@<TRIPOS>SUBSTRUCTURE
  1 ****   3 GROUP 4 **** **** 0

# MOE 2024.06 (io_trps.svl 2023.06)
