@<TRIPOS>MOLECULE
NONAME
46 49 1 0 0 
SMALL
USER_CHARGES


@<TRIPOS>ATOM
  1 N        0.4750     0.9280     1.1900 N.2   1 <1>  -0.5650 
  2 C       -0.6760     1.1840     0.6430 C.2   1 <1>   0.0060 
  3 C        0.3420    -0.3400     1.6270 C.2   1 <1>   0.0770 
  4 N       -1.5550     0.1540     0.7040 N.pl3 1 <1>   0.2940 
  5 C       -1.0330     2.5130    -0.0030 C.3   1 <1>   0.5230 
  6 C       -0.8850    -0.8230     1.3350 C.2   1 <1>  -0.3020 
  7 C       -2.9400     0.0840     0.1810 C.3   1 <1>  -0.0910 
  8 N        0.1870     3.3600    -0.0530 N.4   1 <1>  -0.8520 
  9 C       -3.9740     1.0640     0.6570 C.3   1 <1>  -0.2000 
 10 C       -4.0440    -0.3660     1.0890 C.3   1 <1>  -0.2000 
 11 C       -0.1150     4.7990    -0.0430 C.3   1 <1>   0.2960 
 12 C        1.1070     2.9290    -1.1280 C.3   1 <1>   0.4810 
 13 C        0.7570     5.7030     0.7600 C.3   1 <1>  -0.2000 
 14 C       -0.6330     5.3880     1.2260 C.3   1 <1>  -0.2000 
 15 C        2.4790     3.4610    -0.7980 C.2   1 <1>  -0.2880 
 16 C        3.4330     2.7520    -0.1720 C.2   1 <1>  -0.1780 
 17 C        4.7630     3.1840     0.1950 C.ar  1 <1>   0.0280 
 18 C        5.3530     4.3290    -0.3380 C.ar  1 <1>  -0.1500 
 19 C        5.5030     2.4450     1.1140 C.ar  1 <1>  -0.1500 
 20 C        6.6240     4.7230     0.0370 C.ar  1 <1>  -0.1500 
 21 C        6.7750     2.8330     1.4930 C.ar  1 <1>  -0.1500 
 22 C        7.3380     3.9760     0.9560 C.ar  1 <1>  -0.1500 
 23 H        1.1460    -0.8500     2.1370 H     1 <1>   0.1500 
 24 H       -1.7860     2.9950     0.5990 H     1 <1>   0.0800 
 25 H       -1.4270     2.3590    -0.9930 H     1 <1>   0.0800 
 26 H       -1.3120    -1.7880     1.5400 H     1 <1>   0.1500 
 27 H       -2.9680    -0.2660    -0.8370 H     1 <1>   0.1000 
 28 H        0.6920     3.1120     0.8140 H     1 <1>   0.4500 
 29 H       -3.7540     1.7850     1.4260 H     1 <1>   0.1000 
 30 H       -4.7400     1.4060    -0.0190 H     1 <1>   0.1000 
 31 H       -4.8380    -0.9740     0.6900 H     1 <1>   0.1000 
 32 H       -3.8210    -0.6070     2.1160 H     1 <1>   0.1000 
 33 H       -0.5140     5.1680    -0.9770 H     1 <1>   0.1000 
 34 H        1.1540     1.8520    -1.1490 H     1 <1>   0.0800 
 35 H        0.7780     3.2820    -2.0920 H     1 <1>   0.0800 
 36 H        1.5880     5.2980     1.3120 H     1 <1>   0.1000 
 37 H        0.9510     6.6990     0.4010 H     1 <1>   0.1000 
 38 H       -1.3590     6.1810     1.1830 H     1 <1>   0.1000 
 39 H       -0.7340     4.7850     2.1120 H     1 <1>   0.1000 
 40 H        2.6170     4.4820    -1.1070 H     1 <1>   0.1500 
 41 H        3.2270     1.7340     0.1230 H     1 <1>   0.1500 
 42 H        4.8230     4.9210    -1.0590 H     1 <1>   0.1500 
 43 H        5.0820     1.5540     1.5440 H     1 <1>   0.1500 
 44 H        7.0610     5.6110    -0.3860 H     1 <1>   0.1500 
 45 H        7.3280     2.2480     2.2070 H     1 <1>   0.1500 
 46 H        8.3280     4.2810     1.2500 H     1 <1>   0.1500 
@<TRIPOS>BOND
  1   1   2  2   
  2   1   3  1   
  3   2   4  1   
  4   2   5  1   
  5   3   6  2   
  6   3  23  1   
  7   4   6  1   
  8   4   7  1   
  9   5   8  1   
 10   5  24  1   
 11   5  25  1   
 12   6  26  1   
 13   7   9  1   
 14   7  10  1   
 15   7  27  1   
 16   8  11  1   
 17   8  12  1   
 18   8  28  1   
 19   9  10  1   
 20   9  29  1   
 21   9  30  1   
 22  10  31  1   
 23  10  32  1   
 24  11  13  1   
 25  11  14  1   
 26  11  33  1   
 27  12  15  1   
 28  12  34  1   
 29  12  35  1   
 30  13  14  1   
 31  13  36  1   
 32  13  37  1   
 33  14  38  1   
 34  14  39  1   
 35  15  16  2   
 36  15  40  1   
 37  16  17  1   
 38  16  41  1   
 39  17  18  ar  
 40  17  19  ar  
 41  18  20  ar  
 42  18  42  1   
 43  19  21  ar  
 44  19  43  1   
 45  20  22  ar  
 46  20  44  1   
 47  21  22  ar  
 48  21  45  1   
 49  22  46  1   
@<TRIPOS>SUBSTRUCTURE
  1 ****   8 GROUP 4 **** **** 0

# MOE 2024.06 (io_trps.svl 2023.06)
