@<TRIPOS>MOLECULE
NONAME
53 56 1 0 0 
SMALL
USER_CHARGES


@<TRIPOS>ATOM
  1 O        0.5230    -0.8040     2.3810 O.3   1 <1>  -0.6800 
  2 C        1.2760    -0.5460     1.2410 C.3   1 <1>   0.2000 
  3 C        2.3070    -1.6430     1.0140 C.3   1 <1>  -0.0800 
  4 C        2.1090     0.7260     1.3840 C.3   1 <1>   0.2090 
  5 C        3.3770    -0.9440     0.1740 C.3   1 <1>   0.2090 
  6 C        1.7360    -2.9080     0.3550 C.3   1 <1>  -0.0170 
  7 N        3.3470     0.4840     0.5890 N.pl3 1 <1>  -0.8380 
  8 C        2.8380    -3.8940     0.0130 C.ar  1 <1>   0.1660 
  9 C        4.5210     1.0100     1.0770 C.ar  1 <1>   0.4100 
 10 N        3.2770    -3.8970    -1.2080 N.ar  1 <1>  -0.6200 
 11 C        3.3320    -4.7370     1.0210 C.ar  1 <1>  -0.1500 
 12 N        4.9670     0.5100     2.2120 N.ar  1 <1>  -0.6200 
 13 C        5.2050     2.0130     0.4020 C.ar  1 <1>  -0.1430 
 14 C        4.2710    -4.7690    -1.5200 C.ar  1 <1>   0.3100 
 15 C        4.3280    -5.6210     0.7360 C.ar  1 <1>  -0.1500 
 16 C        6.0910     1.0220     2.6630 C.ar  1 <1>   0.4770 
 17 C        6.3670     2.4560     0.9840 C.ar  1 <1>   0.1600 
 18 C        4.6460     2.5540    -0.9180 C.3   1 <1>  -0.0170 
 19 C        4.8310    -5.6570    -0.5740 C.ar  1 <1>   0.0000 
 20 C        4.7670    -4.7930    -2.8330 C.ar  1 <1>  -0.1500 
 21 N        6.8290     1.9700     2.1190 N.ar  1 <1>  -0.6200 
 22 C        6.6030     0.4470     3.9610 C.3   1 <1>  -0.0970 
 23 C        5.4840     3.6570    -1.5830 C.3   1 <1>  -0.1600 
 24 C        5.8600    -6.5300    -0.9800 C.ar  1 <1>  -0.1500 
 25 C        5.7680    -5.6490    -3.2080 C.ar  1 <1>  -0.1500 
 26 C        4.8460     4.1300    -2.8930 C.3   1 <1>  -0.2400 
 27 C        6.3200    -6.5270    -2.2690 C.ar  1 <1>  -0.1500 
 28 H        0.0010    -1.6200     2.2710 H     1 <1>   0.4000 
 29 H        0.6120    -0.4490     0.4000 H     1 <1>   0.0800 
 30 H        2.7660    -1.8940     1.9560 H     1 <1>   0.0800 
 31 H        2.3630     0.8890     2.4180 H     1 <1>   0.0800 
 32 H        1.5790     1.5780     0.9970 H     1 <1>   0.0800 
 33 H        3.1400    -1.0070    -0.8750 H     1 <1>   0.0800 
 34 H        4.3470    -1.3840     0.3380 H     1 <1>   0.0800 
 35 H        1.2120    -2.6430    -0.5480 H     1 <1>   0.0800 
 36 H        1.0310    -3.3780     1.0160 H     1 <1>   0.0800 
 37 H        2.9190    -4.6720     2.0110 H     1 <1>   0.1500 
 38 H        4.7340    -6.2810     1.4820 H     1 <1>   0.1500 
 39 H        6.9550     3.2300     0.5240 H     1 <1>   0.1500 
 40 H        4.5490     1.7290    -1.6020 H     1 <1>   0.0800 
 41 H        3.6560     2.9330    -0.7310 H     1 <1>   0.0800 
 42 H        4.3290    -4.1110    -3.5380 H     1 <1>   0.1500 
 43 H        7.1660     1.1880     4.4970 H     1 <1>   0.0800 
 44 H        7.2360    -0.3940     3.7480 H     1 <1>   0.0800 
 45 H        5.7800     0.1250     4.5710 H     1 <1>   0.0800 
 46 H        5.5710     4.4960    -0.9140 H     1 <1>   0.0800 
 47 H        6.4720     3.2820    -1.7920 H     1 <1>   0.0800 
 48 H        6.2810    -7.2020    -0.2540 H     1 <1>   0.1500 
 49 H        6.1390    -5.6560    -4.2180 H     1 <1>   0.1500 
 50 H        3.8630     4.5290    -2.7100 H     1 <1>   0.0800 
 51 H        4.7640     3.3140    -3.5890 H     1 <1>   0.0800 
 52 H        5.4490     4.9010    -3.3390 H     1 <1>   0.0800 
 53 H        7.1070    -7.1950    -2.5770 H     1 <1>   0.1500 
@<TRIPOS>BOND
  1   1   2  1   
  2   1  28  1   
  3   2   3  1   
  4   2   4  1   
  5   2  29  1   
  6   3   5  1   
  7   3   6  1   
  8   3  30  1   
  9   4   7  1   
 10   4  31  1   
 11   4  32  1   
 12   5   7  1   
 13   5  33  1   
 14   5  34  1   
 15   6   8  1   
 16   6  35  1   
 17   6  36  1   
 18   7   9  1   
 19   8  10  ar  
 20   8  11  ar  
 21   9  12  ar  
 22   9  13  ar  
 23  10  14  ar  
 24  11  15  ar  
 25  11  37  1   
 26  12  16  ar  
 27  13  17  ar  
 28  13  18  1   
 29  14  19  ar  
 30  14  20  ar  
 31  15  19  ar  
 32  15  38  1   
 33  16  21  ar  
 34  16  22  1   
 35  17  21  ar  
 36  17  39  1   
 37  18  23  1   
 38  18  40  1   
 39  18  41  1   
 40  19  24  ar  
 41  20  25  ar  
 42  20  42  1   
 43  22  43  1   
 44  22  44  1   
 45  22  45  1   
 46  23  26  1   
 47  23  46  1   
 48  23  47  1   
 49  24  27  ar  
 50  24  48  1   
 51  25  27  ar  
 52  25  49  1   
 53  26  50  1   
 54  26  51  1   
 55  26  52  1   
 56  27  53  1   
@<TRIPOS>SUBSTRUCTURE
  1 ****   5 GROUP 4 **** **** 0

# MOE 2024.06 (io_trps.svl 2023.06)
