@<TRIPOS>MOLECULE
NONAME
39 39 1 0 0 
SMALL
USER_CHARGES


@<TRIPOS>ATOM
  1 O       -0.0390    -0.2920    -0.0340 O.2   1 <1>  -0.5700 
  2 C        0.0190    -1.5020     0.0710 C.2   1 <1>   0.7800 
  3 O        1.1880    -2.1400     0.1710 O.3   1 <1>  -0.4300 
  4 N       -1.1030    -2.2760     0.1020 N.am  1 <1>  -0.6600 
  5 C        2.4770    -1.5660     0.1610 C.3   1 <1>   0.2800 
  6 C       -2.4780    -1.7310     0.0340 C.3   1 <1>   0.1400 
  7 C       -1.1130    -3.7390     0.2880 C.3   1 <1>   0.1400 
  8 C        2.6510    -0.6290     1.3620 C.3   1 <1>  -0.2400 
  9 C        2.7330    -0.8580    -1.1750 C.3   1 <1>  -0.2400 
 10 C        3.4400    -2.7460     0.2980 C.3   1 <1>  -0.2400 
 11 C       -3.3770    -2.8840     0.4740 C.3   1 <1>   0.2000 
 12 C       -2.5780    -4.1470     0.1510 C.3   1 <1>  -0.1600 
 13 O       -4.5680    -2.8570    -0.2500 O.3   1 <1>  -0.5600 
 14 C       -5.5860    -3.6560     0.2610 C.3   1 <1>   0.1200 
 15 C       -6.8060    -3.4900    -0.6420 C.3   1 <1>  -0.1600 
 16 C       -7.9850    -4.3390    -0.1520 C.3   1 <1>  -0.2400 
 17 H       -2.6940    -1.4510    -0.9820 H     1 <1>   0.0800 
 18 H       -2.5820    -0.8810     0.6850 H     1 <1>   0.0800 
 19 H       -0.7430    -3.9700     1.2720 H     1 <1>   0.0800 
 20 H       -0.4970    -4.2210    -0.4530 H     1 <1>   0.0800 
 21 H        2.0380     0.2470     1.2630 H     1 <1>   0.0800 
 22 H        3.6730    -0.3050     1.4290 H     1 <1>   0.0800 
 23 H        2.3940    -1.1390     2.2730 H     1 <1>   0.0800 
 24 H        2.1200     0.0190    -1.2730 H     1 <1>   0.0800 
 25 H        2.5310    -1.5240    -1.9950 H     1 <1>   0.0800 
 26 H        3.7590    -0.5450    -1.2340 H     1 <1>   0.0800 
 27 H        3.2590    -3.2690     1.2190 H     1 <1>   0.0800 
 28 H        4.4580    -2.4000     0.2990 H     1 <1>   0.0800 
 29 H        3.3140    -3.4270    -0.5240 H     1 <1>   0.0800 
 30 H       -3.5850    -2.7970     1.5270 H     1 <1>   0.0800 
 31 H       -2.8180    -4.9590     0.8120 H     1 <1>   0.0800 
 32 H       -2.7590    -4.4420    -0.8670 H     1 <1>   0.0800 
 33 H       -5.8100    -3.3330     1.2640 H     1 <1>   0.0800 
 34 H       -5.2590    -4.6820     0.2680 H     1 <1>   0.0800 
 35 H       -6.5450    -3.7880    -1.6430 H     1 <1>   0.0800 
 36 H       -7.0950    -2.4540    -0.6560 H     1 <1>   0.0800 
 37 H       -7.7220    -5.3820    -0.1460 H     1 <1>   0.0800 
 38 H       -8.8290    -4.2030    -0.8050 H     1 <1>   0.0800 
 39 H       -8.2730    -4.0460     0.8420 H     1 <1>   0.0800 
@<TRIPOS>BOND
  1   1   2  2   
  2   2   3  1   
  3   2   4  am  
  4   3   5  1   
  5   4   6  1   
  6   4   7  1   
  7   5   8  1   
  8   5   9  1   
  9   5  10  1   
 10   6  11  1   
 11   6  17  1   
 12   6  18  1   
 13   7  12  1   
 14   7  19  1   
 15   7  20  1   
 16   8  21  1   
 17   8  22  1   
 18   8  23  1   
 19   9  24  1   
 20   9  25  1   
 21   9  26  1   
 22  10  27  1   
 23  10  28  1   
 24  10  29  1   
 25  11  12  1   
 26  11  13  1   
 27  11  30  1   
 28  12  31  1   
 29  12  32  1   
 30  13  14  1   
 31  14  15  1   
 32  14  33  1   
 33  14  34  1   
 34  15  16  1   
 35  15  35  1   
 36  15  36  1   
 37  16  37  1   
 38  16  38  1   
 39  16  39  1   
@<TRIPOS>SUBSTRUCTURE
  1 ****   4 GROUP 4 **** **** 0

# MOE 2024.06 (io_trps.svl 2023.06)
