@<TRIPOS>MOLECULE
NONAME
52 55 1 0 0 
SMALL
USER_CHARGES


@<TRIPOS>ATOM
  1 O       -1.5530    -0.3220    -0.7590 O.3   1 <1>  -0.6800 
  2 C       -2.4080    -1.2930    -0.2620 C.3   1 <1>   0.2000 
  3 C       -2.0680    -2.6570    -0.8900 C.3   1 <1>   0.2090 
  4 C       -3.8400    -0.8700    -0.6000 C.3   1 <1>  -0.1600 
  5 N       -3.0650    -3.6980    -0.4650 N.pl3 1 <1>  -0.8380 
  6 C       -4.8350    -1.9800    -0.2200 C.3   1 <1>  -0.1600 
  7 C       -2.7490    -4.9140     0.0540 C.ar  1 <1>   0.4100 
  8 C       -4.4660    -3.3300    -0.8470 C.3   1 <1>   0.2090 
  9 N       -3.5660    -5.9220    -0.1950 N.ar  1 <1>  -0.6200 
 10 C       -1.5900    -5.0980     0.8350 C.ar  1 <1>  -0.1500 
 11 C       -3.2590    -7.1090     0.2810 C.ar  1 <1>   0.7710 
 12 C       -1.2990    -6.3320     1.3110 C.ar  1 <1>   0.2110 
 13 N       -2.1550    -7.3400     1.0130 N.ar  1 <1>  -0.1790 
 14 N       -4.1110    -8.0950    -0.0040 N.pl3 1 <1>  -0.8690 
 15 C       -4.2120    -9.5150     0.3920 C.3   1 <1>   0.3530 
 16 C       -5.6820    -9.8520     0.5220 C.ar  1 <1>  -0.1430 
 17 C       -6.3150   -10.6160    -0.4460 C.ar  1 <1>  -0.1500 
 18 C       -6.4130    -9.3950     1.6070 C.ar  1 <1>  -0.1500 
 19 C       -7.6600   -10.9320    -0.3370 C.ar  1 <1>  -0.1430 
 20 C       -7.7550    -9.7060     1.7210 C.ar  1 <1>  -0.1500 
 21 C       -8.3870   -10.4730     0.7560 C.ar  1 <1>  -0.1430 
 22 C       -8.3070   -11.7650    -1.4390 C.3   1 <1>  -0.0170 
 23 C       -9.8640   -10.8020     0.9380 C.3   1 <1>  -0.0170 
 24 C       -9.6530   -12.3650    -1.0200 C.3   1 <1>  -0.1600 
 25 C      -10.5260   -11.2990    -0.3520 C.3   1 <1>  -0.1600 
 26 H       -0.6620    -0.4020    -0.3700 H     1 <1>   0.4000 
 27 H       -2.2780    -1.3370     0.8060 H     1 <1>   0.0800 
 28 H       -1.0690    -2.9440    -0.6250 H     1 <1>   0.0800 
 29 H       -2.1140    -2.5640    -1.9620 H     1 <1>   0.0800 
 30 H       -3.9140    -0.6790    -1.6570 H     1 <1>   0.0800 
 31 H       -4.0850     0.0330    -0.0700 H     1 <1>   0.0800 
 32 H       -5.8220    -1.7000    -0.5440 H     1 <1>   0.0800 
 33 H       -4.8640    -2.0930     0.8490 H     1 <1>   0.0800 
 34 H       -5.1680    -4.0730    -0.5100 H     1 <1>   0.0800 
 35 H       -4.5350    -3.2690    -1.9200 H     1 <1>   0.0800 
 36 H       -0.9630    -4.2560     1.0530 H     1 <1>   0.1500 
 37 H       -0.4280    -6.5380     1.9130 H     1 <1>   0.1500 
 38 H       -2.0060    -8.2930     1.3220 H     1 <1>   0.4570 
 39 H       -4.9310    -7.7990    -0.5500 H     1 <1>   0.4000 
 40 H       -3.7200    -9.6930     1.3320 H     1 <1>   0.0800 
 41 H       -3.7600   -10.1350    -0.3650 H     1 <1>   0.0800 
 42 H       -5.7640   -10.9730    -1.2990 H     1 <1>   0.1500 
 43 H       -5.9490    -8.7950     2.3690 H     1 <1>   0.1500 
 44 H       -8.3110    -9.3480     2.5690 H     1 <1>   0.1500 
 45 H       -7.6440   -12.5590    -1.7330 H     1 <1>   0.0800 
 46 H       -8.4590   -11.1290    -2.2940 H     1 <1>   0.0800 
 47 H      -10.3900    -9.9320     1.2910 H     1 <1>   0.0800 
 48 H       -9.9470   -11.5660     1.6910 H     1 <1>   0.0800 
 49 H       -9.4840   -13.1730    -0.3290 H     1 <1>   0.0800 
 50 H      -10.1550   -12.7640    -1.8840 H     1 <1>   0.0800 
 51 H      -10.6590   -10.4710    -1.0260 H     1 <1>   0.0800 
 52 H      -11.4960   -11.7050    -0.1250 H     1 <1>   0.0800 
@<TRIPOS>BOND
  1   1   2  1   
  2   1  26  1   
  3   2   3  1   
  4   2   4  1   
  5   2  27  1   
  6   3   5  1   
  7   3  28  1   
  8   3  29  1   
  9   4   6  1   
 10   4  30  1   
 11   4  31  1   
 12   5   7  1   
 13   5   8  1   
 14   6   8  1   
 15   6  32  1   
 16   6  33  1   
 17   7   9  ar  
 18   7  10  ar  
 19   8  34  1   
 20   8  35  1   
 21   9  11  ar  
 22  10  12  ar  
 23  10  36  1   
 24  11  13  ar  
 25  11  14  1   
 26  12  13  ar  
 27  12  37  1   
 28  13  38  1   
 29  14  15  1   
 30  14  39  1   
 31  15  16  1   
 32  15  40  1   
 33  15  41  1   
 34  16  17  ar  
 35  16  18  ar  
 36  17  19  ar  
 37  17  42  1   
 38  18  20  ar  
 39  18  43  1   
 40  19  21  ar  
 41  19  22  1   
 42  20  21  ar  
 43  20  44  1   
 44  21  23  1   
 45  22  24  1   
 46  22  45  1   
 47  22  46  1   
 48  23  25  1   
 49  23  47  1   
 50  23  48  1   
 51  24  25  1   
 52  24  49  1   
 53  24  50  1   
 54  25  51  1   
 55  25  52  1   
@<TRIPOS>SUBSTRUCTURE
  1 ****  14 GROUP 4 **** **** 0

# MOE 2024.06 (io_trps.svl 2023.06)
