@<TRIPOS>MOLECULE
NONAME
45 46 1 0 0 
SMALL
USER_CHARGES


@<TRIPOS>ATOM
  1 CL      -4.6300    -1.6140    -1.5300 Cl    1 <1>  -0.1770 
  2 C       -3.1670    -2.5060    -1.1810 C.ar  1 <1>   0.1770 
  3 C       -3.0710    -3.2850    -0.0330 C.ar  1 <1>  -0.1440 
  4 C       -2.1320    -2.4020    -2.0870 C.ar  1 <1>  -0.1500 
  5 C       -1.8890    -4.0000     0.2080 C.ar  1 <1>  -0.0090 
  6 C       -4.2790    -3.3080     0.9060 C.3   1 <1>  -0.0970 
  7 C       -0.9620    -3.0930    -1.8510 C.ar  1 <1>  -0.1500 
  8 S       -1.6280    -5.0960     1.6430 S.o2  1 <1>   1.4470 
  9 C       -0.8530    -3.8780    -0.7170 C.ar  1 <1>  -0.1500 
 10 O       -1.8940    -4.4100     2.8840 O.2   1 <1>  -0.6500 
 11 O       -0.3990    -5.8430     1.4950 O.2   1 <1>  -0.6500 
 12 N       -2.8650    -6.2180     1.4940 N.am  1 <1>  -0.9140 
 13 C       -2.6020    -7.2960     0.5500 C.3   1 <1>   0.2760 
 14 C       -3.9220    -7.9050     0.0990 C.3   1 <1>  -0.0800 
 15 C       -1.9870    -8.4870     1.2790 C.3   1 <1>   0.1200 
 16 C       -4.2310    -8.9260     1.2030 C.3   1 <1>   0.1200 
 17 C       -5.0490    -6.8830    -0.1540 C.3   1 <1>  -0.0550 
 18 O       -3.0580    -9.0750     1.9490 O.3   1 <1>  -0.5600 
 19 S       -6.5120    -7.6120    -0.8800 S.o2  1 <1>   1.3330 
 20 O       -6.1330    -8.1480    -2.1670 O.2   1 <1>  -0.6500 
 21 O       -7.1500    -8.4680     0.0950 O.2   1 <1>  -0.6500 
 22 N       -7.5110    -6.2620    -1.1320 N.am  1 <1>  -0.8490 
 23 C       -8.4200    -6.4460    -2.2670 C.3   1 <1>   0.1160 
 24 C       -8.2720    -5.8690     0.0590 C.3   1 <1>   0.1160 
 25 H       -2.2450    -1.7870    -2.9630 H     1 <1>   0.1500 
 26 H       -4.1190    -3.8730     1.8020 H     1 <1>   0.0800 
 27 H       -5.1290    -3.7270     0.3970 H     1 <1>   0.0800 
 28 H       -4.5240    -2.3040     1.2050 H     1 <1>   0.0800 
 29 H       -0.1410    -3.0220    -2.5450 H     1 <1>   0.1500 
 30 H        0.0690    -4.4100    -0.5510 H     1 <1>   0.1500 
 31 H       -2.9190    -6.6650     2.4120 H     1 <1>   0.4200 
 32 H       -2.0080    -6.9590    -0.2840 H     1 <1>   0.0800 
 33 H       -3.7440    -8.4510    -0.8110 H     1 <1>   0.0800 
 34 H       -1.2220    -8.2140     1.9840 H     1 <1>   0.0800 
 35 H       -1.5980    -9.2060     0.5790 H     1 <1>   0.0800 
 36 H       -4.5100    -9.8840     0.7950 H     1 <1>   0.0800 
 37 H       -5.0020    -8.5810     1.8720 H     1 <1>   0.0800 
 38 H       -4.6820    -6.1250    -0.8190 H     1 <1>   0.0800 
 39 H       -5.3170    -6.4060     0.7680 H     1 <1>   0.0800 
 40 H       -9.0230    -5.5660    -2.4100 H     1 <1>   0.0800 
 41 H       -9.0630    -7.2940    -2.0990 H     1 <1>   0.0800 
 42 H       -7.8540    -6.6140    -3.1690 H     1 <1>   0.0800 
 43 H       -8.8140    -4.9590    -0.1330 H     1 <1>   0.0800 
 44 H       -7.6060    -5.6990     0.8870 H     1 <1>   0.0800 
 45 H       -8.9710    -6.6430     0.3320 H     1 <1>   0.0800 
@<TRIPOS>BOND
  1   1   2  1   
  2   2   3  ar  
  3   2   4  ar  
  4   3   5  ar  
  5   3   6  1   
  6   4   7  ar  
  7   4  25  1   
  8   5   8  1   
  9   5   9  ar  
 10   6  26  1   
 11   6  27  1   
 12   6  28  1   
 13   7   9  ar  
 14   7  29  1   
 15   8  10  2   
 16   8  11  2   
 17   8  12  am  
 18   9  30  1   
 19  12  13  1   
 20  12  31  1   
 21  13  14  1   
 22  13  15  1   
 23  13  32  1   
 24  14  16  1   
 25  14  17  1   
 26  14  33  1   
 27  15  18  1   
 28  15  34  1   
 29  15  35  1   
 30  16  18  1   
 31  16  36  1   
 32  16  37  1   
 33  17  19  1   
 34  17  38  1   
 35  17  39  1   
 36  19  20  2   
 37  19  21  2   
 38  19  22  am  
 39  22  23  1   
 40  22  24  1   
 41  23  40  1   
 42  23  41  1   
 43  23  42  1   
 44  24  43  1   
 45  24  44  1   
 46  24  45  1   
@<TRIPOS>SUBSTRUCTURE
  1 ****  17 GROUP 4 **** **** 0

# MOE 2024.06 (io_trps.svl 2023.06)
