@<TRIPOS>MOLECULE
NONAME
50 52 1 0 0 
SMALL
USER_CHARGES


@<TRIPOS>ATOM
  1 O       -1.0070    -0.7850    -2.3460 O.2   1 <1>  -0.5700 
  2 C       -1.5350    -1.0880    -1.3020 C.2   1 <1>   0.5690 
  3 N       -1.6240    -0.2190    -0.2550 N.am  1 <1>  -0.6600 
  4 C       -2.1000    -2.4850    -1.1810 C.3   1 <1>  -0.0190 
  5 C       -2.3330    -0.5780     1.0060 C.3   1 <1>   0.2200 
  6 C       -1.0700     1.1640    -0.3270 C.3   1 <1>   0.0600 
  7 C       -1.3760    -3.2790    -0.0790 C.3   1 <1>   0.1200 
  8 C       -3.6400    -2.4620    -1.1500 C.3   1 <1>   0.1400 
  9 C       -1.6290    -1.7430     1.7460 C.3   1 <1>   0.1200 
 10 C       -3.8490    -0.7590     0.7620 C.3   1 <1>   0.1400 
 11 O       -1.8480    -3.0180     1.2070 O.3   1 <1>  -0.5600 
 12 N       -4.2640    -2.0690     0.1560 N.am  1 <1>  -0.6600 
 13 C       -5.2180    -2.8500     0.7820 C.2   1 <1>   0.5440 
 14 O       -5.9120    -2.3550     1.6510 O.2   1 <1>  -0.5700 
 15 C       -5.4360    -4.2350     0.4150 C.ar  1 <1>   0.0860 
 16 C       -6.6140    -4.6350    -0.2120 C.ar  1 <1>  -0.1500 
 17 C       -4.4770    -5.2130     0.6680 C.ar  1 <1>  -0.1500 
 18 C       -6.8180    -5.9500    -0.5880 C.ar  1 <1>  -0.1500 
 19 C       -4.6750    -6.5290     0.2930 C.ar  1 <1>  -0.1500 
 20 C       -5.8470    -6.9080    -0.3400 C.ar  1 <1>  -0.1430 
 21 C       -6.0640    -8.3590    -0.7530 C.3   1 <1>  -0.0170 
 22 C       -6.4350    -9.2630     0.4370 C.3   1 <1>  -0.0800 
 23 C       -6.5310   -10.7260    -0.0140 C.3   1 <1>  -0.2400 
 24 C       -7.7590    -8.8370     1.0880 C.3   1 <1>  -0.2400 
 25 H       -1.8380    -2.9720    -2.1020 H     1 <1>   0.0800 
 26 H       -2.2450     0.2730     1.6590 H     1 <1>   0.0800 
 27 H       -0.3570     1.3120     0.4650 H     1 <1>   0.0800 
 28 H       -1.8660     1.8810    -0.2300 H     1 <1>   0.0800 
 29 H       -0.5730     1.3300    -1.2670 H     1 <1>   0.0800 
 30 H       -0.3170    -3.0820    -0.1010 H     1 <1>   0.0800 
 31 H       -1.5250    -4.3300    -0.2500 H     1 <1>   0.0800 
 32 H       -3.9880    -3.4370    -1.4400 H     1 <1>   0.0800 
 33 H       -3.9870    -1.7770    -1.9040 H     1 <1>   0.0800 
 34 H       -2.0030    -1.7790     2.7540 H     1 <1>   0.0800 
 35 H       -0.5680    -1.5680     1.7910 H     1 <1>   0.0800 
 36 H       -4.2020     0.0410     0.1360 H     1 <1>   0.0800 
 37 H       -4.3310    -0.6430     1.7160 H     1 <1>   0.0800 
 38 H       -7.3750    -3.8980    -0.3990 H     1 <1>   0.1500 
 39 H       -3.5690    -4.9280     1.1700 H     1 <1>   0.1500 
 40 H       -7.7390    -6.2270    -1.0710 H     1 <1>   0.1500 
 41 H       -3.9140    -7.2610     0.5020 H     1 <1>   0.1500 
 42 H       -6.8370    -8.4120    -1.4990 H     1 <1>   0.0800 
 43 H       -5.1590    -8.7230    -1.2060 H     1 <1>   0.0800 
 44 H       -5.6560    -9.1890     1.1780 H     1 <1>   0.0800 
 45 H       -7.3050   -10.8460    -0.7520 H     1 <1>   0.0800 
 46 H       -6.7560   -11.3610     0.8240 H     1 <1>   0.0800 
 47 H       -5.5970   -11.0490    -0.4390 H     1 <1>   0.0800 
 48 H       -8.5620    -8.8650     0.3730 H     1 <1>   0.0800 
 49 H       -7.6820    -7.8380     1.4800 H     1 <1>   0.0800 
 50 H       -8.0030    -9.4940     1.9040 H     1 <1>   0.0800 
@<TRIPOS>BOND
  1   1   2  2   
  2   2   3  am  
  3   2   4  1   
  4   3   5  1   
  5   3   6  1   
  6   4   7  1   
  7   4   8  1   
  8   4  25  1   
  9   5   9  1   
 10   5  10  1   
 11   5  26  1   
 12   6  27  1   
 13   6  28  1   
 14   6  29  1   
 15   7  11  1   
 16   7  30  1   
 17   7  31  1   
 18   8  12  1   
 19   8  32  1   
 20   8  33  1   
 21   9  11  1   
 22   9  34  1   
 23   9  35  1   
 24  10  12  1   
 25  10  36  1   
 26  10  37  1   
 27  12  13  am  
 28  13  14  2   
 29  13  15  1   
 30  15  16  ar  
 31  15  17  ar  
 32  16  18  ar  
 33  16  38  1   
 34  17  19  ar  
 35  17  39  1   
 36  18  20  ar  
 37  18  40  1   
 38  19  20  ar  
 39  19  41  1   
 40  20  21  1   
 41  21  22  1   
 42  21  42  1   
 43  21  43  1   
 44  22  23  1   
 45  22  24  1   
 46  22  44  1   
 47  23  45  1   
 48  23  46  1   
 49  23  47  1   
 50  24  48  1   
 51  24  49  1   
 52  24  50  1   
@<TRIPOS>SUBSTRUCTURE
  1 ****  15 GROUP 4 **** **** 0

# MOE 2024.06 (io_trps.svl 2023.06)
