@<TRIPOS>MOLECULE
NONAME
48 51 1 0 0 
SMALL
USER_CHARGES


@<TRIPOS>ATOM
  1 S        1.9940    -0.9040    -3.0370 S.3   1 <1>  -0.0800 
  2 C        1.6950    -1.0540    -1.3110 C.2   1 <1>   0.3020 
  3 C        1.6270    -2.5840    -3.2440 C.2   1 <1>  -0.1100 
  4 N        1.3560    -2.2480    -0.9700 N.2   1 <1>  -0.5650 
  5 N        1.8540     0.1190    -0.5080 N.pl3 1 <1>   0.6460 
  6 C        1.3140    -3.1400    -2.0550 C.2   1 <1>   0.1410 
  7 N        1.7640     1.3740    -1.0420 N.2   1 <1>  -0.7070 
  8 C        2.0910     0.2390     0.8260 C.2   1 <1>  -0.3320 
  9 C        0.9550    -4.5360    -1.8450 C.2   1 <1>   0.7160 
 10 C        1.9350     2.2060    -0.0720 C.2   1 <1>   0.1080 
 11 C        2.1470     1.5560     1.1330 C.2   1 <1>  -0.1500 
 12 C        2.2640    -0.9590     1.7240 C.3   1 <1>   1.2000 
 13 O        0.8720    -5.3170    -2.7740 O.2   1 <1>  -0.5700 
 14 N        0.6940    -4.9890    -0.5860 N.am  1 <1>  -0.7300 
 15 C        1.9050     3.7050    -0.2660 C.3   1 <1>  -0.0590 
 16 F        1.1510    -1.6650     1.8610 F     1 <1>  -0.3400 
 17 F        2.6190    -0.5970     2.9480 F     1 <1>  -0.3400 
 18 F        3.2090    -1.7850     1.2990 F     1 <1>  -0.3400 
 19 C        0.3520    -6.3770    -0.2020 C.3   1 <1>   0.2200 
 20 C       -1.1190    -6.5030     0.1680 C.3   1 <1>  -0.0800 
 21 C        1.0070    -6.7000     1.1350 C.3   1 <1>   0.1200 
 22 C       -1.1440    -6.0670     1.6360 C.3   1 <1>   0.1200 
 23 C       -2.1080    -5.7410    -0.7340 C.3   1 <1>  -0.0160 
 24 O        0.1730    -6.1380     2.1030 O.3   1 <1>  -0.5600 
 25 C       -3.5450    -6.0350    -0.3330 C.ar  1 <1>  -0.1430 
 26 C       -4.1940    -7.1780    -0.7540 C.ar  1 <1>  -0.1500 
 27 C       -4.2730    -5.1810     0.4700 C.ar  1 <1>  -0.1500 
 28 C       -5.5020    -7.4080    -0.3580 C.ar  1 <1>   0.1600 
 29 C       -5.5770    -5.5050     0.8080 C.ar  1 <1>   0.1600 
 30 N       -6.2080    -6.6000     0.4160 N.ar  1 <1>  -0.6200 
 31 H        1.6790    -3.0040    -4.2320 H     1 <1>   0.1500 
 32 H        2.3180     2.0290     2.0860 H     1 <1>   0.1500 
 33 H        0.7570    -4.3170     0.1850 H     1 <1>   0.3700 
 34 H        2.0650     4.2110     0.6670 H     1 <1>   0.0800 
 35 H        0.9500     3.9960    -0.6650 H     1 <1>   0.0800 
 36 H        2.6730     3.9940    -0.9600 H     1 <1>   0.0800 
 37 H        0.6460    -7.0690    -0.9740 H     1 <1>   0.0800 
 38 H       -1.3760    -7.5480     0.1400 H     1 <1>   0.0800 
 39 H        1.9970    -6.2900     1.2260 H     1 <1>   0.0800 
 40 H        1.0320    -7.7630     1.3010 H     1 <1>   0.0800 
 41 H       -1.7650    -6.7110     2.2350 H     1 <1>   0.0800 
 42 H       -1.4680    -5.0460     1.7420 H     1 <1>   0.0800 
 43 H       -1.9570    -6.0350    -1.7590 H     1 <1>   0.0800 
 44 H       -1.9320    -4.6810    -0.6750 H     1 <1>   0.0800 
 45 H       -3.6970    -7.8900    -1.3850 H     1 <1>   0.1500 
 46 H       -3.8420    -4.2670     0.8360 H     1 <1>   0.1500 
 47 H       -5.9920    -8.3050    -0.6960 H     1 <1>   0.1500 
 48 H       -6.1290    -4.8270     1.4360 H     1 <1>   0.1500 
@<TRIPOS>BOND
  1   1   2  1   
  2   1   3  1   
  3   2   4  2   
  4   2   5  1   
  5   3   6  2   
  6   3  31  1   
  7   4   6  1   
  8   5   7  1   
  9   5   8  1   
 10   6   9  1   
 11   7  10  2   
 12   8  11  2   
 13   8  12  1   
 14   9  13  2   
 15   9  14  am  
 16  10  11  1   
 17  10  15  1   
 18  11  32  1   
 19  12  16  1   
 20  12  17  1   
 21  12  18  1   
 22  14  19  1   
 23  14  33  1   
 24  15  34  1   
 25  15  35  1   
 26  15  36  1   
 27  19  20  1   
 28  19  21  1   
 29  19  37  1   
 30  20  22  1   
 31  20  23  1   
 32  20  38  1   
 33  21  24  1   
 34  21  39  1   
 35  21  40  1   
 36  22  24  1   
 37  22  41  1   
 38  22  42  1   
 39  23  25  1   
 40  23  43  1   
 41  23  44  1   
 42  25  26  ar  
 43  25  27  ar  
 44  26  28  ar  
 45  26  45  1   
 46  27  29  ar  
 47  27  46  1   
 48  28  30  ar  
 49  28  47  1   
 50  29  30  ar  
 51  29  48  1   
@<TRIPOS>SUBSTRUCTURE
  1 ****   4 GROUP 4 **** **** 0

# MOE 2024.06 (io_trps.svl 2023.06)
