@<TRIPOS>MOLECULE
NONAME
31 33 1 0 0 
SMALL
USER_CHARGES


@<TRIPOS>ATOM
  1 O       -0.7870     0.0070    -0.9010 O.2   1 <1>  -0.5700 
  2 C       -1.7780     0.6620    -0.6280 C.2   1 <1>   0.7160 
  3 N       -2.9070     0.0170    -0.2020 N.am  1 <1>  -0.6600 
  4 C       -1.7340     2.1010    -0.7670 C.2   1 <1>  -0.0860 
  5 C       -4.0520     0.6530     0.5080 C.3   1 <1>   0.2350 
  6 C       -3.0110    -1.4640    -0.0960 C.3   1 <1>   0.2350 
  7 C       -0.7770     2.9790    -0.3560 C.2   1 <1>  -0.0400 
  8 C       -2.6940     2.9170    -1.4030 C.2   1 <1>  -0.1500 
  9 C       -5.1180    -0.4230     0.5890 C.3   1 <1>  -0.2420 
 10 C       -4.4710    -1.7380     0.2220 C.3   1 <1>  -0.2420 
 11 O       -1.0900     4.2110    -0.6810 O.3   1 <1>  -0.2800 
 12 C        0.5220     2.7390     0.3850 C.3   1 <1>  -0.0600 
 13 C       -2.2430     4.1830    -1.3120 C.2   1 <1>  -0.0100 
 14 C       -6.1750    -0.0450     1.6300 C.2   1 <1>   0.9470 
 15 C       -5.5590    -1.1630    -0.6490 C.3   1 <1>  -0.2000 
 16 C       -4.6480    -3.1450     0.7980 C.2   1 <1>   0.9470 
 17 O       -7.3590     0.0660     1.2850 O.co2 1 <1>  -0.9000 
 18 O       -5.8000     0.3210     2.7530 O.co2 1 <1>  -0.9000 
 19 O       -5.3690    -3.9590     0.2050 O.co2 1 <1>  -0.9000 
 20 O       -3.9420    -3.4940     1.7540 O.co2 1 <1>  -0.9000 
 21 H       -3.7410     0.9420     1.4980 H     1 <1>   0.0800 
 22 H       -4.4340     1.5070    -0.0170 H     1 <1>   0.0800 
 23 H       -2.7200    -1.9410    -1.0150 H     1 <1>   0.0800 
 24 H       -2.3820    -1.8100     0.7080 H     1 <1>   0.0800 
 25 H       -3.5970     2.5540    -1.8630 H     1 <1>   0.1500 
 26 H        0.6430     1.6940     0.6060 H     1 <1>   0.0800 
 27 H        0.5200     3.2920     1.3060 H     1 <1>   0.0800 
 28 H        1.3480     3.0660    -0.2190 H     1 <1>   0.0800 
 29 H       -2.6670     5.1080    -1.6620 H     1 <1>   0.1500 
 30 H       -5.3120    -0.7750    -1.6190 H     1 <1>   0.1000 
 31 H       -6.5220    -1.6470    -0.6300 H     1 <1>   0.1000 
@<TRIPOS>BOND
  1   1   2  2   
  2   2   3  am  
  3   2   4  1   
  4   3   5  1   
  5   3   6  1   
  6   4   7  2   
  7   4   8  1   
  8   5   9  1   
  9   5  21  1   
 10   5  22  1   
 11   6  10  1   
 12   6  23  1   
 13   6  24  1   
 14   7  11  1   
 15   7  12  1   
 16   8  13  2   
 17   8  25  1   
 18   9  10  1   
 19   9  14  1   
 20   9  15  1   
 21  10  15  1   
 22  10  16  1   
 23  11  13  1   
 24  12  26  1   
 25  12  27  1   
 26  12  28  1   
 27  13  29  1   
 28  14  17  ar  
 29  14  18  ar  
 30  15  30  1   
 31  15  31  1   
 32  16  19  ar  
 33  16  20  ar  
@<TRIPOS>SUBSTRUCTURE
  1 ****   3 GROUP 4 **** **** 0

# MOE 2024.06 (io_trps.svl 2023.06)
