@<TRIPOS>MOLECULE
NONAME
43 45 1 0 0 
SMALL
USER_CHARGES


@<TRIPOS>ATOM
  1 S       -3.1690    -1.7720    -1.3080 S.3   1 <1>  -0.0800 
  2 C       -2.8540    -3.4410    -1.7630 C.2   1 <1>  -0.1400 
  3 C       -4.7370    -1.8080    -2.0940 C.2   1 <1>  -0.1100 
  4 C       -3.8880    -3.9390    -2.4690 C.2   1 <1>  -0.1500 
  5 C       -1.5390    -4.0480    -1.3270 C.3   1 <1>   0.5230 
  6 C       -4.9610    -3.0110    -2.6520 C.2   1 <1>  -0.1500 
  7 N       -1.7510    -4.7900    -0.0590 N.4   1 <1>  -0.9590 
  8 C       -2.2020    -3.9360     1.0950 C.3   1 <1>   0.3430 
  9 C       -0.6600    -5.7270     0.3030 C.3   1 <1>   0.3430 
 10 C       -2.7030    -4.8060     2.2680 C.3   1 <1>   0.2090 
 11 C       -1.2570    -7.1180     0.5480 C.3   1 <1>  -0.1600 
 12 N       -3.2330    -6.1040     1.7470 N.pl3 1 <1>  -0.8380 
 13 C       -2.2650    -7.2370     1.7080 C.3   1 <1>   0.2090 
 14 C       -4.3750    -6.0780     0.9800 C.ar  1 <1>   0.7200 
 15 N       -4.2970    -6.7020    -0.1900 N.ar  1 <1>  -0.6200 
 16 N       -5.3780    -5.3420     1.4430 N.ar  1 <1>  -0.6200 
 17 C       -5.3550    -6.6230    -0.9650 C.ar  1 <1>   0.4100 
 18 C       -6.4360    -5.2640     0.6580 C.ar  1 <1>   0.1600 
 19 N       -5.2010    -7.3020    -2.1520 N.pl3 1 <1>  -0.8690 
 20 C       -6.4680    -5.8870    -0.5570 C.ar  1 <1>   0.1900 
 21 C       -6.3370    -7.7970    -2.9730 C.3   1 <1>   0.1290 
 22 F       -7.5390    -5.7620    -1.3110 F     1 <1>  -0.1900 
 23 H       -5.3340    -0.9130    -2.0580 H     1 <1>   0.1500 
 24 H       -3.9600    -4.9340    -2.8780 H     1 <1>   0.1500 
 25 H       -0.7950    -3.2780    -1.2020 H     1 <1>   0.0800 
 26 H       -1.2050    -4.7310    -2.0910 H     1 <1>   0.0800 
 27 H       -5.8470    -3.2940    -3.1950 H     1 <1>   0.1500 
 28 H       -2.5740    -5.4070    -0.2200 H     1 <1>   0.4500 
 29 H       -3.0290    -3.3220     0.7800 H     1 <1>   0.0800 
 30 H       -1.4120    -3.2830     1.4270 H     1 <1>   0.0800 
 31 H       -0.1470    -5.3830     1.1860 H     1 <1>   0.0800 
 32 H        0.0550    -5.7900    -0.5010 H     1 <1>   0.0800 
 33 H       -3.4690    -4.2780     2.8110 H     1 <1>   0.0800 
 34 H       -1.8960    -4.9900     2.9550 H     1 <1>   0.0800 
 35 H       -0.4500    -7.8000     0.7480 H     1 <1>   0.0800 
 36 H       -1.7210    -7.4650    -0.3580 H     1 <1>   0.0800 
 37 H       -1.7390    -7.2750     2.6470 H     1 <1>   0.0800 
 38 H       -2.8100    -8.1630     1.6130 H     1 <1>   0.0800 
 39 H       -7.2840    -4.6910     0.9920 H     1 <1>   0.1500 
 40 H       -4.4100    -7.9520    -2.1220 H     1 <1>   0.4000 
 41 H       -7.0750    -8.2640    -2.3440 H     1 <1>   0.0800 
 42 H       -5.9840    -8.5170    -3.6910 H     1 <1>   0.0800 
 43 H       -6.7910    -6.9760    -3.5030 H     1 <1>   0.0800 
@<TRIPOS>BOND
  1   1   2  1   
  2   1   3  1   
  3   2   4  2   
  4   2   5  1   
  5   3   6  2   
  6   3  23  1   
  7   4   6  1   
  8   4  24  1   
  9   5   7  1   
 10   5  25  1   
 11   5  26  1   
 12   6  27  1   
 13   7   8  1   
 14   7   9  1   
 15   7  28  1   
 16   8  10  1   
 17   8  29  1   
 18   8  30  1   
 19   9  11  1   
 20   9  31  1   
 21   9  32  1   
 22  10  12  1   
 23  10  33  1   
 24  10  34  1   
 25  11  13  1   
 26  11  35  1   
 27  11  36  1   
 28  12  13  1   
 29  12  14  1   
 30  13  37  1   
 31  13  38  1   
 32  14  15  ar  
 33  14  16  ar  
 34  15  17  ar  
 35  16  18  ar  
 36  17  19  1   
 37  17  20  ar  
 38  18  20  ar  
 39  18  39  1   
 40  19  21  1   
 41  19  40  1   
 42  20  22  1   
 43  21  41  1   
 44  21  42  1   
 45  21  43  1   
@<TRIPOS>SUBSTRUCTURE
  1 ****  15 GROUP 4 **** **** 0

# MOE 2024.06 (io_trps.svl 2023.06)
