@<TRIPOS>MOLECULE
NONAME
57 59 1 0 0 
SMALL
USER_CHARGES


@<TRIPOS>ATOM
  1 O       -2.2760     0.7980    -1.7960 O.2   1 <1>  -0.5700 
  2 C       -2.0700     0.9330    -0.6140 C.2   1 <1>   0.5690 
  3 N       -2.0900    -0.1290     0.2290 N.am  1 <1>  -0.7300 
  4 C       -1.7990     2.3210    -0.0350 C.3   1 <1>  -0.0190 
  5 C       -2.3530    -1.5240    -0.1860 C.3   1 <1>   0.2200 
  6 C       -3.0470     3.2140    -0.1260 C.3   1 <1>  -0.1600 
  7 C       -0.6110     3.0050    -0.7320 C.3   1 <1>  -0.1600 
  8 C       -3.7970    -1.8720     0.1320 C.3   1 <1>  -0.0800 
  9 C       -1.5950    -2.4810     0.7260 C.3   1 <1>   0.1200 
 10 C       -2.7850     4.6120     0.4540 C.3   1 <1>  -0.1600 
 11 C       -0.3440     4.4010    -0.1510 C.3   1 <1>  -0.1600 
 12 C       -3.7160    -2.2890     1.6060 C.3   1 <1>   0.1200 
 13 C       -4.3140    -3.0070    -0.7710 C.3   1 <1>  -0.0170 
 14 O       -2.3830    -2.6260     1.8690 O.3   1 <1>  -0.5600 
 15 C       -1.5910     5.3160    -0.2350 C.3   1 <1>  -0.0800 
 16 C       -5.7720    -3.3290    -0.4780 C.ar  1 <1>  -0.1430 
 17 C       -1.3400     6.7790     0.2700 C.3   1 <1>   0.0000 
 18 C       -6.1510    -4.4630     0.2120 C.ar  1 <1>  -0.1500 
 19 C       -6.7930    -2.4990    -0.8930 C.ar  1 <1>  -0.1500 
 20 C       -2.5940     7.6480     0.0620 C.3   1 <1>  -0.2400 
 21 C       -0.2040     7.4420    -0.5310 C.3   1 <1>  -0.2400 
 22 C       -0.9650     6.8400     1.7620 C.3   1 <1>  -0.2400 
 23 C       -7.4940    -4.7010     0.4520 C.ar  1 <1>   0.1600 
 24 C       -8.1060    -2.8290    -0.6010 C.ar  1 <1>   0.1600 
 25 N       -8.4810    -3.9100     0.0640 N.ar  1 <1>  -0.6200 
 26 H       -1.9620    -0.0040     1.2350 H     1 <1>   0.3700 
 27 H       -1.5490     2.2050     1.0040 H     1 <1>   0.0800 
 28 H       -2.0990    -1.6590    -1.2240 H     1 <1>   0.0800 
 29 H       -3.3420     3.3070    -1.1580 H     1 <1>   0.0800 
 30 H       -3.8600     2.7510     0.4050 H     1 <1>   0.0800 
 31 H        0.2690     2.3960    -0.6220 H     1 <1>   0.0800 
 32 H       -0.8180     3.0920    -1.7850 H     1 <1>   0.0800 
 33 H       -4.4370    -1.0160     0.0090 H     1 <1>   0.0800 
 34 H       -0.6220    -2.1130     0.9990 H     1 <1>   0.0800 
 35 H       -1.5020    -3.4500     0.2680 H     1 <1>   0.0800 
 36 H       -2.5970     4.5170     1.5080 H     1 <1>   0.0800 
 37 H       -3.6840     5.1870     0.3280 H     1 <1>   0.0800 
 38 H        0.4730     4.8290    -0.7020 H     1 <1>   0.0800 
 39 H       -0.0340     4.2960     0.8730 H     1 <1>   0.0800 
 40 H       -4.3410    -3.1320     1.8410 H     1 <1>   0.0800 
 41 H       -3.9740    -1.4650     2.2480 H     1 <1>   0.0800 
 42 H       -3.7160    -3.8920    -0.6410 H     1 <1>   0.0800 
 43 H       -4.2310    -2.7070    -1.8010 H     1 <1>   0.0800 
 44 H       -1.8430     5.3940    -1.2800 H     1 <1>   0.0800 
 45 H       -5.4170    -5.1640     0.5660 H     1 <1>   0.1500 
 46 H       -6.5800    -1.5980    -1.4390 H     1 <1>   0.1500 
 47 H       -2.3830     8.6800     0.2810 H     1 <1>   0.0800 
 48 H       -3.3950     7.3430     0.7090 H     1 <1>   0.0800 
 49 H       -2.9320     7.5840    -0.9580 H     1 <1>   0.0800 
 50 H       -0.1190     8.4850    -0.2800 H     1 <1>   0.0800 
 51 H       -0.3920     7.3650    -1.5870 H     1 <1>   0.0800 
 52 H        0.7450     6.9860    -0.3170 H     1 <1>   0.0800 
 53 H       -0.8030     7.8600     2.0630 H     1 <1>   0.0800 
 54 H       -0.0610     6.2940     1.9580 H     1 <1>   0.0800 
 55 H       -1.7490     6.4390     2.3770 H     1 <1>   0.0800 
 56 H       -7.7710    -5.5900     0.9920 H     1 <1>   0.1500 
 57 H       -8.8890    -2.1690    -0.9320 H     1 <1>   0.1500 
@<TRIPOS>BOND
  1   1   2  2   
  2   2   3  am  
  3   2   4  1   
  4   3   5  1   
  5   3  26  1   
  6   4   6  1   
  7   4   7  1   
  8   4  27  1   
  9   5   8  1   
 10   5   9  1   
 11   5  28  1   
 12   6  10  1   
 13   6  29  1   
 14   6  30  1   
 15   7  11  1   
 16   7  31  1   
 17   7  32  1   
 18   8  12  1   
 19   8  13  1   
 20   8  33  1   
 21   9  14  1   
 22   9  34  1   
 23   9  35  1   
 24  10  15  1   
 25  10  36  1   
 26  10  37  1   
 27  11  15  1   
 28  11  38  1   
 29  11  39  1   
 30  12  14  1   
 31  12  40  1   
 32  12  41  1   
 33  13  16  1   
 34  13  42  1   
 35  13  43  1   
 36  15  17  1   
 37  15  44  1   
 38  16  18  ar  
 39  16  19  ar  
 40  17  20  1   
 41  17  21  1   
 42  17  22  1   
 43  18  23  ar  
 44  18  45  1   
 45  19  24  ar  
 46  19  46  1   
 47  20  47  1   
 48  20  48  1   
 49  20  49  1   
 50  21  50  1   
 51  21  51  1   
 52  21  52  1   
 53  22  53  1   
 54  22  54  1   
 55  22  55  1   
 56  23  25  ar  
 57  23  56  1   
 58  24  25  ar  
 59  24  57  1   
@<TRIPOS>SUBSTRUCTURE
  1 ****   2 GROUP 4 **** **** 0

# MOE 2024.06 (io_trps.svl 2023.06)
