@<TRIPOS>MOLECULE
NONAME
41 43 1 0 0 
SMALL
USER_CHARGES


@<TRIPOS>ATOM
  1 N       -0.3620    -0.4440     0.1090 N.ar  1 <1>  -0.6200 
  2 C       -0.3640    -1.7210    -0.2240 C.ar  1 <1>   0.4100 
  3 C        0.8200     0.1110     0.2900 C.ar  1 <1>   0.4760 
  4 N       -1.5860    -2.3420    -0.4110 N.pl3 1 <1>  -0.8380 
  5 C        0.8280    -2.4050    -0.3800 C.ar  1 <1>  -0.1500 
  6 N        2.0100    -0.4520     0.1730 N.ar  1 <1>  -0.6200 
  7 C        0.8200     1.5710     0.6730 C.3   1 <1>  -0.0970 
  8 C       -1.8420    -3.6860     0.1780 C.3   1 <1>   0.2090 
  9 C       -2.8070    -1.5180    -0.6510 C.3   1 <1>   0.1290 
 10 C        1.9940    -1.7240    -0.1680 C.ar  1 <1>   0.1600 
 11 C       -2.0050    -4.7170    -0.9360 C.3   1 <1>   0.0960 
 12 N       -2.2460    -6.0450    -0.3440 N.pl3 1 <1>   0.0480 
 13 C       -3.4710    -6.5060     0.0850 C.ar  1 <1>  -0.1520 
 14 C       -1.3100    -7.0040    -0.0480 C.2   1 <1>  -0.3320 
 15 C       -3.2940    -7.7650     0.6470 C.ar  1 <1>   0.0000 
 16 C       -4.7430    -5.9250     0.0360 C.ar  1 <1>  -0.1500 
 17 C       -1.9180    -8.0560     0.5490 C.2   1 <1>  -0.1500 
 18 C        0.1700    -6.8630    -0.3600 C.3   1 <1>  -0.0600 
 19 C       -4.3910    -8.4600     1.1650 C.ar  1 <1>  -0.1500 
 20 C       -5.8160    -6.6170     0.5500 C.ar  1 <1>  -0.1500 
 21 C       -5.6400    -7.8860     1.1150 C.ar  1 <1>  -0.1500 
 22 H        0.8300    -3.4350    -0.6660 H     1 <1>   0.1500 
 23 H       -0.1480     1.8630     1.0350 H     1 <1>   0.0800 
 24 H        1.0680     2.1620    -0.1880 H     1 <1>   0.0800 
 25 H        1.5470     1.7450     1.4430 H     1 <1>   0.0800 
 26 H       -2.7360    -3.6520     0.7780 H     1 <1>   0.0800 
 27 H       -1.0230    -3.9690     0.8180 H     1 <1>   0.0800 
 28 H       -2.5640    -0.6730    -1.2720 H     1 <1>   0.0800 
 29 H       -3.1910    -1.1590     0.2880 H     1 <1>   0.0800 
 30 H       -3.5610    -2.1020    -1.1470 H     1 <1>   0.0800 
 31 H        2.9420    -2.2220    -0.2800 H     1 <1>   0.1500 
 32 H       -1.1180    -4.7520    -1.5390 H     1 <1>   0.0800 
 33 H       -2.8390    -4.4580    -1.5610 H     1 <1>   0.0800 
 34 H       -4.8780    -4.9520    -0.3990 H     1 <1>   0.1500 
 35 H       -1.4760    -8.9700     0.9030 H     1 <1>   0.1500 
 36 H        0.5800    -6.0110     0.1510 H     1 <1>   0.0800 
 37 H        0.3170    -6.7490    -1.4190 H     1 <1>   0.0800 
 38 H        0.6990    -7.7420    -0.0360 H     1 <1>   0.0800 
 39 H       -4.2390    -9.4330     1.5950 H     1 <1>   0.1500 
 40 H       -6.8020    -6.1890     0.5220 H     1 <1>   0.1500 
 41 H       -6.4940    -8.4070     1.5090 H     1 <1>   0.1500 
@<TRIPOS>BOND
  1   1   2  ar  
  2   1   3  ar  
  3   2   4  1   
  4   2   5  ar  
  5   3   6  ar  
  6   3   7  1   
  7   4   8  1   
  8   4   9  1   
  9   5  10  ar  
 10   5  22  1   
 11   6  10  ar  
 12   7  23  1   
 13   7  24  1   
 14   7  25  1   
 15   8  11  1   
 16   8  26  1   
 17   8  27  1   
 18   9  28  1   
 19   9  29  1   
 20   9  30  1   
 21  10  31  1   
 22  11  12  1   
 23  11  32  1   
 24  11  33  1   
 25  12  13  1   
 26  12  14  1   
 27  13  15  ar  
 28  13  16  ar  
 29  14  17  2   
 30  14  18  1   
 31  15  17  1   
 32  15  19  ar  
 33  16  20  ar  
 34  16  34  1   
 35  17  35  1   
 36  18  36  1   
 37  18  37  1   
 38  18  38  1   
 39  19  21  ar  
 40  19  39  1   
 41  20  21  ar  
 42  20  40  1   
 43  21  41  1   
@<TRIPOS>SUBSTRUCTURE
  1 ****   8 GROUP 4 **** **** 0

# MOE 2024.06 (io_trps.svl 2023.06)
