@<TRIPOS>MOLECULE
NONAME
44 46 1 0 0 
SMALL
USER_CHARGES


@<TRIPOS>ATOM
  1 F       -0.2430     0.8470    -0.5800 F     1 <1>  -0.1900 
  2 C       -1.5380     1.0230    -0.5030 C.ar  1 <1>   0.1900 
  3 C       -2.1020     2.0720     0.2320 C.ar  1 <1>   0.0830 
  4 C       -2.3230     0.1180    -1.1890 C.ar  1 <1>  -0.1500 
  5 O       -1.4370     3.0250     0.9470 O.3   1 <1>  -0.3630 
  6 C       -3.4830     2.1740     0.2500 C.ar  1 <1>  -0.1500 
  7 C       -3.6990     0.2490    -1.1510 C.ar  1 <1>  -0.1500 
  8 C       -0.0320     3.0510     1.0750 C.3   1 <1>   0.0400 
  9 C       -4.3090     1.2760    -0.4280 C.ar  1 <1>   0.0530 
 10 C       -5.7420     1.4290    -0.3870 C.2   1 <1>   0.0870 
 11 O       -6.2560     2.6300    -0.4770 O.3   1 <1>  -0.0190 
 12 C       -6.7850     0.5590    -0.2750 C.2   1 <1>  -0.0860 
 13 N       -7.5610     2.6330    -0.4450 N.2   1 <1>  -0.4100 
 14 C       -7.9050     1.4010    -0.3260 C.2   1 <1>   0.3720 
 15 C       -6.8110    -0.8660    -0.1210 C.2   1 <1>   0.7160 
 16 N       -9.2470     0.9920    -0.2410 N.pl3 1 <1>  -0.8210 
 17 O       -5.8000    -1.5000     0.1120 O.2   1 <1>  -0.5700 
 18 N       -7.9880    -1.5340    -0.2300 N.am  1 <1>  -0.6550 
 19 C       -9.8140     1.1970     1.1200 C.3   1 <1>   0.1290 
 20 C      -10.1210     1.6000    -1.2850 C.3   1 <1>   0.1290 
 21 C       -8.2210    -2.9720    -0.0180 C.3   1 <1>   0.2250 
 22 C       -9.2510    -3.5660    -1.0120 C.3   1 <1>   0.0000 
 23 C       -9.2490    -3.2510     1.1090 C.3   1 <1>   0.0000 
 24 C       -9.8410    -4.3480     0.1890 C.3   1 <1>   0.0000 
 25 H       -1.8630    -0.6800    -1.7440 H     1 <1>   0.1500 
 26 H       -3.9290     2.9760     0.8100 H     1 <1>   0.1500 
 27 H       -4.3090    -0.4550    -1.6890 H     1 <1>   0.1500 
 28 H        0.2310     3.8830     1.7030 H     1 <1>   0.0800 
 29 H        0.4060     3.1780     0.1010 H     1 <1>   0.0800 
 30 H        0.2950     2.1330     1.5290 H     1 <1>   0.0800 
 31 H       -8.8190    -0.9360    -0.3390 H     1 <1>   0.3700 
 32 H       -9.1800     0.7310     1.8560 H     1 <1>   0.0800 
 33 H      -10.7950     0.7590     1.1820 H     1 <1>   0.0800 
 34 H       -9.8800     2.2500     1.3390 H     1 <1>   0.0800 
 35 H       -9.6520     1.5110    -2.2510 H     1 <1>   0.0800 
 36 H      -10.2820     2.6440    -1.0750 H     1 <1>   0.0800 
 37 H      -11.0690     1.0920    -1.3130 H     1 <1>   0.0800 
 38 H       -7.3230    -3.5580     0.0670 H     1 <1>   0.0000 
 39 H       -8.8160    -4.2040    -1.7610 H     1 <1>   0.0000 
 40 H       -9.9410    -2.8380    -1.4040 H     1 <1>   0.0000 
 41 H       -9.9380    -2.4400     1.2730 H     1 <1>   0.0000 
 42 H       -8.8120    -3.6440     2.0100 H     1 <1>   0.0000 
 43 H       -9.3710    -5.3070     0.3300 H     1 <1>   0.0000 
 44 H      -10.9160    -4.3890     0.1960 H     1 <1>   0.0000 
@<TRIPOS>BOND
  1   1   2  1   
  2   2   3  ar  
  3   2   4  ar  
  4   3   5  1   
  5   3   6  ar  
  6   4   7  ar  
  7   4  25  1   
  8   5   8  1   
  9   6   9  ar  
 10   6  26  1   
 11   7   9  ar  
 12   7  27  1   
 13   8  28  1   
 14   8  29  1   
 15   8  30  1   
 16   9  10  1   
 17  10  11  1   
 18  10  12  2   
 19  11  13  1   
 20  12  14  1   
 21  12  15  1   
 22  13  14  2   
 23  14  16  1   
 24  15  17  2   
 25  15  18  am  
 26  16  19  1   
 27  16  20  1   
 28  18  21  1   
 29  18  31  1   
 30  19  32  1   
 31  19  33  1   
 32  19  34  1   
 33  20  35  1   
 34  20  36  1   
 35  20  37  1   
 36  21  22  1   
 37  21  23  1   
 38  21  38  1   
 39  22  24  1   
 40  22  39  1   
 41  22  40  1   
 42  23  24  1   
 43  23  41  1   
 44  23  42  1   
 45  24  43  1   
 46  24  44  1   
@<TRIPOS>SUBSTRUCTURE
  1 ****  12 GROUP 4 **** **** 0

# MOE 2024.06 (io_trps.svl 2023.06)
