@<TRIPOS>MOLECULE
NONAME
52 55 1 0 0 
SMALL
USER_CHARGES


@<TRIPOS>ATOM
  1 O       -1.4310     1.9400    -3.0870 O.2   1 <1>  -0.5700 
  2 C       -1.1200     1.6770    -1.9510 C.2   1 <1>   0.5690 
  3 N       -1.8870     1.0100    -1.0570 N.am  1 <1>  -0.6600 
  4 C        0.1710     2.1270    -1.3320 C.3   1 <1>  -0.0990 
  5 C       -1.2030     0.9360     0.2540 C.3   1 <1>   0.1400 
  6 C       -3.3640     1.0340    -1.1280 C.3   1 <1>   0.2840 
  7 C       -0.1500     2.0480     0.1630 C.3   1 <1>   0.2890 
  8 C       -3.8640     2.3130    -0.4650 C.ar  1 <1>  -0.1440 
  9 N       -0.7910     3.3160     0.5890 N.pl3 1 <1>  -0.8690 
 10 C       -4.3800     2.2930     0.8220 C.ar  1 <1>  -0.1500 
 11 C       -3.7900     3.5190    -1.1470 C.ar  1 <1>  -0.1500 
 12 C       -0.1110     4.4740     0.8370 C.ar  1 <1>   0.4100 
 13 C       -4.8110     3.4640     1.4210 C.ar  1 <1>  -0.1500 
 14 C       -4.2220     4.6900    -0.5500 C.ar  1 <1>  -0.1500 
 15 N        1.2130     4.4110     0.8830 N.ar  1 <1>  -0.6200 
 16 C       -0.8200     5.6570     1.0160 C.ar  1 <1>  -0.1500 
 17 C       -4.7320     4.6630     0.7360 C.ar  1 <1>  -0.1500 
 18 C        1.8410     5.5550     1.0940 C.ar  1 <1>   0.1600 
 19 C       -0.1500     6.8370     1.2280 C.ar  1 <1>  -0.1500 
 20 C        1.2410     6.8020     1.2530 C.ar  1 <1>   0.0860 
 21 C        2.0510     7.9820     1.4370 C.2   1 <1>   0.5440 
 22 O        3.0260     7.9240     2.1630 O.2   1 <1>  -0.5700 
 23 N        1.7680     9.1740     0.8030 N.am  1 <1>  -0.6600 
 24 C        1.0500     9.2700    -0.5050 C.3   1 <1>   0.1400 
 25 C        2.4140    10.4600     1.2110 C.3   1 <1>   0.1400 
 26 C        1.9370     9.9450    -1.5660 C.3   1 <1>   0.1200 
 27 C        3.2250    11.0530     0.0490 C.3   1 <1>   0.1200 
 28 O        2.4290    11.1680    -1.0970 O.3   1 <1>  -0.5600 
 29 H        0.4440     3.1170    -1.6430 H     1 <1>   0.0800 
 30 H        0.9450     1.4310    -1.5920 H     1 <1>   0.0800 
 31 H       -0.7270    -0.0240     0.3500 H     1 <1>   0.0800 
 32 H       -1.8720     1.0970     1.0810 H     1 <1>   0.0800 
 33 H       -3.7630     0.1660    -0.6350 H     1 <1>   0.0800 
 34 H       -3.6750     1.0120    -2.1590 H     1 <1>   0.0800 
 35 H        0.7160     1.8450     0.7700 H     1 <1>   0.0800 
 36 H       -1.7790     3.3940     0.3100 H     1 <1>   0.4000 
 37 H       -4.4470     1.3670     1.3660 H     1 <1>   0.1500 
 38 H       -3.3920     3.5460    -2.1480 H     1 <1>   0.1500 
 39 H       -5.2100     3.4410     2.4210 H     1 <1>   0.1500 
 40 H       -4.1620     5.6190    -1.0890 H     1 <1>   0.1500 
 41 H       -1.8930     5.6280     0.9860 H     1 <1>   0.1500 
 42 H       -5.0710     5.5720     1.2010 H     1 <1>   0.1500 
 43 H        2.9160     5.5150     1.1440 H     1 <1>   0.1500 
 44 H       -0.6760     7.7630     1.3750 H     1 <1>   0.1500 
 45 H        0.1520     9.8490    -0.3750 H     1 <1>   0.0800 
 46 H        0.7720     8.2940    -0.8600 H     1 <1>   0.0800 
 47 H        3.0610    10.3110     2.0580 H     1 <1>   0.0800 
 48 H        1.6520    11.1610     1.5020 H     1 <1>   0.0800 
 49 H        1.3670    10.1410    -2.4570 H     1 <1>   0.0800 
 50 H        2.7700     9.3140    -1.8200 H     1 <1>   0.0800 
 51 H        4.0720    10.4280    -0.1760 H     1 <1>   0.0800 
 52 H        3.5780    12.0360     0.3050 H     1 <1>   0.0800 
@<TRIPOS>BOND
  1   1   2  2   
  2   2   3  am  
  3   2   4  1   
  4   3   5  1   
  5   3   6  1   
  6   4   7  1   
  7   4  29  1   
  8   4  30  1   
  9   5   7  1   
 10   5  31  1   
 11   5  32  1   
 12   6   8  1   
 13   6  33  1   
 14   6  34  1   
 15   7   9  1   
 16   7  35  1   
 17   8  10  ar  
 18   8  11  ar  
 19   9  12  1   
 20   9  36  1   
 21  10  13  ar  
 22  10  37  1   
 23  11  14  ar  
 24  11  38  1   
 25  12  15  ar  
 26  12  16  ar  
 27  13  17  ar  
 28  13  39  1   
 29  14  17  ar  
 30  14  40  1   
 31  15  18  ar  
 32  16  19  ar  
 33  16  41  1   
 34  17  42  1   
 35  18  20  ar  
 36  18  43  1   
 37  19  20  ar  
 38  19  44  1   
 39  20  21  1   
 40  21  22  2   
 41  21  23  am  
 42  23  24  1   
 43  23  25  1   
 44  24  26  1   
 45  24  45  1   
 46  24  46  1   
 47  25  27  1   
 48  25  47  1   
 49  25  48  1   
 50  26  28  1   
 51  26  49  1   
 52  26  50  1   
 53  27  28  1   
 54  27  51  1   
 55  27  52  1   
@<TRIPOS>SUBSTRUCTURE
  1 ****  16 GROUP 4 **** **** 0

# MOE 2024.06 (io_trps.svl 2023.06)
