@<TRIPOS>MOLECULE
NONAME
64 68 1 0 0 
SMALL
USER_CHARGES


@<TRIPOS>ATOM
  1 O       -2.0190     0.3900     0.8420 O.3   1 <1>  -0.6800 
  2 C       -2.6640    -0.5560     0.0610 C.3   1 <1>   0.1200 
  3 C       -3.2460    -1.6280     0.9890 C.3   1 <1>   0.1100 
  4 N       -3.9740    -2.6750     0.2370 N.3   1 <1>  -0.8100 
  5 C       -5.3050    -2.2160    -0.2060 C.3   1 <1>   0.1100 
  6 C       -4.0870    -3.9030     1.0440 C.3   1 <1>   0.1100 
  7 C       -6.0500    -3.3160    -0.9900 C.3   1 <1>   0.3430 
  8 C       -4.8130    -5.0220     0.2710 C.3   1 <1>   0.3430 
  9 N       -6.1840    -4.6000    -0.2040 N.4   1 <1>  -0.9590 
 10 C       -6.9050    -5.6780    -0.9590 C.3   1 <1>   0.4230 
 11 C       -8.3030    -5.1920    -1.3700 C.3   1 <1>  -0.1600 
 12 C       -7.0120    -6.9520    -0.1040 C.3   1 <1>  -0.1600 
 13 C       -9.0890    -6.3060    -2.0540 C.3   1 <1>   0.2090 
 14 C       -7.8470    -8.0390    -0.7840 C.3   1 <1>   0.2090 
 15 N       -9.1780    -7.4770    -1.1360 N.pl3 1 <1>  -0.8380 
 16 C      -10.3580    -7.9080    -0.6360 C.ar  1 <1>   0.4100 
 17 N      -11.2660    -6.9580    -0.4280 N.ar  1 <1>  -0.6200 
 18 C      -10.6360    -9.2760    -0.3010 C.ar  1 <1>   0.0000 
 19 C      -12.3580    -7.2420     0.2410 C.ar  1 <1>   0.6710 
 20 C      -11.7740    -9.5230     0.4740 C.ar  1 <1>   0.3610 
 21 C       -9.8990   -10.3990    -0.7270 C.ar  1 <1>  -0.1500 
 22 N      -12.5950    -8.4650     0.7300 N.ar  1 <1>  -0.1790 
 23 C      -13.3360    -6.2170     0.4990 C.ar  1 <1>   0.0000 
 24 C      -12.0770   -10.8160     0.9200 C.ar  1 <1>  -0.1500 
 25 C      -10.2110   -11.6680    -0.3050 C.ar  1 <1>  -0.1500 
 26 C      -14.6560    -6.3400     0.0560 C.ar  1 <1>  -0.1500 
 27 C      -12.9950    -5.0690     1.2180 C.ar  1 <1>  -0.1500 
 28 C      -11.2970   -11.8800     0.5400 C.ar  1 <1>  -0.1500 
 29 C      -15.5970    -5.3680     0.3400 C.ar  1 <1>  -0.1500 
 30 C      -13.9360    -4.0980     1.5020 C.ar  1 <1>  -0.1500 
 31 C      -15.2390    -4.2480     1.0670 C.ar  1 <1>  -0.1500 
 32 H       -1.5800     1.0630     0.2840 H     1 <1>   0.4000 
 33 H       -1.9440    -0.9910    -0.6090 H     1 <1>   0.0800 
 34 H       -3.4360    -0.0540    -0.4940 H     1 <1>   0.0800 
 35 H       -3.8990    -1.1670     1.7120 H     1 <1>   0.0800 
 36 H       -2.4200    -2.0750     1.5160 H     1 <1>   0.0800 
 37 H       -5.1940    -1.3600    -0.8490 H     1 <1>   0.0800 
 38 H       -5.8940    -1.9140     0.6440 H     1 <1>   0.0800 
 39 H       -4.6080    -3.6960     1.9630 H     1 <1>   0.0800 
 40 H       -3.0980    -4.2490     1.2970 H     1 <1>   0.0800 
 41 H       -5.5080    -3.5060    -1.9020 H     1 <1>   0.0800 
 42 H       -7.0240    -2.9400    -1.2540 H     1 <1>   0.0800 
 43 H       -4.8910    -5.8800     0.9160 H     1 <1>   0.0800 
 44 H       -4.2040    -5.2960    -0.5750 H     1 <1>   0.0800 
 45 H       -6.7390    -4.3830     0.6320 H     1 <1>   0.4500 
 46 H       -6.3510    -5.9150    -1.8540 H     1 <1>   0.0800 
 47 H       -8.2370    -4.3810    -2.0710 H     1 <1>   0.0800 
 48 H       -8.8600    -4.8650    -0.5110 H     1 <1>   0.0800 
 49 H       -7.4680    -6.7240     0.8430 H     1 <1>   0.0800 
 50 H       -6.0400    -7.3720     0.0740 H     1 <1>   0.0800 
 51 H       -8.5950    -6.6070    -2.9640 H     1 <1>   0.0800 
 52 H      -10.0680    -5.9490    -2.3270 H     1 <1>   0.0800 
 53 H       -7.9470    -8.8610    -0.0970 H     1 <1>   0.0800 
 54 H       -7.3570    -8.3940    -1.6760 H     1 <1>   0.0800 
 55 H       -9.0790   -10.2690    -1.4110 H     1 <1>   0.1500 
 56 H      -13.4390    -8.5990     1.2830 H     1 <1>   0.4570 
 57 H      -12.9280   -10.9910     1.5550 H     1 <1>   0.1500 
 58 H       -9.6240   -12.5130    -0.6290 H     1 <1>   0.1500 
 59 H      -14.9630    -7.1900    -0.5300 H     1 <1>   0.1500 
 60 H      -11.9830    -4.9300     1.5590 H     1 <1>   0.1500 
 61 H      -11.5180   -12.8820     0.8730 H     1 <1>   0.1500 
 62 H      -16.6120    -5.4730    -0.0070 H     1 <1>   0.1500 
 63 H      -13.6590    -3.2190     2.0610 H     1 <1>   0.1500 
 64 H      -15.9730    -3.4890     1.2880 H     1 <1>   0.1500 
@<TRIPOS>BOND
  1   1   2  1   
  2   1  32  1   
  3   2   3  1   
  4   2  33  1   
  5   2  34  1   
  6   3   4  1   
  7   3  35  1   
  8   3  36  1   
  9   4   5  1   
 10   4   6  1   
 11   5   7  1   
 12   5  37  1   
 13   5  38  1   
 14   6   8  1   
 15   6  39  1   
 16   6  40  1   
 17   7   9  1   
 18   7  41  1   
 19   7  42  1   
 20   8   9  1   
 21   8  43  1   
 22   8  44  1   
 23   9  10  1   
 24   9  45  1   
 25  10  11  1   
 26  10  12  1   
 27  10  46  1   
 28  11  13  1   
 29  11  47  1   
 30  11  48  1   
 31  12  14  1   
 32  12  49  1   
 33  12  50  1   
 34  13  15  1   
 35  13  51  1   
 36  13  52  1   
 37  14  15  1   
 38  14  53  1   
 39  14  54  1   
 40  15  16  1   
 41  16  17  ar  
 42  16  18  ar  
 43  17  19  ar  
 44  18  20  ar  
 45  18  21  ar  
 46  19  22  ar  
 47  19  23  1   
 48  20  22  ar  
 49  20  24  ar  
 50  21  25  ar  
 51  21  55  1   
 52  22  56  1   
 53  23  26  ar  
 54  23  27  ar  
 55  24  28  ar  
 56  24  57  1   
 57  25  28  ar  
 58  25  58  1   
 59  26  29  ar  
 60  26  59  1   
 61  27  30  ar  
 62  27  60  1   
 63  28  61  1   
 64  29  31  ar  
 65  29  62  1   
 66  30  31  ar  
 67  30  63  1   
 68  31  64  1   
@<TRIPOS>SUBSTRUCTURE
  1 ****  15 GROUP 4 **** **** 0

# MOE 2024.06 (io_trps.svl 2023.06)
