@<TRIPOS>MOLECULE
NONAME
58 60 1 0 0 
SMALL
USER_CHARGES


@<TRIPOS>ATOM
  1 O        2.1780    -1.3670     0.7360 O.3   1 <1>  -0.3630 
  2 C        1.1960    -2.1420     0.2010 C.ar  1 <1>   0.0830 
  3 C        1.9890    -0.0050     1.0490 C.3   1 <1>   0.0400 
  4 C        1.5140    -3.4440    -0.1820 C.ar  1 <1>  -0.1440 
  5 C       -0.0950    -1.6680     0.0210 C.ar  1 <1>  -0.1500 
  6 C        0.5370    -4.2570    -0.7590 C.ar  1 <1>  -0.1430 
  7 C        2.9470    -3.9500     0.0300 C.3   1 <1>  -0.0960 
  8 C       -1.0790    -2.4700    -0.5250 C.ar  1 <1>  -0.1430 
  9 C       -0.7700    -3.7770    -0.8990 C.ar  1 <1>  -0.1430 
 10 C        0.9440    -5.6590    -1.2310 C.3   1 <1>  -0.0970 
 11 C       -2.4680    -1.8600    -0.7010 C.3   1 <1>  -0.0970 
 12 C       -1.8930    -4.6540    -1.4370 C.3   1 <1>   0.4860 
 13 N       -2.6780    -5.1570    -0.2800 N.4   1 <1>  -0.9590 
 14 C       -3.8850    -5.9220    -0.6680 C.3   1 <1>   0.3430 
 15 C       -1.8900    -6.0290     0.6310 C.3   1 <1>   0.3430 
 16 C       -4.2390    -6.7320     0.5740 C.3   1 <1>  -0.0800 
 17 C       -2.8740    -7.0410     1.2240 C.3   1 <1>  -0.0800 
 18 C       -5.1370    -7.9630     0.2820 C.3   1 <1>   0.2800 
 19 C       -2.3960    -8.4770     0.9490 C.3   1 <1>  -0.1600 
 20 O       -4.7940    -8.4760    -0.9540 O.3   1 <1>  -0.6800 
 21 C       -4.8790    -9.0600     1.3300 C.3   1 <1>  -0.1600 
 22 C       -6.6440    -7.6260     0.2370 C.3   1 <1>  -0.1600 
 23 C       -3.4120    -9.5290     1.4180 C.3   1 <1>  -0.1600 
 24 C       -7.0830    -6.5910    -0.8130 C.3   1 <1>  -0.2400 
 25 H        2.9220     0.3870     1.4100 H     1 <1>   0.0800 
 26 H        1.2390     0.0770     1.8150 H     1 <1>   0.0800 
 27 H        1.6940     0.5200     0.1580 H     1 <1>   0.0800 
 28 H       -0.3440    -0.6640     0.3080 H     1 <1>   0.1500 
 29 H        2.9570    -4.9780     0.3410 H     1 <1>   0.0800 
 30 H        3.4590    -3.3970     0.7960 H     1 <1>   0.0800 
 31 H        3.5050    -3.8510    -0.8830 H     1 <1>   0.0800 
 32 H        0.2520    -6.1070    -1.9140 H     1 <1>   0.0800 
 33 H        1.0670    -6.3120    -0.3860 H     1 <1>   0.0800 
 34 H        1.8820    -5.6090    -1.7560 H     1 <1>   0.0800 
 35 H       -2.4490    -0.8030    -0.5020 H     1 <1>   0.0800 
 36 H       -3.1700    -2.3060    -0.0210 H     1 <1>   0.0800 
 37 H       -2.8130    -1.9860    -1.7110 H     1 <1>   0.0800 
 38 H       -1.5160    -5.4760    -2.0160 H     1 <1>   0.0800 
 39 H       -2.5250    -4.0670    -2.0810 H     1 <1>   0.0800 
 40 H       -2.9530    -4.3360     0.2690 H     1 <1>   0.4500 
 41 H       -4.6910    -5.2750    -0.9710 H     1 <1>   0.0800 
 42 H       -3.6420    -6.5930    -1.4770 H     1 <1>   0.0800 
 43 H       -1.1340    -6.5560     0.0720 H     1 <1>   0.0800 
 44 H       -1.4090    -5.4450     1.4000 H     1 <1>   0.0800 
 45 H       -4.7720    -6.0860     1.2490 H     1 <1>   0.0800 
 46 H       -2.9350    -6.9010     2.2900 H     1 <1>   0.0800 
 47 H       -2.2450    -8.6020    -0.1110 H     1 <1>   0.0800 
 48 H       -1.4500    -8.6580     1.4310 H     1 <1>   0.0800 
 49 H       -5.2870    -9.3060    -1.1050 H     1 <1>   0.4000 
 50 H       -5.1570    -8.6640     2.2920 H     1 <1>   0.0800 
 51 H       -5.5170    -9.9080     1.1530 H     1 <1>   0.0800 
 52 H       -7.1940    -8.5350     0.0630 H     1 <1>   0.0800 
 53 H       -6.9480    -7.2690     1.2060 H     1 <1>   0.0800 
 54 H       -3.2010    -9.8060     2.4380 H     1 <1>   0.0800 
 55 H       -3.2850   -10.4150     0.8180 H     1 <1>   0.0800 
 56 H       -6.7420    -6.8690    -1.7960 H     1 <1>   0.0800 
 57 H       -6.7180    -5.6100    -0.5710 H     1 <1>   0.0800 
 58 H       -8.1580    -6.5410    -0.8380 H     1 <1>   0.0800 
@<TRIPOS>BOND
  1   1   2  1   
  2   1   3  1   
  3   2   4  ar  
  4   2   5  ar  
  5   3  25  1   
  6   3  26  1   
  7   3  27  1   
  8   4   6  ar  
  9   4   7  1   
 10   5   8  ar  
 11   5  28  1   
 12   6   9  ar  
 13   6  10  1   
 14   7  29  1   
 15   7  30  1   
 16   7  31  1   
 17   8   9  ar  
 18   8  11  1   
 19   9  12  1   
 20  10  32  1   
 21  10  33  1   
 22  10  34  1   
 23  11  35  1   
 24  11  36  1   
 25  11  37  1   
 26  12  13  1   
 27  12  38  1   
 28  12  39  1   
 29  13  14  1   
 30  13  15  1   
 31  13  40  1   
 32  14  16  1   
 33  14  41  1   
 34  14  42  1   
 35  15  17  1   
 36  15  43  1   
 37  15  44  1   
 38  16  17  1   
 39  16  18  1   
 40  16  45  1   
 41  17  19  1   
 42  17  46  1   
 43  18  20  1   
 44  18  21  1   
 45  18  22  1   
 46  19  23  1   
 47  19  47  1   
 48  19  48  1   
 49  20  49  1   
 50  21  23  1   
 51  21  50  1   
 52  21  51  1   
 53  22  24  1   
 54  22  52  1   
 55  22  53  1   
 56  23  54  1   
 57  23  55  1   
 58  24  56  1   
 59  24  57  1   
 60  24  58  1   
@<TRIPOS>SUBSTRUCTURE
  1 ****  13 GROUP 4 **** **** 0

# MOE 2024.06 (io_trps.svl 2023.06)
