@<TRIPOS>MOLECULE
NONAME
41 43 1 0 0 
SMALL
USER_CHARGES


@<TRIPOS>ATOM
  1 S        0.3250     0.4760    -1.0270 S.o2  1 <1>   1.3330 
  2 O        1.5250     0.9860    -1.6510 O.2   1 <1>  -0.6500 
  3 O       -0.8750     0.3210    -1.8180 O.2   1 <1>  -0.6500 
  4 N        0.6990    -1.0260    -0.3310 N.am  1 <1>  -0.8490 
  5 C       -0.0870     1.4940     0.3860 C.3   1 <1>  -0.0550 
  6 C        2.0580    -1.0890     0.2190 C.3   1 <1>   0.1160 
  7 C        0.4880    -2.1350    -1.2640 C.3   1 <1>   0.1160 
  8 C       -0.5030     2.9270    -0.0030 C.3   1 <1>  -0.0800 
  9 C       -1.0060     3.7690     1.1700 C.3   1 <1>   0.2000 
 10 C        0.6330     3.7590    -0.6190 C.3   1 <1>   0.2090 
 11 O       -0.1730     3.5750     2.2610 O.3   1 <1>  -0.6800 
 12 C       -0.8030     5.2000     0.6780 C.3   1 <1>   0.2090 
 13 N        0.4650     5.1430    -0.1000 N.pl3 1 <1>  -0.8380 
 14 C        1.5890     5.7480     0.4140 C.ar  1 <1>   0.4100 
 15 N        1.8840     5.5270     1.6760 N.ar  1 <1>  -0.6200 
 16 C        2.4100     6.5450    -0.3920 C.ar  1 <1>   0.0000 
 17 C        2.9980     6.1230     2.1300 C.ar  1 <1>   0.4700 
 18 C        3.5250     7.0890     0.2030 C.ar  1 <1>   0.1050 
 19 C        2.4230     6.9820    -1.7360 C.2   1 <1>  -0.1500 
 20 N        3.8420     6.8900     1.4850 N.ar  1 <1>  -0.5670 
 21 N        4.2050     7.8290    -0.7150 N.pl3 1 <1>   0.0330 
 22 C        3.5230     7.7590    -1.9020 C.2   1 <1>  -0.3020 
 23 H       -0.8970     1.0340     0.9180 H     1 <1>   0.0800 
 24 H        0.7530     1.5370     1.0510 H     1 <1>   0.0800 
 25 H        2.2110    -2.0310     0.7170 H     1 <1>   0.0800 
 26 H        2.2070    -0.2990     0.9360 H     1 <1>   0.0800 
 27 H        2.7890    -0.9840    -0.5660 H     1 <1>   0.0800 
 28 H        0.7160    -3.0730    -0.7880 H     1 <1>   0.0800 
 29 H        1.1130    -2.0170    -2.1340 H     1 <1>   0.0800 
 30 H       -0.5420    -2.1600    -1.5790 H     1 <1>   0.0800 
 31 H       -1.2940     2.8710    -0.7300 H     1 <1>   0.0800 
 32 H       -2.0200     3.5510     1.4600 H     1 <1>   0.0800 
 33 H        0.5800     3.7530    -1.6940 H     1 <1>   0.0800 
 34 H        1.5950     3.3750    -0.3170 H     1 <1>   0.0800 
 35 H        0.6290     4.1410     2.1130 H     1 <1>   0.4000 
 36 H       -0.7520     5.9010     1.4940 H     1 <1>   0.0800 
 37 H       -1.6040     5.4830     0.0190 H     1 <1>   0.0800 
 38 H        3.2210     5.9380     3.1670 H     1 <1>   0.1500 
 39 H        1.6670     6.7140    -2.4540 H     1 <1>   0.1500 
 40 H        5.0720     8.3340    -0.5150 H     1 <1>   0.2700 
 41 H        3.8640     8.2660    -2.7890 H     1 <1>   0.1500 
@<TRIPOS>BOND
  1   1   2  2   
  2   1   3  2   
  3   1   4  am  
  4   1   5  1   
  5   4   6  1   
  6   4   7  1   
  7   5   8  1   
  8   5  23  1   
  9   5  24  1   
 10   6  25  1   
 11   6  26  1   
 12   6  27  1   
 13   7  28  1   
 14   7  29  1   
 15   7  30  1   
 16   8   9  1   
 17   8  10  1   
 18   8  31  1   
 19   9  11  1   
 20   9  12  1   
 21   9  32  1   
 22  10  13  1   
 23  10  33  1   
 24  10  34  1   
 25  11  35  1   
 26  12  13  1   
 27  12  36  1   
 28  12  37  1   
 29  13  14  1   
 30  14  15  ar  
 31  14  16  ar  
 32  15  17  ar  
 33  16  18  ar  
 34  16  19  1   
 35  17  20  ar  
 36  17  38  1   
 37  18  20  ar  
 38  18  21  1   
 39  19  22  2   
 40  19  39  1   
 41  21  22  1   
 42  21  40  1   
 43  22  41  1   
@<TRIPOS>SUBSTRUCTURE
  1 ****  10 GROUP 4 **** **** 0

# MOE 2024.06 (io_trps.svl 2023.06)
