@<TRIPOS>MOLECULE
NONAME
43 45 1 0 0 
SMALL
USER_CHARGES


@<TRIPOS>ATOM
  1 O       -1.0990    -1.2860     0.5680 O.co2 1 <1>  -0.9000 
  2 C       -0.1520    -2.0750     0.7320 C.2   1 <1>   1.0330 
  3 O        0.0890    -2.4930     1.8780 O.co2 1 <1>  -0.9000 
  4 C        0.6380    -2.4910    -0.3770 C.2   1 <1>  -0.2330 
  5 C        0.4310    -3.6430    -1.1340 C.2   1 <1>   0.3720 
  6 C        1.7310    -1.9200    -0.9450 C.2   1 <1>   0.0870 
  7 N        1.3190    -3.7560    -2.0570 N.2   1 <1>  -0.4100 
  8 N       -0.5910    -4.5830    -0.9680 N.pl3 1 <1>  -0.8210 
  9 O        2.0950    -2.7100    -1.9290 O.3   1 <1>  -0.0190 
 10 C        2.4740    -0.7130    -0.6680 C.ar  1 <1>   0.0530 
 11 C       -0.5290    -5.2990     0.3330 C.3   1 <1>   0.2090 
 12 C       -1.9430    -4.0280    -1.2190 C.3   1 <1>   0.2090 
 13 C        3.7850    -0.5560    -1.1260 C.ar  1 <1>  -0.1500 
 14 C        1.9270     0.3470     0.0570 C.ar  1 <1>  -0.1500 
 15 C       -1.4930    -6.4940     0.3240 C.3   1 <1>  -0.0800 
 16 C       -2.9450    -5.1830    -1.2960 C.3   1 <1>  -0.1600 
 17 C        4.5090     0.5930    -0.8710 C.ar  1 <1>  -0.1500 
 18 C        2.6450     1.4990     0.3200 C.ar  1 <1>  -0.1500 
 19 C       -2.9280    -6.0280    -0.0110 C.3   1 <1>  -0.1600 
 20 C       -1.4100    -7.2010     1.6840 C.3   1 <1>   0.1200 
 21 C        3.9490     1.6310    -0.1460 C.ar  1 <1>   0.0820 
 22 O       -2.2480    -8.3050     1.6950 O.3   1 <1>  -0.6800 
 23 O        4.7210     2.7240     0.0670 O.3   1 <1>  -0.3630 
 24 C        4.2500     3.8150     0.8250 C.3   1 <1>   0.0400 
 25 H       -0.8010    -4.6310     1.1310 H     1 <1>   0.0800 
 26 H        0.4800    -5.6350     0.5030 H     1 <1>   0.0800 
 27 H       -1.9390    -3.4770    -2.1440 H     1 <1>   0.0800 
 28 H       -2.2210    -3.3550    -0.4240 H     1 <1>   0.0800 
 29 H        4.2410    -1.3510    -1.6880 H     1 <1>   0.1500 
 30 H        0.9170     0.2740     0.4230 H     1 <1>   0.1500 
 31 H       -1.1500    -7.1760    -0.4350 H     1 <1>   0.0800 
 32 H       -2.6910    -5.7980    -2.1410 H     1 <1>   0.0800 
 33 H       -3.9300    -4.7840    -1.4570 H     1 <1>   0.0800 
 34 H        5.5160     0.6930    -1.2320 H     1 <1>   0.1500 
 35 H        2.1680     2.2760     0.8850 H     1 <1>   0.1500 
 36 H       -3.3060    -5.4290     0.8010 H     1 <1>   0.0800 
 37 H       -3.5770    -6.8750    -0.1410 H     1 <1>   0.0800 
 38 H       -1.7110    -6.5400     2.4790 H     1 <1>   0.0800 
 39 H       -0.4080    -7.5460     1.8740 H     1 <1>   0.0800 
 40 H       -3.1560    -8.0300     1.4710 H     1 <1>   0.4000 
 41 H        5.0310     4.5520     0.8720 H     1 <1>   0.0800 
 42 H        4.0080     3.4720     1.8150 H     1 <1>   0.0800 
 43 H        3.3840     4.2290     0.3380 H     1 <1>   0.0800 
@<TRIPOS>BOND
  1   1   2  ar  
  2   2   3  ar  
  3   2   4  1   
  4   4   5  1   
  5   4   6  2   
  6   5   7  2   
  7   5   8  1   
  8   6   9  1   
  9   6  10  1   
 10   7   9  1   
 11   8  11  1   
 12   8  12  1   
 13  10  13  ar  
 14  10  14  ar  
 15  11  15  1   
 16  11  25  1   
 17  11  26  1   
 18  12  16  1   
 19  12  27  1   
 20  12  28  1   
 21  13  17  ar  
 22  13  29  1   
 23  14  18  ar  
 24  14  30  1   
 25  15  19  1   
 26  15  20  1   
 27  15  31  1   
 28  16  19  1   
 29  16  32  1   
 30  16  33  1   
 31  17  21  ar  
 32  17  34  1   
 33  18  21  ar  
 34  18  35  1   
 35  19  36  1   
 36  19  37  1   
 37  20  22  1   
 38  20  38  1   
 39  20  39  1   
 40  21  23  1   
 41  22  40  1   
 42  23  24  1   
 43  24  41  1   
 44  24  42  1   
 45  24  43  1   
@<TRIPOS>SUBSTRUCTURE
  1 ****   4 GROUP 4 **** **** 0

# MOE 2024.06 (io_trps.svl 2023.06)
