@<TRIPOS>MOLECULE
NONAME
55 58 1 0 0 
SMALL
USER_CHARGES


@<TRIPOS>ATOM
  1 O       -0.0150    -0.6700    -0.9970 O.2   1 <1>  -0.5700 
  2 C        0.8800     0.0500    -0.6150 C.2   1 <1>   0.5690 
  3 N        2.0200    -0.4530    -0.0410 N.am  1 <1>  -0.6600 
  4 C        0.6850     1.5500    -0.7660 C.3   1 <1>  -0.0990 
  5 C        3.1660     0.3820     0.4110 C.3   1 <1>   0.1400 
  6 C        2.2180    -1.9210     0.0730 C.3   1 <1>   0.1400 
  7 C        1.9840     2.3570    -0.6280 C.3   1 <1>  -0.1600 
  8 C        2.7720     1.8520     0.5830 C.3   1 <1>  -0.1600 
  9 C        1.5960    -2.4260     1.3720 C.3   1 <1>  -0.0990 
 10 C        1.3710    -3.9190     1.2830 C.2   1 <1>   0.5690 
 11 O        2.2030    -4.6460     1.7690 O.2   1 <1>  -0.5700 
 12 N        0.2670    -4.4160     0.6490 N.am  1 <1>  -0.6600 
 13 C       -0.7960    -3.6350    -0.0450 C.3   1 <1>   0.1400 
 14 C        0.0270    -5.8700     0.4810 C.3   1 <1>   0.1400 
 15 C       -1.9210    -4.6440    -0.2600 C.3   1 <1>   0.2000 
 16 C       -1.1800    -5.9720    -0.4640 C.3   1 <1>  -0.0800 
 17 O       -2.6720    -4.7060     0.9060 O.3   1 <1>  -0.6800 
 18 C       -2.0500    -7.2280    -0.2450 C.3   1 <1>  -0.0170 
 19 C       -1.4130    -8.5820    -0.5860 C.ar  1 <1>  -0.1440 
 20 C       -2.0860    -9.7800    -0.2370 C.ar  1 <1>   0.0000 
 21 C       -0.2140    -8.7140    -1.2300 C.ar  1 <1>  -0.1500 
 22 C       -1.4640   -11.0120    -0.5560 C.ar  1 <1>   0.3100 
 23 C       -3.3470    -9.8280     0.4040 C.ar  1 <1>  -0.1500 
 24 C        0.3120    -9.9820    -1.5030 C.ar  1 <1>   0.1600 
 25 N       -0.2670   -11.0960    -1.1870 N.ar  1 <1>  -0.6200 
 26 C       -2.1070   -12.2120    -0.2130 C.ar  1 <1>  -0.1500 
 27 C       -3.9490   -11.0150     0.7230 C.ar  1 <1>  -0.1500 
 28 C       -3.3230   -12.2240     0.4140 C.ar  1 <1>  -0.1500 
 29 H        0.2370     1.7480    -1.7220 H     1 <1>   0.0800 
 30 H       -0.0090     1.8610    -0.0070 H     1 <1>   0.0800 
 31 H        3.5420     0.0030     1.3460 H     1 <1>   0.0800 
 32 H        3.9520     0.3060    -0.3220 H     1 <1>   0.0800 
 33 H        1.7490    -2.4020    -0.7690 H     1 <1>   0.0800 
 34 H        3.2660    -2.1650     0.0420 H     1 <1>   0.0800 
 35 H        2.5780     2.2350    -1.5190 H     1 <1>   0.0800 
 36 H        1.7540     3.4020    -0.5160 H     1 <1>   0.0800 
 37 H        2.1800     1.9580     1.4760 H     1 <1>   0.0800 
 38 H        3.6620     2.4430     0.7100 H     1 <1>   0.0800 
 39 H        0.6600    -1.9360     1.5600 H     1 <1>   0.0800 
 40 H        2.2550    -2.2170     2.1940 H     1 <1>   0.0800 
 41 H       -1.1300    -2.7870     0.5270 H     1 <1>   0.0800 
 42 H       -0.4230    -3.2980    -0.9970 H     1 <1>   0.0800 
 43 H        0.9000    -6.3510     0.0770 H     1 <1>   0.0800 
 44 H       -0.1980    -6.3000     1.4430 H     1 <1>   0.0800 
 45 H       -2.5730    -4.3830    -1.0770 H     1 <1>   0.0800 
 46 H       -0.8170    -5.9710    -1.4760 H     1 <1>   0.0800 
 47 H       -2.0590    -4.7400     1.6670 H     1 <1>   0.4000 
 48 H       -2.9450    -7.1250    -0.8330 H     1 <1>   0.0800 
 49 H       -2.3460    -7.2510     0.7890 H     1 <1>   0.0800 
 50 H        0.3700    -7.8740    -1.5540 H     1 <1>   0.1500 
 51 H       -3.8550    -8.9150     0.6490 H     1 <1>   0.1500 
 52 H        1.2610   -10.0350    -2.0080 H     1 <1>   0.1500 
 53 H       -1.6070   -13.1290    -0.4640 H     1 <1>   0.1500 
 54 H       -4.9080   -11.0340     1.2130 H     1 <1>   0.1500 
 55 H       -3.8050   -13.1520     0.6700 H     1 <1>   0.1500 
@<TRIPOS>BOND
  1   1   2  2   
  2   2   3  am  
  3   2   4  1   
  4   3   5  1   
  5   3   6  1   
  6   4   7  1   
  7   4  29  1   
  8   4  30  1   
  9   5   8  1   
 10   5  31  1   
 11   5  32  1   
 12   6   9  1   
 13   6  33  1   
 14   6  34  1   
 15   7   8  1   
 16   7  35  1   
 17   7  36  1   
 18   8  37  1   
 19   8  38  1   
 20   9  10  1   
 21   9  39  1   
 22   9  40  1   
 23  10  11  2   
 24  10  12  am  
 25  12  13  1   
 26  12  14  1   
 27  13  15  1   
 28  13  41  1   
 29  13  42  1   
 30  14  16  1   
 31  14  43  1   
 32  14  44  1   
 33  15  16  1   
 34  15  17  1   
 35  15  45  1   
 36  16  18  1   
 37  16  46  1   
 38  17  47  1   
 39  18  19  1   
 40  18  48  1   
 41  18  49  1   
 42  19  20  ar  
 43  19  21  ar  
 44  20  22  ar  
 45  20  23  ar  
 46  21  24  ar  
 47  21  50  1   
 48  22  25  ar  
 49  22  26  ar  
 50  23  27  ar  
 51  23  51  1   
 52  24  25  ar  
 53  24  52  1   
 54  26  28  ar  
 55  26  53  1   
 56  27  28  ar  
 57  27  54  1   
 58  28  55  1   
@<TRIPOS>SUBSTRUCTURE
  1 ****  14 GROUP 4 **** **** 0

# MOE 2024.06 (io_trps.svl 2023.06)
