@<TRIPOS>MOLECULE
NONAME
48 51 1 0 0 
SMALL
USER_CHARGES


@<TRIPOS>ATOM
  1 O        1.8530     0.4510     2.3980 O.2   1 <1>  -0.5700 
  2 C        2.0290    -0.0820     1.3190 C.2   1 <1>   0.5440 
  3 N        2.0050     0.7140     0.1850 N.am  1 <1>  -0.6600 
  4 C        2.3300    -1.4960     1.2760 C.ar  1 <1>   0.0860 
  5 C        2.3770     0.2210    -1.1780 C.3   1 <1>   0.1400 
  6 C        1.5830     2.1380     0.2740 C.3   1 <1>   0.1400 
  7 C        1.5040    -2.4210     0.6300 C.ar  1 <1>   0.0830 
  8 C        3.4900    -1.9740     1.8900 C.ar  1 <1>  -0.1500 
  9 C        3.5020     1.0560    -1.8210 C.3   1 <1>   0.3430 
 10 C        2.7860     3.0170     0.6370 C.3   1 <1>  -0.1600 
 11 O        0.3790    -1.9880     0.0020 O.3   1 <1>  -0.3630 
 12 C        1.8370    -3.7780     0.6200 C.ar  1 <1>   0.0830 
 13 C        3.8280    -3.3140     1.8610 C.ar  1 <1>  -0.1500 
 14 N        4.3540     1.7120    -0.7850 N.4   1 <1>  -0.9590 
 15 C        3.9000     3.0760    -0.4110 C.3   1 <1>   0.3430 
 16 C       -0.3540    -2.9020    -0.7960 C.3   1 <1>   0.1200 
 17 O        1.0290    -4.6940     0.0320 O.3   1 <1>  -0.3630 
 18 C        2.9990    -4.2200     1.2230 C.ar  1 <1>  -0.1500 
 19 C        5.8180     1.6120    -1.0160 C.3   1 <1>   0.5230 
 20 C       -0.3130    -4.3060    -0.1830 C.3   1 <1>   0.1200 
 21 C        6.4630     1.2810     0.3230 C.2   1 <1>   0.0060 
 22 N        5.7980     0.7940     1.3260 N.2   1 <1>  -0.5650 
 23 N        7.7800     1.4590     0.5890 N.pl3 1 <1>   0.0330 
 24 C        6.7230     0.6540     2.2950 C.2   1 <1>   0.0770 
 25 C        7.9360     1.0550     1.8610 C.2   1 <1>  -0.3020 
 26 H        1.5070     0.2310    -1.8120 H     1 <1>   0.0800 
 27 H        2.7140    -0.7980    -1.1250 H     1 <1>   0.0800 
 28 H        0.8290     2.2360     1.0400 H     1 <1>   0.0800 
 29 H        1.1400     2.4550    -0.6550 H     1 <1>   0.0800 
 30 H        4.1290    -1.2730     2.4000 H     1 <1>   0.1500 
 31 H        3.0650     1.8060    -2.4590 H     1 <1>   0.0800 
 32 H        4.0960     0.4050    -2.4410 H     1 <1>   0.0800 
 33 H        3.1960     2.6810     1.5740 H     1 <1>   0.0800 
 34 H        2.4310     4.0180     0.8010 H     1 <1>   0.0800 
 35 H        4.7300    -3.6550     2.3400 H     1 <1>   0.1500 
 36 H        4.2290     1.1600     0.0930 H     1 <1>   0.4500 
 37 H        4.7240     3.6290     0.0120 H     1 <1>   0.0800 
 38 H        3.5550     3.6010    -1.2860 H     1 <1>   0.0800 
 39 H        0.0830    -2.9140    -1.7790 H     1 <1>   0.0800 
 40 H       -1.3660    -2.5460    -0.8640 H     1 <1>   0.0800 
 41 H        3.2450    -5.2670     1.1990 H     1 <1>   0.1500 
 42 H        6.2030     2.5380    -1.4090 H     1 <1>   0.0800 
 43 H        6.0320     0.8160    -1.7080 H     1 <1>   0.0800 
 44 H       -0.7670    -5.0260    -0.8400 H     1 <1>   0.0800 
 45 H       -0.8230    -4.3190     0.7640 H     1 <1>   0.0800 
 46 H        8.5210     1.8200    -0.0230 H     1 <1>   0.2700 
 47 H        6.4650     0.2680     3.2700 H     1 <1>   0.1500 
 48 H        8.8780     1.0720     2.3820 H     1 <1>   0.1500 
@<TRIPOS>BOND
  1   1   2  2   
  2   2   3  am  
  3   2   4  1   
  4   3   5  1   
  5   3   6  1   
  6   4   7  ar  
  7   4   8  ar  
  8   5   9  1   
  9   5  26  1   
 10   5  27  1   
 11   6  10  1   
 12   6  28  1   
 13   6  29  1   
 14   7  11  1   
 15   7  12  ar  
 16   8  13  ar  
 17   8  30  1   
 18   9  14  1   
 19   9  31  1   
 20   9  32  1   
 21  10  15  1   
 22  10  33  1   
 23  10  34  1   
 24  11  16  1   
 25  12  17  1   
 26  12  18  ar  
 27  13  18  ar  
 28  13  35  1   
 29  14  15  1   
 30  14  19  1   
 31  14  36  1   
 32  15  37  1   
 33  15  38  1   
 34  16  20  1   
 35  16  39  1   
 36  16  40  1   
 37  17  20  1   
 38  18  41  1   
 39  19  21  1   
 40  19  42  1   
 41  19  43  1   
 42  20  44  1   
 43  20  45  1   
 44  21  22  2   
 45  21  23  1   
 46  22  24  1   
 47  23  25  1   
 48  23  46  1   
 49  24  25  2   
 50  24  47  1   
 51  25  48  1   
@<TRIPOS>SUBSTRUCTURE
  1 ****   2 GROUP 4 **** **** 0

# MOE 2024.06 (io_trps.svl 2023.06)
