@<TRIPOS>MOLECULE
NONAME
43 45 1 0 0 
SMALL
USER_CHARGES


@<TRIPOS>ATOM
  1 O       -0.5630     0.0900     0.2600 O.2   1 <1>  -0.5700 
  2 C       -1.5760     0.6950    -0.0370 C.2   1 <1>   0.5440 
  3 N       -2.7640     0.0020    -0.0930 N.am  1 <1>  -0.6600 
  4 C       -1.5110     2.1210    -0.3060 C.ar  1 <1>   0.0860 
  5 C       -4.1100     0.6160    -0.0650 C.3   1 <1>   0.1400 
  6 C       -2.8480    -1.4530     0.1570 C.3   1 <1>   0.1400 
  7 C       -2.1150     2.6890    -1.4280 C.ar  1 <1>  -0.1500 
  8 C       -0.8290     2.9770     0.5590 C.ar  1 <1>  -0.1500 
  9 C       -5.0050    -0.4160     0.6350 C.3   1 <1>  -0.0800 
 10 C       -4.3380    -1.7690     0.3220 C.3   1 <1>  -0.0800 
 11 C       -2.0590     4.0510    -1.6670 C.ar  1 <1>  -0.1500 
 12 C       -0.7680     4.3390     0.3270 C.ar  1 <1>  -0.1500 
 13 C       -6.5290    -0.3390     0.3090 C.3   1 <1>   0.2800 
 14 C       -4.9480    -2.4050    -0.9370 C.3   1 <1>  -0.1600 
 15 C       -1.3860     4.8790    -0.7860 C.ar  1 <1>  -0.1500 
 16 O       -6.7260     0.2100    -0.9440 O.3   1 <1>  -0.6800 
 17 C       -7.1340    -1.7550     0.2660 C.3   1 <1>  -0.1600 
 18 C       -7.3110     0.5380     1.3120 C.3   1 <1>  -0.1600 
 19 C       -6.4510    -2.6880    -0.7580 C.3   1 <1>  -0.1600 
 20 C       -6.8670     2.0090     1.3990 C.3   1 <1>  -0.2400 
 21 H       -4.1010     1.5530     0.4620 H     1 <1>   0.0800 
 22 H       -4.4190     0.7800    -1.0810 H     1 <1>   0.0800 
 23 H       -2.4070    -1.9960    -0.6610 H     1 <1>   0.0800 
 24 H       -2.3130    -1.6840     1.0620 H     1 <1>   0.0800 
 25 H       -2.6300     2.0490    -2.1220 H     1 <1>   0.1500 
 26 H       -0.3420     2.5560     1.4220 H     1 <1>   0.1500 
 27 H       -4.8850    -0.2660     1.6930 H     1 <1>   0.0800 
 28 H       -4.4640    -2.4530     1.1440 H     1 <1>   0.0800 
 29 H       -2.5360     4.4650    -2.5380 H     1 <1>   0.1500 
 30 H       -0.2370     4.9790     1.0120 H     1 <1>   0.1500 
 31 H       -4.8170    -1.7260    -1.7630 H     1 <1>   0.0800 
 32 H       -4.4350    -3.3180    -1.1830 H     1 <1>   0.0800 
 33 H       -1.3400     5.9390    -0.9690 H     1 <1>   0.1500 
 34 H       -7.6740     0.1790    -1.1620 H     1 <1>   0.4000 
 35 H       -7.0210    -2.1910     1.2430 H     1 <1>   0.0800 
 36 H       -8.1900    -1.7100     0.0670 H     1 <1>   0.0800 
 37 H       -8.3550     0.5110     1.0570 H     1 <1>   0.0800 
 38 H       -7.2210     0.1020     2.2920 H     1 <1>   0.0800 
 39 H       -6.5900    -3.7070    -0.4410 H     1 <1>   0.0800 
 40 H       -6.9310    -2.5810    -1.7160 H     1 <1>   0.0800 
 41 H       -6.8870     2.4720     0.4280 H     1 <1>   0.0800 
 42 H       -5.8740     2.0870     1.8010 H     1 <1>   0.0800 
 43 H       -7.5320     2.5530     2.0460 H     1 <1>   0.0800 
@<TRIPOS>BOND
  1   1   2  2   
  2   2   3  am  
  3   2   4  1   
  4   3   5  1   
  5   3   6  1   
  6   4   7  ar  
  7   4   8  ar  
  8   5   9  1   
  9   5  21  1   
 10   5  22  1   
 11   6  10  1   
 12   6  23  1   
 13   6  24  1   
 14   7  11  ar  
 15   7  25  1   
 16   8  12  ar  
 17   8  26  1   
 18   9  10  1   
 19   9  13  1   
 20   9  27  1   
 21  10  14  1   
 22  10  28  1   
 23  11  15  ar  
 24  11  29  1   
 25  12  15  ar  
 26  12  30  1   
 27  13  16  1   
 28  13  17  1   
 29  13  18  1   
 30  14  19  1   
 31  14  31  1   
 32  14  32  1   
 33  15  33  1   
 34  16  34  1   
 35  17  19  1   
 36  17  35  1   
 37  17  36  1   
 38  18  20  1   
 39  18  37  1   
 40  18  38  1   
 41  19  39  1   
 42  19  40  1   
 43  20  41  1   
 44  20  42  1   
 45  20  43  1   
@<TRIPOS>SUBSTRUCTURE
  1 ****   5 GROUP 4 **** **** 0

# MOE 2024.06 (io_trps.svl 2023.06)
