@<TRIPOS>MOLECULE
NONAME
56 58 1 0 0 
SMALL
USER_CHARGES


@<TRIPOS>ATOM
  1 S        0.3890     0.1400     0.4730 S.o2  1 <1>   1.3330 
  2 O       -0.6500     0.2640     1.4700 O.2   1 <1>  -0.6500 
  3 O        1.7770     0.2390     0.8670 O.2   1 <1>  -0.6500 
  4 N        0.1760    -1.3310    -0.3470 N.am  1 <1>  -0.8490 
  5 C        0.0670     1.3620    -0.7970 C.3   1 <1>  -0.0550 
  6 C        1.3700    -1.7690    -1.0790 C.3   1 <1>   0.1160 
  7 C       -0.2870    -2.4020     0.5410 C.3   1 <1>   0.1160 
  8 C        0.0750     2.8050    -0.2630 C.3   1 <1>  -0.0800 
  9 C       -0.2030     3.8280    -1.3560 C.3   1 <1>   0.2000 
 10 C        1.4160     3.2570     0.3200 C.3   1 <1>   0.2090 
 11 O       -1.5660     3.9170    -1.5910 O.3   1 <1>  -0.6800 
 12 C        0.3800     5.1370    -0.8290 C.3   1 <1>   0.2090 
 13 N        1.4820     4.7320     0.0900 N.pl3 1 <1>  -0.8380 
 14 C        2.6300     5.4450     0.2520 C.ar  1 <1>   0.4100 
 15 N        3.7500     4.7750     0.0730 N.ar  1 <1>  -0.6200 
 16 C        2.6310     6.8290     0.5830 C.ar  1 <1>  -0.1440 
 17 C        4.8950     5.4260     0.1440 C.ar  1 <1>   0.7710 
 18 C        3.8310     7.4780     0.6110 C.ar  1 <1>   0.2180 
 19 C        1.3180     7.5350     0.9380 C.3   1 <1>  -0.0970 
 20 N        4.9430     6.7420     0.3830 N.ar  1 <1>  -0.1790 
 21 N        6.0560     4.7480    -0.0300 N.pl3 1 <1>  -0.8380 
 22 C        4.0460     8.9610     0.8930 C.3   1 <1>  -0.0970 
 23 C        7.4490     5.2720    -0.0560 C.3   1 <1>   0.2090 
 24 C        6.0640     3.2710    -0.2340 C.3   1 <1>   0.2090 
 25 C        8.2960     4.1130    -0.5630 C.3   1 <1>  -0.1600 
 26 C        7.5280     2.8650    -0.1490 C.3   1 <1>  -0.1600 
 27 H        0.7970     1.2650    -1.5760 H     1 <1>   0.0800 
 28 H       -0.8960     1.1640    -1.2260 H     1 <1>   0.0800 
 29 H        1.1490    -2.6560    -1.6490 H     1 <1>   0.0800 
 30 H        2.1740    -1.9840    -0.3940 H     1 <1>   0.0800 
 31 H        1.6920    -1.0000    -1.7590 H     1 <1>   0.0800 
 32 H       -0.4290    -3.3130    -0.0150 H     1 <1>   0.0800 
 33 H       -1.2310    -2.1300     0.9850 H     1 <1>   0.0800 
 34 H        0.4290    -2.5720     1.3280 H     1 <1>   0.0800 
 35 H       -0.6600     2.9030     0.5180 H     1 <1>   0.0800 
 36 H        0.2850     3.5620    -2.2790 H     1 <1>   0.0800 
 37 H        2.2280     2.7710    -0.1960 H     1 <1>   0.0800 
 38 H        1.4840     3.0320     1.3720 H     1 <1>   0.0800 
 39 H       -2.0560     4.0460    -0.7550 H     1 <1>   0.4000 
 40 H       -0.3690     5.6750    -0.2760 H     1 <1>   0.0800 
 41 H        0.7570     5.7410    -1.6370 H     1 <1>   0.0800 
 42 H        1.4720     8.3800     1.5830 H     1 <1>   0.0800 
 43 H        0.6690     6.8620     1.4720 H     1 <1>   0.0800 
 44 H        0.8170     7.8660     0.0460 H     1 <1>   0.0800 
 45 H        5.8710     7.1400     0.4100 H     1 <1>   0.4570 
 46 H        3.1530     9.5310     0.7140 H     1 <1>   0.0800 
 47 H        4.8100     9.3620     0.2510 H     1 <1>   0.0800 
 48 H        4.3430     9.1030     1.9180 H     1 <1>   0.0800 
 49 H        7.5450     6.1230    -0.7080 H     1 <1>   0.0800 
 50 H        7.7550     5.5300     0.9450 H     1 <1>   0.0800 
 51 H        5.4750     2.7670     0.5150 H     1 <1>   0.0800 
 52 H        5.6690     3.0450    -1.2110 H     1 <1>   0.0800 
 53 H        8.3580     4.1640    -1.6370 H     1 <1>   0.0800 
 54 H        9.2920     4.1330    -0.1560 H     1 <1>   0.0800 
 55 H        7.7610     2.6080     0.8700 H     1 <1>   0.0800 
 56 H        7.7440     2.0200    -0.7790 H     1 <1>   0.0800 
@<TRIPOS>BOND
  1   1   2  2   
  2   1   3  2   
  3   1   4  am  
  4   1   5  1   
  5   4   6  1   
  6   4   7  1   
  7   5   8  1   
  8   5  27  1   
  9   5  28  1   
 10   6  29  1   
 11   6  30  1   
 12   6  31  1   
 13   7  32  1   
 14   7  33  1   
 15   7  34  1   
 16   8   9  1   
 17   8  10  1   
 18   8  35  1   
 19   9  11  1   
 20   9  12  1   
 21   9  36  1   
 22  10  13  1   
 23  10  37  1   
 24  10  38  1   
 25  11  39  1   
 26  12  13  1   
 27  12  40  1   
 28  12  41  1   
 29  13  14  1   
 30  14  15  ar  
 31  14  16  ar  
 32  15  17  ar  
 33  16  18  ar  
 34  16  19  1   
 35  17  20  ar  
 36  17  21  1   
 37  18  20  ar  
 38  18  22  1   
 39  19  42  1   
 40  19  43  1   
 41  19  44  1   
 42  20  45  1   
 43  21  23  1   
 44  21  24  1   
 45  22  46  1   
 46  22  47  1   
 47  22  48  1   
 48  23  25  1   
 49  23  49  1   
 50  23  50  1   
 51  24  26  1   
 52  24  51  1   
 53  24  52  1   
 54  25  26  1   
 55  25  53  1   
 56  25  54  1   
 57  26  55  1   
 58  26  56  1   
@<TRIPOS>SUBSTRUCTURE
  1 ****  10 GROUP 4 **** **** 0

# MOE 2024.06 (io_trps.svl 2023.06)
