@<TRIPOS>MOLECULE
NONAME
54 57 1 0 0 
SMALL
USER_CHARGES


@<TRIPOS>ATOM
  1 O       -2.0250     0.7860    -1.8040 O.2   1 <1>  -0.5700 
  2 C       -2.2860     1.1160    -0.6600 C.2   1 <1>   0.5440 
  3 N       -2.8880     0.1540     0.1410 N.am  1 <1>  -0.6600 
  4 C       -1.9650     2.4780    -0.2190 C.ar  1 <1>   0.3960 
  5 C       -3.8080     0.4700     1.2640 C.3   1 <1>   0.1400 
  6 C       -2.6610    -1.2950    -0.1050 C.3   1 <1>   0.1400 
  7 N       -1.8030     2.7660     1.0860 N.ar  1 <1>  -0.6200 
  8 C       -1.8170     3.4750    -1.1940 C.ar  1 <1>   0.1600 
  9 C       -5.1570    -0.2030     1.0050 C.3   1 <1>  -0.1600 
 10 C       -4.0000    -1.9610    -0.4060 C.3   1 <1>  -0.1600 
 11 C       -1.5030     4.0310     1.3140 C.ar  1 <1>   0.1600 
 12 N       -1.5280     4.7480    -0.9650 N.ar  1 <1>  -0.6200 
 13 C       -4.9810    -1.7020     0.7460 C.3   1 <1>   0.4230 
 14 C       -1.3720     4.9930     0.3220 C.ar  1 <1>   0.1600 
 15 N       -6.3100    -2.3220     0.4960 N.4   1 <1>  -0.9590 
 16 C       -7.0390    -1.9340    -0.7460 C.3   1 <1>   0.3430 
 17 C       -6.3200    -3.8150     0.5260 C.3   1 <1>   0.3430 
 18 C       -8.1360    -2.9910    -0.8570 C.3   1 <1>   0.2000 
 19 C       -7.3880    -4.2710    -0.4780 C.3   1 <1>  -0.0800 
 20 O       -9.0970    -2.7020     0.1090 O.3   1 <1>  -0.6800 
 21 C       -8.2430    -5.4350     0.0590 C.3   1 <1>   0.0210 
 22 C       -7.3910    -6.6670     0.3060 C.2   1 <1>   0.1080 
 23 N       -6.3320    -6.6610     1.0570 N.2   1 <1>  -0.7070 
 24 C       -7.6460    -7.9230    -0.2340 C.2   1 <1>  -0.1500 
 25 N       -5.8850    -7.9350     1.0240 N.pl3 1 <1>   0.3000 
 26 C       -6.6620    -8.7130     0.2440 C.2   1 <1>  -0.3320 
 27 C       -6.4180   -10.1920     0.0030 C.3   1 <1>  -0.0600 
 28 H       -3.3730     0.1210     2.1870 H     1 <1>   0.0800 
 29 H       -3.9630     1.5310     1.3470 H     1 <1>   0.0800 
 30 H       -1.9850    -1.4410    -0.9320 H     1 <1>   0.0800 
 31 H       -2.2080    -1.7330     0.7690 H     1 <1>   0.0800 
 32 H       -1.9480     3.1940    -2.2250 H     1 <1>   0.1500 
 33 H       -5.6090     0.2790     0.1570 H     1 <1>   0.0800 
 34 H       -5.7860    -0.0500     1.8630 H     1 <1>   0.0800 
 35 H       -3.8300    -3.0140    -0.5330 H     1 <1>   0.0800 
 36 H       -4.3650    -1.5540    -1.3310 H     1 <1>   0.0800 
 37 H       -1.3540     4.3270     2.3380 H     1 <1>   0.1500 
 38 H       -4.5630    -2.1400     1.6390 H     1 <1>   0.0800 
 39 H       -1.1270     6.0020     0.6050 H     1 <1>   0.1500 
 40 H       -6.9490    -2.0420     1.2560 H     1 <1>   0.4500 
 41 H       -7.4560    -0.9420    -0.6810 H     1 <1>   0.0800 
 42 H       -6.3880    -2.0010    -1.6010 H     1 <1>   0.0800 
 43 H       -5.3640    -4.2280     0.2470 H     1 <1>   0.0800 
 44 H       -6.5640    -4.1660     1.5160 H     1 <1>   0.0800 
 45 H       -8.6000    -3.0190    -1.8290 H     1 <1>   0.0800 
 46 H       -6.8680    -4.6240    -1.3510 H     1 <1>   0.0800 
 47 H       -9.9180    -3.2190    -0.0370 H     1 <1>   0.4000 
 48 H       -9.0140    -5.6780    -0.6500 H     1 <1>   0.0800 
 49 H       -8.7150    -5.1640     0.9870 H     1 <1>   0.0800 
 50 H       -8.4590    -8.1880    -0.8870 H     1 <1>   0.1500 
 51 H       -5.0560    -8.2470     1.5450 H     1 <1>   0.2700 
 52 H       -7.1730   -10.5900    -0.6510 H     1 <1>   0.0800 
 53 H       -6.4530   -10.7310     0.9330 H     1 <1>   0.0800 
 54 H       -5.4560   -10.3420    -0.4550 H     1 <1>   0.0800 
@<TRIPOS>BOND
  1   1   2  2   
  2   2   3  am  
  3   2   4  1   
  4   3   5  1   
  5   3   6  1   
  6   4   7  ar  
  7   4   8  ar  
  8   5   9  1   
  9   5  28  1   
 10   5  29  1   
 11   6  10  1   
 12   6  30  1   
 13   6  31  1   
 14   7  11  ar  
 15   8  12  ar  
 16   8  32  1   
 17   9  13  1   
 18   9  33  1   
 19   9  34  1   
 20  10  13  1   
 21  10  35  1   
 22  10  36  1   
 23  11  14  ar  
 24  11  37  1   
 25  12  14  ar  
 26  13  15  1   
 27  13  38  1   
 28  14  39  1   
 29  15  16  1   
 30  15  17  1   
 31  15  40  1   
 32  16  18  1   
 33  16  41  1   
 34  16  42  1   
 35  17  19  1   
 36  17  43  1   
 37  17  44  1   
 38  18  19  1   
 39  18  20  1   
 40  18  45  1   
 41  19  21  1   
 42  19  46  1   
 43  20  47  1   
 44  21  22  1   
 45  21  48  1   
 46  21  49  1   
 47  22  23  2   
 48  22  24  1   
 49  23  25  1   
 50  24  26  2   
 51  24  50  1   
 52  25  26  1   
 53  25  51  1   
 54  26  27  1   
 55  27  52  1   
 56  27  53  1   
 57  27  54  1   
@<TRIPOS>SUBSTRUCTURE
  1 ****  13 GROUP 4 **** **** 0

# MOE 2024.06 (io_trps.svl 2023.06)
