@<TRIPOS>MOLECULE
NONAME
33 34 1 0 0 
SMALL
USER_CHARGES


@<TRIPOS>ATOM
  1 O       -0.3400     0.7040     0.8540 O.2   1 <1>  -0.5700 
  2 C       -1.2850     1.1140     0.2080 C.2   1 <1>   0.7800 
  3 O       -2.3720     0.3600     0.0810 O.3   1 <1>  -0.4300 
  4 N       -1.2910     2.3420    -0.3940 N.am  1 <1>  -0.6600 
  5 C       -2.4280    -0.9130     0.6800 C.3   1 <1>   0.2640 
  6 C       -2.4640     2.9040    -1.1270 C.3   1 <1>   0.1400 
  7 C       -0.1560     3.3000    -0.2560 C.3   1 <1>   0.1400 
  8 C       -3.7970    -1.5120     0.4050 C.ar  1 <1>  -0.1440 
  9 C       -2.9160     4.2300    -0.4900 C.3   1 <1>   0.1960 
 10 C       -0.6360     4.6200     0.3730 C.3   1 <1>   0.1960 
 11 C       -4.8640    -1.2280     1.2440 C.ar  1 <1>  -0.1500 
 12 C       -3.9920    -2.3460    -0.6850 C.ar  1 <1>  -0.1500 
 13 N       -1.7870     5.2070    -0.3840 N.pl3 1 <1>  -0.8370 
 14 C       -6.1120    -1.7760     0.9990 C.ar  1 <1>  -0.1500 
 15 C       -5.2390    -2.8950    -0.9310 C.ar  1 <1>  -0.1500 
 16 C       -2.2240     6.3950     0.2330 C.1   1 <1>   0.6830 
 17 C       -6.2990    -2.6110    -0.0880 C.ar  1 <1>  -0.1500 
 18 N       -2.5870     7.3340     0.7610 N.1   1 <1>  -0.5570 
 19 H       -2.2640    -0.8020     1.7380 H     1 <1>   0.0800 
 20 H       -1.6470    -1.5220     0.2590 H     1 <1>   0.0800 
 21 H       -3.2880     2.2120    -1.1250 H     1 <1>   0.0800 
 22 H       -2.1870     3.0820    -2.1510 H     1 <1>   0.0800 
 23 H        0.2570     3.5010    -1.2290 H     1 <1>   0.0800 
 24 H        0.6240     2.8780     0.3540 H     1 <1>   0.0800 
 25 H       -3.3220     4.0270     0.4880 H     1 <1>   0.0800 
 26 H       -3.7000     4.6550    -1.0930 H     1 <1>   0.0800 
 27 H        0.1830     5.3200     0.3770 H     1 <1>   0.0800 
 28 H       -0.9210     4.4360     1.3960 H     1 <1>   0.0800 
 29 H       -4.7280    -0.5770     2.0900 H     1 <1>   0.1500 
 30 H       -3.1750    -2.5690    -1.3490 H     1 <1>   0.1500 
 31 H       -6.9350    -1.5530     1.6540 H     1 <1>   0.1500 
 32 H       -5.3840    -3.5430    -1.7780 H     1 <1>   0.1500 
 33 H       -7.2680    -3.0380    -0.2790 H     1 <1>   0.1500 
@<TRIPOS>BOND
  1   1   2  2   
  2   2   3  1   
  3   2   4  am  
  4   3   5  1   
  5   4   6  1   
  6   4   7  1   
  7   5   8  1   
  8   5  19  1   
  9   5  20  1   
 10   6   9  1   
 11   6  21  1   
 12   6  22  1   
 13   7  10  1   
 14   7  23  1   
 15   7  24  1   
 16   8  11  ar  
 17   8  12  ar  
 18   9  13  1   
 19   9  25  1   
 20   9  26  1   
 21  10  13  1   
 22  10  27  1   
 23  10  28  1   
 24  11  14  ar  
 25  11  29  1   
 26  12  15  ar  
 27  12  30  1   
 28  13  16  1   
 29  14  17  ar  
 30  14  31  1   
 31  15  17  ar  
 32  15  32  1   
 33  16  18  3   
 34  17  33  1   
@<TRIPOS>SUBSTRUCTURE
  1 ****   3 GROUP 4 **** **** 0

# MOE 2024.06 (io_trps.svl 2023.06)
