@<TRIPOS>MOLECULE
NONAME
57 61 1 0 0 
SMALL
USER_CHARGES


@<TRIPOS>ATOM
  1 O        1.1270    -0.4530     0.9650 O.3   1 <1>  -0.5600 
  2 C        2.1570    -1.1600     0.3180 C.3   1 <1>   0.4240 
  3 C       -0.1860    -0.7240     0.5750 C.3   1 <1>   0.1200 
  4 C        1.7640    -2.6230     0.0310 C.ar  1 <1>  -0.1440 
  5 C        2.5090    -0.4040    -0.9740 C.3   1 <1>  -0.1600 
  6 C        3.3420    -1.1150     1.2940 C.3   1 <1>  -0.1600 
  7 C       -0.5250    -2.1650     0.9440 C.3   1 <1>  -0.0160 
  8 C        0.4980    -3.1030     0.3360 C.ar  1 <1>  -0.1440 
  9 C        2.6760    -3.4970    -0.5450 C.ar  1 <1>  -0.1500 
 10 C        2.9890     1.0180    -0.6850 C.3   1 <1>   0.2090 
 11 C        3.7960     0.3210     1.5550 C.3   1 <1>   0.2090 
 12 C        0.1680    -4.4260     0.0870 C.ar  1 <1>  -0.1500 
 13 C        2.3630    -4.8200    -0.8100 C.ar  1 <1>   0.0820 
 14 N        4.1510     0.9590     0.2530 N.pl3 1 <1>  -0.8380 
 15 C        1.0880    -5.3060    -0.4770 C.ar  1 <1>   0.0820 
 16 O        3.3790    -5.5260    -1.3860 O.3   1 <1>  -0.3630 
 17 C        5.1930     1.8290     0.1170 C.ar  1 <1>   0.7710 
 18 O        0.7690    -6.6160    -0.6930 O.3   1 <1>  -0.3630 
 19 C        3.1540    -6.7040    -2.1280 C.3   1 <1>   0.0400 
 20 N        6.4180     1.3680     0.4990 N.ar  1 <1>  -0.1790 
 21 N        5.0070     3.0260    -0.3740 N.ar  1 <1>  -0.5670 
 22 C       -0.3970    -7.2040    -0.1590 C.3   1 <1>   0.0400 
 23 C        7.5350     2.1030     0.4300 C.ar  1 <1>   0.4610 
 24 C        6.1130     3.8070    -0.4500 C.ar  1 <1>   0.1050 
 25 N        8.7160     1.5910     0.8150 N.pl3 1 <1>  -0.9000 
 26 C        7.3700     3.4010    -0.0670 C.ar  1 <1>   0.0000 
 27 N        6.2350     5.0850    -0.8890 N.pl3 1 <1>   0.3140 
 28 C        8.1810     4.5180    -0.3200 C.2   1 <1>   0.1390 
 29 N        7.5180     5.5130    -0.8040 N.2   1 <1>  -0.7070 
 30 C        5.1730     5.9640    -1.4000 C.3   1 <1>   0.0160 
 31 H       -0.2830    -0.5640    -0.4850 H     1 <1>   0.0800 
 32 H       -0.8340    -0.0410     1.0950 H     1 <1>   0.0800 
 33 H        1.6570    -0.3790    -1.6260 H     1 <1>   0.0800 
 34 H        3.2880    -0.9250    -1.4990 H     1 <1>   0.0800 
 35 H        4.1670    -1.6770     0.9020 H     1 <1>   0.0800 
 36 H        3.0450    -1.5780     2.2170 H     1 <1>   0.0800 
 37 H       -1.5090    -2.4000     0.5800 H     1 <1>   0.0800 
 38 H       -0.5250    -2.2710     2.0140 H     1 <1>   0.0800 
 39 H        3.6630    -3.1660    -0.8080 H     1 <1>   0.1500 
 40 H        2.1940     1.5940    -0.2390 H     1 <1>   0.0800 
 41 H        3.2720     1.4960    -1.6090 H     1 <1>   0.0800 
 42 H        4.6300     0.3240     2.2360 H     1 <1>   0.0800 
 43 H        2.9940     0.8760     2.0170 H     1 <1>   0.0800 
 44 H       -0.8210    -4.7540     0.3430 H     1 <1>   0.1500 
 45 H        4.0440    -6.9240    -2.6870 H     1 <1>   0.0800 
 46 H        2.3270    -6.5430    -2.7970 H     1 <1>   0.0800 
 47 H        2.9450    -7.5080    -1.4460 H     1 <1>   0.0800 
 48 H        6.4270     0.4030     0.7900 H     1 <1>   0.4570 
 49 H       -0.3680    -8.2570    -0.3740 H     1 <1>   0.0800 
 50 H       -1.2580    -6.7610    -0.6270 H     1 <1>   0.0800 
 51 H       -0.4110    -7.0490     0.9050 H     1 <1>   0.0800 
 52 H        9.5870     2.1380     0.7670 H     1 <1>   0.4000 
 53 H        8.8910     0.6480     1.1790 H     1 <1>   0.4000 
 54 H        9.2420     4.5510    -0.1340 H     1 <1>   0.1500 
 55 H        4.2260     5.4610    -1.3520 H     1 <1>   0.0800 
 56 H        5.3950     6.2250    -2.4180 H     1 <1>   0.0800 
 57 H        5.1400     6.8560    -0.8020 H     1 <1>   0.0800 
@<TRIPOS>BOND
  1   1   2  1   
  2   1   3  1   
  3   2   4  1   
  4   2   5  1   
  5   2   6  1   
  6   3   7  1   
  7   3  31  1   
  8   3  32  1   
  9   4   8  ar  
 10   4   9  ar  
 11   5  10  1   
 12   5  33  1   
 13   5  34  1   
 14   6  11  1   
 15   6  35  1   
 16   6  36  1   
 17   7   8  1   
 18   7  37  1   
 19   7  38  1   
 20   8  12  ar  
 21   9  13  ar  
 22   9  39  1   
 23  10  14  1   
 24  10  40  1   
 25  10  41  1   
 26  11  14  1   
 27  11  42  1   
 28  11  43  1   
 29  12  15  ar  
 30  12  44  1   
 31  13  15  ar  
 32  13  16  1   
 33  14  17  1   
 34  15  18  1   
 35  16  19  1   
 36  17  20  ar  
 37  17  21  ar  
 38  18  22  1   
 39  19  45  1   
 40  19  46  1   
 41  19  47  1   
 42  20  23  ar  
 43  20  48  1   
 44  21  24  ar  
 45  22  49  1   
 46  22  50  1   
 47  22  51  1   
 48  23  25  1   
 49  23  26  ar  
 50  24  26  ar  
 51  24  27  1   
 52  25  52  1   
 53  25  53  1   
 54  26  28  1   
 55  27  29  1   
 56  27  30  1   
 57  28  29  2   
 58  28  54  1   
 59  30  55  1   
 60  30  56  1   
 61  30  57  1   
@<TRIPOS>SUBSTRUCTURE
  1 ****   5 GROUP 4 **** **** 0

# MOE 2024.06 (io_trps.svl 2023.06)
