@<TRIPOS>MOLECULE
NONAME
45 46 1 0 0 
SMALL
USER_CHARGES


@<TRIPOS>ATOM
  1 CL      -0.6700    -1.5770     3.3310 Cl    1 <1>  -0.1770 
  2 C       -0.5320    -2.8510     2.1490 C.ar  1 <1>   0.1770 
  3 C       -0.3950    -4.1580     2.5760 C.ar  1 <1>  -0.1500 
  4 C       -0.5650    -2.5360     0.8040 C.ar  1 <1>  -0.1500 
  5 C       -0.2990    -5.1690     1.6340 C.ar  1 <1>  -0.1500 
  6 C       -0.4680    -3.5510    -0.1330 C.ar  1 <1>  -0.1500 
  7 C       -0.3410    -4.8720     0.2780 C.ar  1 <1>  -0.1430 
  8 C       -0.2580    -5.9990    -0.7450 C.3   1 <1>   0.2540 
  9 N       -1.4500    -6.8560    -0.6250 N.3   1 <1>  -0.8100 
 10 C       -1.3390    -8.0860    -1.4220 C.3   1 <1>   0.2900 
 11 C       -2.7140    -6.1260    -0.8740 C.3   1 <1>   0.1100 
 12 C       -2.4570    -9.0020    -0.9750 C.2   1 <1>  -0.3320 
 13 C       -3.4800    -6.0080     0.4520 C.3   1 <1>   0.3430 
 14 N       -2.5170    -9.5440     0.2540 N.pl3 1 <1>   0.0330 
 15 C       -3.5630    -9.4200    -1.6290 C.2   1 <1>   0.0770 
 16 N       -4.9690    -5.9270     0.2750 N.4   1 <1>  -0.9590 
 17 C       -3.6780   -10.2310     0.2830 C.2   1 <1>   0.0060 
 18 N       -4.3450   -10.1610    -0.8230 N.2   1 <1>  -0.5650 
 19 C       -5.6120    -5.4810     1.5460 C.3   1 <1>   0.2630 
 20 C       -5.5320    -7.2520    -0.1520 C.3   1 <1>   0.2630 
 21 C       -4.1390   -11.0130     1.4950 C.3   1 <1>  -0.0600 
 22 H       -0.3600    -4.3750     3.6290 H     1 <1>   0.1500 
 23 H       -0.6620    -1.5080     0.5010 H     1 <1>   0.1500 
 24 H       -0.1900    -6.1910     1.9560 H     1 <1>   0.1500 
 25 H       -0.4890    -3.3040    -1.1810 H     1 <1>   0.1500 
 26 H        0.6290    -6.5780    -0.5470 H     1 <1>   0.0800 
 27 H       -0.1840    -5.6020    -1.7430 H     1 <1>   0.0800 
 28 H       -0.3890    -8.5640    -1.2440 H     1 <1>   0.0800 
 29 H       -1.4230    -7.8630    -2.4730 H     1 <1>   0.0800 
 30 H       -3.3090    -6.6500    -1.6000 H     1 <1>   0.0800 
 31 H       -2.5190    -5.1420    -1.2660 H     1 <1>   0.0800 
 32 H       -3.1200    -5.1360     0.9730 H     1 <1>   0.0800 
 33 H       -3.2480    -6.8730     1.0510 H     1 <1>   0.0800 
 34 H       -1.8220    -9.4560     1.0020 H     1 <1>   0.2700 
 35 H       -3.8520    -9.2130    -2.6470 H     1 <1>   0.1500 
 36 H       -5.1720    -5.2290    -0.4560 H     1 <1>   0.4500 
 37 H       -5.4170    -6.1930     2.3330 H     1 <1>   0.0800 
 38 H       -6.6790    -5.3950     1.4160 H     1 <1>   0.0800 
 39 H       -5.2240    -4.5210     1.8460 H     1 <1>   0.0800 
 40 H       -5.2670    -8.0220     0.5550 H     1 <1>   0.0800 
 41 H       -5.1440    -7.5370    -1.1150 H     1 <1>   0.0800 
 42 H       -6.6060    -7.2020    -0.2220 H     1 <1>   0.0800 
 43 H       -4.2340   -10.3660     2.3470 H     1 <1>   0.0800 
 44 H       -3.4320   -11.7920     1.7180 H     1 <1>   0.0800 
 45 H       -5.0930   -11.4670     1.2950 H     1 <1>   0.0800 
@<TRIPOS>BOND
  1   1   2  1   
  2   2   3  ar  
  3   2   4  ar  
  4   3   5  ar  
  5   3  22  1   
  6   4   6  ar  
  7   4  23  1   
  8   5   7  ar  
  9   5  24  1   
 10   6   7  ar  
 11   6  25  1   
 12   7   8  1   
 13   8   9  1   
 14   8  26  1   
 15   8  27  1   
 16   9  10  1   
 17   9  11  1   
 18  10  12  1   
 19  10  28  1   
 20  10  29  1   
 21  11  13  1   
 22  11  30  1   
 23  11  31  1   
 24  12  14  1   
 25  12  15  2   
 26  13  16  1   
 27  13  32  1   
 28  13  33  1   
 29  14  17  1   
 30  14  34  1   
 31  15  18  1   
 32  15  35  1   
 33  16  19  1   
 34  16  20  1   
 35  16  36  1   
 36  17  18  2   
 37  17  21  1   
 38  19  37  1   
 39  19  38  1   
 40  19  39  1   
 41  20  40  1   
 42  20  41  1   
 43  20  42  1   
 44  21  43  1   
 45  21  44  1   
 46  21  45  1   
@<TRIPOS>SUBSTRUCTURE
  1 ****  13 GROUP 4 **** **** 0

# MOE 2024.06 (io_trps.svl 2023.06)
