@<TRIPOS>MOLECULE
NONAME
40 42 1 0 0 
SMALL
USER_CHARGES


@<TRIPOS>ATOM
  1 S        0.4980    -0.1000     0.2810 S.3   1 <1>  -0.0800 
  2 C       -0.8630     0.9260    -0.1950 C.2   1 <1>  -0.0450 
  3 C       -0.5570    -1.2990     0.9900 C.2   1 <1>  -0.1100 
  4 C       -2.0190     0.3190     0.1850 C.2   1 <1>  -0.1810 
  5 C       -0.5820     2.1550    -0.8970 C.2   1 <1>   0.7150 
  6 C       -1.8420    -0.9280     0.8560 C.2   1 <1>  -0.1500 
  7 C       -3.4230     0.8480    -0.0570 C.3   1 <1>  -0.0590 
  8 O       -1.1730     2.4120    -1.9280 O.2   1 <1>  -0.5700 
  9 N        0.3590     3.0660    -0.4490 N.am  1 <1>  -0.6600 
 10 C        0.7770     3.1270     1.0010 C.3   1 <1>   0.2200 
 11 C        0.8130     4.1450    -1.3850 C.3   1 <1>   0.1400 
 12 C        0.5630     4.5160     1.6240 C.3   1 <1>   0.1200 
 13 C        2.2470     2.6700     1.1780 C.3   1 <1>   0.3430 
 14 C        2.0630     4.9260    -0.9370 C.3   1 <1>  -0.0800 
 15 O        1.6760     5.3310     1.4090 O.3   1 <1>  -0.5600 
 16 N        3.0110     2.6900    -0.1180 N.4   1 <1>  -0.9590 
 17 C        1.7420     5.9450     0.1670 C.3   1 <1>   0.1200 
 18 C        3.3080     4.0760    -0.6040 C.3   1 <1>   0.3430 
 19 C        4.2460     1.8580    -0.0340 C.3   1 <1>   0.2630 
 20 H       -0.1070    -2.1690     1.4360 H     1 <1>   0.1500 
 21 H       -2.6880    -1.4960     1.2060 H     1 <1>   0.1500 
 22 H       -3.9720     0.1560    -0.6700 H     1 <1>   0.0800 
 23 H       -3.3980     1.7980    -0.5600 H     1 <1>   0.0800 
 24 H       -3.9390     0.9680     0.8780 H     1 <1>   0.0800 
 25 H        0.1540     2.4600     1.5710 H     1 <1>   0.0800 
 26 H        1.0120     3.6970    -2.3450 H     1 <1>   0.0800 
 27 H       -0.0050     4.8330    -1.5310 H     1 <1>   0.0800 
 28 H        0.4650     4.4130     2.6910 H     1 <1>   0.0800 
 29 H       -0.3290     4.9920     1.2500 H     1 <1>   0.0800 
 30 H        2.2340     1.6650     1.5650 H     1 <1>   0.0800 
 31 H        2.7350     3.2900     1.9110 H     1 <1>   0.0800 
 32 H        2.3390     5.5310    -1.7820 H     1 <1>   0.0800 
 33 H        2.3580     2.2760    -0.8040 H     1 <1>   0.4500 
 34 H        0.8160     6.4640    -0.0220 H     1 <1>   0.0800 
 35 H        2.5270     6.6800     0.2250 H     1 <1>   0.0800 
 36 H        3.9010     4.5970     0.1300 H     1 <1>   0.0800 
 37 H        3.9010     3.9980    -1.5010 H     1 <1>   0.0800 
 38 H        4.9260     2.2700     0.6940 H     1 <1>   0.0800 
 39 H        4.7420     1.8260    -0.9910 H     1 <1>   0.0800 
 40 H        3.9980     0.8500     0.2560 H     1 <1>   0.0800 
@<TRIPOS>BOND
  1   1   2  1   
  2   1   3  1   
  3   2   4  2   
  4   2   5  1   
  5   3   6  2   
  6   3  20  1   
  7   4   6  1   
  8   4   7  1   
  9   5   8  2   
 10   5   9  am  
 11   6  21  1   
 12   7  22  1   
 13   7  23  1   
 14   7  24  1   
 15   9  10  1   
 16   9  11  1   
 17  10  12  1   
 18  10  13  1   
 19  10  25  1   
 20  11  14  1   
 21  11  26  1   
 22  11  27  1   
 23  12  15  1   
 24  12  28  1   
 25  12  29  1   
 26  13  16  1   
 27  13  30  1   
 28  13  31  1   
 29  14  17  1   
 30  14  18  1   
 31  14  32  1   
 32  15  17  1   
 33  16  18  1   
 34  16  19  1   
 35  16  33  1   
 36  17  34  1   
 37  17  35  1   
 38  18  36  1   
 39  18  37  1   
 40  19  38  1   
 41  19  39  1   
 42  19  40  1   
@<TRIPOS>SUBSTRUCTURE
  1 ****   9 GROUP 4 **** **** 0

# MOE 2024.06 (io_trps.svl 2023.06)
