@<TRIPOS>MOLECULE
NONAME
36 37 1 0 0 
SMALL
USER_CHARGES


@<TRIPOS>ATOM
  1 O        2.9920    -0.5470     1.5580 O.2   1 <1>  -0.5700 
  2 C        2.1340    -1.1640     0.9590 C.2   1 <1>   0.6900 
  3 N        2.3350    -1.7550    -0.2550 N.am  1 <1>  -0.4200 
  4 N        0.8550    -1.3380     1.3890 N.am  1 <1>  -0.6600 
  5 C        1.1870    -2.3620    -0.6650 C.2   1 <1>   0.5690 
  6 C        3.6240    -1.7730    -1.0030 C.3   1 <1>   0.2010 
  7 C        0.1040    -2.1260     0.3760 C.3   1 <1>   0.2010 
  8 C        0.2460    -0.8580     2.6530 C.3   1 <1>   0.0600 
  9 O        1.0400    -3.0030    -1.6750 O.2   1 <1>  -0.5700 
 10 C        4.0230    -0.4080    -1.5590 C.2   1 <1>   0.5690 
 11 O        4.2210    -0.3130    -2.7450 O.2   1 <1>  -0.5700 
 12 N        4.1570     0.6350    -0.6870 N.am  1 <1>  -0.4940 
 13 C        4.5320     1.9620    -0.9120 C.2   1 <1>   0.2040 
 14 O        4.9540     2.3940    -2.0770 O.3   1 <1>  -0.0190 
 15 C        4.5570     3.0010    -0.0560 C.2   1 <1>  -0.1810 
 16 N        5.2610     3.6670    -2.0400 N.2   1 <1>  -0.4100 
 17 C        5.0310     4.0530    -0.8370 C.2   1 <1>   0.1080 
 18 C        4.1640     3.0330     1.4120 C.3   1 <1>   0.0210 
 19 C        5.2550     5.4740    -0.3650 C.3   1 <1>  -0.0590 
 20 C        5.3900     2.8240     2.3020 C.3   1 <1>  -0.2400 
 21 H        3.5480    -2.4650    -1.8230 H     1 <1>   0.0800 
 22 H        4.4030    -2.1190    -0.3490 H     1 <1>   0.0800 
 23 H       -0.7070    -1.5540    -0.0380 H     1 <1>   0.0800 
 24 H       -0.2430    -3.0570     0.7860 H     1 <1>   0.0800 
 25 H        0.9790    -0.3270     3.2350 H     1 <1>   0.0800 
 26 H       -0.1150    -1.6940     3.2260 H     1 <1>   0.0800 
 27 H       -0.5740    -0.1950     2.4350 H     1 <1>   0.0800 
 28 H        3.9110     0.4220     0.2870 H     1 <1>   0.3700 
 29 H        3.4460     2.2560     1.6100 H     1 <1>   0.0800 
 30 H        3.6980     3.9750     1.6430 H     1 <1>   0.0800 
 31 H        5.9610     5.4840     0.4440 H     1 <1>   0.0800 
 32 H        4.3260     5.9000    -0.0340 H     1 <1>   0.0800 
 33 H        5.6430     6.0700    -1.1710 H     1 <1>   0.0800 
 34 H        5.8450     1.8730     2.0860 H     1 <1>   0.0800 
 35 H        5.1010     2.8400     3.3380 H     1 <1>   0.0800 
 36 H        6.1150     3.5990     2.1330 H     1 <1>   0.0800 
@<TRIPOS>BOND
  1   1   2  2   
  2   2   3  am  
  3   2   4  am  
  4   3   5  am  
  5   3   6  1   
  6   4   7  1   
  7   4   8  1   
  8   5   7  1   
  9   5   9  2   
 10   6  10  1   
 11   6  21  1   
 12   6  22  1   
 13   7  23  1   
 14   7  24  1   
 15   8  25  1   
 16   8  26  1   
 17   8  27  1   
 18  10  11  2   
 19  10  12  am  
 20  12  13  1   
 21  12  28  1   
 22  13  14  1   
 23  13  15  2   
 24  14  16  1   
 25  15  17  1   
 26  15  18  1   
 27  16  17  2   
 28  17  19  1   
 29  18  20  1   
 30  18  29  1   
 31  18  30  1   
 32  19  31  1   
 33  19  32  1   
 34  19  33  1   
 35  20  34  1   
 36  20  35  1   
 37  20  36  1   
@<TRIPOS>SUBSTRUCTURE
  1 ****  12 GROUP 4 **** **** 0

# MOE 2024.06 (io_trps.svl 2023.06)
