@<TRIPOS>MOLECULE
NONAME
41 42 1 0 0 
SMALL
USER_CHARGES


@<TRIPOS>ATOM
  1 O        3.4850     0.4890     1.1750 O.2   1 <1>  -0.5700 
  2 C        3.0170    -0.2730     0.3320 C.2   1 <1>   0.6160 
  3 N        2.8620    -1.6120     0.6780 N.am  1 <1>  -0.4690 
  4 C        2.6300     0.1640    -0.9850 C.2   1 <1>   0.0290 
  5 C        2.3550    -2.5180    -0.2200 C.2   1 <1>  -0.0410 
  6 C        3.2570    -2.0710     2.0380 C.3   1 <1>   0.0600 
  7 C        2.7680     1.5470    -1.3880 C.2   1 <1>   0.6160 
  8 C        2.1290    -0.7810    -1.8520 C.2   1 <1>  -0.1500 
  9 C        1.9900    -2.1270    -1.4680 C.2   1 <1>  -0.1500 
 10 O        2.5850     1.8470    -2.5540 O.2   1 <1>  -0.5700 
 11 N        3.0960     2.5410    -0.4960 N.am  1 <1>  -0.4940 
 12 C        3.4070     3.9140    -0.6460 C.2   1 <1>  -0.0880 
 13 N        2.8880     4.8140    -1.5290 N.pl3 1 <1>   0.3140 
 14 C        4.3000     4.5980     0.1090 C.2   1 <1>  -0.1810 
 15 N        3.4300     6.0410    -1.3570 N.2   1 <1>  -0.7070 
 16 C        1.8070     4.6320    -2.5040 C.3   1 <1>   0.0160 
 17 C        4.2730     5.9010    -0.3840 C.2   1 <1>   0.1080 
 18 C        5.1530     4.0580     1.2460 C.3   1 <1>   0.0210 
 19 C        5.1070     7.0630     0.1230 C.3   1 <1>   0.0210 
 20 C        6.4700     3.5010     0.7040 C.3   1 <1>  -0.2400 
 21 C        4.3960     7.8000     1.2620 C.3   1 <1>  -0.2400 
 22 H        2.2570    -3.5450     0.0940 H     1 <1>   0.1500 
 23 H        2.6910    -1.5320     2.7780 H     1 <1>   0.0800 
 24 H        4.3050    -1.8780     2.1920 H     1 <1>   0.0800 
 25 H        3.0740    -3.1240     2.1540 H     1 <1>   0.0800 
 26 H        1.8290    -0.5100    -2.8520 H     1 <1>   0.1500 
 27 H        1.5930    -2.8310    -2.1800 H     1 <1>   0.1500 
 28 H        3.3470     2.1630     0.4270 H     1 <1>   0.3700 
 29 H        1.0830     3.9460    -2.1090 H     1 <1>   0.0800 
 30 H        2.2220     4.2430    -3.4150 H     1 <1>   0.0800 
 31 H        1.3410     5.5800    -2.6950 H     1 <1>   0.0800 
 32 H        4.6190     3.2770     1.7590 H     1 <1>   0.0800 
 33 H        5.3500     4.8380     1.9590 H     1 <1>   0.0800 
 34 H        5.2780     7.7430    -0.6930 H     1 <1>   0.0800 
 35 H        6.0630     6.7030     0.4560 H     1 <1>   0.0800 
 36 H        6.2720     2.7040     0.0090 H     1 <1>   0.0800 
 37 H        7.0710     3.1170     1.5090 H     1 <1>   0.0800 
 38 H        7.0190     4.2720     0.1940 H     1 <1>   0.0800 
 39 H        3.4500     8.1760     0.9130 H     1 <1>   0.0800 
 40 H        4.9940     8.6250     1.6020 H     1 <1>   0.0800 
 41 H        4.2170     7.1320     2.0850 H     1 <1>   0.0800 
@<TRIPOS>BOND
  1   1   2  2   
  2   2   3  am  
  3   2   4  1   
  4   3   5  1   
  5   3   6  1   
  6   4   7  1   
  7   4   8  2   
  8   5   9  2   
  9   5  22  1   
 10   6  23  1   
 11   6  24  1   
 12   6  25  1   
 13   7  10  2   
 14   7  11  am  
 15   8   9  1   
 16   8  26  1   
 17   9  27  1   
 18  11  12  1   
 19  11  28  1   
 20  12  13  1   
 21  12  14  2   
 22  13  15  1   
 23  13  16  1   
 24  14  17  1   
 25  14  18  1   
 26  15  17  2   
 27  16  29  1   
 28  16  30  1   
 29  16  31  1   
 30  17  19  1   
 31  18  20  1   
 32  18  32  1   
 33  18  33  1   
 34  19  21  1   
 35  19  34  1   
 36  19  35  1   
 37  20  36  1   
 38  20  37  1   
 39  20  38  1   
 40  21  39  1   
 41  21  40  1   
 42  21  41  1   
@<TRIPOS>SUBSTRUCTURE
  1 ****  11 GROUP 4 **** **** 0

# MOE 2024.06 (io_trps.svl 2023.06)
