@<TRIPOS>MOLECULE
NONAME
48 51 1 0 0 
SMALL
USER_CHARGES


@<TRIPOS>ATOM
  1 O       -0.2940     0.2200     0.7900 O.2   1 <1>  -0.5700 
  2 C       -1.3180     0.8250     0.5470 C.2   1 <1>   0.5440 
  3 N       -2.4650     0.1130     0.2880 N.am  1 <1>  -0.6600 
  4 C       -1.3150     2.2670     0.5330 C.ar  1 <1>   0.0860 
  5 C       -3.7180     0.6710    -0.2820 C.3   1 <1>   0.1400 
  6 C       -2.4940    -1.3720     0.2650 C.3   1 <1>   0.1400 
  7 C       -0.5710     3.0320    -0.3500 C.ar  1 <1>   0.1660 
  8 C       -2.0800     2.9820     1.4300 C.ar  1 <1>   0.1600 
  9 C       -4.4980    -0.5450    -0.7830 C.3   1 <1>   0.2000 
 10 C       -3.9570    -1.7380     0.0030 C.3   1 <1>  -0.0800 
 11 N       -0.6060     4.3440    -0.3430 N.ar  1 <1>  -0.6200 
 12 C        0.3370     2.3910    -1.3870 C.3   1 <1>  -0.0960 
 13 N       -2.1360     4.2930     1.4520 N.ar  1 <1>  -0.6200 
 14 O       -5.8590    -0.4060    -0.5590 O.3   1 <1>  -0.6800 
 15 C       -4.1540    -3.0710    -0.7410 C.3   1 <1>  -0.0160 
 16 C       -1.3860     4.9460     0.5590 C.ar  1 <1>   0.6200 
 17 C       -3.6640    -4.2550     0.0770 C.ar  1 <1>   0.1670 
 18 C       -1.4250     6.3980     0.5680 C.ar  1 <1>   0.0000 
 19 N       -2.3650    -4.5020     0.0410 N.ar  1 <1>  -0.6200 
 20 C       -4.5710    -5.0160     0.8140 C.ar  1 <1>   0.1600 
 21 C       -0.4130     7.1560    -0.0290 C.ar  1 <1>   0.1600 
 22 C       -2.4590     7.1160     1.1650 C.ar  1 <1>  -0.1500 
 23 C       -2.0350    -5.5450     0.7830 C.ar  1 <1>   0.1600 
 24 N       -4.2430    -6.0590     1.5600 N.ar  1 <1>  -0.6200 
 25 N       -0.3500     8.4780    -0.0790 N.ar  1 <1>  -0.6200 
 26 C       -2.4140     8.4920     1.1260 C.ar  1 <1>  -0.1500 
 27 C       -2.9430    -6.2980     1.5180 C.ar  1 <1>   0.1600 
 28 C       -1.3520     9.1170     0.5000 C.ar  1 <1>   0.1600 
 29 H       -4.2640     1.1840     0.4910 H     1 <1>   0.0800 
 30 H       -3.4990     1.3440    -1.0940 H     1 <1>   0.0800 
 31 H       -1.8590    -1.7240    -0.5310 H     1 <1>   0.0800 
 32 H       -2.1430    -1.7790     1.1990 H     1 <1>   0.0800 
 33 H       -2.6660     2.4420     2.1540 H     1 <1>   0.1500 
 34 H       -4.3380    -0.6680    -1.8410 H     1 <1>   0.0800 
 35 H       -4.4460    -1.7870     0.9600 H     1 <1>   0.0800 
 36 H       -0.1170     1.5110    -1.8050 H     1 <1>   0.0800 
 37 H        1.2680     2.1160    -0.9270 H     1 <1>   0.0800 
 38 H        0.5380     3.0800    -2.1870 H     1 <1>   0.0800 
 39 H       -6.0440    -0.3170     0.3960 H     1 <1>   0.4000 
 40 H       -3.6250    -3.0510    -1.6780 H     1 <1>   0.0800 
 41 H       -5.1980    -3.1980    -0.9640 H     1 <1>   0.0800 
 42 H       -5.6130    -4.7510     0.7880 H     1 <1>   0.1500 
 43 H        0.4030     6.6320    -0.4980 H     1 <1>   0.1500 
 44 H       -3.2770     6.6090     1.6480 H     1 <1>   0.1500 
 45 H       -0.9950    -5.8190     0.8130 H     1 <1>   0.1500 
 46 H       -3.1940     9.0790     1.5770 H     1 <1>   0.1500 
 47 H       -2.5780    -7.1300     2.0940 H     1 <1>   0.1500 
 48 H       -1.3240    10.1930     0.4730 H     1 <1>   0.1500 
@<TRIPOS>BOND
  1   1   2  2   
  2   2   3  am  
  3   2   4  1   
  4   3   5  1   
  5   3   6  1   
  6   4   7  ar  
  7   4   8  ar  
  8   5   9  1   
  9   5  29  1   
 10   5  30  1   
 11   6  10  1   
 12   6  31  1   
 13   6  32  1   
 14   7  11  ar  
 15   7  12  1   
 16   8  13  ar  
 17   8  33  1   
 18   9  10  1   
 19   9  14  1   
 20   9  34  1   
 21  10  15  1   
 22  10  35  1   
 23  11  16  ar  
 24  12  36  1   
 25  12  37  1   
 26  12  38  1   
 27  13  16  ar  
 28  14  39  1   
 29  15  17  1   
 30  15  40  1   
 31  15  41  1   
 32  16  18  1   
 33  17  19  ar  
 34  17  20  ar  
 35  18  21  ar  
 36  18  22  ar  
 37  19  23  ar  
 38  20  24  ar  
 39  20  42  1   
 40  21  25  ar  
 41  21  43  1   
 42  22  26  ar  
 43  22  44  1   
 44  23  27  ar  
 45  23  45  1   
 46  24  27  ar  
 47  25  28  ar  
 48  26  28  ar  
 49  26  46  1   
 50  27  47  1   
 51  28  48  1   
@<TRIPOS>SUBSTRUCTURE
  1 ****   2 GROUP 4 **** **** 0

# MOE 2024.06 (io_trps.svl 2023.06)
