@<TRIPOS>MOLECULE
NONAME
43 45 1 0 0 
SMALL
USER_CHARGES


@<TRIPOS>ATOM
  1 CL       0.5900     3.3200    -0.6740 Cl    1 <1>  -0.1770 
  2 C        2.2330     3.0920    -0.1360 C.ar  1 <1>   0.1770 
  3 C        2.6090     3.5550     1.1100 C.ar  1 <1>  -0.1500 
  4 C        3.1350     2.4520    -0.9640 C.ar  1 <1>  -0.1500 
  5 C        3.9160     3.3790     1.5310 C.ar  1 <1>  -0.1500 
  6 C        4.4410     2.2780    -0.5370 C.ar  1 <1>  -0.1500 
  7 C        4.8400     2.7480     0.7080 C.ar  1 <1>  -0.1430 
  8 C        6.2840     2.5720     1.1720 C.3   1 <1>   0.0450 
  9 C        6.9110     3.8540     1.7130 C.2   1 <1>   0.5690 
 10 O        7.4330     3.7950     2.8010 O.2   1 <1>  -0.5700 
 11 N        6.9130     5.0410     1.0100 N.am  1 <1>  -0.6600 
 12 C        7.2570     6.3170     1.7200 C.3   1 <1>   0.1400 
 13 C        6.5740     5.1520    -0.4340 C.3   1 <1>   0.1400 
 14 C        8.6200     6.9150     1.3050 C.3   1 <1>   0.4230 
 15 C        7.6670     5.8560    -1.2550 C.3   1 <1>  -0.0800 
 16 N        8.5410     7.8320     0.1110 N.4   1 <1>  -0.9590 
 17 C        9.6980     5.8420     1.0030 C.3   1 <1>   0.1200 
 18 C        9.0440     5.1430    -1.1850 C.3   1 <1>   0.1200 
 19 C        7.6620     7.3770    -1.0090 C.3   1 <1>   0.3430 
 20 C        8.3230     9.2630     0.4710 C.3   1 <1>   0.2630 
 21 O        9.9810     5.7990    -0.3770 O.3   1 <1>  -0.5600 
 22 H        1.8860     4.0430     1.7390 H     1 <1>   0.1500 
 23 H        2.8130     2.0940    -1.9250 H     1 <1>   0.1500 
 24 H        4.2080     3.7350     2.5060 H     1 <1>   0.1500 
 25 H        5.1380     1.7700    -1.1820 H     1 <1>   0.1500 
 26 H        6.8990     2.2040     0.3730 H     1 <1>   0.0800 
 27 H        6.2990     1.8300     1.9510 H     1 <1>   0.0800 
 28 H        6.4740     7.0380     1.5690 H     1 <1>   0.0800 
 29 H        7.2960     6.1320     2.7800 H     1 <1>   0.0800 
 30 H        6.4320     4.1730    -0.8540 H     1 <1>   0.0800 
 31 H        5.6360     5.6730    -0.5310 H     1 <1>   0.0800 
 32 H        8.9730     7.4860     2.1470 H     1 <1>   0.0800 
 33 H        7.3350     5.7360    -2.2710 H     1 <1>   0.0800 
 34 H        9.4950     7.7120    -0.2830 H     1 <1>   0.4500 
 35 H        9.4330     4.8600     1.3550 H     1 <1>   0.0800 
 36 H       10.6100     6.1200     1.5000 H     1 <1>   0.0800 
 37 H        9.4740     5.1070    -2.1720 H     1 <1>   0.0800 
 38 H        8.9440     4.1280    -0.8380 H     1 <1>   0.0800 
 39 H        6.6480     7.6900    -0.8200 H     1 <1>   0.0800 
 40 H        7.9860     7.8660    -1.9130 H     1 <1>   0.0800 
 41 H        7.3420     9.3980     0.8950 H     1 <1>   0.0800 
 42 H        8.4090     9.8850    -0.4060 H     1 <1>   0.0800 
 43 H        9.0590     9.5850     1.1900 H     1 <1>   0.0800 
@<TRIPOS>BOND
  1   1   2  1   
  2   2   3  ar  
  3   2   4  ar  
  4   3   5  ar  
  5   3  22  1   
  6   4   6  ar  
  7   4  23  1   
  8   5   7  ar  
  9   5  24  1   
 10   6   7  ar  
 11   6  25  1   
 12   7   8  1   
 13   8   9  1   
 14   8  26  1   
 15   8  27  1   
 16   9  10  2   
 17   9  11  am  
 18  11  12  1   
 19  11  13  1   
 20  12  14  1   
 21  12  28  1   
 22  12  29  1   
 23  13  15  1   
 24  13  30  1   
 25  13  31  1   
 26  14  16  1   
 27  14  17  1   
 28  14  32  1   
 29  15  18  1   
 30  15  19  1   
 31  15  33  1   
 32  16  19  1   
 33  16  20  1   
 34  16  34  1   
 35  17  21  1   
 36  17  35  1   
 37  17  36  1   
 38  18  21  1   
 39  18  37  1   
 40  18  38  1   
 41  19  39  1   
 42  19  40  1   
 43  20  41  1   
 44  20  42  1   
 45  20  43  1   
@<TRIPOS>SUBSTRUCTURE
  1 ****  11 GROUP 4 **** **** 0

# MOE 2024.06 (io_trps.svl 2023.06)
