@<TRIPOS>MOLECULE
NONAME
44 46 1 0 0 
SMALL
USER_CHARGES


@<TRIPOS>ATOM
  1 F       -0.8940     0.4780    -1.2590 F     1 <1>  -0.1900 
  2 C       -1.8460     0.9880    -0.5250 C.ar  1 <1>   0.1900 
  3 C       -1.6120     2.1570     0.1780 C.ar  1 <1>   0.1600 
  4 C       -3.0630     0.3510    -0.4690 C.ar  1 <1>  -0.1500 
  5 N       -2.5240     2.7380     0.9490 N.ar  1 <1>  -0.6200 
  6 C       -4.0390     0.9430     0.3220 C.ar  1 <1>   0.0860 
  7 C       -3.6950     2.1130     1.0040 C.ar  1 <1>   0.1600 
  8 C       -5.3610     0.3710     0.4480 C.2   1 <1>   0.5440 
  9 O       -5.4700    -0.8120     0.7020 O.2   1 <1>  -0.5700 
 10 N       -6.5020     1.1260     0.2790 N.am  1 <1>  -0.6600 
 11 C       -7.8310     0.5530     0.6460 C.3   1 <1>   0.1400 
 12 C       -6.5080     2.4410    -0.4330 C.3   1 <1>   0.1400 
 13 C       -8.8470     1.6690     0.9040 C.3   1 <1>  -0.1600 
 14 C       -7.8030     2.5880    -1.2310 C.3   1 <1>  -0.1600 
 15 C       -9.0340     2.6130    -0.3070 C.3   1 <1>   0.2800 
 16 O       -9.0730     3.9150     0.2270 O.3   1 <1>  -0.5600 
 17 C      -10.3000     2.2540    -1.1320 C.3   1 <1>  -0.1600 
 18 C      -10.1940     4.7280    -0.0210 C.3   1 <1>   0.1200 
 19 C      -11.6460     2.7650    -0.5620 C.3   1 <1>   0.2800 
 20 C      -11.4600     3.9750     0.3920 C.3   1 <1>   0.2000 
 21 O      -12.3630     3.2280    -1.6500 O.3   1 <1>  -0.6800 
 22 C      -12.5140     1.6440     0.0250 C.3   1 <1>  -0.2400 
 23 O      -11.2790     3.5760     1.7150 O.3   1 <1>  -0.6800 
 24 H       -0.6450     2.6230     0.1040 H     1 <1>   0.1500 
 25 H       -3.2510    -0.5610    -1.0070 H     1 <1>   0.1500 
 26 H       -4.4450     2.5570     1.6360 H     1 <1>   0.1500 
 27 H       -8.1720    -0.0830    -0.1530 H     1 <1>   0.0800 
 28 H       -7.7290    -0.0520     1.5320 H     1 <1>   0.0800 
 29 H       -6.4350     3.2390     0.2860 H     1 <1>   0.0800 
 30 H       -5.6690     2.5030    -1.1050 H     1 <1>   0.0800 
 31 H       -8.4940     2.2270     1.7540 H     1 <1>   0.0800 
 32 H       -9.7800     1.2200     1.1830 H     1 <1>   0.0800 
 33 H       -7.8650     1.7620    -1.9170 H     1 <1>   0.0800 
 34 H       -7.7720     3.4900    -1.8150 H     1 <1>   0.0800 
 35 H      -10.1610     2.6750    -2.1130 H     1 <1>   0.0800 
 36 H      -10.3360     1.1880    -1.2650 H     1 <1>   0.0800 
 37 H      -10.0900     5.6310     0.5530 H     1 <1>   0.0800 
 38 H      -10.2180     4.9830    -1.0670 H     1 <1>   0.0800 
 39 H      -12.3290     4.6090     0.3610 H     1 <1>   0.0800 
 40 H      -12.6600     2.4720    -2.1890 H     1 <1>   0.4000 
 41 H      -12.0360     1.2020     0.8790 H     1 <1>   0.0800 
 42 H      -12.6900     0.8680    -0.6980 H     1 <1>   0.0800 
 43 H      -13.4570     2.0450     0.3540 H     1 <1>   0.0800 
 44 H      -10.3140     3.4420     1.8370 H     1 <1>   0.4000 
@<TRIPOS>BOND
  1   1   2  1   
  2   2   3  ar  
  3   2   4  ar  
  4   3   5  ar  
  5   3  24  1   
  6   4   6  ar  
  7   4  25  1   
  8   5   7  ar  
  9   6   7  ar  
 10   6   8  1   
 11   7  26  1   
 12   8   9  2   
 13   8  10  am  
 14  10  11  1   
 15  10  12  1   
 16  11  13  1   
 17  11  27  1   
 18  11  28  1   
 19  12  14  1   
 20  12  29  1   
 21  12  30  1   
 22  13  15  1   
 23  13  31  1   
 24  13  32  1   
 25  14  15  1   
 26  14  33  1   
 27  14  34  1   
 28  15  16  1   
 29  15  17  1   
 30  16  18  1   
 31  17  19  1   
 32  17  35  1   
 33  17  36  1   
 34  18  20  1   
 35  18  37  1   
 36  18  38  1   
 37  19  20  1   
 38  19  21  1   
 39  19  22  1   
 40  20  23  1   
 41  20  39  1   
 42  21  40  1   
 43  22  41  1   
 44  22  42  1   
 45  22  43  1   
 46  23  44  1   
@<TRIPOS>SUBSTRUCTURE
  1 ****  12 GROUP 4 **** **** 0

# MOE 2024.06 (io_trps.svl 2023.06)
