@<TRIPOS>MOLECULE
NONAME
52 56 1 0 0 
SMALL
USER_CHARGES


@<TRIPOS>ATOM
  1 O        0.5360    -0.7740     1.1020 O.3   1 <1>  -0.5600 
  2 C        1.6450    -1.1510     0.3100 C.3   1 <1>   0.4600 
  3 C       -0.7520    -1.0990     0.6360 C.3   1 <1>   0.1200 
  4 C        1.4000    -2.5450    -0.2580 C.2   1 <1>  -0.3320 
  5 C        1.8390    -0.1280    -0.8150 C.3   1 <1>  -0.1600 
  6 C        2.8590    -1.1660     1.2390 C.3   1 <1>  -0.1600 
  7 C       -0.9490    -2.6220     0.5620 C.3   1 <1>   0.0210 
  8 N        2.3020    -3.3050    -0.9490 N.pl3 1 <1>   0.0330 
  9 C        0.2390    -3.2200    -0.1480 C.2   1 <1>  -0.1810 
 10 C        2.1430     1.2610    -0.2600 C.3   1 <1>   0.2090 
 11 C        3.1810     0.2300     1.7680 C.3   1 <1>   0.2090 
 12 C        1.6920    -4.4920    -1.2770 C.ar  1 <1>  -0.1520 
 13 C        0.3900    -4.4710    -0.7830 C.ar  1 <1>   0.0000 
 14 N        3.3250     1.1830     0.6340 N.pl3 1 <1>  -0.8380 
 15 C        2.1740    -5.6040    -1.9740 C.ar  1 <1>  -0.1500 
 16 C       -0.4460    -5.5730    -0.9850 C.ar  1 <1>  -0.1500 
 17 C        4.5850     1.5260     0.1120 C.ar  1 <1>   0.4100 
 18 C        1.3400    -6.6810    -2.1660 C.ar  1 <1>  -0.1500 
 19 C        0.0300    -6.6660    -1.6720 C.ar  1 <1>  -0.1500 
 20 N        5.4880     0.5580     0.1790 N.ar  1 <1>  -0.6200 
 21 C        4.8690     2.8190    -0.4690 C.ar  1 <1>   0.4100 
 22 C        6.6520     0.8990    -0.3530 C.ar  1 <1>   0.1600 
 23 N        6.0430     3.1170    -1.0060 N.ar  1 <1>  -0.6200 
 24 N        3.9320     3.8720    -0.4910 N.pl3 1 <1>  -0.8380 
 25 C        6.9170     2.1250    -0.9260 C.ar  1 <1>   0.1600 
 26 C        4.0510     4.9470    -1.5140 C.3   1 <1>   0.1290 
 27 C        3.4040     4.3340     0.8200 C.3   1 <1>   0.1290 
 28 H       -0.8860    -0.6570    -0.3350 H     1 <1>   0.0800 
 29 H       -1.4650    -0.6650     1.3150 H     1 <1>   0.0800 
 30 H        0.9720    -0.0950    -1.4440 H     1 <1>   0.0800 
 31 H        2.6670    -0.4310    -1.4280 H     1 <1>   0.0800 
 32 H        3.7180    -1.5310     0.7090 H     1 <1>   0.0800 
 33 H        2.6710    -1.8350     2.0580 H     1 <1>   0.0800 
 34 H       -1.8530    -2.8450     0.0260 H     1 <1>   0.0800 
 35 H       -1.0240    -3.0320     1.5530 H     1 <1>   0.0800 
 36 H        3.2670    -3.0480    -1.1750 H     1 <1>   0.2700 
 37 H        1.3010     1.6320     0.2990 H     1 <1>   0.0800 
 38 H        2.3320     1.9380    -1.0740 H     1 <1>   0.0800 
 39 H        4.0900     0.2050     2.3450 H     1 <1>   0.0800 
 40 H        2.3870     0.5690     2.4110 H     1 <1>   0.0800 
 41 H        3.1810    -5.6080    -2.3490 H     1 <1>   0.1500 
 42 H       -1.4480    -5.5470    -0.5990 H     1 <1>   0.1500 
 43 H        1.6880    -7.5490    -2.7000 H     1 <1>   0.1500 
 44 H       -0.6010    -7.5220    -1.8350 H     1 <1>   0.1500 
 45 H        7.4290     0.1570    -0.3300 H     1 <1>   0.1500 
 46 H        7.8930     2.3080    -1.3380 H     1 <1>   0.1500 
 47 H        4.3210     4.5180    -2.4640 H     1 <1>   0.0800 
 48 H        4.8130     5.6480    -1.2210 H     1 <1>   0.0800 
 49 H        3.1120     5.4600    -1.6200 H     1 <1>   0.0800 
 50 H        3.6500     3.6320     1.5980 H     1 <1>   0.0800 
 51 H        2.3330     4.4250     0.7650 H     1 <1>   0.0800 
 52 H        3.8300     5.2890     1.0740 H     1 <1>   0.0800 
@<TRIPOS>BOND
  1   1   2  1   
  2   1   3  1   
  3   2   4  1   
  4   2   5  1   
  5   2   6  1   
  6   3   7  1   
  7   3  28  1   
  8   3  29  1   
  9   4   8  1   
 10   4   9  2   
 11   5  10  1   
 12   5  30  1   
 13   5  31  1   
 14   6  11  1   
 15   6  32  1   
 16   6  33  1   
 17   7   9  1   
 18   7  34  1   
 19   7  35  1   
 20   8  12  1   
 21   8  36  1   
 22   9  13  1   
 23  10  14  1   
 24  10  37  1   
 25  10  38  1   
 26  11  14  1   
 27  11  39  1   
 28  11  40  1   
 29  12  13  ar  
 30  12  15  ar  
 31  13  16  ar  
 32  14  17  1   
 33  15  18  ar  
 34  15  41  1   
 35  16  19  ar  
 36  16  42  1   
 37  17  20  ar  
 38  17  21  ar  
 39  18  19  ar  
 40  18  43  1   
 41  19  44  1   
 42  20  22  ar  
 43  21  23  ar  
 44  21  24  1   
 45  22  25  ar  
 46  22  45  1   
 47  23  25  ar  
 48  24  26  1   
 49  24  27  1   
 50  25  46  1   
 51  26  47  1   
 52  26  48  1   
 53  26  49  1   
 54  27  50  1   
 55  27  51  1   
 56  27  52  1   
@<TRIPOS>SUBSTRUCTURE
  1 ****   5 GROUP 4 **** **** 0

# MOE 2024.06 (io_trps.svl 2023.06)
