@<TRIPOS>MOLECULE
NONAME
43 45 1 0 0 
SMALL
USER_CHARGES


@<TRIPOS>ATOM
  1 S       -1.7940    -0.3930    -2.5350 S.3   1 <1>  -0.0800 
  2 C       -2.2880    -1.0260    -0.9860 C.2   1 <1>  -0.1400 
  3 C       -1.6710     1.1970    -1.8330 C.2   1 <1>   0.2280 
  4 C       -2.3200     0.0000    -0.1070 C.2   1 <1>   0.0460 
  5 C       -2.5510    -2.5290    -1.0030 C.3   1 <1>   0.0200 
  6 N       -1.9650     1.2460    -0.5980 N.2   1 <1>  -0.5650 
  7 C       -2.6940     0.0160     1.3630 C.3   1 <1>  -0.0590 
  8 C       -2.7550    -3.1700     0.3690 C.3   1 <1>   0.2090 
  9 N       -2.8140    -4.6530     0.2420 N.pl3 1 <1>  -0.8380 
 10 C       -4.0150    -5.3240     0.1060 C.ar  1 <1>   0.7200 
 11 C       -1.5310    -5.3810     0.4510 C.3   1 <1>   0.1290 
 12 N       -5.0760    -4.6000    -0.2350 N.ar  1 <1>  -0.6200 
 13 N       -4.0040    -6.6340     0.3270 N.ar  1 <1>  -0.6200 
 14 C       -6.2090    -5.2420    -0.3630 C.ar  1 <1>   0.1670 
 15 C       -5.1440    -7.2640     0.1940 C.ar  1 <1>   0.1670 
 16 C       -6.3090    -6.6050    -0.1500 C.ar  1 <1>  -0.1430 
 17 C       -7.4100    -4.3900    -0.7460 C.3   1 <1>  -0.0170 
 18 C       -5.0980    -8.7600     0.4430 C.3   1 <1>  -0.0970 
 19 C       -7.6410    -7.3420    -0.2990 C.3   1 <1>  -0.0170 
 20 C       -8.6110    -5.2140    -1.2270 C.3   1 <1>  -0.1600 
 21 C       -8.8500    -6.3990    -0.2890 C.3   1 <1>  -0.1600 
 22 H       -1.3630     1.9990    -2.4800 H     1 <1>   0.1500 
 23 H       -1.7130    -3.0090    -1.4740 H     1 <1>   0.0800 
 24 H       -3.4220    -2.7200    -1.6050 H     1 <1>   0.0800 
 25 H       -3.0460    -0.9310     1.7130 H     1 <1>   0.0800 
 26 H       -3.4720     0.7410     1.5210 H     1 <1>   0.0800 
 27 H       -1.8380     0.3050     1.9450 H     1 <1>   0.0800 
 28 H       -3.6710    -2.8080     0.8040 H     1 <1>   0.0800 
 29 H       -1.9430    -2.9010     1.0220 H     1 <1>   0.0800 
 30 H       -0.7000    -4.7740     0.1360 H     1 <1>   0.0800 
 31 H       -1.5220    -6.2920    -0.1230 H     1 <1>   0.0800 
 32 H       -1.4210    -5.6240     1.4930 H     1 <1>   0.0800 
 33 H       -7.1220    -3.6990    -1.5180 H     1 <1>   0.0800 
 34 H       -7.6930    -3.8150     0.1180 H     1 <1>   0.0800 
 35 H       -4.0850    -9.1150     0.3800 H     1 <1>   0.0800 
 36 H       -5.6820    -9.2870    -0.2880 H     1 <1>   0.0800 
 37 H       -5.4740    -8.9740     1.4270 H     1 <1>   0.0800 
 38 H       -7.7600    -8.0560     0.4960 H     1 <1>   0.0800 
 39 H       -7.6260    -7.8800    -1.2310 H     1 <1>   0.0800 
 40 H       -8.4180    -5.5770    -2.2220 H     1 <1>   0.0800 
 41 H       -9.4860    -4.5880    -1.2640 H     1 <1>   0.0800 
 42 H       -9.0130    -6.0360     0.7120 H     1 <1>   0.0800 
 43 H       -9.7300    -6.9380    -0.5940 H     1 <1>   0.0800 
@<TRIPOS>BOND
  1   1   2  1   
  2   1   3  1   
  3   2   4  2   
  4   2   5  1   
  5   3   6  2   
  6   3  22  1   
  7   4   6  1   
  8   4   7  1   
  9   5   8  1   
 10   5  23  1   
 11   5  24  1   
 12   7  25  1   
 13   7  26  1   
 14   7  27  1   
 15   8   9  1   
 16   8  28  1   
 17   8  29  1   
 18   9  10  1   
 19   9  11  1   
 20  10  12  ar  
 21  10  13  ar  
 22  11  30  1   
 23  11  31  1   
 24  11  32  1   
 25  12  14  ar  
 26  13  15  ar  
 27  14  16  ar  
 28  14  17  1   
 29  15  16  ar  
 30  15  18  1   
 31  16  19  1   
 32  17  20  1   
 33  17  33  1   
 34  17  34  1   
 35  18  35  1   
 36  18  36  1   
 37  18  37  1   
 38  19  21  1   
 39  19  38  1   
 40  19  39  1   
 41  20  21  1   
 42  20  40  1   
 43  20  41  1   
 44  21  42  1   
 45  21  43  1   
@<TRIPOS>SUBSTRUCTURE
  1 ****  12 GROUP 4 **** **** 0

# MOE 2024.06 (io_trps.svl 2023.06)
