@<TRIPOS>MOLECULE
NONAME
53 56 1 0 0 
SMALL
USER_CHARGES


@<TRIPOS>ATOM
  1 O        0.6190     1.4910     0.3110 O.2   1 <1>  -0.5700 
  2 C        0.3580     2.6110    -0.0470 C.2   1 <1>   0.5690 
  3 N       -0.3340     3.4500     0.7520 N.am  1 <1>  -0.7300 
  4 C        0.7800     3.0970    -1.4320 C.3   1 <1>   0.1810 
  5 C       -0.7640     4.8120     0.3490 C.3   1 <1>   0.3640 
  6 O        0.8680     4.5020    -1.4930 O.3   1 <1>  -0.5600 
  7 C       -2.2830     4.8890     0.4950 C.ar  1 <1>  -0.1440 
  8 C       -0.3130     5.1950    -1.0900 C.3   1 <1>   0.2610 
  9 C       -2.8640     5.9930     1.1030 C.ar  1 <1>  -0.1500 
 10 C       -3.1070     3.8720     0.0250 C.ar  1 <1>  -0.1500 
 11 C       -0.0780     6.7090    -1.1580 C.2   1 <1>   0.5690 
 12 C       -4.2380     6.0800     1.2440 C.ar  1 <1>  -0.1500 
 13 C       -4.4810     3.9580     0.1660 C.ar  1 <1>  -0.1500 
 14 O       -0.9880     7.4710    -0.9360 O.2   1 <1>  -0.5700 
 15 N        1.1690     7.1710    -1.4400 N.am  1 <1>  -0.7300 
 16 C       -5.0480     5.0620     0.7760 C.ar  1 <1>  -0.1500 
 17 C        1.5610     8.6010    -1.5350 C.3   1 <1>   0.1400 
 18 C        1.6070     9.2470    -0.1470 C.3   1 <1>   0.2090 
 19 N        2.1030    10.6500    -0.2600 N.pl3 1 <1>  -0.8380 
 20 C        3.3790    10.9840     0.2370 C.ar  1 <1>   0.1000 
 21 C        1.0040    11.6570    -0.2590 C.3   1 <1>   0.2090 
 22 C        3.6310    12.2360     0.8070 C.ar  1 <1>  -0.1430 
 23 C        4.4380    10.0800     0.1570 C.ar  1 <1>  -0.1500 
 24 C        1.5550    13.0810    -0.2780 C.3   1 <1>  -0.1600 
 25 C        4.8870    12.5430     1.3060 C.ar  1 <1>  -0.1500 
 26 C        2.5310    13.2800     0.8800 C.3   1 <1>  -0.0170 
 27 C        5.6900    10.3890     0.6530 C.ar  1 <1>  -0.1500 
 28 C        5.9160    11.6220     1.2340 C.ar  1 <1>  -0.1500 
 29 H       -0.6740     3.1020     1.6500 H     1 <1>   0.3700 
 30 H        0.0690     2.7650    -2.1660 H     1 <1>   0.0800 
 31 H        1.7470     2.6950    -1.6730 H     1 <1>   0.0800 
 32 H       -0.3170     5.5080     1.0380 H     1 <1>   0.0800 
 33 H       -1.0900     4.9470    -1.7890 H     1 <1>   0.0800 
 34 H       -2.2510     6.8020     1.4650 H     1 <1>   0.1500 
 35 H       -2.6880     3.0030    -0.4500 H     1 <1>   0.1500 
 36 H       -4.6760     6.9430     1.7150 H     1 <1>   0.1500 
 37 H       -5.1100     3.1640    -0.1990 H     1 <1>   0.1500 
 38 H        1.8910     6.4710    -1.6480 H     1 <1>   0.3700 
 39 H       -6.1160     5.1290     0.8850 H     1 <1>   0.1500 
 40 H        2.5290     8.6770    -1.9980 H     1 <1>   0.0800 
 41 H        0.8440     9.1250    -2.1430 H     1 <1>   0.0800 
 42 H        2.2510     8.6800     0.5010 H     1 <1>   0.0800 
 43 H        0.6200     9.2420     0.2810 H     1 <1>   0.0800 
 44 H        0.3810    11.5030    -1.1230 H     1 <1>   0.0800 
 45 H        0.4020    11.5210     0.6240 H     1 <1>   0.0800 
 46 H        4.2880     9.1260    -0.3060 H     1 <1>   0.1500 
 47 H        2.0620    13.2460    -1.2130 H     1 <1>   0.0800 
 48 H        0.7460    13.7840    -0.2040 H     1 <1>   0.0800 
 49 H        5.0710    13.5040     1.7520 H     1 <1>   0.1500 
 50 H        2.0150    13.1780     1.8180 H     1 <1>   0.0800 
 51 H        2.9530    14.2680     0.8270 H     1 <1>   0.0800 
 52 H        6.4890     9.6730     0.5840 H     1 <1>   0.1500 
 53 H        6.8890    11.8670     1.6240 H     1 <1>   0.1500 
@<TRIPOS>BOND
  1   1   2  2   
  2   2   3  am  
  3   2   4  1   
  4   3   5  1   
  5   3  29  1   
  6   4   6  1   
  7   4  30  1   
  8   4  31  1   
  9   5   7  1   
 10   5   8  1   
 11   5  32  1   
 12   6   8  1   
 13   7   9  ar  
 14   7  10  ar  
 15   8  11  1   
 16   8  33  1   
 17   9  12  ar  
 18   9  34  1   
 19  10  13  ar  
 20  10  35  1   
 21  11  14  2   
 22  11  15  am  
 23  12  16  ar  
 24  12  36  1   
 25  13  16  ar  
 26  13  37  1   
 27  15  17  1   
 28  15  38  1   
 29  16  39  1   
 30  17  18  1   
 31  17  40  1   
 32  17  41  1   
 33  18  19  1   
 34  18  42  1   
 35  18  43  1   
 36  19  20  1   
 37  19  21  1   
 38  20  22  ar  
 39  20  23  ar  
 40  21  24  1   
 41  21  44  1   
 42  21  45  1   
 43  22  25  ar  
 44  22  26  1   
 45  23  27  ar  
 46  23  46  1   
 47  24  26  1   
 48  24  47  1   
 49  24  48  1   
 50  25  28  ar  
 51  25  49  1   
 52  26  50  1   
 53  26  51  1   
 54  27  28  ar  
 55  27  52  1   
 56  28  53  1   
@<TRIPOS>SUBSTRUCTURE
  1 ****  15 GROUP 4 **** **** 0

# MOE 2024.06 (io_trps.svl 2023.06)
