@<TRIPOS>MOLECULE
NONAME
53 56 1 0 0 
SMALL
USER_CHARGES


@<TRIPOS>ATOM
  1 O       -0.4890     1.0550    -1.2310 O.2   1 <1>  -0.5700 
  2 C       -0.4780     2.2110    -0.8780 C.2   1 <1>   0.5690 
  3 N       -1.4920     2.7820    -0.1540 N.am  1 <1>  -0.5090 
  4 C        0.7160     3.0660    -1.3040 C.3   1 <1>   0.1810 
  5 C       -1.5210     4.2540     0.1300 C.3   1 <1>   0.3640 
  6 C       -2.6160     1.9880     0.4030 C.3   1 <1>   0.0490 
  7 O        0.8210     4.2640    -0.5780 O.3   1 <1>  -0.5600 
  8 C       -2.8610     4.8430    -0.3130 C.ar  1 <1>  -0.1440 
  9 C       -0.3660     5.0320    -0.5530 C.3   1 <1>   0.2610 
 10 C       -2.8680     2.0250     1.8800 C.3   1 <1>  -0.2000 
 11 C       -2.3210     0.7870     1.2460 C.3   1 <1>  -0.2000 
 12 C       -3.4030     4.5400    -1.5560 C.ar  1 <1>   0.1600 
 13 C       -3.5560     5.7030     0.5160 C.ar  1 <1>  -0.1500 
 14 C       -0.1100     6.3990     0.1120 C.2   1 <1>   0.5690 
 15 N       -4.5410     5.0210    -2.0280 N.ar  1 <1>  -0.6200 
 16 C       -4.7480     6.2080     0.0430 C.ar  1 <1>  -0.1500 
 17 O       -0.6100     6.6190     1.1940 O.2   1 <1>  -0.5700 
 18 N        0.6730     7.3480    -0.5050 N.am  1 <1>  -0.6600 
 19 C       -5.1880     5.8420    -1.2170 C.ar  1 <1>   0.1600 
 20 C        1.0130     8.6240     0.1980 C.3   1 <1>   0.2840 
 21 C        1.3870     7.1430    -1.8010 C.3   1 <1>   0.0600 
 22 C        2.5230     8.8550     0.2430 C.ar  1 <1>  -0.1440 
 23 C        3.3700     8.0820     1.0350 C.ar  1 <1>  -0.1440 
 24 C        3.0600     9.8700    -0.5380 C.ar  1 <1>  -0.1500 
 25 C        4.7330     8.3370     1.0270 C.ar  1 <1>  -0.1500 
 26 C        2.8460     6.9520     1.9110 C.3   1 <1>  -0.0970 
 27 C        4.4200    10.1180    -0.5390 C.ar  1 <1>  -0.1500 
 28 C        5.2590     9.3490     0.2450 C.ar  1 <1>  -0.1500 
 29 H        0.6340     3.3040    -2.3490 H     1 <1>   0.0800 
 30 H        1.6220     2.5100    -1.1470 H     1 <1>   0.0800 
 31 H       -1.4250     4.3670     1.1950 H     1 <1>   0.0800 
 32 H       -3.4620     1.9390    -0.2630 H     1 <1>   0.1000 
 33 H       -0.6500     5.2180    -1.5710 H     1 <1>   0.0800 
 34 H       -2.2150     2.5830     2.5270 H     1 <1>   0.1000 
 35 H       -3.8840     2.0080     2.2300 H     1 <1>   0.1000 
 36 H       -2.9610    -0.0720     1.1530 H     1 <1>   0.1000 
 37 H       -1.2920     0.5180     1.4120 H     1 <1>   0.1000 
 38 H       -2.8740     3.8610    -2.2030 H     1 <1>   0.1500 
 39 H       -3.1860     5.9780     1.4900 H     1 <1>   0.1500 
 40 H       -5.3320     6.8820     0.6440 H     1 <1>   0.1500 
 41 H       -6.1200     6.2450    -1.5760 H     1 <1>   0.1500 
 42 H        0.5350     9.4360    -0.3210 H     1 <1>   0.0800 
 43 H        0.6300     8.6270     1.2030 H     1 <1>   0.0800 
 44 H        1.4390     8.0720    -2.3410 H     1 <1>   0.0800 
 45 H        0.8870     6.4220    -2.4200 H     1 <1>   0.0800 
 46 H        2.3890     6.7990    -1.6060 H     1 <1>   0.0800 
 47 H        2.4200    10.4780    -1.1530 H     1 <1>   0.1500 
 48 H        5.3980     7.7460     1.6320 H     1 <1>   0.1500 
 49 H        3.5990     6.6190     2.6020 H     1 <1>   0.0800 
 50 H        2.5570     6.1180     1.2970 H     1 <1>   0.0800 
 51 H        1.9940     7.2750     2.4810 H     1 <1>   0.0800 
 52 H        4.8260    10.9070    -1.1470 H     1 <1>   0.1500 
 53 H        6.3180     9.5370     0.2480 H     1 <1>   0.1500 
@<TRIPOS>BOND
  1   1   2  2   
  2   2   3  am  
  3   2   4  1   
  4   3   5  1   
  5   3   6  1   
  6   4   7  1   
  7   4  29  1   
  8   4  30  1   
  9   5   8  1   
 10   5   9  1   
 11   5  31  1   
 12   6  10  1   
 13   6  11  1   
 14   6  32  1   
 15   7   9  1   
 16   8  12  ar  
 17   8  13  ar  
 18   9  14  1   
 19   9  33  1   
 20  10  11  1   
 21  10  34  1   
 22  10  35  1   
 23  11  36  1   
 24  11  37  1   
 25  12  15  ar  
 26  12  38  1   
 27  13  16  ar  
 28  13  39  1   
 29  14  17  2   
 30  14  18  am  
 31  15  19  ar  
 32  16  19  ar  
 33  16  40  1   
 34  18  20  1   
 35  18  21  1   
 36  19  41  1   
 37  20  22  1   
 38  20  42  1   
 39  20  43  1   
 40  21  44  1   
 41  21  45  1   
 42  21  46  1   
 43  22  23  ar  
 44  22  24  ar  
 45  23  25  ar  
 46  23  26  1   
 47  24  27  ar  
 48  24  47  1   
 49  25  28  ar  
 50  25  48  1   
 51  26  49  1   
 52  26  50  1   
 53  26  51  1   
 54  27  28  ar  
 55  27  52  1   
 56  28  53  1   
@<TRIPOS>SUBSTRUCTURE
  1 ****   9 GROUP 4 **** **** 0

# MOE 2024.06 (io_trps.svl 2023.06)
