@<TRIPOS>MOLECULE
NONAME
49 52 1 0 0 
SMALL
USER_CHARGES


@<TRIPOS>ATOM
  1 S       -1.2710     2.5600    -1.3670 S.3   1 <1>  -0.0800 
  2 C       -1.9340     1.6070    -0.0470 C.2   1 <1>  -0.1400 
  3 C       -1.3240     1.1800    -2.4490 C.2   1 <1>  -0.1100 
  4 C       -2.1570     0.3420    -0.4470 C.2   1 <1>  -0.1500 
  5 C       -2.1510     2.2930     1.2930 C.3   1 <1>   0.0810 
  6 C       -1.8110     0.0980    -1.8150 C.2   1 <1>  -0.1500 
  7 C       -3.6020     2.2210     1.7570 C.2   1 <1>   0.5690 
  8 O       -3.8440     1.4240     2.6360 O.2   1 <1>  -0.5700 
  9 N       -4.5790     3.0290     1.2200 N.am  1 <1>  -0.6600 
 10 C       -6.0100     2.8910     1.6520 C.3   1 <1>   0.1400 
 11 C       -4.3770     3.9870     0.0950 C.3   1 <1>   0.1400 
 12 C       -6.9550     2.2900     0.5800 C.3   1 <1>   0.1900 
 13 C       -5.0790     3.5650    -1.2150 C.3   1 <1>  -0.0800 
 14 N       -6.2360     1.4180    -0.3940 N.3   1 <1>  -0.8100 
 15 C       -7.8580     3.3490    -0.0860 C.3   1 <1>   0.1200 
 16 C       -6.3240     4.4120    -1.5260 C.3   1 <1>   0.1200 
 17 C       -5.3510     2.0580    -1.3880 C.3   1 <1>   0.1100 
 18 C       -7.0570     0.3380    -0.9840 C.3   1 <1>   0.2900 
 19 O       -7.1710     4.5160    -0.4300 O.3   1 <1>  -0.5600 
 20 C       -7.7340    -0.5450     0.0590 C.2   1 <1>   0.0060 
 21 N       -9.0040    -0.8060     0.0350 N.2   1 <1>  -0.5650 
 22 N       -7.0800    -1.1260     1.0980 N.pl3 1 <1>   0.0480 
 23 C       -9.1920    -1.5960     1.1070 C.2   1 <1>   0.0770 
 24 C       -8.0320    -1.8000     1.7660 C.2   1 <1>  -0.3020 
 25 C       -5.6610    -1.0360     1.4950 C.3   1 <1>   0.0160 
 26 H       -0.9770     1.3260    -3.4560 H     1 <1>   0.1500 
 27 H       -2.5580    -0.4430     0.1720 H     1 <1>   0.1500 
 28 H       -1.5380     1.8010     2.0250 H     1 <1>   0.0800 
 29 H       -1.8330     3.3170     1.2570 H     1 <1>   0.0800 
 30 H       -1.9440    -0.8770    -2.2510 H     1 <1>   0.1500 
 31 H       -6.0630     2.2590     2.5200 H     1 <1>   0.0800 
 32 H       -6.3780     3.8540     1.9580 H     1 <1>   0.0800 
 33 H       -4.7370     4.9540     0.4010 H     1 <1>   0.0800 
 34 H       -3.3310     4.1030    -0.1080 H     1 <1>   0.0800 
 35 H       -7.6340     1.6700     1.1360 H     1 <1>   0.0800 
 36 H       -4.3880     3.8110    -2.0010 H     1 <1>   0.0800 
 37 H       -8.6130     3.6440     0.6200 H     1 <1>   0.0800 
 38 H       -8.3530     2.9510    -0.9540 H     1 <1>   0.0800 
 39 H       -6.8770     4.0130    -2.3590 H     1 <1>   0.0800 
 40 H       -6.0210     5.4140    -1.7730 H     1 <1>   0.0800 
 41 H       -4.4100     1.5380    -1.3670 H     1 <1>   0.0800 
 42 H       -5.7630     1.9130    -2.3720 H     1 <1>   0.0800 
 43 H       -7.8120     0.7670    -1.6200 H     1 <1>   0.0800 
 44 H       -6.4300    -0.2900    -1.5910 H     1 <1>   0.0800 
 45 H      -10.1670    -1.9820     1.3520 H     1 <1>   0.1500 
 46 H       -7.8390    -2.3720     2.6540 H     1 <1>   0.1500 
 47 H       -5.2970    -2.0130     1.7490 H     1 <1>   0.0800 
 48 H       -5.5790    -0.3900     2.3490 H     1 <1>   0.0800 
 49 H       -5.0740    -0.6330     0.6920 H     1 <1>   0.0800 
@<TRIPOS>BOND
  1   1   2  1   
  2   1   3  1   
  3   2   4  2   
  4   2   5  1   
  5   3   6  2   
  6   3  26  1   
  7   4   6  1   
  8   4  27  1   
  9   5   7  1   
 10   5  28  1   
 11   5  29  1   
 12   6  30  1   
 13   7   8  2   
 14   7   9  am  
 15   9  10  1   
 16   9  11  1   
 17  10  12  1   
 18  10  31  1   
 19  10  32  1   
 20  11  13  1   
 21  11  33  1   
 22  11  34  1   
 23  12  14  1   
 24  12  15  1   
 25  12  35  1   
 26  13  16  1   
 27  13  17  1   
 28  13  36  1   
 29  14  17  1   
 30  14  18  1   
 31  15  19  1   
 32  15  37  1   
 33  15  38  1   
 34  16  19  1   
 35  16  39  1   
 36  16  40  1   
 37  17  41  1   
 38  17  42  1   
 39  18  20  1   
 40  18  43  1   
 41  18  44  1   
 42  20  21  2   
 43  20  22  1   
 44  21  23  1   
 45  22  24  1   
 46  22  25  1   
 47  23  24  2   
 48  23  45  1   
 49  24  46  1   
 50  25  47  1   
 51  25  48  1   
 52  25  49  1   
@<TRIPOS>SUBSTRUCTURE
  1 ****  14 GROUP 4 **** **** 0

# MOE 2024.06 (io_trps.svl 2023.06)
