@<TRIPOS>MOLECULE
NONAME
53 55 1 0 0 
SMALL
USER_CHARGES


@<TRIPOS>ATOM
  1 O        1.0050    -0.3680     1.0660 O.2   1 <1>  -0.5700 
  2 C        1.0760    -0.7320    -0.0810 C.2   1 <1>   0.5690 
  3 N        1.3600     0.1340    -1.0870 N.am  1 <1>  -0.7300 
  4 C        0.8360    -2.1870    -0.4130 C.3   1 <1>  -0.0990 
  5 C        1.4140     1.6170    -0.9170 C.3   1 <1>   0.1400 
  6 C       -0.6650    -2.5200    -0.3920 C.3   1 <1>  -0.0990 
  7 C        2.8320     2.1460    -0.5910 C.3   1 <1>   0.2800 
  8 C       -0.9230    -3.9500    -0.8400 C.2   1 <1>   0.4230 
  9 O        3.7180     1.6040    -1.4990 O.3   1 <1>  -0.6800 
 10 C        3.3230     1.7370     0.8040 C.3   1 <1>  -0.1600 
 11 C        2.9120     3.6680    -0.7440 C.3   1 <1>  -0.1600 
 12 O       -0.5790    -4.2340    -1.9590 O.2   1 <1>  -0.5700 
 13 C       -1.5620    -4.8700     0.0710 C.ar  1 <1>   0.0860 
 14 C        4.7080     2.3030     1.1030 C.3   1 <1>   0.3430 
 15 C        4.3150     4.1820    -0.4300 C.3   1 <1>   0.3430 
 16 C       -1.0080    -6.1570     0.3520 C.ar  1 <1>   0.0000 
 17 C       -2.7400    -4.5040     0.6940 C.ar  1 <1>  -0.1500 
 18 N        4.6990     3.7890     0.9580 N.4   1 <1>  -0.9590 
 19 C       -1.6780    -7.0120     1.2600 C.ar  1 <1>   0.0000 
 20 C        0.1970    -6.6340    -0.2170 C.ar  1 <1>  -0.1500 
 21 C       -3.3960    -5.3500     1.5870 C.ar  1 <1>  -0.1500 
 22 C        6.0340     4.3550     1.3130 C.3   1 <1>   0.2630 
 23 C       -2.8730    -6.5790     1.8630 C.ar  1 <1>  -0.1500 
 24 C       -1.1350    -8.2800     1.5490 C.ar  1 <1>  -0.1500 
 25 C        0.7030    -7.8690     0.0820 C.ar  1 <1>  -0.1500 
 26 C        0.0300    -8.7040     0.9750 C.ar  1 <1>  -0.1500 
 27 H        1.3080    -0.2030    -2.0530 H     1 <1>   0.3700 
 28 H        1.3490    -2.7960     0.3100 H     1 <1>   0.0800 
 29 H        1.2470    -2.4070    -1.3810 H     1 <1>   0.0800 
 30 H        0.7410     1.9060    -0.1270 H     1 <1>   0.0800 
 31 H        1.0580     2.0800    -1.8210 H     1 <1>   0.0800 
 32 H       -1.1900    -1.8590    -1.0590 H     1 <1>   0.0800 
 33 H       -1.0430    -2.3610     0.6020 H     1 <1>   0.0800 
 34 H        3.4940     0.6560    -1.6070 H     1 <1>   0.4000 
 35 H        3.3700     0.6660     0.8750 H     1 <1>   0.0800 
 36 H        2.6270     2.0710     1.5520 H     1 <1>   0.0800 
 37 H        2.2020     4.1430    -0.0910 H     1 <1>   0.0800 
 38 H        2.6540     3.9410    -1.7530 H     1 <1>   0.0800 
 39 H        5.4180     1.8760     0.4120 H     1 <1>   0.0800 
 40 H        5.0000     2.0280     2.1040 H     1 <1>   0.0800 
 41 H        4.3380     5.2540    -0.5330 H     1 <1>   0.0800 
 42 H        5.0110     3.7550    -1.1360 H     1 <1>   0.0800 
 43 H       -3.1860    -3.5470     0.4900 H     1 <1>   0.1500 
 44 H        3.9940     4.1650     1.6060 H     1 <1>   0.4500 
 45 H        0.7360    -6.0150    -0.9100 H     1 <1>   0.1500 
 46 H       -4.3120    -5.0240     2.0490 H     1 <1>   0.1500 
 47 H        6.7910     3.9730     0.6470 H     1 <1>   0.0800 
 48 H        6.2970     4.0890     2.3240 H     1 <1>   0.0800 
 49 H        6.0180     5.4300     1.2340 H     1 <1>   0.0800 
 50 H       -3.3720    -7.2400     2.5500 H     1 <1>   0.1500 
 51 H       -1.6590    -8.9180     2.2370 H     1 <1>   0.1500 
 52 H        1.6200    -8.2110    -0.3660 H     1 <1>   0.1500 
 53 H        0.4400    -9.6740     1.1990 H     1 <1>   0.1500 
@<TRIPOS>BOND
  1   1   2  2   
  2   2   3  am  
  3   2   4  1   
  4   3   5  1   
  5   3  27  1   
  6   4   6  1   
  7   4  28  1   
  8   4  29  1   
  9   5   7  1   
 10   5  30  1   
 11   5  31  1   
 12   6   8  1   
 13   6  32  1   
 14   6  33  1   
 15   7   9  1   
 16   7  10  1   
 17   7  11  1   
 18   8  12  2   
 19   8  13  1   
 20   9  34  1   
 21  10  14  1   
 22  10  35  1   
 23  10  36  1   
 24  11  15  1   
 25  11  37  1   
 26  11  38  1   
 27  13  16  ar  
 28  13  17  ar  
 29  14  18  1   
 30  14  39  1   
 31  14  40  1   
 32  15  18  1   
 33  15  41  1   
 34  15  42  1   
 35  16  19  ar  
 36  16  20  ar  
 37  17  21  ar  
 38  17  43  1   
 39  18  22  1   
 40  18  44  1   
 41  19  23  ar  
 42  19  24  ar  
 43  20  25  ar  
 44  20  45  1   
 45  21  23  ar  
 46  21  46  1   
 47  22  47  1   
 48  22  48  1   
 49  22  49  1   
 50  23  50  1   
 51  24  26  ar  
 52  24  51  1   
 53  25  26  ar  
 54  25  52  1   
 55  26  53  1   
@<TRIPOS>SUBSTRUCTURE
  1 ****   4 GROUP 4 **** **** 0

# MOE 2024.06 (io_trps.svl 2023.06)
