@<TRIPOS>MOLECULE
NONAME
50 51 1 0 0 
SMALL
USER_CHARGES


@<TRIPOS>ATOM
  1 O       -0.0110    -0.0990     0.2180 O.2   1 <1>  -0.5700 
  2 C        1.0290    -0.2220    -0.3890 C.2   1 <1>   0.5690 
  3 N        2.0470     0.6960    -0.2850 N.am  1 <1>  -0.4940 
  4 C        1.1910    -1.4820    -1.2960 C.3   1 <1>   0.4840 
  5 C        2.0690     1.9090     0.4490 C.2   1 <1>  -0.0880 
  6 N        0.4520    -2.7220    -0.8380 N.4   1 <1>  -0.9590 
  7 C        2.6540    -1.8910    -1.5140 C.3   1 <1>  -0.2400 
  8 N        3.1300     2.3400     1.1880 N.pl3 1 <1>   0.3140 
  9 C        1.1160     2.8670     0.5700 C.2   1 <1>  -0.1810 
 10 C       -1.0170    -2.5760    -1.0820 C.3   1 <1>   0.3430 
 11 C        0.7010    -3.0400     0.6040 C.3   1 <1>   0.3430 
 12 N        2.8810     3.5300     1.7710 N.2   1 <1>  -0.7070 
 13 C        4.4090     1.6400     1.4230 C.3   1 <1>   0.0960 
 14 C        1.6780     3.8320     1.3980 C.2   1 <1>   0.1390 
 15 C       -0.2720     2.9530    -0.0360 C.3   1 <1>  -0.0590 
 16 C       -1.7210    -3.9000    -0.7800 C.3   1 <1>  -0.1600 
 17 C        0.0460    -4.3760     0.9560 C.3   1 <1>  -0.1600 
 18 C        5.3640     1.8150     0.2330 C.3   1 <1>  -0.1600 
 19 C       -1.4590    -4.3610     0.6590 C.3   1 <1>  -0.1600 
 20 C        6.6610     1.0250     0.4440 C.3   1 <1>  -0.1600 
 21 C        7.6050     1.1920    -0.7490 C.3   1 <1>  -0.2400 
 22 H        2.9150     0.4980    -0.7840 H     1 <1>   0.3700 
 23 H        0.7950    -1.2060    -2.2600 H     1 <1>   0.0800 
 24 H        0.7730    -3.5210    -1.3940 H     1 <1>   0.4500 
 25 H        3.1510    -2.0740    -0.5770 H     1 <1>   0.0800 
 26 H        3.1830    -1.1090    -2.0300 H     1 <1>   0.0800 
 27 H        2.7140    -2.7730    -2.1270 H     1 <1>   0.0800 
 28 H       -1.2000    -2.2990    -2.1080 H     1 <1>   0.0800 
 29 H       -1.4210    -1.8040    -0.4460 H     1 <1>   0.0800 
 30 H        0.2840    -2.2630     1.2270 H     1 <1>   0.0800 
 31 H        1.7590    -3.1000     0.7990 H     1 <1>   0.0800 
 32 H        4.2010     0.6010     1.5960 H     1 <1>   0.0800 
 33 H        4.8540     2.0490     2.3120 H     1 <1>   0.0800 
 34 H        1.1790     4.7370     1.7030 H     1 <1>   0.1500 
 35 H       -0.3260     2.3730    -0.9380 H     1 <1>   0.0800 
 36 H       -0.5110     3.9750    -0.2710 H     1 <1>   0.0800 
 37 H       -0.9970     2.5770     0.6640 H     1 <1>   0.0800 
 38 H       -1.3910    -4.6520    -1.4750 H     1 <1>   0.0800 
 39 H       -2.7810    -3.7730    -0.9230 H     1 <1>   0.0800 
 40 H        0.1980    -4.5760     2.0020 H     1 <1>   0.0800 
 41 H        0.5230    -5.1680     0.4040 H     1 <1>   0.0800 
 42 H        5.5980     2.8620     0.1290 H     1 <1>   0.0800 
 43 H        4.8890     1.4830    -0.6720 H     1 <1>   0.0800 
 44 H       -1.8750    -5.3440     0.8130 H     1 <1>   0.0800 
 45 H       -1.9500    -3.6880     1.3440 H     1 <1>   0.0800 
 46 H        6.4410    -0.0210     0.5750 H     1 <1>   0.0800 
 47 H        7.1570     1.3750     1.3350 H     1 <1>   0.0800 
 48 H        7.1480     0.8290    -1.6530 H     1 <1>   0.0800 
 49 H        8.5130     0.6390    -0.5810 H     1 <1>   0.0800 
 50 H        7.8610     2.2290    -0.8840 H     1 <1>   0.0800 
@<TRIPOS>BOND
  1   1   2  2   
  2   2   3  am  
  3   2   4  1   
  4   3   5  1   
  5   3  22  1   
  6   4   6  1   
  7   4   7  1   
  8   4  23  1   
  9   5   8  1   
 10   5   9  2   
 11   6  10  1   
 12   6  11  1   
 13   6  24  1   
 14   7  25  1   
 15   7  26  1   
 16   7  27  1   
 17   8  12  1   
 18   8  13  1   
 19   9  14  1   
 20   9  15  1   
 21  10  16  1   
 22  10  28  1   
 23  10  29  1   
 24  11  17  1   
 25  11  30  1   
 26  11  31  1   
 27  12  14  2   
 28  13  18  1   
 29  13  32  1   
 30  13  33  1   
 31  14  34  1   
 32  15  35  1   
 33  15  36  1   
 34  15  37  1   
 35  16  19  1   
 36  16  38  1   
 37  16  39  1   
 38  17  19  1   
 39  17  40  1   
 40  17  41  1   
 41  18  20  1   
 42  18  42  1   
 43  18  43  1   
 44  19  44  1   
 45  19  45  1   
 46  20  21  1   
 47  20  46  1   
 48  20  47  1   
 49  21  48  1   
 50  21  49  1   
 51  21  50  1   
@<TRIPOS>SUBSTRUCTURE
  1 ****   3 GROUP 4 **** **** 0

# MOE 2024.06 (io_trps.svl 2023.06)
