@<TRIPOS>MOLECULE
NONAME
47 49 1 0 0 
SMALL
USER_CHARGES


@<TRIPOS>ATOM
  1 O       -1.7120     0.5910     2.4070 O.2   1 <1>  -0.5700 
  2 C       -2.2340     0.9950     1.3850 C.2   1 <1>   0.5440 
  3 N       -3.2520     0.2590     0.8290 N.am  1 <1>  -0.6600 
  4 C       -1.7860     2.2260     0.7780 C.ar  1 <1>   0.0860 
  5 C       -3.9730     0.6100    -0.4220 C.3   1 <1>   0.1400 
  6 C       -3.6270    -1.1020     1.2850 C.3   1 <1>   0.1400 
  7 C       -1.0820     2.2700    -0.4360 C.ar  1 <1>   0.0830 
  8 C       -2.0890     3.4390     1.3970 C.ar  1 <1>  -0.1500 
  9 C       -5.0360    -0.4800    -0.5720 C.3   1 <1>   0.2000 
 10 C       -4.4260    -1.7020     0.1200 C.3   1 <1>  -0.0800 
 11 O       -0.6910     1.1640    -1.1110 O.3   1 <1>  -0.3630 
 12 C       -0.7550     3.4880    -1.0110 C.ar  1 <1>  -0.1500 
 13 C       -1.7480     4.6540     0.8310 C.ar  1 <1>  -0.1440 
 14 O       -6.1590    -0.0930     0.1410 O.3   1 <1>  -0.6800 
 15 C       -3.5150    -2.4810    -0.8480 C.3   1 <1>   0.0210 
 16 C        0.0270     0.1510    -0.4350 C.3   1 <1>   0.0400 
 17 C       -1.0840     4.6740    -0.3840 C.ar  1 <1>  -0.1500 
 18 C       -2.0930     5.9610     1.5220 C.3   1 <1>  -0.0970 
 19 C       -2.8710    -3.6760    -0.1720 C.2   1 <1>   0.1080 
 20 N       -3.5550    -4.6780     0.2830 N.2   1 <1>  -0.7070 
 21 C       -1.5060    -3.8310     0.0410 C.2   1 <1>  -0.1500 
 22 N       -2.6340    -5.5100     0.8050 N.pl3 1 <1>   0.3000 
 23 C       -1.3850    -5.0180     0.6720 C.2   1 <1>  -0.3320 
 24 C       -0.1340    -5.7230     1.1640 C.3   1 <1>  -0.0600 
 25 H       -4.4100     1.5920    -0.3680 H     1 <1>   0.0800 
 26 H       -3.2860     0.5660    -1.2490 H     1 <1>   0.0800 
 27 H       -2.7530    -1.6800     1.5350 H     1 <1>   0.0800 
 28 H       -4.2470    -1.0180     2.1600 H     1 <1>   0.0800 
 29 H       -2.6070     3.4090     2.3400 H     1 <1>   0.1500 
 30 H       -5.3270    -0.6540    -1.5930 H     1 <1>   0.0800 
 31 H       -5.1890    -2.3710     0.4800 H     1 <1>   0.0800 
 32 H       -0.2330     3.4990    -1.9510 H     1 <1>   0.1500 
 33 H       -5.8860     0.1510     1.0480 H     1 <1>   0.4000 
 34 H       -2.7440    -1.8420    -1.2380 H     1 <1>   0.0800 
 35 H       -4.0990    -2.8430    -1.6750 H     1 <1>   0.0800 
 36 H        0.6550    -0.3490    -1.1500 H     1 <1>   0.0800 
 37 H       -0.6670    -0.5510    -0.0100 H     1 <1>   0.0800 
 38 H        0.6320     0.5970     0.3360 H     1 <1>   0.0800 
 39 H       -0.8180     5.6120    -0.8410 H     1 <1>   0.1500 
 40 H       -1.2050     6.5530     1.6520 H     1 <1>   0.0800 
 41 H       -2.5270     5.7820     2.4890 H     1 <1>   0.0800 
 42 H       -2.7970     6.5140     0.9270 H     1 <1>   0.0800 
 43 H       -0.7350    -3.1380    -0.2430 H     1 <1>   0.1500 
 44 H       -2.8910    -6.4020     1.2450 H     1 <1>   0.2700 
 45 H        0.7360    -5.1290     0.9430 H     1 <1>   0.0800 
 46 H       -0.0290    -6.6780     0.6800 H     1 <1>   0.0800 
 47 H       -0.1850    -5.8710     2.2280 H     1 <1>   0.0800 
@<TRIPOS>BOND
  1   1   2  2   
  2   2   3  am  
  3   2   4  1   
  4   3   5  1   
  5   3   6  1   
  6   4   7  ar  
  7   4   8  ar  
  8   5   9  1   
  9   5  25  1   
 10   5  26  1   
 11   6  10  1   
 12   6  27  1   
 13   6  28  1   
 14   7  11  1   
 15   7  12  ar  
 16   8  13  ar  
 17   8  29  1   
 18   9  10  1   
 19   9  14  1   
 20   9  30  1   
 21  10  15  1   
 22  10  31  1   
 23  11  16  1   
 24  12  17  ar  
 25  12  32  1   
 26  13  17  ar  
 27  13  18  1   
 28  14  33  1   
 29  15  19  1   
 30  15  34  1   
 31  15  35  1   
 32  16  36  1   
 33  16  37  1   
 34  16  38  1   
 35  17  39  1   
 36  18  40  1   
 37  18  41  1   
 38  18  42  1   
 39  19  20  2   
 40  19  21  1   
 41  20  22  1   
 42  21  23  2   
 43  21  43  1   
 44  22  23  1   
 45  22  44  1   
 46  23  24  1   
 47  24  45  1   
 48  24  46  1   
 49  24  47  1   
@<TRIPOS>SUBSTRUCTURE
  1 ****   3 GROUP 4 **** **** 0

# MOE 2024.06 (io_trps.svl 2023.06)
