@<TRIPOS>MOLECULE
NONAME
38 40 1 0 0 
SMALL
USER_CHARGES


@<TRIPOS>ATOM
  1 O        0.3110     0.6540    -0.5430 O.co2 1 <1>  -0.9000 
  2 C        0.2690     1.8510    -0.2480 C.2   1 <1>   0.8710 
  3 O       -0.6860     2.5820    -0.5260 O.co2 1 <1>  -0.9000 
  4 C        1.4440     2.4600     0.4570 C.3   1 <1>  -0.0710 
  5 C        1.7590     3.8590    -0.0980 C.3   1 <1>   0.2450 
  6 C        2.7900     1.9990    -0.1310 C.3   1 <1>   0.2450 
  7 N        3.2000     3.4450    -0.1250 N.3   1 <1>  -0.5900 
  8 C        4.3690     4.0860    -0.0990 C.ar  1 <1>   0.4610 
  9 N        4.3760     5.4160    -0.0880 N.ar  1 <1>  -0.1790 
 10 C        5.6180     3.4230    -0.0870 C.ar  1 <1>  -0.1500 
 11 C        5.5150     6.2000    -0.0600 C.ar  1 <1>   0.3610 
 12 C        6.7900     4.1150    -0.0600 C.ar  1 <1>  -0.1430 
 13 C        6.7640     5.5470    -0.0440 C.ar  1 <1>   0.0000 
 14 C        5.4270     7.6060    -0.0480 C.ar  1 <1>  -0.1430 
 15 C        8.1180     3.3680    -0.0470 C.3   1 <1>  -0.0970 
 16 C        7.9130     6.3470    -0.0150 C.ar  1 <1>  -0.1500 
 17 C        6.5870     8.3590    -0.0200 C.ar  1 <1>  -0.1430 
 18 C        4.0420     8.2690    -0.0680 C.3   1 <1>  -0.0970 
 19 C        7.8230     7.7140    -0.0030 C.ar  1 <1>  -0.1500 
 20 C        6.5990     9.8840    -0.0050 C.3   1 <1>  -0.0970 
 21 H        1.3990     2.4190     1.5310 H     1 <1>   0.0000 
 22 H        1.5790     4.6590     0.5980 H     1 <1>   0.0000 
 23 H        1.3980     4.0440    -1.0950 H     1 <1>   0.0000 
 24 H        2.7350     1.6200    -1.1370 H     1 <1>   0.0000 
 25 H        3.3820     1.4040     0.5410 H     1 <1>   0.0000 
 26 H        3.4710     5.8750    -0.1070 H     1 <1>   0.4570 
 27 H        5.5990     2.3470    -0.1010 H     1 <1>   0.1500 
 28 H        7.9630     2.3030    -0.0620 H     1 <1>   0.0800 
 29 H        8.6750     3.6110     0.8410 H     1 <1>   0.0800 
 30 H        8.7030     3.6320    -0.9100 H     1 <1>   0.0800 
 31 H        8.8880     5.8930    -0.0020 H     1 <1>   0.1500 
 32 H        3.5070     7.9920    -0.9590 H     1 <1>   0.0800 
 33 H        4.0950     9.3410    -0.0560 H     1 <1>   0.0800 
 34 H        3.4730     7.9740     0.7970 H     1 <1>   0.0800 
 35 H        8.7290     8.2990     0.0190 H     1 <1>   0.1500 
 36 H        6.0870    10.2530     0.8660 H     1 <1>   0.0800 
 37 H        6.1200    10.2700    -0.8870 H     1 <1>   0.0800 
 38 H        7.6040    10.2690     0.0170 H     1 <1>   0.0800 
@<TRIPOS>BOND
  1   1   2  ar  
  2   2   3  ar  
  3   2   4  1   
  4   4   5  1   
  5   4   6  1   
  6   4  21  1   
  7   5   7  1   
  8   5  22  1   
  9   5  23  1   
 10   6   7  1   
 11   6  24  1   
 12   6  25  1   
 13   7   8  1   
 14   8   9  ar  
 15   8  10  ar  
 16   9  11  ar  
 17   9  26  1   
 18  10  12  ar  
 19  10  27  1   
 20  11  13  ar  
 21  11  14  ar  
 22  12  13  ar  
 23  12  15  1   
 24  13  16  ar  
 25  14  17  ar  
 26  14  18  1   
 27  15  28  1   
 28  15  29  1   
 29  15  30  1   
 30  16  19  ar  
 31  16  31  1   
 32  17  19  ar  
 33  17  20  1   
 34  18  32  1   
 35  18  33  1   
 36  18  34  1   
 37  19  35  1   
 38  20  36  1   
 39  20  37  1   
 40  20  38  1   
@<TRIPOS>SUBSTRUCTURE
  1 ****   9 GROUP 4 **** **** 0

# MOE 2024.06 (io_trps.svl 2023.06)
