@<TRIPOS>MOLECULE
NONAME
38 40 1 0 0 
SMALL
USER_CHARGES


@<TRIPOS>ATOM
  1 O        0.6260     0.5640     1.3360 O.3   1 <1>  -0.0190 
  2 N        1.3340    -0.4850     1.0310 N.2   1 <1>  -0.4100 
  3 C        0.8900     1.5770     0.5540 C.2   1 <1>  -0.0400 
  4 C        2.0680    -0.1420     0.0350 C.2   1 <1>   0.1080 
  5 C        1.8260     1.1810    -0.3240 C.2   1 <1>  -0.1500 
  6 C        0.1430     2.8820     0.7740 C.3   1 <1>   0.0200 
  7 C        3.0550    -1.0610    -0.6500 C.3   1 <1>  -0.0590 
  8 C        0.6360     4.0220    -0.1370 C.3   1 <1>  -0.0800 
  9 C       -0.1990     5.3030    -0.0730 C.3   1 <1>   0.2000 
 10 C        2.0590     4.4980     0.1780 C.3   1 <1>   0.2090 
 11 O       -0.4300     5.6320     1.2550 O.3   1 <1>  -0.6800 
 12 C        0.7340     6.3600    -0.6620 C.3   1 <1>   0.2090 
 13 N        2.0910     5.9340    -0.2240 N.pl3 1 <1>  -0.8380 
 14 C        3.0550     6.8130     0.2220 C.2   1 <1>   0.2710 
 15 N        3.9380     6.3250     1.1280 N.2   1 <1>  -0.6210 
 16 C        3.1320     8.1040    -0.2240 C.2   1 <1>  -0.1360 
 17 C        4.8560     7.1220     1.5660 C.2   1 <1>   0.5600 
 18 C        4.1310     8.9400     0.2710 C.2   1 <1>   0.6160 
 19 N        4.9830     8.4070     1.1750 N.am  1 <1>  -0.4900 
 20 N        5.7330     6.6530     2.4600 N.pl3 1 <1>  -0.8500 
 21 O        4.2850    10.1120    -0.0530 O.2   1 <1>  -0.5700 
 22 H        2.3020     1.7120    -1.1260 H     1 <1>   0.1500 
 23 H       -0.9030     2.7080     0.5900 H     1 <1>   0.0800 
 24 H        0.2470     3.1650     1.8070 H     1 <1>   0.0800 
 25 H        4.0310    -0.6110    -0.6530 H     1 <1>   0.0800 
 26 H        2.7430    -1.2420    -1.6620 H     1 <1>   0.0800 
 27 H        3.1060    -1.9990    -0.1280 H     1 <1>   0.0800 
 28 H        0.6220     3.6780    -1.1560 H     1 <1>   0.0800 
 29 H       -1.1440     5.2330    -0.5830 H     1 <1>   0.0800 
 30 H        2.8000     3.9420    -0.3680 H     1 <1>   0.0800 
 31 H        2.2580     4.4130     1.2330 H     1 <1>   0.0800 
 32 H        0.4320     5.8870     1.6500 H     1 <1>   0.4000 
 33 H        0.4800     7.3450    -0.3100 H     1 <1>   0.0800 
 34 H        0.6900     6.3350    -1.7360 H     1 <1>   0.0800 
 35 H        2.4590     8.5050    -0.9510 H     1 <1>   0.1500 
 36 H        5.7080     9.0120     1.5350 H     1 <1>   0.3700 
 37 H        5.6450     5.6780     2.7470 H     1 <1>   0.4000 
 38 H        6.5130     7.1760     2.8490 H     1 <1>   0.4000 
@<TRIPOS>BOND
  1   1   2  1   
  2   1   3  1   
  3   2   4  2   
  4   3   5  2   
  5   3   6  1   
  6   4   5  1   
  7   4   7  1   
  8   5  22  1   
  9   6   8  1   
 10   6  23  1   
 11   6  24  1   
 12   7  25  1   
 13   7  26  1   
 14   7  27  1   
 15   8   9  1   
 16   8  10  1   
 17   8  28  1   
 18   9  11  1   
 19   9  12  1   
 20   9  29  1   
 21  10  13  1   
 22  10  30  1   
 23  10  31  1   
 24  11  32  1   
 25  12  13  1   
 26  12  33  1   
 27  12  34  1   
 28  13  14  1   
 29  14  15  1   
 30  14  16  2   
 31  15  17  2   
 32  16  18  1   
 33  16  35  1   
 34  17  19  1   
 35  17  20  1   
 36  18  19  am  
 37  18  21  2   
 38  19  36  1   
 39  20  37  1   
 40  20  38  1   
@<TRIPOS>SUBSTRUCTURE
  1 ****  10 GROUP 4 **** **** 0

# MOE 2024.06 (io_trps.svl 2023.06)
