@<TRIPOS>MOLECULE
NONAME
46 48 1 0 0 
SMALL
USER_CHARGES


@<TRIPOS>ATOM
  1 F        0.5020    -1.3700    -0.0040 F     1 <1>  -0.1900 
  2 C       -0.4110    -2.2640     0.2790 C.ar  1 <1>   0.1900 
  3 C       -0.2190    -3.2350     1.2690 C.ar  1 <1>   0.0820 
  4 C       -1.5820    -2.1980    -0.4500 C.ar  1 <1>  -0.1500 
  5 O        0.8860    -3.4010     2.0520 O.3   1 <1>  -0.3630 
  6 C       -1.2490    -4.1340     1.4940 C.ar  1 <1>  -0.1500 
  7 C       -2.5890    -3.1110    -0.1970 C.ar  1 <1>  -0.1500 
  8 C        2.0500    -2.6160     1.9150 C.3   1 <1>   0.0400 
  9 C       -2.4480    -4.1020     0.7770 C.ar  1 <1>   0.0530 
 10 C       -3.4940    -5.0610     1.0460 C.2   1 <1>   0.0870 
 11 O       -3.5610    -5.6560     2.2140 O.3   1 <1>  -0.0190 
 12 C       -4.5230    -5.5450     0.3060 C.2   1 <1>  -0.2330 
 13 N       -4.5620    -6.4940     2.3020 N.2   1 <1>  -0.4100 
 14 C       -5.1600    -6.4400     1.1650 C.2   1 <1>   0.3720 
 15 C       -4.9150    -5.2690    -1.0340 C.2   1 <1>   1.0330 
 16 N       -6.2920    -7.2100     0.8880 N.pl3 1 <1>  -0.8210 
 17 O       -4.6000    -6.0330    -1.9610 O.co2 1 <1>  -0.9000 
 18 O       -5.5980    -4.2620    -1.2910 O.co2 1 <1>  -0.9000 
 19 C       -6.0160    -8.3210    -0.0670 C.3   1 <1>   0.2090 
 20 C       -7.4830    -6.4200     0.4770 C.3   1 <1>   0.2090 
 21 C       -7.2100    -9.2900    -0.0940 C.3   1 <1>   0.2200 
 22 C       -8.7120    -7.3350     0.4760 C.3   1 <1>  -0.1600 
 23 N       -6.9960   -10.3680    -1.0880 N.am  1 <1>  -0.7300 
 24 C       -8.5080    -8.5500    -0.4480 C.3   1 <1>  -0.1600 
 25 C       -7.0060   -11.7060    -0.9060 C.2   1 <1>   0.5690 
 26 O       -6.8130   -12.4460    -1.8350 O.2   1 <1>  -0.5700 
 27 C       -7.2630   -12.3000     0.4570 C.3   1 <1>  -0.1790 
 28 H       -1.7080    -1.4450    -1.2060 H     1 <1>   0.1500 
 29 H       -1.1120    -4.8860     2.2490 H     1 <1>   0.1500 
 30 H       -3.5020    -3.0470    -0.7660 H     1 <1>   0.1500 
 31 H        2.7770    -2.9700     2.6230 H     1 <1>   0.0800 
 32 H        1.8060    -1.5900     2.1260 H     1 <1>   0.0800 
 33 H        2.4300    -2.7250     0.9150 H     1 <1>   0.0800 
 34 H       -5.1290    -8.8450     0.2450 H     1 <1>   0.0800 
 35 H       -5.8550    -7.9220    -1.0530 H     1 <1>   0.0800 
 36 H       -7.3400    -6.0130    -0.5100 H     1 <1>   0.0800 
 37 H       -7.6260    -5.6010     1.1620 H     1 <1>   0.0800 
 38 H       -7.3050    -9.7120     0.8910 H     1 <1>   0.0800 
 39 H       -9.5690    -6.7720     0.1510 H     1 <1>   0.0800 
 40 H       -8.8940    -7.6650     1.4840 H     1 <1>   0.0800 
 41 H       -6.7910   -10.0500    -2.0380 H     1 <1>   0.3700 
 42 H       -9.3440    -9.2190    -0.3570 H     1 <1>   0.0800 
 43 H       -8.4510    -8.2030    -1.4650 H     1 <1>   0.0800 
 44 H       -8.2210   -11.9790     0.8190 H     1 <1>   0.0800 
 45 H       -6.4940   -11.9890     1.1390 H     1 <1>   0.0800 
 46 H       -7.2560   -13.3720     0.3920 H     1 <1>   0.0800 
@<TRIPOS>BOND
  1   1   2  1   
  2   2   3  ar  
  3   2   4  ar  
  4   3   5  1   
  5   3   6  ar  
  6   4   7  ar  
  7   4  28  1   
  8   5   8  1   
  9   6   9  ar  
 10   6  29  1   
 11   7   9  ar  
 12   7  30  1   
 13   8  31  1   
 14   8  32  1   
 15   8  33  1   
 16   9  10  1   
 17  10  11  1   
 18  10  12  2   
 19  11  13  1   
 20  12  14  1   
 21  12  15  1   
 22  13  14  2   
 23  14  16  1   
 24  15  17  ar  
 25  15  18  ar  
 26  16  19  1   
 27  16  20  1   
 28  19  21  1   
 29  19  34  1   
 30  19  35  1   
 31  20  22  1   
 32  20  36  1   
 33  20  37  1   
 34  21  23  1   
 35  21  24  1   
 36  21  38  1   
 37  22  24  1   
 38  22  39  1   
 39  22  40  1   
 40  23  25  am  
 41  23  41  1   
 42  24  42  1   
 43  24  43  1   
 44  25  26  2   
 45  25  27  1   
 46  27  44  1   
 47  27  45  1   
 48  27  46  1   
@<TRIPOS>SUBSTRUCTURE
  1 ****  12 GROUP 4 **** **** 0

# MOE 2024.06 (io_trps.svl 2023.06)
