@<TRIPOS>MOLECULE
NONAME
47 49 1 0 0 
SMALL
USER_CHARGES


@<TRIPOS>ATOM
  1 O        3.4260    -1.0150     3.3480 O.co2 1 <1>  -0.9000 
  2 C        3.0320    -0.6480     2.2440 C.2   1 <1>   0.9060 
  3 O        1.9140    -0.9060     1.7830 O.co2 1 <1>  -0.9000 
  4 C        3.9830     0.1410     1.3740 C.3   1 <1>  -0.1860 
  5 C        4.1280    -0.5520     0.0150 C.3   1 <1>   0.2000 
  6 C        3.5570     1.6260     1.2280 C.3   1 <1>  -0.1600 
  7 O        2.8970    -0.5270    -0.6180 O.3   1 <1>  -0.6800 
  8 C        5.1420     0.1970    -0.8720 C.3   1 <1>   0.3430 
  9 C        3.8470     2.2070    -0.1580 C.3   1 <1>   0.3430 
 10 N        5.1630     1.6920    -0.6420 N.4   1 <1>  -0.9590 
 11 C        5.6460     2.4320    -1.8260 C.3   1 <1>   0.5240 
 12 C        5.9350     3.8460    -1.3790 C.2   1 <1>  -0.1810 
 13 C        5.2290     4.9780    -1.7730 C.2   1 <1>   0.1080 
 14 C        6.8710     4.3060    -0.5170 C.2   1 <1>  -0.3320 
 15 N        5.6680     6.0440    -1.1980 N.2   1 <1>  -0.7070 
 16 C        4.0720     5.0240    -2.7500 C.3   1 <1>  -0.0590 
 17 N        6.7010     5.6550    -0.4140 N.pl3 1 <1>   0.5930 
 18 C        7.9520     3.5540     0.2540 C.3   1 <1>  -0.0600 
 19 C        7.4240     6.5480     0.4200 C.ar  1 <1>  -0.0230 
 20 C        6.8300     7.0820     1.5590 C.ar  1 <1>  -0.1500 
 21 C        8.7370     6.8970     0.1220 C.ar  1 <1>  -0.1500 
 22 C        7.5380     7.9320     2.3900 C.ar  1 <1>  -0.1500 
 23 C        9.4460     7.7470     0.9520 C.ar  1 <1>  -0.1500 
 24 C        8.8480     8.2630     2.0880 C.ar  1 <1>  -0.1500 
 25 H        4.9390     0.1070     1.8620 H     1 <1>   0.0800 
 26 H        4.4070    -1.5860     0.1360 H     1 <1>   0.0800 
 27 H        4.0390     2.2150     1.9880 H     1 <1>   0.0800 
 28 H        2.4960     1.7090     1.3970 H     1 <1>   0.0800 
 29 H        2.2230    -0.7730     0.0910 H     1 <1>   0.4000 
 30 H        4.8980    -0.0220    -1.8980 H     1 <1>   0.0800 
 31 H        6.1240    -0.1970    -0.6720 H     1 <1>   0.0800 
 32 H        3.8480     3.2840    -0.1030 H     1 <1>   0.0800 
 33 H        3.0690     1.8990    -0.8390 H     1 <1>   0.0800 
 34 H        5.8160     1.8980     0.1200 H     1 <1>   0.4500 
 35 H        6.5520     1.9850    -2.2000 H     1 <1>   0.0800 
 36 H        4.9020     2.4220    -2.6050 H     1 <1>   0.0800 
 37 H        3.2440     4.4510    -2.3780 H     1 <1>   0.0800 
 38 H        4.3780     4.6410    -3.7060 H     1 <1>   0.0800 
 39 H        3.7510     6.0430    -2.8820 H     1 <1>   0.0800 
 40 H        7.9450     2.5060     0.0190 H     1 <1>   0.0800 
 41 H        7.8020     3.6740     1.3140 H     1 <1>   0.0800 
 42 H        8.9230     3.9460     0.0040 H     1 <1>   0.0800 
 43 H        5.8090     6.8340     1.7920 H     1 <1>   0.1500 
 44 H        9.2060     6.5070    -0.7650 H     1 <1>   0.1500 
 45 H        7.0700     8.3400     3.2700 H     1 <1>   0.1500 
 46 H       10.4620     8.0110     0.7140 H     1 <1>   0.1500 
 47 H        9.3990     8.9250     2.7340 H     1 <1>   0.1500 
@<TRIPOS>BOND
  1   1   2  ar  
  2   2   3  ar  
  3   2   4  1   
  4   4   5  1   
  5   4   6  1   
  6   4  25  1   
  7   5   7  1   
  8   5   8  1   
  9   5  26  1   
 10   6   9  1   
 11   6  27  1   
 12   6  28  1   
 13   7  29  1   
 14   8  10  1   
 15   8  30  1   
 16   8  31  1   
 17   9  10  1   
 18   9  32  1   
 19   9  33  1   
 20  10  11  1   
 21  10  34  1   
 22  11  12  1   
 23  11  35  1   
 24  11  36  1   
 25  12  13  1   
 26  12  14  2   
 27  13  15  2   
 28  13  16  1   
 29  14  17  1   
 30  14  18  1   
 31  15  17  1   
 32  16  37  1   
 33  16  38  1   
 34  16  39  1   
 35  17  19  1   
 36  18  40  1   
 37  18  41  1   
 38  18  42  1   
 39  19  20  ar  
 40  19  21  ar  
 41  20  22  ar  
 42  20  43  1   
 43  21  23  ar  
 44  21  44  1   
 45  22  24  ar  
 46  22  45  1   
 47  23  24  ar  
 48  23  46  1   
 49  24  47  1   
@<TRIPOS>SUBSTRUCTURE
  1 ****  12 GROUP 4 **** **** 0

# MOE 2024.06 (io_trps.svl 2023.06)
