@<TRIPOS>MOLECULE
NONAME
52 54 1 0 0 
SMALL
USER_CHARGES


@<TRIPOS>ATOM
  1 CL      -1.1490     4.7010     3.9190 Cl    1 <1>  -0.1770 
  2 C       -0.0130     4.9580     2.6190 C.ar  1 <1>   0.1770 
  3 C       -0.4550     5.0680     1.3090 C.ar  1 <1>  -0.1440 
  4 C        1.3310     5.0440     2.9280 C.ar  1 <1>  -0.1500 
  5 C        0.4830     5.2770     0.3090 C.ar  1 <1>  -0.1500 
  6 C       -1.9340     4.9570     0.9700 C.3   1 <1>  -0.0960 
  7 C        2.2490     5.2540     1.9160 C.ar  1 <1>  -0.1500 
  8 C        1.8490     5.3910     0.5850 C.ar  1 <1>   0.0860 
  9 C        2.8270     5.6310    -0.4670 C.2   1 <1>   0.5440 
 10 O        3.9880     5.2880    -0.3270 O.2   1 <1>  -0.5700 
 11 N        2.5100     6.2850    -1.6370 N.am  1 <1>  -0.6600 
 12 C        3.2040     5.9310    -2.9150 C.3   1 <1>   0.1400 
 13 C        1.8130     7.5970    -1.6400 C.3   1 <1>   0.1400 
 14 C        4.6640     6.4250    -2.9590 C.3   1 <1>   0.3430 
 15 C        2.8080     8.7380    -1.3900 C.3   1 <1>  -0.1600 
 16 N        4.9050     7.6040    -2.0710 N.4   1 <1>  -0.9590 
 17 C        4.0260     8.7780    -2.3210 C.3   1 <1>   0.3430 
 18 C        6.3440     7.9830    -1.9780 C.3   1 <1>   0.3430 
 19 C        6.9500     7.4490    -0.6670 C.3   1 <1>   0.1400 
 20 N        6.1530     7.8520     0.5290 N.am  1 <1>  -0.6600 
 21 C        5.7070     9.1020     0.8010 C.2   1 <1>   0.5690 
 22 C        6.1360     6.9840     1.7230 C.3   1 <1>   0.1400 
 23 O        5.6470    10.0080     0.0050 O.2   1 <1>  -0.5700 
 24 C        5.2670     9.2250     2.2320 C.3   1 <1>  -0.0990 
 25 C        5.3140     7.7780     2.7490 C.3   1 <1>  -0.1600 
 26 H        1.6460     4.9430     3.9510 H     1 <1>   0.1500 
 27 H        0.1530     5.3480    -0.7120 H     1 <1>   0.1500 
 28 H       -2.4870     5.7280     1.4760 H     1 <1>   0.0800 
 29 H       -2.3110     4.0000     1.2850 H     1 <1>   0.0800 
 30 H       -2.1010     5.0560    -0.0880 H     1 <1>   0.0800 
 31 H        3.2960     5.3050     2.1570 H     1 <1>   0.1500 
 32 H        2.6620     6.3450    -3.7470 H     1 <1>   0.0800 
 33 H        3.1980     4.8610    -3.0350 H     1 <1>   0.0800 
 34 H        1.0600     7.6170    -0.8700 H     1 <1>   0.0800 
 35 H        1.3150     7.7380    -2.5840 H     1 <1>   0.0800 
 36 H        4.9350     6.6560    -3.9750 H     1 <1>   0.0800 
 37 H        5.2910     5.6130    -2.6280 H     1 <1>   0.0800 
 38 H        3.1390     8.7040    -0.3680 H     1 <1>   0.0800 
 39 H        2.2770     9.6660    -1.5050 H     1 <1>   0.0800 
 40 H        4.6530     7.2690    -1.1190 H     1 <1>   0.4500 
 41 H        4.5730     9.6840    -2.1120 H     1 <1>   0.0800 
 42 H        3.7140     8.8040    -3.3520 H     1 <1>   0.0800 
 43 H        6.4440     9.0560    -1.9800 H     1 <1>   0.0800 
 44 H        6.8920     7.5970    -2.8210 H     1 <1>   0.0800 
 45 H        7.9530     7.8240    -0.5600 H     1 <1>   0.0800 
 46 H        7.0000     6.3740    -0.7150 H     1 <1>   0.0800 
 47 H        7.1430     6.8360     2.0760 H     1 <1>   0.0800 
 48 H        5.6820     6.0320     1.5040 H     1 <1>   0.0800 
 49 H        4.2800     9.6440     2.2970 H     1 <1>   0.0800 
 50 H        5.9660     9.8480     2.7590 H     1 <1>   0.0800 
 51 H        5.7460     7.7140     3.7320 H     1 <1>   0.0800 
 52 H        4.3160     7.3780     2.7870 H     1 <1>   0.0800 
@<TRIPOS>BOND
  1   1   2  1   
  2   2   3  ar  
  3   2   4  ar  
  4   3   5  ar  
  5   3   6  1   
  6   4   7  ar  
  7   4  26  1   
  8   5   8  ar  
  9   5  27  1   
 10   6  28  1   
 11   6  29  1   
 12   6  30  1   
 13   7   8  ar  
 14   7  31  1   
 15   8   9  1   
 16   9  10  2   
 17   9  11  am  
 18  11  12  1   
 19  11  13  1   
 20  12  14  1   
 21  12  32  1   
 22  12  33  1   
 23  13  15  1   
 24  13  34  1   
 25  13  35  1   
 26  14  16  1   
 27  14  36  1   
 28  14  37  1   
 29  15  17  1   
 30  15  38  1   
 31  15  39  1   
 32  16  17  1   
 33  16  18  1   
 34  16  40  1   
 35  17  41  1   
 36  17  42  1   
 37  18  19  1   
 38  18  43  1   
 39  18  44  1   
 40  19  20  1   
 41  19  45  1   
 42  19  46  1   
 43  20  21  am  
 44  20  22  1   
 45  21  23  2   
 46  21  24  1   
 47  22  25  1   
 48  22  47  1   
 49  22  48  1   
 50  24  25  1   
 51  24  49  1   
 52  24  50  1   
 53  25  51  1   
 54  25  52  1   
@<TRIPOS>SUBSTRUCTURE
  1 ****   9 GROUP 4 **** **** 0

# MOE 2024.06 (io_trps.svl 2023.06)
