@<TRIPOS>MOLECULE
NONAME
50 52 1 0 0 
SMALL
USER_CHARGES


@<TRIPOS>ATOM
  1 S        1.0580    -1.4150    -1.5390 S.3   1 <1>  -0.3320 
  2 C        0.0540    -2.2450    -0.2940 C.ar  1 <1>   0.1020 
  3 C        2.4320    -0.5700    -0.6390 C.3   1 <1>  -0.0100 
  4 C       -1.0540    -2.9400    -0.7430 C.ar  1 <1>  -0.1500 
  5 C        0.3670    -2.2000     1.0560 C.ar  1 <1>  -0.1500 
  6 C       -1.8690    -3.6040     0.1610 C.ar  1 <1>  -0.1430 
  7 C       -0.4460    -2.8640     1.9590 C.ar  1 <1>  -0.1500 
  8 C       -1.5560    -3.5620     1.5120 C.ar  1 <1>  -0.1500 
  9 C       -3.0940    -4.3770    -0.3140 C.3   1 <1>   0.3530 
 10 N       -2.9290    -5.8350    -0.0490 N.pl3 1 <1>  -0.8380 
 11 C       -4.0350    -6.6100     0.2260 C.ar  1 <1>   0.4100 
 12 C       -1.6680    -6.4440    -0.5540 C.3   1 <1>   0.1290 
 13 N       -5.2040    -6.1940    -0.2520 N.ar  1 <1>  -0.6200 
 14 C       -3.9100    -7.7760     0.9800 C.ar  1 <1>  -0.1500 
 15 C       -6.2520    -6.9550     0.0160 C.ar  1 <1>   0.1600 
 16 C       -5.0090    -8.5560     1.2430 C.ar  1 <1>  -0.1500 
 17 C       -6.2380    -8.1470     0.7340 C.ar  1 <1>   0.0860 
 18 C       -7.4580    -8.8900     0.9380 C.2   1 <1>   0.5440 
 19 O       -8.4550    -8.2910     1.2980 O.2   1 <1>  -0.5700 
 20 N       -7.5360   -10.2550     0.7330 N.am  1 <1>  -0.6600 
 21 C       -8.7020   -11.0490     1.2150 C.3   1 <1>   0.1400 
 22 C       -6.6010   -11.0140    -0.1460 C.3   1 <1>   0.1400 
 23 C       -9.4810   -11.6080     0.0190 C.3   1 <1>  -0.1600 
 24 C       -7.3640   -11.5810    -1.3480 C.3   1 <1>  -0.1600 
 25 C       -8.5730   -12.4210    -0.9140 C.3   1 <1>  -0.1600 
 26 H        3.0350    -0.0640    -1.3710 H     1 <1>   0.0800 
 27 H        3.0040    -1.3220    -0.1260 H     1 <1>   0.0800 
 28 H        1.9960     0.1320     0.0480 H     1 <1>   0.0800 
 29 H       -1.2690    -2.9550    -1.7970 H     1 <1>   0.1500 
 30 H        1.2220    -1.6640     1.4140 H     1 <1>   0.1500 
 31 H       -0.2170    -2.8390     3.0110 H     1 <1>   0.1500 
 32 H       -2.1830    -4.0830     2.2160 H     1 <1>   0.1500 
 33 H       -3.2510    -4.2260    -1.3680 H     1 <1>   0.0800 
 34 H       -3.9610    -4.0070     0.2070 H     1 <1>   0.0800 
 35 H       -1.4100    -6.0160    -1.5080 H     1 <1>   0.0800 
 36 H       -1.7810    -7.5060    -0.6780 H     1 <1>   0.0800 
 37 H       -0.8700    -6.2520     0.1420 H     1 <1>   0.0800 
 38 H       -2.9430    -8.0440     1.3600 H     1 <1>   0.1500 
 39 H       -7.2040    -6.6180    -0.3590 H     1 <1>   0.1500 
 40 H       -4.9360    -9.4550     1.8290 H     1 <1>   0.1500 
 41 H       -9.3540   -10.4430     1.8200 H     1 <1>   0.0800 
 42 H       -8.3430   -11.8590     1.8260 H     1 <1>   0.0800 
 43 H       -6.1630   -11.8180     0.4210 H     1 <1>   0.0800 
 44 H       -5.8080   -10.3820    -0.5040 H     1 <1>   0.0800 
 45 H       -9.9160   -10.7840    -0.5200 H     1 <1>   0.0800 
 46 H      -10.2840   -12.2270     0.3760 H     1 <1>   0.0800 
 47 H       -6.6990   -12.1850    -1.9390 H     1 <1>   0.0800 
 48 H       -7.6960   -10.7630    -1.9640 H     1 <1>   0.0800 
 49 H       -9.1300   -12.7340    -1.7810 H     1 <1>   0.0800 
 50 H       -8.2310   -13.3030    -0.4010 H     1 <1>   0.0800 
@<TRIPOS>BOND
  1   1   2  1   
  2   1   3  1   
  3   2   4  ar  
  4   2   5  ar  
  5   3  26  1   
  6   3  27  1   
  7   3  28  1   
  8   4   6  ar  
  9   4  29  1   
 10   5   7  ar  
 11   5  30  1   
 12   6   8  ar  
 13   6   9  1   
 14   7   8  ar  
 15   7  31  1   
 16   8  32  1   
 17   9  10  1   
 18   9  33  1   
 19   9  34  1   
 20  10  11  1   
 21  10  12  1   
 22  11  13  ar  
 23  11  14  ar  
 24  12  35  1   
 25  12  36  1   
 26  12  37  1   
 27  13  15  ar  
 28  14  16  ar  
 29  14  38  1   
 30  15  17  ar  
 31  15  39  1   
 32  16  17  ar  
 33  16  40  1   
 34  17  18  1   
 35  18  19  2   
 36  18  20  am  
 37  20  21  1   
 38  20  22  1   
 39  21  23  1   
 40  21  41  1   
 41  21  42  1   
 42  22  24  1   
 43  22  43  1   
 44  22  44  1   
 45  23  25  1   
 46  23  45  1   
 47  23  46  1   
 48  24  25  1   
 49  24  47  1   
 50  24  48  1   
 51  25  49  1   
 52  25  50  1   
@<TRIPOS>SUBSTRUCTURE
  1 ****  11 GROUP 4 **** **** 0

# MOE 2024.06 (io_trps.svl 2023.06)
