@<TRIPOS>MOLECULE
NONAME
52 53 1 0 0 
SMALL
USER_CHARGES


@<TRIPOS>ATOM
  1 S        1.6800     2.1840    -0.2780 S.o2  1 <1>   1.3330 
  2 O        2.3410     3.0540     0.6700 O.2   1 <1>  -0.6500 
  3 O        1.2300     2.7400    -1.5320 O.2   1 <1>  -0.6500 
  4 N        2.6420     0.8230    -0.5670 N.am  1 <1>  -0.8490 
  5 C        0.2430     1.5220     0.5730 C.3   1 <1>  -0.0550 
  6 C        4.0750     1.1410    -0.5840 C.3   1 <1>   0.1160 
  7 C        2.2810     0.1010    -1.7940 C.3   1 <1>   0.1160 
  8 C       -0.8030     2.5600     1.0560 C.3   1 <1>  -0.0800 
  9 C       -1.4030     3.3970    -0.0810 C.3   1 <1>   0.2000 
 10 C       -0.2280     3.6070     2.0180 C.3   1 <1>   0.3430 
 11 O       -2.7290     3.6680     0.2360 O.3   1 <1>  -0.6800 
 12 C       -0.6070     4.7110    -0.1110 C.3   1 <1>   0.3430 
 13 N        0.1560     4.7640     1.1740 N.4   1 <1>  -0.9590 
 14 C        0.1440     6.0980     1.8330 C.3   1 <1>   0.5240 
 15 C        0.7700     7.1090     0.8840 C.2   1 <1>   0.0460 
 16 N        1.9260     6.8150     0.2570 N.2   1 <1>  -0.5650 
 17 C        0.3250     8.3330     0.5220 C.2   1 <1>  -0.3020 
 18 C        2.1700     7.8610    -0.4640 C.2   1 <1>   0.0060 
 19 N        1.2290     8.8240    -0.3470 N.pl3 1 <1>   0.0330 
 20 C        3.3870     8.0090    -1.3610 C.3   1 <1>   0.0200 
 21 C        4.3420     9.0890    -0.8340 C.3   1 <1>  -0.1600 
 22 C        5.5810     9.2300    -1.7270 C.3   1 <1>  -0.1600 
 23 C        6.5260    10.3090    -1.1910 C.3   1 <1>  -0.2400 
 24 H       -0.2480     0.8240    -0.0780 H     1 <1>   0.0800 
 25 H        0.5860     0.9640     1.4240 H     1 <1>   0.0800 
 26 H        4.6540     0.2470    -0.7440 H     1 <1>   0.0800 
 27 H        4.3710     1.5660     0.3600 H     1 <1>   0.0800 
 28 H        4.2940     1.8480    -1.3670 H     1 <1>   0.0800 
 29 H        2.8690    -0.7980    -1.8810 H     1 <1>   0.0800 
 30 H        2.4570     0.7180    -2.6600 H     1 <1>   0.0800 
 31 H        1.2410    -0.1760    -1.7720 H     1 <1>   0.0800 
 32 H       -1.5770     2.0030     1.5570 H     1 <1>   0.0800 
 33 H       -1.3940     2.8980    -1.0360 H     1 <1>   0.0800 
 34 H        0.6200     3.2240     2.5660 H     1 <1>   0.0800 
 35 H       -0.9930     3.9060     2.7160 H     1 <1>   0.0800 
 36 H       -2.8370     4.1200     1.0940 H     1 <1>   0.4000 
 37 H       -1.2710     5.5520    -0.2210 H     1 <1>   0.0800 
 38 H        0.0880     4.7070    -0.9370 H     1 <1>   0.0800 
 39 H        1.1610     4.6490     0.9030 H     1 <1>   0.4500 
 40 H       -0.8610     6.3960     2.0780 H     1 <1>   0.0800 
 41 H        0.7330     6.0640     2.7340 H     1 <1>   0.0800 
 42 H       -0.5530     8.8790     0.8190 H     1 <1>   0.1500 
 43 H        1.2230     9.7330    -0.8220 H     1 <1>   0.2700 
 44 H        3.9030     7.0650    -1.4010 H     1 <1>   0.0800 
 45 H        3.0670     8.2520    -2.3580 H     1 <1>   0.0800 
 46 H        3.8290    10.0340    -0.7850 H     1 <1>   0.0800 
 47 H        4.6480     8.8240     0.1650 H     1 <1>   0.0800 
 48 H        6.1060     8.2900    -1.7680 H     1 <1>   0.0800 
 49 H        5.2820     9.4890    -2.7290 H     1 <1>   0.0800 
 50 H        6.8550    10.0590    -0.1970 H     1 <1>   0.0800 
 51 H        6.0340    11.2650    -1.1640 H     1 <1>   0.0800 
 52 H        7.3910    10.3890    -1.8250 H     1 <1>   0.0800 
@<TRIPOS>BOND
  1   1   2  2   
  2   1   3  2   
  3   1   4  am  
  4   1   5  1   
  5   4   6  1   
  6   4   7  1   
  7   5   8  1   
  8   5  24  1   
  9   5  25  1   
 10   6  26  1   
 11   6  27  1   
 12   6  28  1   
 13   7  29  1   
 14   7  30  1   
 15   7  31  1   
 16   8   9  1   
 17   8  10  1   
 18   8  32  1   
 19   9  11  1   
 20   9  12  1   
 21   9  33  1   
 22  10  13  1   
 23  10  34  1   
 24  10  35  1   
 25  11  36  1   
 26  12  13  1   
 27  12  37  1   
 28  12  38  1   
 29  13  14  1   
 30  13  39  1   
 31  14  15  1   
 32  14  40  1   
 33  14  41  1   
 34  15  16  1   
 35  15  17  2   
 36  16  18  2   
 37  17  19  1   
 38  17  42  1   
 39  18  19  1   
 40  18  20  1   
 41  19  43  1   
 42  20  21  1   
 43  20  44  1   
 44  20  45  1   
 45  21  22  1   
 46  21  46  1   
 47  21  47  1   
 48  22  23  1   
 49  22  48  1   
 50  22  49  1   
 51  23  50  1   
 52  23  51  1   
 53  23  52  1   
@<TRIPOS>SUBSTRUCTURE
  1 ****  16 GROUP 4 **** **** 0

# MOE 2024.06 (io_trps.svl 2023.06)
