@<TRIPOS>MOLECULE
NONAME
47 50 1 0 0 
SMALL
USER_CHARGES


@<TRIPOS>ATOM
  1 O        0.5040    -0.1740    -0.5050 O.2   1 <1>  -0.5700 
  2 C        1.1740    -1.1070    -0.1480 C.2   1 <1>   0.5690 
  3 N        0.7530    -1.9570     0.8110 N.am  1 <1>  -0.7300 
  4 C        2.5270    -1.3780    -0.7690 C.3   1 <1>  -0.0990 
  5 C        1.5690    -3.0780     1.3140 C.3   1 <1>   0.1400 
  6 C        2.6810    -2.8850    -1.0560 C.3   1 <1>  -0.0800 
  7 C        2.2670    -3.7910     0.1320 C.3   1 <1>  -0.0800 
  8 C        4.1120    -3.2810    -1.4490 C.3   1 <1>  -0.1600 
  9 C        3.5380    -4.5400     0.5490 C.3   1 <1>  -0.1600 
 10 C        4.3660    -4.6030    -0.7340 C.3   1 <1>   0.4230 
 11 N        5.8240    -4.9120    -0.5760 N.4   1 <1>  -0.9590 
 12 C        6.5210    -4.4340     0.6690 C.3   1 <1>   0.5230 
 13 C        6.0330    -6.3850    -0.7300 C.3   1 <1>   0.2630 
 14 C        6.7480    -2.9350     0.6620 C.2   1 <1>  -0.0400 
 15 O        5.8170    -2.1440     1.1110 O.3   1 <1>  -0.0190 
 16 C        7.7810    -2.1700     0.2820 C.2   1 <1>  -0.1500 
 17 N        6.1570    -0.8970     1.0350 N.2   1 <1>  -0.4100 
 18 C        7.3580    -0.8590     0.5430 C.2   1 <1>   0.2350 
 19 C        8.1210     0.3510     0.3040 C.ar  1 <1>   0.0540 
 20 C        7.5040     1.6040     0.3200 C.ar  1 <1>   0.1600 
 21 C        9.4880     0.3330     0.0500 C.ar  1 <1>  -0.1500 
 22 N        8.0990     2.7680     0.1060 N.ar  1 <1>  -0.6200 
 23 C       10.1260     1.5340    -0.1740 C.ar  1 <1>  -0.1500 
 24 C        9.3960     2.7080    -0.1370 C.ar  1 <1>   0.1600 
 25 H       -0.1410    -1.7490     1.2630 H     1 <1>   0.3700 
 26 H        2.6210    -0.8110    -1.6780 H     1 <1>   0.0800 
 27 H        3.2790    -1.0390    -0.0800 H     1 <1>   0.0800 
 28 H        2.2980    -2.6760     1.9980 H     1 <1>   0.0800 
 29 H        0.9440    -3.7720     1.8510 H     1 <1>   0.0800 
 30 H        2.0210    -3.1170    -1.8780 H     1 <1>   0.0800 
 31 H        1.5690    -4.5170    -0.2520 H     1 <1>   0.0800 
 32 H        4.8000    -2.5200    -1.1380 H     1 <1>   0.0800 
 33 H        4.1880    -3.4000    -2.5150 H     1 <1>   0.0800 
 34 H        3.3040    -5.5210     0.9230 H     1 <1>   0.0800 
 35 H        4.0290    -3.9680     1.3130 H     1 <1>   0.0800 
 36 H        3.9200    -5.3640    -1.3550 H     1 <1>   0.0800 
 37 H        6.2920    -4.4400    -1.3610 H     1 <1>   0.4500 
 38 H        5.9680    -4.7160     1.5500 H     1 <1>   0.0800 
 39 H        7.4880    -4.9070     0.7300 H     1 <1>   0.0800 
 40 H        5.5480    -6.9200     0.0720 H     1 <1>   0.0800 
 41 H        7.0860    -6.6220    -0.7160 H     1 <1>   0.0800 
 42 H        5.6220    -6.7260    -1.6660 H     1 <1>   0.0800 
 43 H        8.7320    -2.4510    -0.1320 H     1 <1>   0.1500 
 44 H        6.4470     1.6440     0.5230 H     1 <1>   0.1500 
 45 H       10.0500    -0.5820     0.0310 H     1 <1>   0.1500 
 46 H       11.1820     1.5660    -0.3750 H     1 <1>   0.1500 
 47 H        9.9030     3.6430    -0.3130 H     1 <1>   0.1500 
@<TRIPOS>BOND
  1   1   2  2   
  2   2   3  am  
  3   2   4  1   
  4   3   5  1   
  5   3  25  1   
  6   4   6  1   
  7   4  26  1   
  8   4  27  1   
  9   5   7  1   
 10   5  28  1   
 11   5  29  1   
 12   6   7  1   
 13   6   8  1   
 14   6  30  1   
 15   7   9  1   
 16   7  31  1   
 17   8  10  1   
 18   8  32  1   
 19   8  33  1   
 20   9  10  1   
 21   9  34  1   
 22   9  35  1   
 23  10  11  1   
 24  10  36  1   
 25  11  12  1   
 26  11  13  1   
 27  11  37  1   
 28  12  14  1   
 29  12  38  1   
 30  12  39  1   
 31  13  40  1   
 32  13  41  1   
 33  13  42  1   
 34  14  15  1   
 35  14  16  2   
 36  15  17  1   
 37  16  18  1   
 38  16  43  1   
 39  17  18  2   
 40  18  19  1   
 41  19  20  ar  
 42  19  21  ar  
 43  20  22  ar  
 44  20  44  1   
 45  21  23  ar  
 46  21  45  1   
 47  22  24  ar  
 48  23  24  ar  
 49  23  46  1   
 50  24  47  1   
@<TRIPOS>SUBSTRUCTURE
  1 ****  15 GROUP 4 **** **** 0

# MOE 2024.06 (io_trps.svl 2023.06)
