@<TRIPOS>MOLECULE
NONAME
38 39 1 0 0 
SMALL
USER_CHARGES


@<TRIPOS>ATOM
  1 F        0.8390     1.3110    -1.8500 F     1 <1>  -0.1900 
  2 C        1.6960     1.1450    -0.8760 C.ar  1 <1>   0.1900 
  3 C        1.8860    -0.1180    -0.3350 C.ar  1 <1>  -0.1440 
  4 C        2.3750     2.2640    -0.4330 C.ar  1 <1>  -0.1500 
  5 C        2.8190    -0.2500     0.6940 C.ar  1 <1>   0.0830 
  6 C        1.1070    -1.3180    -0.8690 C.3   1 <1>   0.2540 
  7 C        3.2890     2.1230     0.5940 C.ar  1 <1>  -0.1500 
  8 O        3.0300    -1.4900     1.2120 O.3   1 <1>  -0.3630 
  9 C        3.5080     0.8750     1.1530 C.ar  1 <1>  -0.1500 
 10 N        0.0400    -1.7330     0.0710 N.3   1 <1>  -0.8100 
 11 C        4.0570    -1.7390     2.1480 C.3   1 <1>   0.0400 
 12 C       -0.4800    -3.0740    -0.3000 C.3   1 <1>   0.2900 
 13 C       -1.0490    -0.7370     0.1340 C.3   1 <1>   0.1100 
 14 C        0.4900    -4.1830     0.0800 C.2   1 <1>   0.0060 
 15 C       -1.8460    -0.8730     1.4370 C.3   1 <1>   0.1200 
 16 N        0.4230    -5.4030    -0.3520 N.2   1 <1>  -0.5650 
 17 N        1.5160    -3.9680     0.9270 N.pl3 1 <1>   0.0330 
 18 O       -2.7840     0.1470     1.5070 O.3   1 <1>  -0.6800 
 19 C        1.4640    -6.0130     0.2490 C.2   1 <1>   0.0770 
 20 C        2.1450    -5.1510     1.0340 C.2   1 <1>  -0.3020 
 21 H        2.1890     3.2220    -0.8860 H     1 <1>   0.1500 
 22 H        1.8040    -2.1260    -1.0130 H     1 <1>   0.0800 
 23 H        0.6770    -1.1010    -1.8310 H     1 <1>   0.0800 
 24 H        3.8280     2.9810     0.9570 H     1 <1>   0.1500 
 25 H        4.2250     0.8010     1.9490 H     1 <1>   0.1500 
 26 H        4.0740    -2.7940     2.3560 H     1 <1>   0.0800 
 27 H        3.8480    -1.1930     3.0510 H     1 <1>   0.0800 
 28 H        4.9980    -1.4370     1.7230 H     1 <1>   0.0800 
 29 H       -0.6820    -3.1200    -1.3560 H     1 <1>   0.0800 
 30 H       -1.4010    -3.2720     0.2180 H     1 <1>   0.0800 
 31 H       -1.7030    -0.8460    -0.7150 H     1 <1>   0.0800 
 32 H       -0.6330     0.2540     0.1170 H     1 <1>   0.0800 
 33 H       -1.1940    -0.7920     2.2890 H     1 <1>   0.0800 
 34 H       -2.3790    -1.8050     1.4730 H     1 <1>   0.0800 
 35 H        1.7480    -3.0480     1.3290 H     1 <1>   0.2700 
 36 H       -2.3400     1.0140     1.5880 H     1 <1>   0.4000 
 37 H        1.6710    -7.0560     0.0790 H     1 <1>   0.1500 
 38 H        3.0170    -5.3080     1.6420 H     1 <1>   0.1500 
@<TRIPOS>BOND
  1   1   2  1   
  2   2   3  ar  
  3   2   4  ar  
  4   3   5  ar  
  5   3   6  1   
  6   4   7  ar  
  7   4  21  1   
  8   5   8  1   
  9   5   9  ar  
 10   6  10  1   
 11   6  22  1   
 12   6  23  1   
 13   7   9  ar  
 14   7  24  1   
 15   8  11  1   
 16   9  25  1   
 17  10  12  1   
 18  10  13  1   
 19  11  26  1   
 20  11  27  1   
 21  11  28  1   
 22  12  14  1   
 23  12  29  1   
 24  12  30  1   
 25  13  15  1   
 26  13  31  1   
 27  13  32  1   
 28  14  16  2   
 29  14  17  1   
 30  15  18  1   
 31  15  33  1   
 32  15  34  1   
 33  16  19  1   
 34  17  20  1   
 35  17  35  1   
 36  18  36  1   
 37  19  20  2   
 38  19  37  1   
 39  20  38  1   
@<TRIPOS>SUBSTRUCTURE
  1 ****   6 GROUP 4 **** **** 0

# MOE 2024.06 (io_trps.svl 2023.06)
