@<TRIPOS>MOLECULE
NONAME
53 55 1 0 0 
SMALL
USER_CHARGES


@<TRIPOS>ATOM
  1 O        1.9470    -0.0680    -1.4990 O.2   1 <1>  -0.5700 
  2 C        2.2620    -0.6590    -0.4970 C.2   1 <1>   0.5690 
  3 N        2.6620     0.0230     0.6260 N.am  1 <1>  -0.6600 
  4 C        2.2320    -2.1750    -0.5390 C.3   1 <1>  -0.0990 
  5 C        3.6830    -0.4910     1.5780 C.3   1 <1>   0.1400 
  6 C        2.2700     1.4470     0.8110 C.3   1 <1>   0.1400 
  7 C        1.0310    -2.7200     0.2410 C.3   1 <1>   0.0200 
  8 C        5.0940    -0.3800     0.9590 C.3   1 <1>   0.3430 
  9 C        3.4730     2.3870     0.6880 C.3   1 <1>  -0.1600 
 10 C        1.0320    -4.2390     0.2280 C.2   1 <1>  -0.3320 
 11 N        5.5550     1.0230     0.6440 N.4   1 <1>  -0.9590 
 12 C        4.6010     1.8350    -0.1860 C.3   1 <1>   0.3430 
 13 N        0.6470    -5.0180    -0.8120 N.pl3 1 <1>   0.3140 
 14 C        1.3970    -5.0770     1.2230 C.2   1 <1>  -0.1500 
 15 C        6.9030     0.9900     0.0110 C.3   1 <1>   0.5240 
 16 N        0.7670    -6.3220    -0.5150 N.2   1 <1>  -0.7070 
 17 C        0.1380    -4.5960    -2.1250 C.3   1 <1>   0.0160 
 18 C        1.2120    -6.3500     0.7030 C.2   1 <1>   0.1390 
 19 C        7.4650     2.3900     0.0050 C.2   1 <1>  -0.1810 
 20 C        7.9310     3.1390     1.0190 C.2   1 <1>  -0.0400 
 21 C        7.6110     3.2210    -1.1070 C.2   1 <1>   0.1080 
 22 O        8.2840     4.2940     0.5280 O.3   1 <1>  -0.0190 
 23 C        8.1100     2.9010     2.5060 C.3   1 <1>  -0.0600 
 24 N        8.0910     4.3560    -0.7560 N.2   1 <1>  -0.4100 
 25 C        7.2780     2.8840    -2.5470 C.3   1 <1>  -0.0590 
 26 H        3.1420    -2.5860    -0.1480 H     1 <1>   0.0800 
 27 H        2.1560    -2.4860    -1.5640 H     1 <1>   0.0800 
 28 H        3.4740    -1.5210     1.8110 H     1 <1>   0.0800 
 29 H        3.6390     0.0590     2.5030 H     1 <1>   0.0800 
 30 H        1.8000     1.5700     1.7730 H     1 <1>   0.0800 
 31 H        1.5360     1.7160     0.0680 H     1 <1>   0.0800 
 32 H        0.1130    -2.3460    -0.1800 H     1 <1>   0.0800 
 33 H        1.0800    -2.3800     1.2610 H     1 <1>   0.0800 
 34 H        5.1020    -0.9660     0.0540 H     1 <1>   0.0800 
 35 H        5.7940    -0.8340     1.6410 H     1 <1>   0.0800 
 36 H        3.8420     2.6540     1.6620 H     1 <1>   0.0800 
 37 H        3.1160     3.2970     0.2380 H     1 <1>   0.0800 
 38 H        5.6740     1.5450     1.5200 H     1 <1>   0.4500 
 39 H        5.1210     2.6780    -0.6120 H     1 <1>   0.0800 
 40 H        4.1940     1.2490    -0.9970 H     1 <1>   0.0800 
 41 H        1.7530    -4.8520     2.2120 H     1 <1>   0.1500 
 42 H        6.8380     0.6100    -0.9950 H     1 <1>   0.0800 
 43 H        7.5620     0.3530     0.5770 H     1 <1>   0.0800 
 44 H       -0.5350    -3.7690    -2.0010 H     1 <1>   0.0800 
 45 H       -0.3860    -5.4180    -2.5760 H     1 <1>   0.0800 
 46 H        0.9630    -4.3130    -2.7490 H     1 <1>   0.0800 
 47 H        1.4110    -7.2640     1.2380 H     1 <1>   0.1500 
 48 H        7.8190     1.9050     2.7800 H     1 <1>   0.0800 
 49 H        7.5210     3.6090     3.0620 H     1 <1>   0.0800 
 50 H        9.1440     3.0410     2.7680 H     1 <1>   0.0800 
 51 H        6.2230     2.7220    -2.6660 H     1 <1>   0.0800 
 52 H        7.8150     2.0070    -2.8590 H     1 <1>   0.0800 
 53 H        7.5680     3.7000    -3.1860 H     1 <1>   0.0800 
@<TRIPOS>BOND
  1   1   2  2   
  2   2   3  am  
  3   2   4  1   
  4   3   5  1   
  5   3   6  1   
  6   4   7  1   
  7   4  26  1   
  8   4  27  1   
  9   5   8  1   
 10   5  28  1   
 11   5  29  1   
 12   6   9  1   
 13   6  30  1   
 14   6  31  1   
 15   7  10  1   
 16   7  32  1   
 17   7  33  1   
 18   8  11  1   
 19   8  34  1   
 20   8  35  1   
 21   9  12  1   
 22   9  36  1   
 23   9  37  1   
 24  10  13  1   
 25  10  14  2   
 26  11  12  1   
 27  11  15  1   
 28  11  38  1   
 29  12  39  1   
 30  12  40  1   
 31  13  16  1   
 32  13  17  1   
 33  14  18  1   
 34  14  41  1   
 35  15  19  1   
 36  15  42  1   
 37  15  43  1   
 38  16  18  2   
 39  17  44  1   
 40  17  45  1   
 41  17  46  1   
 42  18  47  1   
 43  19  20  2   
 44  19  21  1   
 45  20  22  1   
 46  20  23  1   
 47  21  24  2   
 48  21  25  1   
 49  22  24  1   
 50  23  48  1   
 51  23  49  1   
 52  23  50  1   
 53  25  51  1   
 54  25  52  1   
 55  25  53  1   
@<TRIPOS>SUBSTRUCTURE
  1 ****   8 GROUP 4 **** **** 0

# MOE 2024.06 (io_trps.svl 2023.06)
