@<TRIPOS>MOLECULE
NONAME
42 45 1 0 0 
SMALL
USER_CHARGES


@<TRIPOS>ATOM
  1 S        0.5140     0.7460    -1.6050 S.3   1 <1>  -0.0800 
  2 C       -0.7170     1.4390    -0.5600 C.2   1 <1>  -0.1400 
  3 C       -0.6000    -0.5030    -2.1430 C.2   1 <1>  -0.1100 
  4 C       -1.8620     0.7520    -0.6570 C.2   1 <1>  -0.1810 
  5 C       -0.4630     2.6590     0.3180 C.3   1 <1>   0.4600 
  6 C       -1.8030    -0.3620    -1.5530 C.2   1 <1>  -0.1500 
  7 C       -3.0640     1.1890     0.1490 C.3   1 <1>   0.0210 
  8 O       -1.5970     2.8690     1.1390 O.3   1 <1>  -0.5600 
  9 C       -0.2220     3.9180    -0.5250 C.3   1 <1>  -0.1600 
 10 C        0.7160     2.4160     1.2660 C.3   1 <1>  -0.1600 
 11 C       -2.8720     2.6570     0.5800 C.3   1 <1>   0.1200 
 12 C        0.0760     5.1340     0.3540 C.3   1 <1>   0.1400 
 13 C        1.0120     3.6480     2.1240 C.3   1 <1>   0.1400 
 14 N        1.2360     4.8240     1.2350 N.am  1 <1>  -0.6600 
 15 C        2.4690     5.4370     1.1420 C.2   1 <1>   0.5440 
 16 O        3.4360     4.9160     1.6630 O.2   1 <1>  -0.5700 
 17 C        2.6570     6.6810     0.4230 C.ar  1 <1>   0.0860 
 18 C        1.9210     7.8220     0.7330 C.ar  1 <1>  -0.1500 
 19 C        3.5990     6.7730    -0.6030 C.ar  1 <1>  -0.1500 
 20 C        2.1340     8.9800     0.0170 C.ar  1 <1>   0.1900 
 21 C        3.8130     7.9430    -1.3250 C.ar  1 <1>   0.0730 
 22 F        1.4310    10.0380     0.3130 F     1 <1>  -0.1900 
 23 C        3.0590     9.0650    -1.0030 C.ar  1 <1>  -0.1500 
 24 C        4.7860     7.9900    -2.3790 C.1   1 <1>   0.4840 
 25 N        5.5500     8.0270    -3.2240 N.1   1 <1>  -0.5570 
 26 H       -0.2310    -1.2210    -2.8520 H     1 <1>   0.1500 
 27 H       -2.6570    -0.9980    -1.7110 H     1 <1>   0.1500 
 28 H       -3.1680     0.5630     1.0160 H     1 <1>   0.0800 
 29 H       -3.9570     1.1050    -0.4430 H     1 <1>   0.0800 
 30 H       -1.0710     4.1120    -1.1510 H     1 <1>   0.0800 
 31 H        0.6190     3.7500    -1.1730 H     1 <1>   0.0800 
 32 H        1.5970     2.1790     0.7000 H     1 <1>   0.0800 
 33 H        0.4970     1.5740     1.8960 H     1 <1>   0.0800 
 34 H       -3.6040     2.9230     1.3220 H     1 <1>   0.0800 
 35 H       -2.9870     3.3120    -0.2650 H     1 <1>   0.0800 
 36 H       -0.7790     5.3650     0.9670 H     1 <1>   0.0800 
 37 H        0.2790     5.9820    -0.2750 H     1 <1>   0.0800 
 38 H        1.8740     3.4620     2.7410 H     1 <1>   0.0800 
 39 H        0.1780     3.8510     2.7740 H     1 <1>   0.0800 
 40 H        1.1960     7.8010     1.5270 H     1 <1>   0.1500 
 41 H        4.1820     5.8950    -0.8330 H     1 <1>   0.1500 
 42 H        3.1890     9.9930    -1.5330 H     1 <1>   0.1500 
@<TRIPOS>BOND
  1   1   2  1   
  2   1   3  1   
  3   2   4  2   
  4   2   5  1   
  5   3   6  2   
  6   3  26  1   
  7   4   6  1   
  8   4   7  1   
  9   5   8  1   
 10   5   9  1   
 11   5  10  1   
 12   6  27  1   
 13   7  11  1   
 14   7  28  1   
 15   7  29  1   
 16   8  11  1   
 17   9  12  1   
 18   9  30  1   
 19   9  31  1   
 20  10  13  1   
 21  10  32  1   
 22  10  33  1   
 23  11  34  1   
 24  11  35  1   
 25  12  14  1   
 26  12  36  1   
 27  12  37  1   
 28  13  14  1   
 29  13  38  1   
 30  13  39  1   
 31  14  15  am  
 32  15  16  2   
 33  15  17  1   
 34  17  18  ar  
 35  17  19  ar  
 36  18  20  ar  
 37  18  40  1   
 38  19  21  ar  
 39  19  41  1   
 40  20  22  1   
 41  20  23  ar  
 42  21  23  ar  
 43  21  24  1   
 44  23  42  1   
 45  24  25  3   
@<TRIPOS>SUBSTRUCTURE
  1 ****  12 GROUP 4 **** **** 0

# MOE 2024.06 (io_trps.svl 2023.06)
