@<TRIPOS>MOLECULE
NONAME
43 45 1 0 0 
SMALL
USER_CHARGES


@<TRIPOS>ATOM
  1 O        0.4390     0.6510    -0.2110 O.co2 1 <1>  -0.9000 
  2 C        0.3880     1.8690    -0.0080 C.2   1 <1>   0.8710 
  3 O       -0.6590     2.5160    -0.1130 O.co2 1 <1>  -0.9000 
  4 C        1.6480     2.5820     0.3960 C.3   1 <1>  -0.0710 
  5 C        1.8220     3.9440    -0.2980 C.3   1 <1>   0.2450 
  6 C        2.8640     2.1080    -0.4140 C.3   1 <1>   0.2450 
  7 N        3.2570     3.5550    -0.5470 N.3   1 <1>  -0.5900 
  8 C        4.4000     4.1950    -0.2180 C.ar  1 <1>   0.4100 
  9 N        4.3390     5.4780     0.0860 N.ar  1 <1>  -0.6200 
 10 C        5.6220     3.5000    -0.2230 C.ar  1 <1>  -0.1500 
 11 C        5.4590     6.1110     0.3990 C.ar  1 <1>   0.7710 
 12 C        6.7600     4.1600     0.0960 C.ar  1 <1>   0.2180 
 13 N        6.6430     5.4730     0.4050 N.ar  1 <1>  -0.1790 
 14 N        5.4230     7.4360     0.7140 N.pl3 1 <1>  -0.8380 
 15 C        8.1370     3.5080     0.1180 C.3   1 <1>  -0.0170 
 16 C        4.1580     8.2360     0.5840 C.3   1 <1>   0.2090 
 17 C        6.5580     8.2950     1.1760 C.3   1 <1>   0.2090 
 18 C        9.0800     4.1160    -0.9280 C.3   1 <1>  -0.2400 
 19 C        4.3670     9.3330    -0.4650 C.3   1 <1>  -0.1600 
 20 C        6.8240     9.3790     0.1270 C.3   1 <1>  -0.1600 
 21 C        5.5700    10.2260    -0.1290 C.3   1 <1>  -0.1600 
 22 H        1.8230     2.6130     1.4580 H     1 <1>   0.0000 
 23 H        1.7270     4.7850     0.3660 H     1 <1>   0.0000 
 24 H        1.2860     4.0470    -1.2260 H     1 <1>   0.0000 
 25 H        2.6290     1.6850    -1.3760 H     1 <1>   0.0000 
 26 H        3.5700     1.5370     0.1620 H     1 <1>   0.0000 
 27 H        5.6160     2.4590    -0.4900 H     1 <1>   0.1500 
 28 H        7.4450     6.0450     0.6250 H     1 <1>   0.4570 
 29 H        8.0340     2.4550    -0.0820 H     1 <1>   0.0800 
 30 H        8.5700     3.6060     1.0990 H     1 <1>   0.0800 
 31 H        3.9190     8.6830     1.5350 H     1 <1>   0.0800 
 32 H        3.3150     7.6300     0.2940 H     1 <1>   0.0800 
 33 H        7.4550     7.7280     1.3470 H     1 <1>   0.0800 
 34 H        6.2880     8.7630     2.1090 H     1 <1>   0.0800 
 35 H        8.6590     4.0230    -1.9150 H     1 <1>   0.0800 
 36 H       10.0210     3.5910    -0.9180 H     1 <1>   0.0800 
 37 H        9.2760     5.1550    -0.7310 H     1 <1>   0.0800 
 38 H        3.4780     9.9360    -0.5270 H     1 <1>   0.0800 
 39 H        4.5110     8.8700    -1.4260 H     1 <1>   0.0800 
 40 H        7.1430     8.9180    -0.7920 H     1 <1>   0.0800 
 41 H        7.6200    10.0180     0.4670 H     1 <1>   0.0800 
 42 H        5.3450    10.8060     0.7500 H     1 <1>   0.0800 
 43 H        5.7500    10.9130    -0.9390 H     1 <1>   0.0800 
@<TRIPOS>BOND
  1   1   2  ar  
  2   2   3  ar  
  3   2   4  1   
  4   4   5  1   
  5   4   6  1   
  6   4  22  1   
  7   5   7  1   
  8   5  23  1   
  9   5  24  1   
 10   6   7  1   
 11   6  25  1   
 12   6  26  1   
 13   7   8  1   
 14   8   9  ar  
 15   8  10  ar  
 16   9  11  ar  
 17  10  12  ar  
 18  10  27  1   
 19  11  13  ar  
 20  11  14  1   
 21  12  13  ar  
 22  12  15  1   
 23  13  28  1   
 24  14  16  1   
 25  14  17  1   
 26  15  18  1   
 27  15  29  1   
 28  15  30  1   
 29  16  19  1   
 30  16  31  1   
 31  16  32  1   
 32  17  20  1   
 33  17  33  1   
 34  17  34  1   
 35  18  35  1   
 36  18  36  1   
 37  18  37  1   
 38  19  21  1   
 39  19  38  1   
 40  19  39  1   
 41  20  21  1   
 42  20  40  1   
 43  20  41  1   
 44  21  42  1   
 45  21  43  1   
@<TRIPOS>SUBSTRUCTURE
  1 ****   9 GROUP 4 **** **** 0

# MOE 2024.06 (io_trps.svl 2023.06)
