@<TRIPOS>MOLECULE
NONAME
50 52 1 0 0 
SMALL
USER_CHARGES


@<TRIPOS>ATOM
  1 CL       3.0240     0.1810    -0.8850 Cl    1 <1>  -0.1770 
  2 C        1.6410     1.2490    -0.9800 C.ar  1 <1>   0.1770 
  3 C        1.4250     2.2520    -0.0380 C.ar  1 <1>  -0.1440 
  4 C        0.7740     1.0520    -2.0400 C.ar  1 <1>  -0.1500 
  5 C        0.3080     3.0630    -0.1990 C.ar  1 <1>  -0.1500 
  6 C        2.3480     2.5010     1.1550 C.3   1 <1>   0.3640 
  7 C       -0.3350     1.8660    -2.1800 C.ar  1 <1>  -0.1500 
  8 C       -0.5640     2.8730    -1.2580 C.ar  1 <1>  -0.1500 
  9 N        2.3490     1.2860     2.0060 N.am  1 <1>  -0.7300 
 10 C        3.7740     2.9680     0.7410 C.3   1 <1>   0.2610 
 11 C        3.4730     0.6710     2.4320 C.2   1 <1>   0.5690 
 12 O        4.7550     2.6200     1.7160 O.3   1 <1>  -0.5600 
 13 C        3.7750     4.4840     0.5050 C.2   1 <1>   0.5690 
 14 O        3.4140    -0.3160     3.1200 O.2   1 <1>  -0.5700 
 15 C        4.8270     1.2420     2.0100 C.3   1 <1>   0.1810 
 16 O        2.9160     4.9830    -0.1820 O.2   1 <1>  -0.5700 
 17 N        4.7470     5.2410     1.0820 N.am  1 <1>  -0.7300 
 18 C        4.9120     6.7020     0.9450 C.3   1 <1>   0.1400 
 19 C        6.2620     6.9920     0.2920 C.3   1 <1>  -0.1600 
 20 C        6.4580     8.4950     0.0710 C.3   1 <1>   0.0210 
 21 C        7.7970     8.7600    -0.5940 C.2   1 <1>  -0.1810 
 22 C        9.0090     9.0300     0.0410 C.2   1 <1>   0.1080 
 23 C        8.0870     8.7900    -1.9130 C.2   1 <1>  -0.3320 
 24 N        9.9750     9.2180    -0.8000 N.2   1 <1>  -0.7070 
 25 C        9.2280     9.1090     1.5350 C.3   1 <1>  -0.0590 
 26 N        9.4040     9.0690    -2.0080 N.pl3 1 <1>   0.3000 
 27 C        7.1970     8.5650    -3.1230 C.3   1 <1>  -0.0600 
 28 H        0.9690     0.2670    -2.7490 H     1 <1>   0.1500 
 29 H        0.1080     3.8600     0.4980 H     1 <1>   0.1500 
 30 H        1.9210     3.2910     1.7490 H     1 <1>   0.0800 
 31 H       -1.0140     1.7210    -3.0020 H     1 <1>   0.1500 
 32 H       -1.4220     3.5130    -1.3670 H     1 <1>   0.1500 
 33 H        1.4470     0.8710     2.2440 H     1 <1>   0.3700 
 34 H        4.0620     2.5030    -0.1820 H     1 <1>   0.0800 
 35 H        5.1840     0.7220     1.1390 H     1 <1>   0.0800 
 36 H        5.5330     1.1110     2.8090 H     1 <1>   0.0800 
 37 H        5.4340     4.7470     1.6610 H     1 <1>   0.3700 
 38 H        4.1170     7.1030     0.3380 H     1 <1>   0.0800 
 39 H        4.8600     7.1580     1.9190 H     1 <1>   0.0800 
 40 H        7.0560     6.6200     0.9150 H     1 <1>   0.0800 
 41 H        6.3110     6.4940    -0.6600 H     1 <1>   0.0800 
 42 H        6.4110     9.0200     1.0090 H     1 <1>   0.0800 
 43 H        5.6720     8.8770    -0.5560 H     1 <1>   0.0800 
 44 H        8.7700     8.2680     2.0210 H     1 <1>   0.0800 
 45 H        8.8030    10.0190     1.9140 H     1 <1>   0.0800 
 46 H       10.2810     9.1010     1.7480 H     1 <1>   0.0800 
 47 H        9.9410     9.1620    -2.8780 H     1 <1>   0.2700 
 48 H        6.1980     8.3110    -2.8190 H     1 <1>   0.0800 
 49 H        7.5830     7.7580    -3.7210 H     1 <1>   0.0800 
 50 H        7.1550     9.4570    -3.7230 H     1 <1>   0.0800 
@<TRIPOS>BOND
  1   1   2  1   
  2   2   3  ar  
  3   2   4  ar  
  4   3   5  ar  
  5   3   6  1   
  6   4   7  ar  
  7   4  28  1   
  8   5   8  ar  
  9   5  29  1   
 10   6   9  1   
 11   6  10  1   
 12   6  30  1   
 13   7   8  ar  
 14   7  31  1   
 15   8  32  1   
 16   9  11  am  
 17   9  33  1   
 18  10  12  1   
 19  10  13  1   
 20  10  34  1   
 21  11  14  2   
 22  11  15  1   
 23  12  15  1   
 24  13  16  2   
 25  13  17  am  
 26  15  35  1   
 27  15  36  1   
 28  17  18  1   
 29  17  37  1   
 30  18  19  1   
 31  18  38  1   
 32  18  39  1   
 33  19  20  1   
 34  19  40  1   
 35  19  41  1   
 36  20  21  1   
 37  20  42  1   
 38  20  43  1   
 39  21  22  1   
 40  21  23  2   
 41  22  24  2   
 42  22  25  1   
 43  23  26  1   
 44  23  27  1   
 45  24  26  1   
 46  25  44  1   
 47  25  45  1   
 48  25  46  1   
 49  26  47  1   
 50  27  48  1   
 51  27  49  1   
 52  27  50  1   
@<TRIPOS>SUBSTRUCTURE
  1 ****  13 GROUP 4 **** **** 0

# MOE 2024.06 (io_trps.svl 2023.06)
