@<TRIPOS>MOLECULE
NONAME
49 52 1 0 0 
SMALL
USER_CHARGES


@<TRIPOS>ATOM
  1 O        0.0430     0.0330    -0.2040 O.3   1 <1>  -0.5600 
  2 C        1.2450    -0.5170    -0.6700 C.3   1 <1>   0.3440 
  3 C       -0.1570     1.3790    -0.5160 C.3   1 <1>   0.2950 
  4 C        1.3330    -1.9800    -0.2640 C.ar  1 <1>  -0.1440 
  5 C        2.4410     0.2530    -0.0640 C.3   1 <1>   0.3430 
  6 C       -1.5230     1.7810     0.0410 C.3   1 <1>  -0.1950 
  7 C        0.9680     2.2400     0.1050 C.3   1 <1>   0.3430 
  8 C        1.9600    -2.8900    -1.1060 C.ar  1 <1>  -0.1500 
  9 C        0.8160    -2.4260     0.9460 C.ar  1 <1>  -0.1500 
 10 N        2.3550     1.7510    -0.2580 N.4   1 <1>  -0.9590 
 11 C       -2.7810     1.4850    -0.7120 C.3   1 <1>  -0.2000 
 12 C       -2.3060     2.9040    -0.5680 C.3   1 <1>  -0.2000 
 13 C        2.0770    -4.2190    -0.7390 C.ar  1 <1>  -0.1500 
 14 C        0.9340    -3.7550     1.3120 C.ar  1 <1>  -0.1500 
 15 C        3.4280     2.4480     0.5060 C.3   1 <1>   0.3430 
 16 C        1.5660    -4.6520     0.4710 C.ar  1 <1>  -0.1500 
 17 C        3.5100     3.9080     0.0710 C.3   1 <1>  -0.1600 
 18 C        4.7510     4.6060     0.6560 C.3   1 <1>   0.0960 
 19 N        4.8620     5.9790     0.1280 N.pl3 1 <1>   0.3140 
 20 N        4.8920     6.2190    -1.1950 N.2   1 <1>  -0.7070 
 21 C        4.9360     7.1220     0.8370 C.2   1 <1>  -0.3020 
 22 C        4.9910     7.5100    -1.2960 C.2   1 <1>   0.1390 
 23 C        5.0210     8.1320    -0.0540 C.2   1 <1>  -0.1500 
 24 H        1.2510    -0.4440    -1.7440 H     1 <1>   0.0800 
 25 H       -0.1630     1.4830    -1.5880 H     1 <1>   0.0800 
 26 H        3.3510    -0.1250    -0.4980 H     1 <1>   0.0800 
 27 H        2.4680     0.0250     0.9890 H     1 <1>   0.0800 
 28 H       -1.5730     1.6760     1.1120 H     1 <1>   0.1000 
 29 H        0.8460     2.2160     1.1750 H     1 <1>   0.0800 
 30 H        0.8390     3.2600    -0.2150 H     1 <1>   0.0800 
 31 H        2.3610    -2.5810    -2.0550 H     1 <1>   0.1500 
 32 H        0.3110    -1.7470     1.6110 H     1 <1>   0.1500 
 33 H        2.5050     1.9490    -1.2580 H     1 <1>   0.4500 
 34 H       -2.7160     1.0060    -1.6750 H     1 <1>   0.1000 
 35 H       -3.6480     1.1670    -0.1590 H     1 <1>   0.1000 
 36 H       -2.8710     3.5600     0.0740 H     1 <1>   0.1000 
 37 H       -1.9600     3.4020    -1.4570 H     1 <1>   0.1000 
 38 H        2.5630    -4.9210    -1.3950 H     1 <1>   0.1500 
 39 H        0.5290    -4.0940     2.2500 H     1 <1>   0.1500 
 40 H        3.2360     2.3850     1.5660 H     1 <1>   0.0800 
 41 H        4.3760     1.9720     0.3060 H     1 <1>   0.0800 
 42 H        1.6560    -5.6870     0.7550 H     1 <1>   0.1500 
 43 H        2.6360     4.4460     0.3910 H     1 <1>   0.0800 
 44 H        3.5750     3.9470    -1.0040 H     1 <1>   0.0800 
 45 H        5.6460     4.0800     0.3780 H     1 <1>   0.0800 
 46 H        4.6940     4.6540     1.7290 H     1 <1>   0.0800 
 47 H        4.9280     7.1610     1.9100 H     1 <1>   0.1500 
 48 H        5.0440     8.0310    -2.2380 H     1 <1>   0.1500 
 49 H        5.0980     9.1900     0.1230 H     1 <1>   0.1500 
@<TRIPOS>BOND
  1   1   2  1   
  2   1   3  1   
  3   2   4  1   
  4   2   5  1   
  5   2  24  1   
  6   3   6  1   
  7   3   7  1   
  8   3  25  1   
  9   4   8  ar  
 10   4   9  ar  
 11   5  10  1   
 12   5  26  1   
 13   5  27  1   
 14   6  11  1   
 15   6  12  1   
 16   6  28  1   
 17   7  10  1   
 18   7  29  1   
 19   7  30  1   
 20   8  13  ar  
 21   8  31  1   
 22   9  14  ar  
 23   9  32  1   
 24  10  15  1   
 25  10  33  1   
 26  11  12  1   
 27  11  34  1   
 28  11  35  1   
 29  12  36  1   
 30  12  37  1   
 31  13  16  ar  
 32  13  38  1   
 33  14  16  ar  
 34  14  39  1   
 35  15  17  1   
 36  15  40  1   
 37  15  41  1   
 38  16  42  1   
 39  17  18  1   
 40  17  43  1   
 41  17  44  1   
 42  18  19  1   
 43  18  45  1   
 44  18  46  1   
 45  19  20  1   
 46  19  21  1   
 47  20  22  2   
 48  21  23  2   
 49  21  47  1   
 50  22  23  1   
 51  22  48  1   
 52  23  49  1   
@<TRIPOS>SUBSTRUCTURE
  1 ****  10 GROUP 4 **** **** 0

# MOE 2024.06 (io_trps.svl 2023.06)
