@<TRIPOS>MOLECULE
NONAME
48 49 1 0 0 
SMALL
USER_CHARGES


@<TRIPOS>ATOM
  1 S        1.3490    -0.7570    -0.2540 S.3   1 <1>  -0.4600 
  2 C        2.1300     0.4050     0.9340 C.3   1 <1>   0.1310 
  3 C       -0.4380    -0.4190    -0.0900 C.3   1 <1>   0.0700 
  4 C        1.6130     1.8270     0.7570 C.2   1 <1>   0.5690 
  5 C       -1.2170    -1.4260    -0.9440 C.3   1 <1>   0.3430 
  6 O        0.5480     2.1260     1.2440 O.2   1 <1>  -0.5700 
  7 N        2.3490     2.7260     0.0670 N.am  1 <1>  -0.7300 
  8 N       -0.7060    -2.8120    -0.7230 N.4   1 <1>  -0.9590 
  9 C        2.0500     4.1620    -0.0470 C.3   1 <1>   0.3200 
 10 C       -1.1250    -3.7870    -1.7540 C.3   1 <1>   0.3430 
 11 C       -1.0570    -3.4030     0.5890 C.3   1 <1>   0.3430 
 12 C        3.3170     4.9040    -0.4630 C.2   1 <1>   0.0070 
 13 C       -0.8720    -5.1440    -1.1110 C.3   1 <1>  -0.1600 
 14 C       -0.8220    -4.8950     0.4000 C.3   1 <1>  -0.1600 
 15 N        4.4260     4.3100    -0.7940 N.2   1 <1>  -0.5650 
 16 N        3.3880     6.2600    -0.5230 N.pl3 1 <1>   0.0480 
 17 C        5.2620     5.3220    -1.0820 C.2   1 <1>   0.0770 
 18 C        4.6510     6.5130    -0.9220 C.2   1 <1>  -0.3020 
 19 C        2.3340     7.2680    -0.2190 C.3   1 <1>   0.1760 
 20 C        2.0550     8.1360    -1.4510 C.3   1 <1>  -0.2400 
 21 C        2.7540     8.1290     0.9780 C.3   1 <1>  -0.2400 
 22 H        3.1910     0.3620     0.7700 H     1 <1>   0.0800 
 23 H        1.9020     0.0530     1.9230 H     1 <1>   0.0800 
 24 H       -0.6170     0.5860    -0.4320 H     1 <1>   0.0800 
 25 H       -0.6930    -0.4930     0.9520 H     1 <1>   0.0800 
 26 H       -1.0820    -1.1600    -1.9800 H     1 <1>   0.0800 
 27 H       -2.2690    -1.3700    -0.7170 H     1 <1>   0.0800 
 28 H        3.2860     2.5230    -0.3050 H     1 <1>   0.3700 
 29 H        0.3270    -2.7360    -0.7540 H     1 <1>   0.4500 
 30 H        1.6990     4.5290     0.9010 H     1 <1>   0.0800 
 31 H        1.2830     4.3060    -0.7880 H     1 <1>   0.0800 
 32 H       -0.5670    -3.6670    -2.6690 H     1 <1>   0.0800 
 33 H       -2.1790    -3.6750    -1.9560 H     1 <1>   0.0800 
 34 H       -2.0980    -3.2250     0.8040 H     1 <1>   0.0800 
 35 H       -0.4490    -2.9990     1.3830 H     1 <1>   0.0800 
 36 H        0.0670    -5.5400    -1.4570 H     1 <1>   0.0800 
 37 H       -1.6520    -5.8370    -1.3770 H     1 <1>   0.0800 
 38 H       -1.5710    -5.4630     0.9260 H     1 <1>   0.0800 
 39 H        0.1450    -5.1620     0.7920 H     1 <1>   0.0800 
 40 H        6.2770     5.1370    -1.3940 H     1 <1>   0.1500 
 41 H        5.0390     7.5040    -1.0690 H     1 <1>   0.1500 
 42 H        1.4290     6.7490     0.0390 H     1 <1>   0.0800 
 43 H        2.9260     8.7050    -1.7240 H     1 <1>   0.0800 
 44 H        1.2530     8.8220    -1.2440 H     1 <1>   0.0800 
 45 H        1.7640     7.5180    -2.2820 H     1 <1>   0.0800 
 46 H        3.6430     8.6900     0.7510 H     1 <1>   0.0800 
 47 H        2.9400     7.5060     1.8350 H     1 <1>   0.0800 
 48 H        1.9700     8.8210     1.2270 H     1 <1>   0.0800 
@<TRIPOS>BOND
  1   1   2  1   
  2   1   3  1   
  3   2   4  1   
  4   2  22  1   
  5   2  23  1   
  6   3   5  1   
  7   3  24  1   
  8   3  25  1   
  9   4   6  2   
 10   4   7  am  
 11   5   8  1   
 12   5  26  1   
 13   5  27  1   
 14   7   9  1   
 15   7  28  1   
 16   8  10  1   
 17   8  11  1   
 18   8  29  1   
 19   9  12  1   
 20   9  30  1   
 21   9  31  1   
 22  10  13  1   
 23  10  32  1   
 24  10  33  1   
 25  11  14  1   
 26  11  34  1   
 27  11  35  1   
 28  12  15  2   
 29  12  16  1   
 30  13  14  1   
 31  13  36  1   
 32  13  37  1   
 33  14  38  1   
 34  14  39  1   
 35  15  17  1   
 36  16  18  1   
 37  16  19  1   
 38  17  18  2   
 39  17  40  1   
 40  18  41  1   
 41  19  20  1   
 42  19  21  1   
 43  19  42  1   
 44  20  43  1   
 45  20  44  1   
 46  20  45  1   
 47  21  46  1   
 48  21  47  1   
 49  21  48  1   
@<TRIPOS>SUBSTRUCTURE
  1 ****   4 GROUP 4 **** **** 0

# MOE 2024.06 (io_trps.svl 2023.06)
