@<TRIPOS>MOLECULE
NONAME
52 54 1 0 0 
SMALL
USER_CHARGES


@<TRIPOS>ATOM
  1 F       -4.3510     0.6670    -1.3360 F     1 <1>  -0.1900 
  2 C       -4.1890    -0.2920    -0.4610 C.ar  1 <1>   0.1900 
  3 C       -4.5130    -0.0730     0.8750 C.ar  1 <1>   0.0830 
  4 C       -3.7430    -1.5150    -0.9150 C.ar  1 <1>  -0.1500 
  5 O       -5.0580     1.0780     1.3210 O.3   1 <1>  -0.3630 
  6 C       -4.3220    -1.1100     1.7740 C.ar  1 <1>  -0.1500 
  7 C       -3.6200    -2.5850    -0.0290 C.ar  1 <1>   0.0860 
  8 C       -4.2150     2.2110     1.3590 C.3   1 <1>   0.0400 
  9 C       -3.8720    -2.3400     1.3230 C.ar  1 <1>  -0.1500 
 10 C       -3.2310    -3.8960    -0.5100 C.2   1 <1>   0.5440 
 11 O       -2.1540    -4.0030    -1.0620 O.2   1 <1>  -0.5700 
 12 N       -4.0240    -5.0250    -0.3730 N.am  1 <1>  -0.6600 
 13 C       -5.5180    -5.1070    -0.4330 C.3   1 <1>   0.2200 
 14 C       -3.3700    -6.3670    -0.4190 C.3   1 <1>   0.0600 
 15 C       -6.1880    -4.1580    -1.4270 C.3   1 <1>  -0.1600 
 16 C       -6.1800    -4.8690     0.9220 C.3   1 <1>  -0.1600 
 17 C       -7.5830    -3.8680    -0.8530 C.3   1 <1>  -0.0800 
 18 C       -7.4790    -4.0890     0.6630 C.3   1 <1>  -0.0800 
 19 C       -8.0100    -2.4090    -1.0350 C.3   1 <1>  -0.1600 
 20 C       -7.5270    -2.6910     1.3080 C.3   1 <1>  -0.1600 
 21 C       -7.3600    -1.7060     0.1510 C.3   1 <1>   0.4230 
 22 N       -7.8770    -0.3300     0.4320 N.4   1 <1>  -0.9590 
 23 C       -9.3090    -0.2560     0.8630 C.3   1 <1>   0.2630 
 24 C       -7.6510     0.5810    -0.7310 C.3   1 <1>   0.2630 
 25 H       -3.4980    -1.6540    -1.9540 H     1 <1>   0.1500 
 26 H       -4.5230    -0.9520     2.8200 H     1 <1>   0.1500 
 27 H       -4.7480     3.0170     1.8310 H     1 <1>   0.0800 
 28 H       -3.9440     2.4910     0.3560 H     1 <1>   0.0800 
 29 H       -3.3340     1.9730     1.9290 H     1 <1>   0.0800 
 30 H       -3.7060    -3.1370     2.0290 H     1 <1>   0.1500 
 31 H       -5.7920    -6.1030    -0.7440 H     1 <1>   0.0800 
 32 H       -3.8250    -7.0250     0.2990 H     1 <1>   0.0800 
 33 H       -2.3210    -6.2850    -0.1870 H     1 <1>   0.0800 
 34 H       -3.4720    -6.7860    -1.4050 H     1 <1>   0.0800 
 35 H       -5.6340    -3.2510    -1.5360 H     1 <1>   0.0800 
 36 H       -6.2620    -4.6220    -2.3940 H     1 <1>   0.0800 
 37 H       -6.4120    -5.8210     1.3670 H     1 <1>   0.0800 
 38 H       -5.5280    -4.3510     1.5930 H     1 <1>   0.0800 
 39 H       -8.2990    -4.5480    -1.2870 H     1 <1>   0.0800 
 40 H       -8.3210    -4.6710     1.0050 H     1 <1>   0.0800 
 41 H       -9.0820    -2.3520    -0.9720 H     1 <1>   0.0800 
 42 H       -7.6790    -2.0160    -1.9800 H     1 <1>   0.0800 
 43 H       -6.7650    -2.5530     2.0520 H     1 <1>   0.0800 
 44 H       -8.4870    -2.5870     1.7760 H     1 <1>   0.0800 
 45 H       -6.3070    -1.6430    -0.0620 H     1 <1>   0.0800 
 46 H       -7.2870     0.0370     1.1990 H     1 <1>   0.4500 
 47 H       -9.9520    -0.6700     0.1040 H     1 <1>   0.0800 
 48 H       -9.5940     0.7690     1.0320 H     1 <1>   0.0800 
 49 H       -9.4580    -0.8020     1.7800 H     1 <1>   0.0800 
 50 H       -8.2460     0.2700    -1.5740 H     1 <1>   0.0800 
 51 H       -6.6150     0.5710    -1.0190 H     1 <1>   0.0800 
 52 H       -7.9200     1.5920    -0.4720 H     1 <1>   0.0800 
@<TRIPOS>BOND
  1   1   2  1   
  2   2   3  ar  
  3   2   4  ar  
  4   3   5  1   
  5   3   6  ar  
  6   4   7  ar  
  7   4  25  1   
  8   5   8  1   
  9   6   9  ar  
 10   6  26  1   
 11   7   9  ar  
 12   7  10  1   
 13   8  27  1   
 14   8  28  1   
 15   8  29  1   
 16   9  30  1   
 17  10  11  2   
 18  10  12  am  
 19  12  13  1   
 20  12  14  1   
 21  13  15  1   
 22  13  16  1   
 23  13  31  1   
 24  14  32  1   
 25  14  33  1   
 26  14  34  1   
 27  15  17  1   
 28  15  35  1   
 29  15  36  1   
 30  16  18  1   
 31  16  37  1   
 32  16  38  1   
 33  17  18  1   
 34  17  19  1   
 35  17  39  1   
 36  18  20  1   
 37  18  40  1   
 38  19  21  1   
 39  19  41  1   
 40  19  42  1   
 41  20  21  1   
 42  20  43  1   
 43  20  44  1   
 44  21  22  1   
 45  21  45  1   
 46  22  23  1   
 47  22  24  1   
 48  22  46  1   
 49  23  47  1   
 50  23  48  1   
 51  23  49  1   
 52  24  50  1   
 53  24  51  1   
 54  24  52  1   
@<TRIPOS>SUBSTRUCTURE
  1 ****   7 GROUP 4 **** **** 0

# MOE 2024.06 (io_trps.svl 2023.06)
