@<TRIPOS>MOLECULE
NONAME
38 40 1 0 0 
SMALL
USER_CHARGES


@<TRIPOS>ATOM
  1 F       -1.5110    -0.6340    -2.6620 F     1 <1>  -0.1900 
  2 C       -1.8690    -0.9620    -1.4460 C.ar  1 <1>   0.1900 
  3 C       -1.9090     0.0120    -0.4530 C.ar  1 <1>   0.0830 
  4 C       -2.1920    -2.2830    -1.2030 C.ar  1 <1>  -0.1500 
  5 O       -1.5680     1.2900    -0.7770 O.3   1 <1>  -0.3400 
  6 C       -2.2990    -0.3780     0.8270 C.ar  1 <1>  -0.1500 
  7 C       -2.5730    -2.6530     0.0760 C.ar  1 <1>  -0.1500 
  8 C       -1.4020     2.2830     0.2200 C.3   1 <1>   0.2580 
  9 C       -2.6260    -1.7020     1.0840 C.ar  1 <1>  -0.1500 
 10 C       -0.7850     3.5730    -0.3590 C.3   1 <1>   0.2450 
 11 C       -0.0850     2.1300     1.0100 C.3   1 <1>   0.2450 
 12 N        0.1280     3.6160     0.8400 N.3   1 <1>  -0.5900 
 13 C        1.4240     4.1210     0.6500 C.ar  1 <1>   0.4100 
 14 N        2.4070     3.3430     1.0850 N.ar  1 <1>  -0.6200 
 15 C        1.6650     5.4040     0.0400 C.ar  1 <1>   0.4100 
 16 C        3.6100     3.8530     0.8650 C.ar  1 <1>   0.1600 
 17 N        2.8830     5.8800    -0.1730 N.ar  1 <1>  -0.6200 
 18 N        0.6260     6.2660    -0.3500 N.pl3 1 <1>  -0.8380 
 19 C        3.8380     5.0700     0.2560 C.ar  1 <1>   0.1600 
 20 C       -0.1490     6.8960     0.7500 C.3   1 <1>   0.1290 
 21 C        0.8330     7.1560    -1.5260 C.3   1 <1>   0.1290 
 22 H       -2.1450    -3.0040    -2.0000 H     1 <1>   0.1500 
 23 H       -2.3580     0.3270     1.6350 H     1 <1>   0.1500 
 24 H       -2.8290    -3.6780     0.2870 H     1 <1>   0.1500 
 25 H       -2.2940     2.4370     0.8030 H     1 <1>   0.0000 
 26 H       -2.9240    -1.9950     2.0760 H     1 <1>   0.1500 
 27 H       -1.4660     4.4050    -0.3700 H     1 <1>   0.0000 
 28 H       -0.2320     3.4290    -1.2720 H     1 <1>   0.0000 
 29 H        0.6570     1.5450     0.4940 H     1 <1>   0.0000 
 30 H       -0.2270     1.8670     2.0430 H     1 <1>   0.0000 
 31 H        4.4510     3.2660     1.1880 H     1 <1>   0.1500 
 32 H        4.8520     5.4000     0.1150 H     1 <1>   0.1500 
 33 H       -0.1720     6.2490     1.6100 H     1 <1>   0.0800 
 34 H       -1.1590     7.0760     0.4270 H     1 <1>   0.0800 
 35 H        0.3090     7.8290     1.0310 H     1 <1>   0.0800 
 36 H        1.3750     6.6280    -2.2920 H     1 <1>   0.0800 
 37 H        1.4010     8.0230    -1.2350 H     1 <1>   0.0800 
 38 H       -0.1170     7.4650    -1.9250 H     1 <1>   0.0800 
@<TRIPOS>BOND
  1   1   2  1   
  2   2   3  ar  
  3   2   4  ar  
  4   3   5  1   
  5   3   6  ar  
  6   4   7  ar  
  7   4  22  1   
  8   5   8  1   
  9   6   9  ar  
 10   6  23  1   
 11   7   9  ar  
 12   7  24  1   
 13   8  10  1   
 14   8  11  1   
 15   8  25  1   
 16   9  26  1   
 17  10  12  1   
 18  10  27  1   
 19  10  28  1   
 20  11  12  1   
 21  11  29  1   
 22  11  30  1   
 23  12  13  1   
 24  13  14  ar  
 25  13  15  ar  
 26  14  16  ar  
 27  15  17  ar  
 28  15  18  1   
 29  16  19  ar  
 30  16  31  1   
 31  17  19  ar  
 32  18  20  1   
 33  18  21  1   
 34  19  32  1   
 35  20  33  1   
 36  20  34  1   
 37  20  35  1   
 38  21  36  1   
 39  21  37  1   
 40  21  38  1   
@<TRIPOS>SUBSTRUCTURE
  1 ****  11 GROUP 4 **** **** 0

# MOE 2024.06 (io_trps.svl 2023.06)
