@<TRIPOS>MOLECULE
NONAME
61 63 1 0 0 
SMALL
USER_CHARGES


@<TRIPOS>ATOM
  1 S       -0.0520     2.2290    -0.6500 S.o2  1 <1>   1.2040 
  2 O        0.0350     2.3960     0.7860 O.2   1 <1>  -0.6500 
  3 O        0.0100     3.4030    -1.4960 O.2   1 <1>  -0.6500 
  4 C       -1.5400     1.2800    -1.0440 C.ar  1 <1>  -0.0090 
  5 C        1.2320     1.1090    -1.1910 C.3   1 <1>  -0.0550 
  6 C       -2.1600     1.3980    -2.2840 C.ar  1 <1>  -0.1500 
  7 C       -2.0790     0.3810    -0.1300 C.ar  1 <1>  -0.1500 
  8 C        2.5880     1.7970    -1.3790 C.3   1 <1>   0.1100 
  9 C       -3.2760     0.6440    -2.6030 C.ar  1 <1>  -0.1500 
 10 C       -3.1950    -0.3760    -0.4420 C.ar  1 <1>  -0.1500 
 11 N        3.1220     2.3730    -0.1290 N.3   1 <1>  -0.8100 
 12 C       -3.7940    -0.2460    -1.6810 C.ar  1 <1>  -0.1500 
 13 C        4.2260     3.3380    -0.4170 C.3   1 <1>   0.1100 
 14 C        3.5630     1.2980     0.7820 C.3   1 <1>   0.0300 
 15 C        4.3360     4.6240     0.4860 C.3   1 <1>   0.5030 
 16 N        3.0030     5.2800     0.7620 N.4   1 <1>  -0.9590 
 17 C        5.1920     5.6790    -0.2620 C.3   1 <1>  -0.1600 
 18 C        5.0420     4.3470     1.8400 C.3   1 <1>  -0.1600 
 19 C        2.1420     4.5520     1.7470 C.3   1 <1>   0.3430 
 20 C        2.1870     5.5160    -0.4680 C.3   1 <1>   0.3430 
 21 C        6.6720     5.2860    -0.4230 C.3   1 <1>  -0.1600 
 22 C        6.5230     3.9490     1.7180 C.3   1 <1>  -0.1600 
 23 C        0.9790     5.4510     2.1730 C.3   1 <1>  -0.1600 
 24 C        1.0310     6.4640    -0.1430 C.3   1 <1>  -0.1600 
 25 C        7.3160     4.9990     0.9350 C.3   1 <1>  -0.1600 
 26 C        0.1390     5.9130     0.9760 C.3   1 <1>  -0.1600 
 27 H        0.9510     0.7040    -2.1440 H     1 <1>   0.0800 
 28 H        1.3200     0.2830    -0.5140 H     1 <1>   0.0800 
 29 H       -1.7700     2.0910    -3.0110 H     1 <1>   0.1500 
 30 H       -1.6270     0.2730     0.8410 H     1 <1>   0.1500 
 31 H        2.4510     2.5810    -2.1070 H     1 <1>   0.0800 
 32 H        3.2970     1.0950    -1.7880 H     1 <1>   0.0800 
 33 H       -3.7430     0.7510    -3.5670 H     1 <1>   0.1500 
 34 H       -3.6000    -1.0650     0.2810 H     1 <1>   0.1500 
 35 H       -4.6630    -0.8330    -1.9250 H     1 <1>   0.1500 
 36 H        4.1090     3.6920    -1.4260 H     1 <1>   0.0800 
 37 H        5.1640     2.8120    -0.4140 H     1 <1>   0.0800 
 38 H        2.7260     0.6870     1.0730 H     1 <1>   0.0800 
 39 H        3.9880     1.6990     1.6810 H     1 <1>   0.0800 
 40 H        4.3010     0.6740     0.3050 H     1 <1>   0.0800 
 41 H        3.2030     6.1930     1.1730 H     1 <1>   0.4500 
 42 H        5.1610     6.6090     0.2790 H     1 <1>   0.0800 
 43 H        4.7990     5.8610    -1.2460 H     1 <1>   0.0800 
 44 H        4.5440     3.5700     2.3830 H     1 <1>   0.0800 
 45 H        4.9980     5.2380     2.4420 H     1 <1>   0.0800 
 46 H        2.7030     4.2840     2.6240 H     1 <1>   0.0800 
 47 H        1.7640     3.6480     1.3040 H     1 <1>   0.0800 
 48 H        1.8010     4.5770    -0.8260 H     1 <1>   0.0800 
 49 H        2.7870     5.9530    -1.2470 H     1 <1>   0.0800 
 50 H        7.2060     6.0900    -0.9020 H     1 <1>   0.0800 
 51 H        6.7650     4.4200    -1.0560 H     1 <1>   0.0800 
 52 H        6.6170     2.9910     1.2350 H     1 <1>   0.0800 
 53 H        6.9490     3.8500     2.7020 H     1 <1>   0.0800 
 54 H        1.3630     6.3040     2.7050 H     1 <1>   0.0800 
 55 H        0.3490     4.9020     2.8510 H     1 <1>   0.0800 
 56 H        0.4360     6.6010    -1.0290 H     1 <1>   0.0800 
 57 H        1.4240     7.4250     0.1370 H     1 <1>   0.0800 
 58 H        7.3640     5.9100     1.5080 H     1 <1>   0.0800 
 59 H        8.3270     4.6550     0.7910 H     1 <1>   0.0800 
 60 H       -0.5710     6.6600     1.2870 H     1 <1>   0.0800 
 61 H       -0.4220     5.0750     0.5980 H     1 <1>   0.0800 
@<TRIPOS>BOND
  1   1   2  2   
  2   1   3  2   
  3   1   4  1   
  4   1   5  1   
  5   4   6  ar  
  6   4   7  ar  
  7   5   8  1   
  8   5  27  1   
  9   5  28  1   
 10   6   9  ar  
 11   6  29  1   
 12   7  10  ar  
 13   7  30  1   
 14   8  11  1   
 15   8  31  1   
 16   8  32  1   
 17   9  12  ar  
 18   9  33  1   
 19  10  12  ar  
 20  10  34  1   
 21  11  13  1   
 22  11  14  1   
 23  12  35  1   
 24  13  15  1   
 25  13  36  1   
 26  13  37  1   
 27  14  38  1   
 28  14  39  1   
 29  14  40  1   
 30  15  16  1   
 31  15  17  1   
 32  15  18  1   
 33  16  19  1   
 34  16  20  1   
 35  16  41  1   
 36  17  21  1   
 37  17  42  1   
 38  17  43  1   
 39  18  22  1   
 40  18  44  1   
 41  18  45  1   
 42  19  23  1   
 43  19  46  1   
 44  19  47  1   
 45  20  24  1   
 46  20  48  1   
 47  20  49  1   
 48  21  25  1   
 49  21  50  1   
 50  21  51  1   
 51  22  25  1   
 52  22  52  1   
 53  22  53  1   
 54  23  26  1   
 55  23  54  1   
 56  23  55  1   
 57  24  26  1   
 58  24  56  1   
 59  24  57  1   
 60  25  58  1   
 61  25  59  1   
 62  26  60  1   
 63  26  61  1   
@<TRIPOS>SUBSTRUCTURE
  1 ****  11 GROUP 4 **** **** 0

# MOE 2024.06 (io_trps.svl 2023.06)
