@<TRIPOS>MOLECULE
NONAME
52 55 1 0 0 
SMALL
USER_CHARGES


@<TRIPOS>ATOM
  1 O        0.3360    -1.1680     2.7540 O.2   1 <1>  -0.5700 
  2 C        0.1870    -2.0910     1.9860 C.2   1 <1>   0.5690 
  3 N        0.8370    -2.1430     0.7720 N.am  1 <1>  -0.6600 
  4 C       -0.7550    -3.2200     2.4320 C.3   1 <1>   0.2010 
  5 C        1.7100    -1.0080     0.3340 C.3   1 <1>   0.2200 
  6 C        0.6270    -3.2870    -0.1730 C.3   1 <1>   0.1400 
  7 N       -0.9870    -4.3050     1.4140 N.am  1 <1>  -0.6600 
  8 C        1.1470    -0.3000    -0.9080 C.3   1 <1>  -0.1600 
  9 C        3.1240    -1.4720    -0.0370 C.3   1 <1>  -0.1600 
 10 C        0.1960    -4.5700     0.5500 C.3   1 <1>   0.1400 
 11 C       -2.1670    -5.0110     1.4030 C.2   1 <1>   0.5690 
 12 C        2.2940    -0.2130    -1.9180 C.3   1 <1>  -0.1600 
 13 C        3.2300    -1.3610    -1.5580 C.3   1 <1>  -0.1600 
 14 O       -2.9950    -4.8220     2.2660 O.2   1 <1>  -0.5700 
 15 C       -2.4620    -6.0470     0.3010 C.3   1 <1>   0.2610 
 16 O       -1.6740    -7.2140     0.4900 O.3   1 <1>  -0.5600 
 17 C       -3.9760    -6.3830     0.2110 C.3   1 <1>   0.3640 
 18 C       -1.7970    -8.1910    -0.5220 C.3   1 <1>   0.1810 
 19 N       -4.2220    -7.6430    -0.5310 N.am  1 <1>  -0.7300 
 20 C       -4.7310    -5.2520    -0.4860 C.ar  1 <1>  -0.1440 
 21 C       -3.2510    -8.5140    -0.8770 C.2   1 <1>   0.5690 
 22 C       -4.7190    -5.1190    -1.8700 C.ar  1 <1>  -0.1500 
 23 C       -5.4360    -4.3270     0.2700 C.ar  1 <1>  -0.1500 
 24 O       -3.5140    -9.5200    -1.4860 O.2   1 <1>  -0.5700 
 25 C       -5.4000    -4.0810    -2.4830 C.ar  1 <1>  -0.1500 
 26 C       -6.1160    -3.2890    -0.3410 C.ar  1 <1>  -0.1500 
 27 C       -6.0990    -3.1650    -1.7180 C.ar  1 <1>  -0.1500 
 28 H       -1.6940    -2.7710     2.6990 H     1 <1>   0.0800 
 29 H       -0.3430    -3.6640     3.3190 H     1 <1>   0.0800 
 30 H        1.7980    -0.2860     1.1290 H     1 <1>   0.0800 
 31 H       -0.1290    -3.0190    -0.8900 H     1 <1>   0.0800 
 32 H        1.5330    -3.4950    -0.7090 H     1 <1>   0.0800 
 33 H        0.3290    -0.8490    -1.3350 H     1 <1>   0.0800 
 34 H        0.7970     0.6840    -0.6510 H     1 <1>   0.0800 
 35 H        3.8250    -0.7840     0.4020 H     1 <1>   0.0800 
 36 H        3.3510    -2.4580     0.3260 H     1 <1>   0.0800 
 37 H        1.0080    -4.9190     1.1650 H     1 <1>   0.0800 
 38 H       -0.0110    -5.3350    -0.1760 H     1 <1>   0.0800 
 39 H        1.9440    -0.2780    -2.9340 H     1 <1>   0.0800 
 40 H        2.8130     0.7220    -1.7860 H     1 <1>   0.0800 
 41 H        4.2410    -1.1700    -1.8780 H     1 <1>   0.0800 
 42 H        2.8830    -2.2660    -2.0220 H     1 <1>   0.0800 
 43 H       -2.1680    -5.6120    -0.6360 H     1 <1>   0.0800 
 44 H       -4.3690    -6.5130     1.2050 H     1 <1>   0.0800 
 45 H       -1.2870    -7.8380    -1.3990 H     1 <1>   0.0800 
 46 H       -1.3110    -9.0840    -0.1740 H     1 <1>   0.0800 
 47 H       -5.1910    -7.8570    -0.7760 H     1 <1>   0.3700 
 48 H       -4.1830    -5.8230    -2.4830 H     1 <1>   0.1500 
 49 H       -5.4570    -4.4050     1.3450 H     1 <1>   0.1500 
 50 H       -5.3880    -3.9870    -3.5550 H     1 <1>   0.1500 
 51 H       -6.6580    -2.5770     0.2570 H     1 <1>   0.1500 
 52 H       -6.6280    -2.3570    -2.1930 H     1 <1>   0.1500 
@<TRIPOS>BOND
  1   1   2  2   
  2   2   3  am  
  3   2   4  1   
  4   3   5  1   
  5   3   6  1   
  6   4   7  1   
  7   4  28  1   
  8   4  29  1   
  9   5   8  1   
 10   5   9  1   
 11   5  30  1   
 12   6  10  1   
 13   6  31  1   
 14   6  32  1   
 15   7  10  1   
 16   7  11  am  
 17   8  12  1   
 18   8  33  1   
 19   8  34  1   
 20   9  13  1   
 21   9  35  1   
 22   9  36  1   
 23  10  37  1   
 24  10  38  1   
 25  11  14  2   
 26  11  15  1   
 27  12  13  1   
 28  12  39  1   
 29  12  40  1   
 30  13  41  1   
 31  13  42  1   
 32  15  16  1   
 33  15  17  1   
 34  15  43  1   
 35  16  18  1   
 36  17  19  1   
 37  17  20  1   
 38  17  44  1   
 39  18  21  1   
 40  18  45  1   
 41  18  46  1   
 42  19  21  am  
 43  19  47  1   
 44  20  22  ar  
 45  20  23  ar  
 46  21  24  2   
 47  22  25  ar  
 48  22  48  1   
 49  23  26  ar  
 50  23  49  1   
 51  25  27  ar  
 52  25  50  1   
 53  26  27  ar  
 54  26  51  1   
 55  27  52  1   
@<TRIPOS>SUBSTRUCTURE
  1 ****   7 GROUP 4 **** **** 0

# MOE 2024.06 (io_trps.svl 2023.06)
