@<TRIPOS>MOLECULE
NONAME
51 53 1 0 0 
SMALL
USER_CHARGES


@<TRIPOS>ATOM
  1 O        0.4190     1.3290    -0.1900 O.2   1 <1>  -0.5700 
  2 C        0.1870     2.5080    -0.1050 C.2   1 <1>   0.5690 
  3 N       -0.8810     2.9560     0.5880 N.am  1 <1>  -0.7300 
  4 C        1.0800     3.5240    -0.8150 C.3   1 <1>   0.1810 
  5 C       -1.2980     4.3800     0.6390 C.3   1 <1>   0.3640 
  6 O        0.9800     4.8080    -0.2430 O.3   1 <1>  -0.5600 
  7 C       -2.7320     4.4650     0.1140 C.ar  1 <1>  -0.1440 
  8 C       -0.3480     5.3230    -0.1530 C.3   1 <1>   0.2610 
  9 C       -3.6720     5.2280     0.7940 C.ar  1 <1>  -0.1500 
 10 C       -3.1210     3.7950    -1.0400 C.ar  1 <1>  -0.1500 
 11 C       -0.3290     6.7090     0.5050 C.2   1 <1>   0.5690 
 12 C       -4.9740     5.3160     0.3340 C.ar  1 <1>  -0.1500 
 13 C       -4.4230     3.8820    -1.5000 C.ar  1 <1>  -0.1500 
 14 O       -1.3610     7.3180     0.6570 O.2   1 <1>  -0.5700 
 15 N        0.8610     7.2230     0.9170 N.am  1 <1>  -0.7300 
 16 C       -5.3510     4.6430    -0.8130 C.ar  1 <1>  -0.1500 
 17 C        1.0800     8.5560     1.5090 C.3   1 <1>   0.1400 
 18 C        2.2000     9.2550     0.7450 C.3   1 <1>  -0.1600 
 19 C        2.4310    10.6620     1.2890 C.3   1 <1>   0.1200 
 20 O        3.4900    11.2110     0.5790 O.3   1 <1>  -0.5600 
 21 C        3.7950    12.5330     0.8980 C.3   1 <1>   0.2000 
 22 C        2.9650    13.4700     0.0230 C.3   1 <1>  -0.1600 
 23 C        5.2230    12.7950     0.4390 C.3   1 <1>  -0.1600 
 24 C        3.6800    13.5050    -1.3320 C.3   1 <1>  -0.1600 
 25 C        5.1290    13.0790    -1.0640 C.3   1 <1>  -0.1600 
 26 H       -1.5140     2.2730     1.0070 H     1 <1>   0.3700 
 27 H        0.8060     3.5870    -1.8520 H     1 <1>   0.0800 
 28 H        2.1050     3.2100    -0.7420 H     1 <1>   0.0800 
 29 H       -1.2900     4.6840     1.6720 H     1 <1>   0.0800 
 30 H       -0.7170     5.4410    -1.1560 H     1 <1>   0.0800 
 31 H       -3.3950     5.7690     1.6830 H     1 <1>   0.1500 
 32 H       -2.4160     3.1950    -1.5890 H     1 <1>   0.1500 
 33 H       -5.6920     5.9140     0.8690 H     1 <1>   0.1500 
 34 H       -4.7150     3.3570    -2.3930 H     1 <1>   0.1500 
 35 H        1.6950     6.6510     0.7430 H     1 <1>   0.3700 
 36 H       -6.3640     4.7120    -1.1700 H     1 <1>   0.1500 
 37 H        0.1730     9.1350     1.4490 H     1 <1>   0.0800 
 38 H        1.3480     8.4430     2.5460 H     1 <1>   0.0800 
 39 H        1.9320     9.3280    -0.2940 H     1 <1>   0.0800 
 40 H        3.1100     8.6900     0.8420 H     1 <1>   0.0800 
 41 H        2.6980    10.6310     2.3320 H     1 <1>   0.0800 
 42 H        1.5550    11.2710     1.1490 H     1 <1>   0.0800 
 43 H        3.6680    12.6970     1.9550 H     1 <1>   0.0800 
 44 H        1.9400    13.1620    -0.0660 H     1 <1>   0.0800 
 45 H        2.9940    14.4540     0.4550 H     1 <1>   0.0800 
 46 H        5.5900    13.6730     0.9400 H     1 <1>   0.0800 
 47 H        5.8730    11.9680     0.6630 H     1 <1>   0.0800 
 48 H        3.2200    12.7950    -1.9980 H     1 <1>   0.0800 
 49 H        3.6290    14.4850    -1.7740 H     1 <1>   0.0800 
 50 H        5.8300    13.8410    -1.3590 H     1 <1>   0.0800 
 51 H        5.3410    12.1760    -1.6120 H     1 <1>   0.0800 
@<TRIPOS>BOND
  1   1   2  2   
  2   2   3  am  
  3   2   4  1   
  4   3   5  1   
  5   3  26  1   
  6   4   6  1   
  7   4  27  1   
  8   4  28  1   
  9   5   7  1   
 10   5   8  1   
 11   5  29  1   
 12   6   8  1   
 13   7   9  ar  
 14   7  10  ar  
 15   8  11  1   
 16   8  30  1   
 17   9  12  ar  
 18   9  31  1   
 19  10  13  ar  
 20  10  32  1   
 21  11  14  2   
 22  11  15  am  
 23  12  16  ar  
 24  12  33  1   
 25  13  16  ar  
 26  13  34  1   
 27  15  17  1   
 28  15  35  1   
 29  16  36  1   
 30  17  18  1   
 31  17  37  1   
 32  17  38  1   
 33  18  19  1   
 34  18  39  1   
 35  18  40  1   
 36  19  20  1   
 37  19  41  1   
 38  19  42  1   
 39  20  21  1   
 40  21  22  1   
 41  21  23  1   
 42  21  43  1   
 43  22  24  1   
 44  22  44  1   
 45  22  45  1   
 46  23  25  1   
 47  23  46  1   
 48  23  47  1   
 49  24  25  1   
 50  24  48  1   
 51  24  49  1   
 52  25  50  1   
 53  25  51  1   
@<TRIPOS>SUBSTRUCTURE
  1 ****  11 GROUP 4 **** **** 0

# MOE 2024.06 (io_trps.svl 2023.06)
