@<TRIPOS>MOLECULE
NONAME
44 46 1 0 0 
SMALL
USER_CHARGES


@<TRIPOS>ATOM
  1 O       -0.6280     0.3000     0.4960 O.2   1 <1>  -0.5700 
  2 C       -1.6390     0.9070     0.1780 C.2   1 <1>   0.5440 
  3 N       -2.8190     0.1850     0.1600 N.am  1 <1>  -0.6600 
  4 C       -1.5400     2.3380    -0.1280 C.ar  1 <1>   0.3960 
  5 C       -4.1800     0.7250    -0.0540 C.3   1 <1>   0.1400 
  6 C       -2.8710    -1.2710     0.4140 C.3   1 <1>   0.1400 
  7 N       -2.4050     2.9470    -0.9590 N.ar  1 <1>  -0.6200 
  8 C       -0.5020     3.0630     0.4700 C.ar  1 <1>   0.1600 
  9 C       -5.1290    -0.3510     0.4920 C.3   1 <1>  -0.0800 
 10 C       -4.3470    -1.6680     0.3210 C.3   1 <1>  -0.0800 
 11 C       -2.1640     4.2340    -1.1230 C.ar  1 <1>   0.1600 
 12 N       -0.2630     4.3560     0.3120 N.ar  1 <1>  -0.6200 
 13 C       -6.5750    -0.3600    -0.0940 C.3   1 <1>   0.2800 
 14 C       -4.6930    -2.3400    -1.0170 C.3   1 <1>  -0.1600 
 15 C       -1.1250     4.9250    -0.5070 C.ar  1 <1>   0.1670 
 16 O       -6.5810     0.1690    -1.3700 O.3   1 <1>  -0.6800 
 17 C       -7.0860    -1.8080    -0.2210 C.3   1 <1>  -0.1600 
 18 C       -7.5660     0.4770     0.7450 C.3   1 <1>  -0.1600 
 19 C       -6.1870    -2.7060    -1.0980 C.3   1 <1>  -0.1600 
 20 C       -0.9260     6.4070    -0.7540 C.3   1 <1>  -0.0970 
 21 C       -7.2240     1.9710     0.8830 C.3   1 <1>  -0.2400 
 22 H       -4.3100     1.6620     0.4580 H     1 <1>   0.0800 
 23 H       -4.3140     0.8760    -1.1110 H     1 <1>   0.0800 
 24 H       -2.2660    -1.7970    -0.3060 H     1 <1>   0.0800 
 25 H       -2.4910    -1.4660     1.4020 H     1 <1>   0.0800 
 26 H        0.1690     2.5290     1.1220 H     1 <1>   0.1500 
 27 H       -5.2040    -0.1900     1.5530 H     1 <1>   0.0800 
 28 H       -4.5800    -2.3530     1.1170 H     1 <1>   0.0800 
 29 H       -2.8240     4.7710    -1.7810 H     1 <1>   0.1500 
 30 H       -4.4570    -1.6570    -1.8160 H     1 <1>   0.0800 
 31 H       -4.0960    -3.2240    -1.1580 H     1 <1>   0.0800 
 32 H       -7.4750     0.0950    -1.7460 H     1 <1>   0.4000 
 33 H       -7.1230    -2.2320     0.7670 H     1 <1>   0.0800 
 34 H       -8.0920    -1.8220    -0.6020 H     1 <1>   0.0800 
 35 H       -8.5480     0.3900     0.3130 H     1 <1>   0.0800 
 36 H       -7.6240     0.0540     1.7320 H     1 <1>   0.0800 
 37 H       -6.3240    -3.7300    -0.7950 H     1 <1>   0.0800 
 38 H       -6.4980    -2.6300    -2.1250 H     1 <1>   0.0800 
 39 H       -1.6640     6.7920    -1.4320 H     1 <1>   0.0800 
 40 H        0.0510     6.5730    -1.1700 H     1 <1>   0.0800 
 41 H       -0.9980     6.9380     0.1780 H     1 <1>   0.0800 
 42 H       -7.1000     2.4260    -0.0850 H     1 <1>   0.0800 
 43 H       -6.3210     2.1080     1.4490 H     1 <1>   0.0800 
 44 H       -8.0200     2.4820     1.3960 H     1 <1>   0.0800 
@<TRIPOS>BOND
  1   1   2  2   
  2   2   3  am  
  3   2   4  1   
  4   3   5  1   
  5   3   6  1   
  6   4   7  ar  
  7   4   8  ar  
  8   5   9  1   
  9   5  22  1   
 10   5  23  1   
 11   6  10  1   
 12   6  24  1   
 13   6  25  1   
 14   7  11  ar  
 15   8  12  ar  
 16   8  26  1   
 17   9  10  1   
 18   9  13  1   
 19   9  27  1   
 20  10  14  1   
 21  10  28  1   
 22  11  15  ar  
 23  11  29  1   
 24  12  15  ar  
 25  13  16  1   
 26  13  17  1   
 27  13  18  1   
 28  14  19  1   
 29  14  30  1   
 30  14  31  1   
 31  15  20  1   
 32  16  32  1   
 33  17  19  1   
 34  17  33  1   
 35  17  34  1   
 36  18  21  1   
 37  18  35  1   
 38  18  36  1   
 39  19  37  1   
 40  19  38  1   
 41  20  39  1   
 42  20  40  1   
 43  20  41  1   
 44  21  42  1   
 45  21  43  1   
 46  21  44  1   
@<TRIPOS>SUBSTRUCTURE
  1 ****   5 GROUP 4 **** **** 0

# MOE 2024.06 (io_trps.svl 2023.06)
