@<TRIPOS>MOLECULE
NONAME
40 42 1 0 0 
SMALL
USER_CHARGES


@<TRIPOS>ATOM
  1 F       -0.4430     0.2290     1.4340 F     1 <1>  -0.1900 
  2 C       -1.4490     0.9780     1.0630 C.ar  1 <1>   0.1900 
  3 C       -1.3280     2.3510     1.1470 C.ar  1 <1>  -0.1500 
  4 C       -2.5960     0.3660     0.5990 C.ar  1 <1>  -0.1500 
  5 C       -2.3910     3.1510     0.7500 C.ar  1 <1>  -0.1440 
  6 C       -3.6580     1.1610     0.2060 C.ar  1 <1>  -0.1500 
  7 C       -3.5620     2.5530     0.2800 C.ar  1 <1>   0.0830 
  8 C       -2.2730     4.6720     0.8440 C.3   1 <1>   0.2540 
  9 O       -4.5840     3.3730    -0.0880 O.3   1 <1>  -0.3630 
 10 N       -0.9210     5.1370     0.4820 N.3   1 <1>  -0.8100 
 11 C       -5.7950     2.8690    -0.6060 C.3   1 <1>   0.0400 
 12 C       -0.6560     6.4980     1.0030 C.3   1 <1>   0.1100 
 13 C       -0.6340     4.9150    -0.9510 C.3   1 <1>   0.1100 
 14 C        0.7920     7.0310     0.8470 C.3   1 <1>   0.2200 
 15 C        0.8230     5.1690    -1.3890 C.3   1 <1>  -0.0190 
 16 N        1.0420     7.4720    -0.5410 N.am  1 <1>  -0.7300 
 17 C        1.9130     6.0730     1.3280 C.3   1 <1>   0.1200 
 18 C        1.0720     6.6430    -1.5950 C.2   1 <1>   0.5690 
 19 C        1.9380     4.5330    -0.5310 C.3   1 <1>   0.1200 
 20 O        1.8330     4.7590     0.8450 O.3   1 <1>  -0.5600 
 21 O        1.2980     7.0720    -2.6990 O.2   1 <1>  -0.5700 
 22 H       -0.4130     2.7880     1.5120 H     1 <1>   0.1500 
 23 H       -2.6500    -0.7060     0.5500 H     1 <1>   0.1500 
 24 H       -4.5470     0.6800    -0.1520 H     1 <1>   0.1500 
 25 H       -2.4900     4.9510     1.8600 H     1 <1>   0.0800 
 26 H       -2.9930     5.1570     0.2080 H     1 <1>   0.0800 
 27 H       -6.4320     3.7040    -0.8360 H     1 <1>   0.0800 
 28 H       -6.2610     2.2470     0.1370 H     1 <1>   0.0800 
 29 H       -5.5860     2.3120    -1.5020 H     1 <1>   0.0800 
 30 H       -1.3350     7.1960     0.5450 H     1 <1>   0.0800 
 31 H       -0.8680     6.4870     2.0580 H     1 <1>   0.0800 
 32 H       -0.8560     3.8890    -1.1860 H     1 <1>   0.0800 
 33 H       -1.2920     5.5270    -1.5450 H     1 <1>   0.0800 
 34 H        0.8620     7.9130     1.4590 H     1 <1>   0.0800 
 35 H        0.9170     4.7290    -2.3650 H     1 <1>   0.0800 
 36 H        1.2020     8.4640    -0.7210 H     1 <1>   0.3700 
 37 H        1.8580     5.9970     2.3980 H     1 <1>   0.0800 
 38 H        2.8790     6.4700     1.0710 H     1 <1>   0.0800 
 39 H        2.9040     4.8810    -0.8550 H     1 <1>   0.0800 
 40 H        1.9060     3.4660    -0.6610 H     1 <1>   0.0800 
@<TRIPOS>BOND
  1   1   2  1   
  2   2   3  ar  
  3   2   4  ar  
  4   3   5  ar  
  5   3  22  1   
  6   4   6  ar  
  7   4  23  1   
  8   5   7  ar  
  9   5   8  1   
 10   6   7  ar  
 11   6  24  1   
 12   7   9  1   
 13   8  10  1   
 14   8  25  1   
 15   8  26  1   
 16   9  11  1   
 17  10  12  1   
 18  10  13  1   
 19  11  27  1   
 20  11  28  1   
 21  11  29  1   
 22  12  14  1   
 23  12  30  1   
 24  12  31  1   
 25  13  15  1   
 26  13  32  1   
 27  13  33  1   
 28  14  16  1   
 29  14  17  1   
 30  14  34  1   
 31  15  18  1   
 32  15  19  1   
 33  15  35  1   
 34  16  18  am  
 35  16  36  1   
 36  17  20  1   
 37  17  37  1   
 38  17  38  1   
 39  18  21  2   
 40  19  20  1   
 41  19  39  1   
 42  19  40  1   
@<TRIPOS>SUBSTRUCTURE
  1 ****  10 GROUP 4 **** **** 0

# MOE 2024.06 (io_trps.svl 2023.06)
