@<TRIPOS>MOLECULE
NONAME
47 49 1 0 0 
SMALL
USER_CHARGES


@<TRIPOS>ATOM
  1 O        3.5970    -1.0650    -2.1870 O.2   1 <1>  -0.5700 
  2 C        2.8600    -1.1450    -1.2210 C.2   1 <1>   0.5440 
  3 N        2.9150    -0.0960    -0.3360 N.am  1 <1>  -0.6600 
  4 C        2.1130    -2.3610    -0.9340 C.ar  1 <1>   0.0860 
  5 C        3.5580    -0.3730     0.9950 C.3   1 <1>   0.2200 
  6 C        2.9200     1.3060    -0.8640 C.3   1 <1>   0.1400 
  7 C        0.8080    -2.3770    -0.4150 C.ar  1 <1>  -0.1440 
  8 C        2.7420    -3.5850    -1.1600 C.ar  1 <1>  -0.1500 
  9 C        3.1900     0.6570     2.0750 C.3   1 <1>   0.1200 
 10 C        5.0970    -0.4810     0.8320 C.3   1 <1>   0.3430 
 11 C        4.0650     2.1930    -0.3380 C.3   1 <1>  -0.0800 
 12 C        0.2040    -3.5880    -0.0740 C.ar  1 <1>   0.0820 
 13 C        0.0210    -1.0760    -0.2310 C.3   1 <1>  -0.0970 
 14 C        2.1360    -4.7840    -0.8460 C.ar  1 <1>  -0.1500 
 15 O        4.0670     1.7440     2.0370 O.3   1 <1>  -0.5600 
 16 N        5.5930     0.1310    -0.4540 N.4   1 <1>  -0.9590 
 17 C        3.7890     2.7110     1.0820 C.3   1 <1>   0.1200 
 18 C        5.4930     1.6240    -0.4910 C.3   1 <1>   0.3430 
 19 O       -1.0390    -3.5490     0.4750 O.3   1 <1>  -0.3630 
 20 C        0.8730    -4.7880    -0.2940 C.ar  1 <1>  -0.1500 
 21 C        6.9590    -0.3420    -0.8080 C.3   1 <1>   0.2630 
 22 C       -1.7710    -4.7200     0.7680 C.3   1 <1>   0.0400 
 23 H        3.1920    -1.3220     1.3480 H     1 <1>   0.0800 
 24 H        2.9720     1.2790    -1.9400 H     1 <1>   0.0800 
 25 H        1.9760     1.7610    -0.6160 H     1 <1>   0.0800 
 26 H        3.7270    -3.5980    -1.5930 H     1 <1>   0.1500 
 27 H        3.3080     0.2070     3.0450 H     1 <1>   0.0800 
 28 H        2.1710     0.9920     1.9820 H     1 <1>   0.0800 
 29 H        5.3530    -1.5270     0.8420 H     1 <1>   0.0800 
 30 H        5.5850    -0.0220     1.6760 H     1 <1>   0.0800 
 31 H        4.0400     3.0780    -0.9490 H     1 <1>   0.0800 
 32 H        0.2770    -0.3600    -0.9900 H     1 <1>   0.0800 
 33 H        0.2240    -0.6570     0.7370 H     1 <1>   0.0800 
 34 H       -1.0380    -1.2440    -0.3120 H     1 <1>   0.0800 
 35 H        2.6470    -5.7150    -1.0300 H     1 <1>   0.1500 
 36 H        4.9240    -0.2150    -1.1820 H     1 <1>   0.4500 
 37 H        2.7680     3.0370     1.1980 H     1 <1>   0.0800 
 38 H        4.4300     3.5500     1.2950 H     1 <1>   0.0800 
 39 H        6.1190     2.0450     0.2790 H     1 <1>   0.0800 
 40 H        5.8780     1.9600    -1.4400 H     1 <1>   0.0800 
 41 H        0.4270    -5.7330    -0.0470 H     1 <1>   0.1500 
 42 H        7.6730    -0.0120    -0.0710 H     1 <1>   0.0800 
 43 H        7.2490     0.0460    -1.7720 H     1 <1>   0.0800 
 44 H        6.9790    -1.4190    -0.8560 H     1 <1>   0.0800 
 45 H       -2.7310    -4.4260     1.1540 H     1 <1>   0.0800 
 46 H       -1.2390    -5.2890     1.5100 H     1 <1>   0.0800 
 47 H       -1.9010    -5.2870    -0.1370 H     1 <1>   0.0800 
@<TRIPOS>BOND
  1   1   2  2   
  2   2   3  am  
  3   2   4  1   
  4   3   5  1   
  5   3   6  1   
  6   4   7  ar  
  7   4   8  ar  
  8   5   9  1   
  9   5  10  1   
 10   5  23  1   
 11   6  11  1   
 12   6  24  1   
 13   6  25  1   
 14   7  12  ar  
 15   7  13  1   
 16   8  14  ar  
 17   8  26  1   
 18   9  15  1   
 19   9  27  1   
 20   9  28  1   
 21  10  16  1   
 22  10  29  1   
 23  10  30  1   
 24  11  17  1   
 25  11  18  1   
 26  11  31  1   
 27  12  19  1   
 28  12  20  ar  
 29  13  32  1   
 30  13  33  1   
 31  13  34  1   
 32  14  20  ar  
 33  14  35  1   
 34  15  17  1   
 35  16  18  1   
 36  16  21  1   
 37  16  36  1   
 38  17  37  1   
 39  17  38  1   
 40  18  39  1   
 41  18  40  1   
 42  19  22  1   
 43  20  41  1   
 44  21  42  1   
 45  21  43  1   
 46  21  44  1   
 47  22  45  1   
 48  22  46  1   
 49  22  47  1   
@<TRIPOS>SUBSTRUCTURE
  1 ****   3 GROUP 4 **** **** 0

# MOE 2024.06 (io_trps.svl 2023.06)
