@<TRIPOS>MOLECULE
NONAME
46 47 1 0 0 
SMALL
USER_CHARGES


@<TRIPOS>ATOM
  1 S        0.8600    -0.2000    -0.4440 S.o2  1 <1>   1.3330 
  2 O        0.5430    -0.5190    -1.8150 O.2   1 <1>  -0.6500 
  3 O        2.2150     0.1600    -0.0900 O.2   1 <1>  -0.6500 
  4 N        0.3120    -1.4360     0.5760 N.am  1 <1>  -0.8490 
  5 C       -0.1490     1.2040     0.0260 C.3   1 <1>  -0.0550 
  6 C       -0.8270    -2.1830     0.0290 C.3   1 <1>   0.1160 
  7 C        1.3800    -2.3700     0.9520 C.3   1 <1>   0.1160 
  8 C        0.1460     2.4490    -0.8400 C.3   1 <1>  -0.0800 
  9 C       -0.6440     3.7070    -0.4810 C.3   1 <1>   0.2000 
 10 C        1.6190     2.8920    -0.7920 C.3   1 <1>   0.3430 
 11 O       -0.6590     3.8680     0.9030 O.3   1 <1>  -0.6800 
 12 C        0.2140     4.8170    -1.0930 C.3   1 <1>   0.3430 
 13 N        1.6320     4.3800    -0.8930 N.4   1 <1>  -0.9590 
 14 C        2.2040     4.9860     0.3390 C.3   1 <1>   0.5240 
 15 C        2.2900     6.4780     0.1120 C.2   1 <1>  -0.1810 
 16 C        1.4660     7.4330     0.7030 C.2   1 <1>   0.1080 
 17 C        3.1290     7.1820    -0.6830 C.2   1 <1>  -0.3320 
 18 N        1.7440     8.6260     0.2950 N.2   1 <1>  -0.7070 
 19 C        0.3560     7.1920     1.7060 C.3   1 <1>  -0.0590 
 20 N        2.7780     8.4800    -0.5510 N.pl3 1 <1>   0.3000 
 21 C        4.2760     6.7320    -1.5750 C.3   1 <1>  -0.0600 
 22 H       -1.1840     0.9410    -0.0770 H     1 <1>   0.0800 
 23 H        0.0340     1.4210     1.0610 H     1 <1>   0.0800 
 24 H       -1.1850    -2.8960     0.7530 H     1 <1>   0.0800 
 25 H       -0.5370    -2.7110    -0.8660 H     1 <1>   0.0800 
 26 H       -1.6330    -1.5120    -0.2130 H     1 <1>   0.0800 
 27 H        0.9990    -3.1250     1.6180 H     1 <1>   0.0800 
 28 H        2.1710    -1.8440     1.4600 H     1 <1>   0.0800 
 29 H        1.7880    -2.8460     0.0750 H     1 <1>   0.0800 
 30 H       -0.0740     2.2000    -1.8650 H     1 <1>   0.0800 
 31 H       -1.6560     3.7150    -0.8500 H     1 <1>   0.0800 
 32 H        2.1760     2.4400    -1.5970 H     1 <1>   0.0800 
 33 H        2.0600     2.5820     0.1430 H     1 <1>   0.0800 
 34 H       -1.4330     3.4180     1.3060 H     1 <1>   0.4000 
 35 H        0.0060     5.7730    -0.6420 H     1 <1>   0.0800 
 36 H        0.0060     4.8780    -2.1480 H     1 <1>   0.0800 
 37 H        2.2100     4.7180    -1.6720 H     1 <1>   0.4500 
 38 H        1.5820     4.7690     1.1910 H     1 <1>   0.0800 
 39 H        3.1920     4.5970     0.5220 H     1 <1>   0.0800 
 40 H        0.5550     6.3230     2.3050 H     1 <1>   0.0800 
 41 H       -0.5800     7.0680     1.1940 H     1 <1>   0.0800 
 42 H        0.2760     8.0430     2.3590 H     1 <1>   0.0800 
 43 H        3.2200     9.2860    -1.0120 H     1 <1>   0.2700 
 44 H        4.4330     5.6710    -1.4990 H     1 <1>   0.0800 
 45 H        5.1860     7.2270    -1.2810 H     1 <1>   0.0800 
 46 H        4.0700     6.9790    -2.6020 H     1 <1>   0.0800 
@<TRIPOS>BOND
  1   1   2  2   
  2   1   3  2   
  3   1   4  am  
  4   1   5  1   
  5   4   6  1   
  6   4   7  1   
  7   5   8  1   
  8   5  22  1   
  9   5  23  1   
 10   6  24  1   
 11   6  25  1   
 12   6  26  1   
 13   7  27  1   
 14   7  28  1   
 15   7  29  1   
 16   8   9  1   
 17   8  10  1   
 18   8  30  1   
 19   9  11  1   
 20   9  12  1   
 21   9  31  1   
 22  10  13  1   
 23  10  32  1   
 24  10  33  1   
 25  11  34  1   
 26  12  13  1   
 27  12  35  1   
 28  12  36  1   
 29  13  14  1   
 30  13  37  1   
 31  14  15  1   
 32  14  38  1   
 33  14  39  1   
 34  15  16  1   
 35  15  17  2   
 36  16  18  2   
 37  16  19  1   
 38  17  20  1   
 39  17  21  1   
 40  18  20  1   
 41  19  40  1   
 42  19  41  1   
 43  19  42  1   
 44  20  43  1   
 45  21  44  1   
 46  21  45  1   
 47  21  46  1   
@<TRIPOS>SUBSTRUCTURE
  1 ****  10 GROUP 4 **** **** 0

# MOE 2024.06 (io_trps.svl 2023.06)
