@<TRIPOS>MOLECULE
NONAME
50 53 1 0 0 
SMALL
USER_CHARGES


@<TRIPOS>ATOM
  1 O       -0.3270     1.0400    -1.2780 O.2   1 <1>  -0.5700 
  2 C       -0.2630     2.1420    -0.7950 C.2   1 <1>   0.5690 
  3 N       -1.2830     2.6340    -0.0600 N.am  1 <1>  -0.7300 
  4 C        0.9690     3.0170    -1.0400 C.3   1 <1>   0.1810 
  5 C       -1.2680     3.9720     0.5780 C.3   1 <1>   0.3640 
  6 O        1.0850     4.0880    -0.1260 O.3   1 <1>  -0.5600 
  7 C       -2.6080     4.6510     0.3070 C.ar  1 <1>  -0.1440 
  8 C       -0.1000     4.8510     0.0560 C.3   1 <1>   0.2610 
  9 C       -3.1460     4.6940    -0.9720 C.ar  1 <1>  -0.1500 
 10 C       -3.3050     5.2550     1.3410 C.ar  1 <1>  -0.1500 
 11 C        0.1610     6.0620     0.9730 C.2   1 <1>   0.5690 
 12 C       -4.3500     5.3260    -1.2310 C.ar  1 <1>   0.0830 
 13 C       -4.5080     5.8950     1.1020 C.ar  1 <1>  -0.1500 
 14 O       -0.3340     6.0690     2.0800 O.2   1 <1>  -0.5700 
 15 N        0.9210     7.1260     0.5450 N.am  1 <1>  -0.6600 
 16 O       -4.7470     5.2800    -2.5340 O.3   1 <1>  -0.3620 
 17 C       -5.0450     5.9510    -0.1830 C.ar  1 <1>   0.0830 
 18 C        1.1540     8.2980     1.4560 C.3   1 <1>   0.3210 
 19 C        1.6630     7.1800    -0.7620 C.3   1 <1>   0.1400 
 20 C       -6.1130     5.2270    -2.8790 C.3   1 <1>   0.0400 
 21 O       -6.2120     6.6140    -0.4360 O.3   1 <1>  -0.3630 
 22 C        2.6110     8.7210     1.3900 C.2   1 <1>  -0.1810 
 23 C        3.1870     7.2070    -0.5410 C.3   1 <1>   0.0200 
 24 C       -6.8470     7.4120     0.5390 C.3   1 <1>   0.0400 
 25 C        3.5140     8.2440     0.5140 C.2   1 <1>  -0.3320 
 26 C        3.3150     9.6320     2.1680 C.2   1 <1>   0.1390 
 27 N        4.6870     8.8490     0.7850 N.pl3 1 <1>   0.3000 
 28 N        4.5620     9.7170     1.8090 N.2   1 <1>  -0.7070 
 29 H       -2.1140     2.0590     0.0830 H     1 <1>   0.3700 
 30 H        0.9240     3.4230    -2.0340 H     1 <1>   0.0800 
 31 H        1.8540     2.4150    -0.9520 H     1 <1>   0.0800 
 32 H       -1.1510     3.8230     1.6380 H     1 <1>   0.0800 
 33 H       -0.3840     5.2330    -0.9070 H     1 <1>   0.0800 
 34 H       -2.6340     4.2280    -1.7950 H     1 <1>   0.1500 
 35 H       -2.9080     5.2390     2.3430 H     1 <1>   0.1500 
 36 H       -5.0060     6.3490     1.9370 H     1 <1>   0.1500 
 37 H        0.5270     9.1150     1.1470 H     1 <1>   0.0800 
 38 H        0.9120     8.0470     2.4740 H     1 <1>   0.0800 
 39 H        1.4150     6.3490    -1.3940 H     1 <1>   0.0800 
 40 H        1.3720     8.0810    -1.2760 H     1 <1>   0.0800 
 41 H       -6.1920     4.8340    -3.8760 H     1 <1>   0.0800 
 42 H       -6.5170     6.2230    -2.8480 H     1 <1>   0.0800 
 43 H       -6.6270     4.5840    -2.1860 H     1 <1>   0.0800 
 44 H        3.6780     7.4440    -1.4670 H     1 <1>   0.0800 
 45 H        3.5190     6.2370    -0.2140 H     1 <1>   0.0800 
 46 H       -7.6950     7.8880     0.0790 H     1 <1>   0.0800 
 47 H       -6.1550     8.1580     0.8860 H     1 <1>   0.0800 
 48 H       -7.1770     6.7830     1.3460 H     1 <1>   0.0800 
 49 H        2.8920    10.2050     2.9760 H     1 <1>   0.1500 
 50 H        5.5820     8.6980     0.3030 H     1 <1>   0.2700 
@<TRIPOS>BOND
  1   1   2  2   
  2   2   3  am  
  3   2   4  1   
  4   3   5  1   
  5   3  29  1   
  6   4   6  1   
  7   4  30  1   
  8   4  31  1   
  9   5   7  1   
 10   5   8  1   
 11   5  32  1   
 12   6   8  1   
 13   7   9  ar  
 14   7  10  ar  
 15   8  11  1   
 16   8  33  1   
 17   9  12  ar  
 18   9  34  1   
 19  10  13  ar  
 20  10  35  1   
 21  11  14  2   
 22  11  15  am  
 23  12  16  1   
 24  12  17  ar  
 25  13  17  ar  
 26  13  36  1   
 27  15  18  1   
 28  15  19  1   
 29  16  20  1   
 30  17  21  1   
 31  18  22  1   
 32  18  37  1   
 33  18  38  1   
 34  19  23  1   
 35  19  39  1   
 36  19  40  1   
 37  20  41  1   
 38  20  42  1   
 39  20  43  1   
 40  21  24  1   
 41  22  25  2   
 42  22  26  1   
 43  23  25  1   
 44  23  44  1   
 45  23  45  1   
 46  24  46  1   
 47  24  47  1   
 48  24  48  1   
 49  25  27  1   
 50  26  28  2   
 51  26  49  1   
 52  27  28  1   
 53  27  50  1   
@<TRIPOS>SUBSTRUCTURE
  1 ****   8 GROUP 4 **** **** 0

# MOE 2024.06 (io_trps.svl 2023.06)
