@<TRIPOS>MOLECULE
NONAME
37 38 1 0 0 
SMALL
USER_CHARGES


@<TRIPOS>ATOM
  1 S        0.4060    -0.1960    -0.2400 S.o2  1 <1>   1.3330 
  2 O        0.6890    -1.0020     0.9270 O.2   1 <1>  -0.6500 
  3 O        0.1240    -0.8430    -1.5010 O.2   1 <1>  -0.6500 
  4 N       -0.8930     0.8290     0.1390 N.am  1 <1>  -0.8490 
  5 C        1.7560     0.9500    -0.5060 C.3   1 <1>  -0.0550 
  6 C       -0.9110     1.2530     1.5440 C.3   1 <1>   0.1160 
  7 C       -2.1860     0.2420    -0.2220 C.3   1 <1>   0.1160 
  8 C        3.0620     0.2560    -0.9440 C.3   1 <1>  -0.0800 
  9 C        4.1990     1.1980    -1.3140 C.3   1 <1>   0.2200 
 10 C        3.6910    -0.6440     0.1280 C.3   1 <1>   0.1200 
 11 N        4.2620     2.3430    -0.3760 N.am  1 <1>  -0.7300 
 12 C        5.4010     0.2950    -1.0750 C.3   1 <1>   0.1200 
 13 O        5.0730    -0.4450     0.0600 O.3   1 <1>  -0.5600 
 14 C        3.8930     3.6300    -0.6410 C.2   1 <1>   0.7160 
 15 O        3.4280     3.8820    -1.7380 O.2   1 <1>  -0.5700 
 16 C        4.0360     4.6580     0.3740 C.2   1 <1>   0.2030 
 17 N        4.4400     4.4780     1.5980 N.2   1 <1>  -0.4100 
 18 C        3.7570     6.0060     0.2030 C.2   1 <1>  -0.1500 
 19 O        4.4490     5.6170     2.2470 O.3   1 <1>  -0.0190 
 20 C        4.0350     6.5320     1.3980 C.2   1 <1>  -0.0100 
 21 H        1.4680     1.6480    -1.2680 H     1 <1>   0.0800 
 22 H        1.9270     1.5040     0.3960 H     1 <1>   0.0800 
 23 H       -1.7010     1.9670     1.7040 H     1 <1>   0.0800 
 24 H        0.0240     1.7190     1.8040 H     1 <1>   0.0800 
 25 H       -1.0670     0.4060     2.1910 H     1 <1>   0.0800 
 26 H       -2.9850     0.9230     0.0140 H     1 <1>   0.0800 
 27 H       -2.3390    -0.6830     0.3090 H     1 <1>   0.0800 
 28 H       -2.2170     0.0420    -1.2800 H     1 <1>   0.0800 
 29 H        2.8480    -0.3590    -1.8010 H     1 <1>   0.0800 
 30 H        4.1420     1.5400    -2.3340 H     1 <1>   0.0800 
 31 H        3.4790    -1.6850    -0.0480 H     1 <1>   0.0800 
 32 H        3.3720    -0.3750     1.1210 H     1 <1>   0.0800 
 33 H        4.6580     2.1300     0.5460 H     1 <1>   0.3700 
 34 H        6.3100     0.8440    -0.9030 H     1 <1>   0.0800 
 35 H        5.5330    -0.3920    -1.8920 H     1 <1>   0.0800 
 36 H        3.4020     6.4660    -0.7020 H     1 <1>   0.1500 
 37 H        3.9690     7.5500     1.7360 H     1 <1>   0.1500 
@<TRIPOS>BOND
  1   1   2  2   
  2   1   3  2   
  3   1   4  am  
  4   1   5  1   
  5   4   6  1   
  6   4   7  1   
  7   5   8  1   
  8   5  21  1   
  9   5  22  1   
 10   6  23  1   
 11   6  24  1   
 12   6  25  1   
 13   7  26  1   
 14   7  27  1   
 15   7  28  1   
 16   8   9  1   
 17   8  10  1   
 18   8  29  1   
 19   9  11  1   
 20   9  12  1   
 21   9  30  1   
 22  10  13  1   
 23  10  31  1   
 24  10  32  1   
 25  11  14  am  
 26  11  33  1   
 27  12  13  1   
 28  12  34  1   
 29  12  35  1   
 30  14  15  2   
 31  14  16  1   
 32  16  17  2   
 33  16  18  1   
 34  17  19  1   
 35  18  20  2   
 36  18  36  1   
 37  19  20  1   
 38  20  37  1   
@<TRIPOS>SUBSTRUCTURE
  1 ****   5 GROUP 4 **** **** 0

# MOE 2024.06 (io_trps.svl 2023.06)
