@<TRIPOS>MOLECULE
NONAME
43 44 1 0 0 
SMALL
USER_CHARGES


@<TRIPOS>ATOM
  1 S        0.1220    -0.0760    -0.5380 S.o2  1 <1>   1.3330 
  2 O        1.0280     0.0300    -1.6590 O.2   1 <1>  -0.6500 
  3 O       -0.7800    -1.2020    -0.4510 O.2   1 <1>  -0.6500 
  4 N        1.0440    -0.0540     0.8900 N.am  1 <1>  -0.8490 
  5 C       -0.8290     1.4430    -0.4490 C.3   1 <1>  -0.0550 
  6 C        0.3260    -0.5810     2.0550 C.3   1 <1>   0.1160 
  7 C        2.3260    -0.7500     0.7360 C.3   1 <1>   0.1160 
  8 C        0.0110     2.7320    -0.5960 C.3   1 <1>  -0.0800 
  9 C       -0.8180     4.0110    -0.6610 C.3   1 <1>   0.2000 
 10 C        1.0000     2.9920     0.5470 C.3   1 <1>   0.2090 
 11 O       -1.7680     3.9840     0.3510 O.3   1 <1>  -0.6800 
 12 C        0.1990     5.0970    -0.3250 C.3   1 <1>   0.2090 
 13 N        1.1030     4.4740     0.6840 N.pl3 1 <1>  -0.8380 
 14 C        2.3940     4.9810     0.7510 C.ar  1 <1>   0.4100 
 15 N        3.1110     4.8640    -0.3600 N.ar  1 <1>  -0.6200 
 16 C        2.9050     5.5680     1.9300 C.ar  1 <1>   0.1670 
 17 C        4.3340     5.3450    -0.2360 C.ar  1 <1>   0.1670 
 18 N        4.1290     6.0460     2.0500 N.ar  1 <1>  -0.6200 
 19 C        2.0330     5.6740     3.1690 C.3   1 <1>  -0.0970 
 20 C        4.8250     5.9170     0.9320 C.ar  1 <1>   0.1600 
 21 C        5.2070     5.2400    -1.4690 C.3   1 <1>  -0.0970 
 22 H       -1.5540     1.4310    -1.2390 H     1 <1>   0.0800 
 23 H       -1.3700     1.4670     0.4760 H     1 <1>   0.0800 
 24 H        0.9190    -0.4540     2.9450 H     1 <1>   0.0800 
 25 H        0.1120    -1.6290     1.9240 H     1 <1>   0.0800 
 26 H       -0.6040    -0.0540     2.1890 H     1 <1>   0.0800 
 27 H        2.8880    -0.7070     1.6530 H     1 <1>   0.0800 
 28 H        2.9100    -0.2810    -0.0370 H     1 <1>   0.0800 
 29 H        2.1610    -1.7810     0.4680 H     1 <1>   0.0800 
 30 H        0.5850     2.6680    -1.5050 H     1 <1>   0.0800 
 31 H       -1.3130     4.1620    -1.6040 H     1 <1>   0.0800 
 32 H        1.9590     2.5470     0.3340 H     1 <1>   0.0800 
 33 H        0.6280     2.5880     1.4720 H     1 <1>   0.0800 
 34 H       -1.2950     4.1270     1.1980 H     1 <1>   0.4000 
 35 H       -0.2760     5.9810     0.0650 H     1 <1>   0.0800 
 36 H        0.7550     5.3560    -1.2100 H     1 <1>   0.0800 
 37 H        1.0460     6.0020     2.9010 H     1 <1>   0.0800 
 38 H        2.4510     6.3800     3.8630 H     1 <1>   0.0800 
 39 H        1.9690     4.7130     3.6430 H     1 <1>   0.0800 
 40 H        5.8350     6.2840     0.9490 H     1 <1>   0.1500 
 41 H        6.1850     5.6470    -1.2900 H     1 <1>   0.0800 
 42 H        4.7490     5.7770    -2.2800 H     1 <1>   0.0800 
 43 H        5.3060     4.2070    -1.7510 H     1 <1>   0.0800 
@<TRIPOS>BOND
  1   1   2  2   
  2   1   3  2   
  3   1   4  am  
  4   1   5  1   
  5   4   6  1   
  6   4   7  1   
  7   5   8  1   
  8   5  22  1   
  9   5  23  1   
 10   6  24  1   
 11   6  25  1   
 12   6  26  1   
 13   7  27  1   
 14   7  28  1   
 15   7  29  1   
 16   8   9  1   
 17   8  10  1   
 18   8  30  1   
 19   9  11  1   
 20   9  12  1   
 21   9  31  1   
 22  10  13  1   
 23  10  32  1   
 24  10  33  1   
 25  11  34  1   
 26  12  13  1   
 27  12  35  1   
 28  12  36  1   
 29  13  14  1   
 30  14  15  ar  
 31  14  16  ar  
 32  15  17  ar  
 33  16  18  ar  
 34  16  19  1   
 35  17  20  ar  
 36  17  21  1   
 37  18  20  ar  
 38  19  37  1   
 39  19  38  1   
 40  19  39  1   
 41  20  40  1   
 42  21  41  1   
 43  21  42  1   
 44  21  43  1   
@<TRIPOS>SUBSTRUCTURE
  1 ****  10 GROUP 4 **** **** 0

# MOE 2024.06 (io_trps.svl 2023.06)
