@<TRIPOS>MOLECULE
NONAME
51 54 1 0 0 
SMALL
USER_CHARGES


@<TRIPOS>ATOM
  1 S        0.2670    -0.1400    -0.5220 S.3   1 <1>  -0.0800 
  2 C       -0.3010    -1.2190     0.7460 C.2   1 <1>  -0.1400 
  3 C       -0.4030     1.2550     0.3030 C.2   1 <1>  -0.1100 
  4 C       -0.9400    -0.5210     1.7060 C.2   1 <1>  -0.1500 
  5 C        0.0070    -2.6930     0.5950 C.3   1 <1>   0.5230 
  6 C       -1.0010     0.8860     1.4500 C.2   1 <1>  -0.1500 
  7 N       -1.1290    -3.3620    -0.0950 N.4   1 <1>  -0.9590 
  8 C       -1.0230    -4.8550     0.0570 C.3   1 <1>   0.3430 
  9 C       -1.2410    -2.9510    -1.5260 C.3   1 <1>   0.3430 
 10 C       -2.1900    -5.6150    -0.6130 C.3   1 <1>   0.2890 
 11 C       -2.4420    -3.6430    -2.1770 C.3   1 <1>  -0.1600 
 12 N       -1.9160    -7.0600    -0.5900 N.pl3 1 <1>  -0.8690 
 13 C       -2.3620    -5.1760    -2.0700 C.3   1 <1>  -0.1600 
 14 C       -2.1370    -7.8150     0.5120 C.ar  1 <1>   0.7200 
 15 N       -2.4610    -9.0620     0.2380 N.ar  1 <1>  -0.6200 
 16 N       -2.0130    -7.2240     1.6980 N.ar  1 <1>  -0.6200 
 17 C       -2.6870    -9.8470     1.2760 C.ar  1 <1>   0.4100 
 18 C       -2.2390    -8.0170     2.7310 C.ar  1 <1>   0.1600 
 19 N       -3.0360   -11.1640     1.0070 N.pl3 1 <1>  -0.8380 
 20 C       -2.5790    -9.3300     2.5650 C.ar  1 <1>   0.1900 
 21 C       -4.3560   -11.6830     1.4730 C.3   1 <1>   0.2090 
 22 C       -2.5690   -11.8430    -0.2420 C.3   1 <1>   0.2090 
 23 F       -2.7940   -10.0770     3.6280 F     1 <1>  -0.1900 
 24 C       -5.3710   -11.7190     0.3150 C.3   1 <1>   0.1200 
 25 C       -3.6820   -11.8630    -1.3040 C.3   1 <1>   0.1200 
 26 O       -4.8600   -12.4190    -0.7860 O.3   1 <1>  -0.5600 
 27 H       -0.2770     2.2180    -0.1630 H     1 <1>   0.1500 
 28 H       -1.3790    -0.9220     2.6040 H     1 <1>   0.1500 
 29 H        0.1340    -3.1190     1.5780 H     1 <1>   0.0800 
 30 H        0.9250    -2.8270     0.0450 H     1 <1>   0.0800 
 31 H       -1.4870     1.5540     2.1410 H     1 <1>   0.1500 
 32 H       -1.9800    -3.0410     0.3850 H     1 <1>   0.4500 
 33 H       -1.0010    -5.1140     1.1030 H     1 <1>   0.0800 
 34 H       -0.1060    -5.1960    -0.3930 H     1 <1>   0.0800 
 35 H       -0.3410    -3.2180    -2.0560 H     1 <1>   0.0800 
 36 H       -1.3700    -1.8820    -1.5970 H     1 <1>   0.0800 
 37 H       -3.0980    -5.4210    -0.0650 H     1 <1>   0.0800 
 38 H       -2.4800    -3.3650    -3.2170 H     1 <1>   0.0800 
 39 H       -3.3500    -3.2880    -1.7200 H     1 <1>   0.0800 
 40 H       -2.2160    -7.5760    -1.4190 H     1 <1>   0.4000 
 41 H       -3.2590    -5.6120    -2.4740 H     1 <1>   0.0800 
 42 H       -1.5240    -5.5240    -2.6500 H     1 <1>   0.0800 
 43 H       -2.1520    -7.6120     3.7250 H     1 <1>   0.1500 
 44 H       -4.7450   -11.0650     2.2630 H     1 <1>   0.0800 
 45 H       -4.2280   -12.6770     1.8650 H     1 <1>   0.0800 
 46 H       -2.2870   -12.8550    -0.0080 H     1 <1>   0.0800 
 47 H       -1.6990   -11.3460    -0.6360 H     1 <1>   0.0800 
 48 H       -5.6150   -10.7190     0.0020 H     1 <1>   0.0800 
 49 H       -6.2730   -12.2130     0.6280 H     1 <1>   0.0800 
 50 H       -3.3800   -12.4580    -2.1470 H     1 <1>   0.0800 
 51 H       -3.8910   -10.8630    -1.6420 H     1 <1>   0.0800 
@<TRIPOS>BOND
  1   1   2  1   
  2   1   3  1   
  3   2   4  2   
  4   2   5  1   
  5   3   6  2   
  6   3  27  1   
  7   4   6  1   
  8   4  28  1   
  9   5   7  1   
 10   5  29  1   
 11   5  30  1   
 12   6  31  1   
 13   7   8  1   
 14   7   9  1   
 15   7  32  1   
 16   8  10  1   
 17   8  33  1   
 18   8  34  1   
 19   9  11  1   
 20   9  35  1   
 21   9  36  1   
 22  10  12  1   
 23  10  13  1   
 24  10  37  1   
 25  11  13  1   
 26  11  38  1   
 27  11  39  1   
 28  12  14  1   
 29  12  40  1   
 30  13  41  1   
 31  13  42  1   
 32  14  15  ar  
 33  14  16  ar  
 34  15  17  ar  
 35  16  18  ar  
 36  17  19  1   
 37  17  20  ar  
 38  18  20  ar  
 39  18  43  1   
 40  19  21  1   
 41  19  22  1   
 42  20  23  1   
 43  21  24  1   
 44  21  44  1   
 45  21  45  1   
 46  22  25  1   
 47  22  46  1   
 48  22  47  1   
 49  24  26  1   
 50  24  48  1   
 51  24  49  1   
 52  25  26  1   
 53  25  50  1   
 54  25  51  1   
@<TRIPOS>SUBSTRUCTURE
  1 ****  12 GROUP 4 **** **** 0

# MOE 2024.06 (io_trps.svl 2023.06)
