@<TRIPOS>MOLECULE
NONAME
47 49 1 0 0 
SMALL
USER_CHARGES


@<TRIPOS>ATOM
  1 O        0.2460    -0.4170     0.8290 O.2   1 <1>  -0.5700 
  2 C       -0.5610     0.4450     0.5650 C.2   1 <1>   0.5690 
  3 N       -1.8740     0.1290     0.3320 N.am  1 <1>  -0.6600 
  4 C       -0.0890     1.8960     0.5400 C.3   1 <1>   0.1810 
  5 C       -2.9710     1.0820     0.0270 C.3   1 <1>   0.1400 
  6 C       -2.3730    -1.2670     0.2830 C.3   1 <1>   0.1400 
  7 O       -0.4020     2.5220    -0.6970 O.3   1 <1>  -0.3620 
  8 C       -4.2440     0.2750     0.2720 C.3   1 <1>   0.2000 
  9 C       -3.8470    -1.1510    -0.1260 C.3   1 <1>  -0.0800 
 10 C       -0.5810     3.8710    -0.7830 C.ar  1 <1>   0.0820 
 11 O       -4.5230     0.3160     1.6300 O.3   1 <1>  -0.6800 
 12 C       -4.7410    -2.2690     0.4410 C.3   1 <1>  -0.0170 
 13 C        0.0400     4.8330     0.0320 C.ar  1 <1>   0.0820 
 14 C       -1.4570     4.2790    -1.7760 C.ar  1 <1>  -0.1500 
 15 C       -4.3090    -3.6290    -0.0840 C.ar  1 <1>  -0.1440 
 16 O        0.9420     4.4440     0.9800 O.3   1 <1>  -0.3630 
 17 C       -0.2710     6.1780    -0.1590 C.ar  1 <1>  -0.1500 
 18 C       -1.7500     5.6180    -1.9600 C.ar  1 <1>  -0.1500 
 19 C       -4.7120    -4.0900    -1.3210 C.ar  1 <1>  -0.1500 
 20 C       -3.4910    -4.4710     0.6430 C.ar  1 <1>  -0.1500 
 21 C        1.8070     5.3650     1.6080 C.3   1 <1>   0.0400 
 22 C       -1.1600     6.5660    -1.1470 C.ar  1 <1>  -0.1500 
 23 C       -4.2880    -5.3340    -1.7600 C.ar  1 <1>   0.1600 
 24 C       -3.1230    -5.6960     0.1110 C.ar  1 <1>   0.1600 
 25 N       -3.5020    -6.1470    -1.0740 N.ar  1 <1>  -0.6200 
 26 H        0.9760     1.9330     0.6710 H     1 <1>   0.0800 
 27 H       -0.5720     2.4340     1.3340 H     1 <1>   0.0800 
 28 H       -2.9290     1.9640     0.6430 H     1 <1>   0.0800 
 29 H       -2.9070     1.3640    -1.0100 H     1 <1>   0.0800 
 30 H       -1.8090    -1.8490    -0.4270 H     1 <1>   0.0800 
 31 H       -2.2740    -1.7060     1.2610 H     1 <1>   0.0800 
 32 H       -5.0960     0.6520    -0.2670 H     1 <1>   0.0800 
 33 H       -3.8810    -1.2070    -1.2000 H     1 <1>   0.0800 
 34 H       -3.7000     0.1190     2.1220 H     1 <1>   0.4000 
 35 H       -5.7630    -2.0860     0.1590 H     1 <1>   0.0800 
 36 H       -4.7010    -2.2720     1.5170 H     1 <1>   0.0800 
 37 H       -1.9110     3.5380    -2.4090 H     1 <1>   0.1500 
 38 H        0.1670     6.9450     0.4510 H     1 <1>   0.1500 
 39 H       -2.4350     5.9190    -2.7340 H     1 <1>   0.1500 
 40 H       -5.3520    -3.4960    -1.9470 H     1 <1>   0.1500 
 41 H       -3.1350    -4.1880     1.6160 H     1 <1>   0.1500 
 42 H        2.5040     4.8110     2.2110 H     1 <1>   0.0800 
 43 H        1.2280     6.0210     2.2320 H     1 <1>   0.0800 
 44 H        2.3380     5.9180     0.8520 H     1 <1>   0.0800 
 45 H       -1.3900     7.6090    -1.2850 H     1 <1>   0.1500 
 46 H       -4.6120    -5.6770    -2.7270 H     1 <1>   0.1500 
 47 H       -2.4840    -6.3380     0.6920 H     1 <1>   0.1500 
@<TRIPOS>BOND
  1   1   2  2   
  2   2   3  am  
  3   2   4  1   
  4   3   5  1   
  5   3   6  1   
  6   4   7  1   
  7   4  26  1   
  8   4  27  1   
  9   5   8  1   
 10   5  28  1   
 11   5  29  1   
 12   6   9  1   
 13   6  30  1   
 14   6  31  1   
 15   7  10  1   
 16   8   9  1   
 17   8  11  1   
 18   8  32  1   
 19   9  12  1   
 20   9  33  1   
 21  10  13  ar  
 22  10  14  ar  
 23  11  34  1   
 24  12  15  1   
 25  12  35  1   
 26  12  36  1   
 27  13  16  1   
 28  13  17  ar  
 29  14  18  ar  
 30  14  37  1   
 31  15  19  ar  
 32  15  20  ar  
 33  16  21  1   
 34  17  22  ar  
 35  17  38  1   
 36  18  22  ar  
 37  18  39  1   
 38  19  23  ar  
 39  19  40  1   
 40  20  24  ar  
 41  20  41  1   
 42  21  42  1   
 43  21  43  1   
 44  21  44  1   
 45  22  45  1   
 46  23  25  ar  
 47  23  46  1   
 48  24  25  ar  
 49  24  47  1   
@<TRIPOS>SUBSTRUCTURE
  1 ****   3 GROUP 4 **** **** 0

# MOE 2024.06 (io_trps.svl 2023.06)
