@<TRIPOS>MOLECULE
NONAME
48 51 1 0 0 
SMALL
USER_CHARGES


@<TRIPOS>ATOM
  1 O       -0.1750     1.0410     1.2970 O.2   1 <1>  -0.5700 
  2 C        0.0010     2.2280     1.0650 C.2   1 <1>   0.5440 
  3 N       -1.1220     3.0440     1.0080 N.am  1 <1>  -0.6600 
  4 C        1.3740     2.6960     0.8360 C.ar  1 <1>   0.3960 
  5 C       -2.4840     2.5380     1.3570 C.3   1 <1>   0.1400 
  6 C       -1.0840     4.4470     0.4980 C.3   1 <1>   0.1400 
  7 N        1.7610     3.9480     1.2390 N.ar  1 <1>  -0.6200 
  8 C        2.2820     1.8610     0.2240 C.ar  1 <1>  -0.1500 
  9 C       -3.4310     2.5360     0.1250 C.3   1 <1>   0.0000 
 10 C       -2.4500     4.9030    -0.0400 C.3   1 <1>  -0.1600 
 11 C        2.9890     4.3100     1.0240 C.ar  1 <1>   0.1600 
 12 C        3.6100     2.2380    -0.0200 C.ar  1 <1>   0.0000 
 13 C       -4.8850     2.4360     0.6420 C.3   1 <1>   0.2000 
 14 C       -3.1460     3.7620    -0.7940 C.3   1 <1>  -0.1600 
 15 C       -3.2690     1.2170    -0.6490 C.3   1 <1>  -0.1600 
 16 C        3.9790     3.5230     0.4000 C.ar  1 <1>   0.0000 
 17 C        4.5660     1.4170    -0.6470 C.ar  1 <1>  -0.1500 
 18 O       -5.7920     2.7310    -0.3830 O.3   1 <1>  -0.5600 
 19 C       -5.0600     0.9590     1.0120 C.3   1 <1>  -0.1600 
 20 C       -4.1170     0.1740     0.0900 C.3   1 <1>  -0.1600 
 21 C        5.3020     3.9540     0.1800 C.ar  1 <1>  -0.1500 
 22 C        5.8450     1.8580    -0.8510 C.ar  1 <1>  -0.1500 
 23 C       -7.0390     3.1820     0.0400 C.3   1 <1>   0.0400 
 24 C        6.2170     3.1400    -0.4330 C.ar  1 <1>  -0.1500 
 25 H       -2.4250     1.5540     1.7880 H     1 <1>   0.0800 
 26 H       -2.8830     3.1860     2.1170 H     1 <1>   0.0800 
 27 H       -0.7610     5.1060     1.2870 H     1 <1>   0.0800 
 28 H       -0.3650     4.5050    -0.3020 H     1 <1>   0.0800 
 29 H        1.9700     0.8780    -0.0790 H     1 <1>   0.1500 
 30 H       -3.0690     5.2340     0.7760 H     1 <1>   0.0800 
 31 H       -2.3060     5.7430    -0.6960 H     1 <1>   0.0800 
 32 H        3.2850     5.2930     1.3480 H     1 <1>   0.1500 
 33 H       -5.0610     3.1010     1.4710 H     1 <1>   0.0800 
 34 H       -2.4900     3.4550    -1.5900 H     1 <1>   0.0800 
 35 H       -4.0430     4.1300    -1.2580 H     1 <1>   0.0800 
 36 H       -3.6690     1.3380    -1.6420 H     1 <1>   0.0800 
 37 H       -2.2380     0.9170    -0.7270 H     1 <1>   0.0800 
 38 H        4.2720     0.4320    -0.9640 H     1 <1>   0.1500 
 39 H       -4.7530     0.8130     2.0320 H     1 <1>   0.0800 
 40 H       -6.0790     0.6300     0.9120 H     1 <1>   0.0800 
 41 H       -3.4870    -0.4790     0.6700 H     1 <1>   0.0800 
 42 H       -4.6760    -0.4160    -0.6170 H     1 <1>   0.0800 
 43 H        5.5860     4.9400     0.5030 H     1 <1>   0.1500 
 44 H        6.5760     1.2300    -1.3300 H     1 <1>   0.1500 
 45 H       -7.6480     3.3420    -0.8310 H     1 <1>   0.0800 
 46 H       -6.9170     4.1090     0.5720 H     1 <1>   0.0800 
 47 H       -7.4960     2.4400     0.6710 H     1 <1>   0.0800 
 48 H        7.2280     3.4720    -0.6000 H     1 <1>   0.1500 
@<TRIPOS>BOND
  1   1   2  2   
  2   2   3  am  
  3   2   4  1   
  4   3   5  1   
  5   3   6  1   
  6   4   7  ar  
  7   4   8  ar  
  8   5   9  1   
  9   5  25  1   
 10   5  26  1   
 11   6  10  1   
 12   6  27  1   
 13   6  28  1   
 14   7  11  ar  
 15   8  12  ar  
 16   8  29  1   
 17   9  13  1   
 18   9  14  1   
 19   9  15  1   
 20  10  14  1   
 21  10  30  1   
 22  10  31  1   
 23  11  16  ar  
 24  11  32  1   
 25  12  16  ar  
 26  12  17  ar  
 27  13  18  1   
 28  13  19  1   
 29  13  33  1   
 30  14  34  1   
 31  14  35  1   
 32  15  20  1   
 33  15  36  1   
 34  15  37  1   
 35  16  21  ar  
 36  17  22  ar  
 37  17  38  1   
 38  18  23  1   
 39  19  20  1   
 40  19  39  1   
 41  19  40  1   
 42  20  41  1   
 43  20  42  1   
 44  21  24  ar  
 45  21  43  1   
 46  22  24  ar  
 47  22  44  1   
 48  23  45  1   
 49  23  46  1   
 50  23  47  1   
 51  24  48  1   
@<TRIPOS>SUBSTRUCTURE
  1 ****   2 GROUP 4 **** **** 0

# MOE 2024.06 (io_trps.svl 2023.06)
