@<TRIPOS>MOLECULE
NONAME
49 52 1 0 0 
SMALL
USER_CHARGES


@<TRIPOS>ATOM
  1 S       -0.3200     0.2640     1.3130 S.o2  1 <1>   1.4470 
  2 O       -0.7750     1.5090     1.8910 O.2   1 <1>  -0.6500 
  3 O        0.0070    -0.8470     2.1810 O.2   1 <1>  -0.6500 
  4 N       -1.5320    -0.2820     0.2580 N.am  1 <1>  -0.8490 
  5 C        1.0720     0.6160     0.2020 C.ar  1 <1>  -0.0090 
  6 C       -2.8870    -0.2180     0.8420 C.3   1 <1>   0.1960 
  7 C       -1.1920    -1.5560    -0.3960 C.3   1 <1>   0.1960 
  8 C        0.8960     1.4060    -0.9290 C.ar  1 <1>  -0.1500 
  9 C        2.3470     0.1140     0.4550 C.ar  1 <1>  -0.1500 
 10 C       -3.4570    -1.6080     1.1180 C.3   1 <1>  -0.1600 
 11 C       -2.3960    -2.1410    -1.1330 C.3   1 <1>  -0.1600 
 12 C        1.9690     1.6620    -1.7590 C.ar  1 <1>   0.1900 
 13 C        3.4180     0.3790    -0.3860 C.ar  1 <1>  -0.1500 
 14 C       -3.5990    -2.3920    -0.1990 C.3   1 <1>   0.4240 
 15 F        1.7820     2.4010    -2.8180 F     1 <1>  -0.1900 
 16 C        3.2320     1.1630    -1.5110 C.ar  1 <1>  -0.1500 
 17 O       -4.7000    -1.8470    -0.8870 O.3   1 <1>  -0.5600 
 18 C       -3.7740    -3.9060     0.0660 C.ar  1 <1>  -0.1430 
 19 C       -5.9700    -2.3410    -0.5910 C.3   1 <1>   0.1200 
 20 C       -4.9280    -4.5770    -0.3260 C.ar  1 <1>  -0.1430 
 21 C       -2.7720    -4.6310     0.7020 C.ar  1 <1>  -0.1500 
 22 C       -6.0400    -3.8050    -1.0080 C.3   1 <1>  -0.0170 
 23 C       -5.0710    -5.9370    -0.0970 C.ar  1 <1>  -0.1500 
 24 C       -2.9140    -5.9870     0.9340 C.ar  1 <1>  -0.1500 
 25 C       -4.0600    -6.6510     0.5360 C.ar  1 <1>   0.0830 
 26 O       -4.1200    -7.9810     0.7970 O.3   1 <1>  -0.3620 
 27 C       -5.2370    -8.7540     0.4180 C.3   1 <1>   0.0400 
 28 H       -3.5330     0.2910     0.1460 H     1 <1>   0.0800 
 29 H       -2.8910     0.3540     1.7550 H     1 <1>   0.0800 
 30 H       -0.8490    -2.2670     0.3370 H     1 <1>   0.0800 
 31 H       -0.3900    -1.3940    -1.0970 H     1 <1>   0.0800 
 32 H       -0.0710     1.8190    -1.1600 H     1 <1>   0.1500 
 33 H        2.5060    -0.4970     1.3300 H     1 <1>   0.1500 
 34 H       -4.4070    -1.5260     1.6090 H     1 <1>   0.0800 
 35 H       -2.7990    -2.1150     1.7990 H     1 <1>   0.0800 
 36 H       -2.1060    -3.0620    -1.6050 H     1 <1>   0.0800 
 37 H       -2.6680    -1.4540    -1.9150 H     1 <1>   0.0800 
 38 H        4.3930    -0.0230    -0.1640 H     1 <1>   0.1500 
 39 H        4.0440     1.3850    -2.1810 H     1 <1>   0.1500 
 40 H       -6.6870    -1.7580    -1.1410 H     1 <1>   0.0800 
 41 H       -6.1590    -2.2300     0.4620 H     1 <1>   0.0800 
 42 H       -1.8680    -4.1500     1.0270 H     1 <1>   0.1500 
 43 H       -5.9340    -3.8800    -2.0750 H     1 <1>   0.0800 
 44 H       -6.9980    -4.2070    -0.7310 H     1 <1>   0.0800 
 45 H       -5.9710    -6.4250    -0.4160 H     1 <1>   0.1500 
 46 H       -2.1360    -6.5400     1.4270 H     1 <1>   0.1500 
 47 H       -5.0570    -9.7700     0.7190 H     1 <1>   0.0800 
 48 H       -5.3490    -8.7030    -0.6510 H     1 <1>   0.0800 
 49 H       -6.1100    -8.3740     0.9170 H     1 <1>   0.0800 
@<TRIPOS>BOND
  1   1   2  2   
  2   1   3  2   
  3   1   4  am  
  4   1   5  1   
  5   4   6  1   
  6   4   7  1   
  7   5   8  ar  
  8   5   9  ar  
  9   6  10  1   
 10   6  28  1   
 11   6  29  1   
 12   7  11  1   
 13   7  30  1   
 14   7  31  1   
 15   8  12  ar  
 16   8  32  1   
 17   9  13  ar  
 18   9  33  1   
 19  10  14  1   
 20  10  34  1   
 21  10  35  1   
 22  11  14  1   
 23  11  36  1   
 24  11  37  1   
 25  12  15  1   
 26  12  16  ar  
 27  13  16  ar  
 28  13  38  1   
 29  14  17  1   
 30  14  18  1   
 31  16  39  1   
 32  17  19  1   
 33  18  20  ar  
 34  18  21  ar  
 35  19  22  1   
 36  19  40  1   
 37  19  41  1   
 38  20  22  1   
 39  20  23  ar  
 40  21  24  ar  
 41  21  42  1   
 42  22  43  1   
 43  22  44  1   
 44  23  25  ar  
 45  23  45  1   
 46  24  25  ar  
 47  24  46  1   
 48  25  26  1   
 49  26  27  1   
 50  27  47  1   
 51  27  48  1   
 52  27  49  1   
@<TRIPOS>SUBSTRUCTURE
  1 ****   7 GROUP 4 **** **** 0

# MOE 2024.06 (io_trps.svl 2023.06)
