@<TRIPOS>MOLECULE
NONAME
55 58 1 0 0 
SMALL
USER_CHARGES


@<TRIPOS>ATOM
  1 O        4.2220     1.0590    -1.5780 O.2   1 <1>  -0.5700 
  2 C        4.3700     1.9750    -0.8050 C.2   1 <1>   0.5690 
  3 N        3.6940     3.1400    -0.8180 N.am  1 <1>  -0.6600 
  4 C        5.3600     1.9500     0.3260 C.3   1 <1>  -0.0990 
  5 C        4.0970     4.0560     0.2550 C.3   1 <1>   0.1400 
  6 C        2.6730     3.5370    -1.8110 C.3   1 <1>   0.2840 
  7 C        5.0050     3.2010     1.1490 C.3   1 <1>  -0.1600 
  8 C        1.2780     3.5120    -1.1820 C.ar  1 <1>  -0.1440 
  9 C        0.4550     4.6350    -1.0740 C.ar  1 <1>  -0.1430 
 10 C        0.8210     2.2910    -0.7040 C.ar  1 <1>  -0.1500 
 11 C       -0.7960     4.5080    -0.4840 C.ar  1 <1>  -0.1500 
 12 C        0.8610     6.0170    -1.5700 C.3   1 <1>   0.3530 
 13 C       -0.4260     2.1750    -0.1200 C.ar  1 <1>  -0.1500 
 14 C       -1.2370     3.2870    -0.0090 C.ar  1 <1>  -0.1500 
 15 N        1.5290     6.7210    -0.4540 N.pl3 1 <1>  -0.8690 
 16 C        2.8350     7.1230    -0.4540 C.ar  1 <1>   0.4100 
 17 N        3.5070     7.0650    -1.5970 N.ar  1 <1>  -0.6200 
 18 C        3.4150     7.5490     0.7380 C.ar  1 <1>  -0.1500 
 19 C        4.7790     7.4210    -1.5480 C.ar  1 <1>   0.1600 
 20 C        4.7370     7.9210     0.7700 C.ar  1 <1>  -0.1500 
 21 C        5.4600     7.8610    -0.4170 C.ar  1 <1>   0.0860 
 22 C        6.8560     8.2090    -0.4970 C.2   1 <1>   0.5440 
 23 O        7.6370     7.3900    -0.9420 O.2   1 <1>  -0.5700 
 24 N        7.3370     9.4370    -0.0930 N.am  1 <1>  -0.6600 
 25 C        8.8020     9.7190    -0.0110 C.3   1 <1>   0.1400 
 26 C        6.5000    10.6560     0.1190 C.3   1 <1>   0.1400 
 27 C        9.1280    10.5300     1.2540 C.3   1 <1>   0.1200 
 28 C        6.9520    11.4060     1.3840 C.3   1 <1>   0.1200 
 29 O        8.3240    11.6750     1.3340 O.3   1 <1>  -0.5600 
 30 H        6.3520     2.0200    -0.0810 H     1 <1>   0.0800 
 31 H        5.2570     1.0480     0.8990 H     1 <1>   0.0800 
 32 H        3.2350     4.4170     0.7910 H     1 <1>   0.0800 
 33 H        4.6430     4.8810    -0.1680 H     1 <1>   0.0800 
 34 H        2.6950     2.8450    -2.6350 H     1 <1>   0.0800 
 35 H        2.9310     4.5050    -2.1950 H     1 <1>   0.0800 
 36 H        5.8800     3.7470     1.4530 H     1 <1>   0.0800 
 37 H        4.4530     2.9120     2.0270 H     1 <1>   0.0800 
 38 H        1.4480     1.4190    -0.7880 H     1 <1>   0.1500 
 39 H       -1.4400     5.3650    -0.3900 H     1 <1>   0.1500 
 40 H       -0.0150     6.5730    -1.8520 H     1 <1>   0.0800 
 41 H        1.4860     5.9550    -2.4420 H     1 <1>   0.0800 
 42 H       -0.7610     1.2200     0.2450 H     1 <1>   0.1500 
 43 H       -2.2090     3.2010     0.4460 H     1 <1>   0.1500 
 44 H        1.1270     6.4540     0.4450 H     1 <1>   0.4000 
 45 H        2.8140     7.5800     1.6270 H     1 <1>   0.1500 
 46 H        5.3370     7.3610    -2.4680 H     1 <1>   0.1500 
 47 H        5.2110     8.2450     1.6800 H     1 <1>   0.1500 
 48 H        9.1050    10.2750    -0.8800 H     1 <1>   0.0800 
 49 H        9.3630     8.8000     0.0070 H     1 <1>   0.0800 
 50 H        5.4590    10.4050     0.2030 H     1 <1>   0.0800 
 51 H        6.6130    11.3090    -0.7290 H     1 <1>   0.0800 
 52 H       10.1540    10.8500     1.2350 H     1 <1>   0.0800 
 53 H        8.9690     9.9340     2.1360 H     1 <1>   0.0800 
 54 H        6.7450    10.8260     2.2660 H     1 <1>   0.0800 
 55 H        6.4370    12.3480     1.4600 H     1 <1>   0.0800 
@<TRIPOS>BOND
  1   1   2  2   
  2   2   3  am  
  3   2   4  1   
  4   3   5  1   
  5   3   6  1   
  6   4   7  1   
  7   4  30  1   
  8   4  31  1   
  9   5   7  1   
 10   5  32  1   
 11   5  33  1   
 12   6   8  1   
 13   6  34  1   
 14   6  35  1   
 15   7  36  1   
 16   7  37  1   
 17   8   9  ar  
 18   8  10  ar  
 19   9  11  ar  
 20   9  12  1   
 21  10  13  ar  
 22  10  38  1   
 23  11  14  ar  
 24  11  39  1   
 25  12  15  1   
 26  12  40  1   
 27  12  41  1   
 28  13  14  ar  
 29  13  42  1   
 30  14  43  1   
 31  15  16  1   
 32  15  44  1   
 33  16  17  ar  
 34  16  18  ar  
 35  17  19  ar  
 36  18  20  ar  
 37  18  45  1   
 38  19  21  ar  
 39  19  46  1   
 40  20  21  ar  
 41  20  47  1   
 42  21  22  1   
 43  22  23  2   
 44  22  24  am  
 45  24  25  1   
 46  24  26  1   
 47  25  27  1   
 48  25  48  1   
 49  25  49  1   
 50  26  28  1   
 51  26  50  1   
 52  26  51  1   
 53  27  29  1   
 54  27  52  1   
 55  27  53  1   
 56  28  29  1   
 57  28  54  1   
 58  28  55  1   
@<TRIPOS>SUBSTRUCTURE
  1 ****  16 GROUP 4 **** **** 0

# MOE 2024.06 (io_trps.svl 2023.06)
