@<TRIPOS>MOLECULE
NONAME
49 52 1 0 0 
SMALL
USER_CHARGES


@<TRIPOS>ATOM
  1 O        4.1630    -1.6830    -2.3460 O.2   1 <1>  -0.5700 
  2 C        3.3320    -1.6220    -1.4590 C.2   1 <1>   0.7150 
  3 N        3.1910    -0.4320    -0.8010 N.am  1 <1>  -0.6600 
  4 C        2.6010    -2.7880    -1.0500 C.2   1 <1>  -0.2370 
  5 C        3.7420    -0.3770     0.5990 C.3   1 <1>   0.2200 
  6 C        3.1280     0.8330    -1.6020 C.3   1 <1>   0.1400 
  7 N        2.8640    -4.0240    -1.5890 N.pl3 1 <1>   0.0330 
  8 C        1.5910    -2.9390    -0.1420 C.2   1 <1>  -0.1500 
  9 C        3.1020     0.7370     1.4430 C.3   1 <1>   0.1200 
 10 C        5.2890    -0.2670     0.5890 C.3   1 <1>   0.3430 
 11 C        4.0590     1.9660    -1.1240 C.3   1 <1>  -0.0800 
 12 C        2.0370    -4.9500    -1.0150 C.ar  1 <1>  -0.1520 
 13 C        1.2240    -4.2950    -0.0990 C.ar  1 <1>   0.0000 
 14 O        3.7790     1.9450     1.2850 O.3   1 <1>  -0.5600 
 15 N        5.8320     0.1650    -0.7470 N.4   1 <1>  -0.9590 
 16 C        3.5160     2.6680     0.1310 C.3   1 <1>   0.1200 
 17 C        5.5570     1.6120    -1.0010 C.3   1 <1>   0.3430 
 18 C        1.9230    -6.3270    -1.2170 C.ar  1 <1>  -0.1500 
 19 C        0.2770    -5.0230     0.6310 C.ar  1 <1>  -0.1500 
 20 C        7.3360    -0.0600    -0.7570 C.3   1 <1>   0.2370 
 21 C        0.9890    -7.0300    -0.4910 C.ar  1 <1>  -0.1500 
 22 C        0.1610    -6.3810     0.4370 C.ar  1 <1>  -0.1430 
 23 C        8.0930     0.6890     0.3430 C.2   1 <1>   0.9060 
 24 C       -0.8550    -7.2000     1.2120 C.3   1 <1>  -0.0970 
 25 O        8.1820     0.1490     1.4500 O.co2 1 <1>  -0.9000 
 26 O        8.4570     1.8450     0.1090 O.co2 1 <1>  -0.9000 
 27 H        3.4930    -1.3010     1.0910 H     1 <1>   0.0800 
 28 H        3.3620     0.6140    -2.6310 H     1 <1>   0.0800 
 29 H        2.1110     1.1860    -1.5880 H     1 <1>   0.0800 
 30 H        3.5570    -4.2090    -2.3230 H     1 <1>   0.2700 
 31 H        1.1210    -2.1780     0.4550 H     1 <1>   0.1500 
 32 H        3.1890     0.4790     2.4840 H     1 <1>   0.0800 
 33 H        2.0580     0.8650     1.2120 H     1 <1>   0.0800 
 34 H        5.7000    -1.2310     0.8380 H     1 <1>   0.0800 
 35 H        5.6160     0.4160     1.3580 H     1 <1>   0.0800 
 36 H        4.0070     2.7200    -1.8890 H     1 <1>   0.0800 
 37 H        5.3700    -0.4090    -1.4770 H     1 <1>   0.4500 
 38 H        2.4550     2.8420     0.0640 H     1 <1>   0.0800 
 39 H        4.0040     3.6210     0.2500 H     1 <1>   0.0800 
 40 H        6.0000     2.2040    -0.2130 H     1 <1>   0.0800 
 41 H        6.0490     1.8920    -1.9170 H     1 <1>   0.0800 
 42 H        2.5570    -6.8240    -1.9300 H     1 <1>   0.1500 
 43 H       -0.3460    -4.5010     1.3330 H     1 <1>   0.1500 
 44 H        7.5470    -1.1050    -0.6290 H     1 <1>   0.0800 
 45 H        7.7460     0.2560    -1.6980 H     1 <1>   0.0800 
 46 H        0.8860    -8.0910    -0.6330 H     1 <1>   0.1500 
 47 H       -0.3520    -7.9560     1.7870 H     1 <1>   0.0800 
 48 H       -1.5370    -7.6760     0.5300 H     1 <1>   0.0800 
 49 H       -1.4190    -6.5780     1.8820 H     1 <1>   0.0800 
@<TRIPOS>BOND
  1   1   2  2   
  2   2   3  am  
  3   2   4  1   
  4   3   5  1   
  5   3   6  1   
  6   4   7  1   
  7   4   8  2   
  8   5   9  1   
  9   5  10  1   
 10   5  27  1   
 11   6  11  1   
 12   6  28  1   
 13   6  29  1   
 14   7  12  1   
 15   7  30  1   
 16   8  13  1   
 17   8  31  1   
 18   9  14  1   
 19   9  32  1   
 20   9  33  1   
 21  10  15  1   
 22  10  34  1   
 23  10  35  1   
 24  11  16  1   
 25  11  17  1   
 26  11  36  1   
 27  12  13  ar  
 28  12  18  ar  
 29  13  19  ar  
 30  14  16  1   
 31  15  17  1   
 32  15  20  1   
 33  15  37  1   
 34  16  38  1   
 35  16  39  1   
 36  17  40  1   
 37  17  41  1   
 38  18  21  ar  
 39  18  42  1   
 40  19  22  ar  
 41  19  43  1   
 42  20  23  1   
 43  20  44  1   
 44  20  45  1   
 45  21  22  ar  
 46  21  46  1   
 47  22  24  1   
 48  23  25  ar  
 49  23  26  ar  
 50  24  47  1   
 51  24  48  1   
 52  24  49  1   
@<TRIPOS>SUBSTRUCTURE
  1 ****   2 GROUP 4 **** **** 0

# MOE 2024.06 (io_trps.svl 2023.06)
