@<TRIPOS>MOLECULE
NONAME
48 50 1 0 0 
SMALL
USER_CHARGES


@<TRIPOS>ATOM
  1 O        2.0500     4.1360    -1.3830 O.3   1 <1>  -0.0190 
  2 N        3.3460     4.1380    -1.4270 N.2   1 <1>  -0.4100 
  3 C        1.5870     3.0990    -0.7400 C.2   1 <1>  -0.0400 
  4 C        3.7270     3.0550    -0.8500 C.2   1 <1>   0.1080 
  5 C        2.6310     2.3400    -0.3760 C.2   1 <1>  -0.1500 
  6 C        0.0940     2.9510    -0.5100 C.3   1 <1>   0.0200 
  7 C        5.1720     2.6270    -0.7110 C.3   1 <1>  -0.0590 
  8 C       -0.5230     4.1030     0.3180 C.3   1 <1>  -0.0800 
  9 C       -0.7160     5.3920    -0.4920 C.3   1 <1>   0.2000 
 10 C        0.3610     4.5360     1.4920 C.3   1 <1>   0.3430 
 11 O       -1.9210     5.9750    -0.1160 O.3   1 <1>  -0.6800 
 12 C        0.4410     6.3290    -0.1160 C.3   1 <1>   0.3430 
 13 N        1.2020     5.6500     0.9800 N.4   1 <1>  -0.9590 
 14 C        1.7300     6.5730     2.0170 C.3   1 <1>   0.5240 
 15 C        2.5590     7.6300     1.3280 C.2   1 <1>  -0.1810 
 16 C        3.7880     7.5540     0.7690 C.2   1 <1>  -0.3320 
 17 C        2.1560     8.9440     1.1300 C.2   1 <1>   0.1390 
 18 N        4.0600     8.7810     0.2570 N.pl3 1 <1>   0.3140 
 19 C        4.7480     6.3760     0.6800 C.3   1 <1>  -0.0600 
 20 N        3.0400     9.6320     0.4870 N.2   1 <1>  -0.7070 
 21 C        5.2840     9.2300    -0.4530 C.3   1 <1>   0.2340 
 22 C        5.4070     8.5760    -1.8250 C.2   1 <1>  -0.2880 
 23 C        6.4460     7.8510    -2.2520 C.2   1 <1>  -0.3000 
 24 H        2.6630     1.4050     0.1540 H     1 <1>   0.1500 
 25 H       -0.4060     2.8690    -1.4610 H     1 <1>   0.0800 
 26 H       -0.0690     2.0230     0.0110 H     1 <1>   0.0800 
 27 H        5.4260     2.5080     0.3260 H     1 <1>   0.0800 
 28 H        5.8210     3.3650    -1.1480 H     1 <1>   0.0800 
 29 H        5.3250     1.6920    -1.2200 H     1 <1>   0.0800 
 30 H       -1.4720     3.7490     0.6840 H     1 <1>   0.0800 
 31 H       -0.7570     5.2240    -1.5560 H     1 <1>   0.0800 
 32 H        0.9650     3.7200     1.8560 H     1 <1>   0.0800 
 33 H       -0.2670     4.8950     2.2910 H     1 <1>   0.0800 
 34 H       -2.0200     6.0790     0.8490 H     1 <1>   0.4000 
 35 H        0.0530     7.2820     0.2030 H     1 <1>   0.0800 
 36 H        1.0890     6.4830    -0.9650 H     1 <1>   0.0800 
 37 H        2.0300     5.2480     0.5030 H     1 <1>   0.4500 
 38 H        0.9210     7.0370     2.5570 H     1 <1>   0.0800 
 39 H        2.3490     6.0330     2.7150 H     1 <1>   0.0800 
 40 H        1.2210     9.3700     1.4590 H     1 <1>   0.1500 
 41 H        4.3390     5.5040     1.1550 H     1 <1>   0.0800 
 42 H        5.6790     6.6190     1.1620 H     1 <1>   0.0800 
 43 H        4.9490     6.1390    -0.3500 H     1 <1>   0.0800 
 44 H        5.2330    10.2970    -0.5670 H     1 <1>   0.0800 
 45 H        6.1370     8.9940     0.1550 H     1 <1>   0.0800 
 46 H        4.5410     8.7650    -2.4390 H     1 <1>   0.1500 
 47 H        6.4990     7.4030    -3.2300 H     1 <1>   0.1500 
 48 H        7.3290     7.6430    -1.6720 H     1 <1>   0.1500 
@<TRIPOS>BOND
  1   1   2  1   
  2   1   3  1   
  3   2   4  2   
  4   3   5  2   
  5   3   6  1   
  6   4   5  1   
  7   4   7  1   
  8   5  24  1   
  9   6   8  1   
 10   6  25  1   
 11   6  26  1   
 12   7  27  1   
 13   7  28  1   
 14   7  29  1   
 15   8   9  1   
 16   8  10  1   
 17   8  30  1   
 18   9  11  1   
 19   9  12  1   
 20   9  31  1   
 21  10  13  1   
 22  10  32  1   
 23  10  33  1   
 24  11  34  1   
 25  12  13  1   
 26  12  35  1   
 27  12  36  1   
 28  13  14  1   
 29  13  37  1   
 30  14  15  1   
 31  14  38  1   
 32  14  39  1   
 33  15  16  2   
 34  15  17  1   
 35  16  18  1   
 36  16  19  1   
 37  17  20  2   
 38  17  40  1   
 39  18  20  1   
 40  18  21  1   
 41  19  41  1   
 42  19  42  1   
 43  19  43  1   
 44  21  22  1   
 45  21  44  1   
 46  21  45  1   
 47  22  23  2   
 48  22  46  1   
 49  23  47  1   
 50  23  48  1   
@<TRIPOS>SUBSTRUCTURE
  1 ****  13 GROUP 4 **** **** 0

# MOE 2024.06 (io_trps.svl 2023.06)
