@<TRIPOS>MOLECULE
NONAME
48 50 1 0 0 
SMALL
USER_CHARGES


@<TRIPOS>ATOM
  1 S        0.8620     0.3810     0.1220 S.o2  1 <1>   1.0900 
  2 O        0.5910    -1.0280     0.2590 O.2   1 <1>  -0.6500 
  3 O        2.0880     0.9650     0.6230 O.2   1 <1>  -0.6500 
  4 C       -0.5140     1.3050     0.7890 C.3   1 <1>  -0.0550 
  5 C        0.6790     0.8430    -1.5950 C.3   1 <1>  -0.0550 
  6 C       -0.3560     2.8140     0.5470 C.3   1 <1>  -0.1600 
  7 C        0.8140     2.3610    -1.7920 C.3   1 <1>  -0.1600 
  8 C       -0.1570     3.2030    -0.9340 C.3   1 <1>   0.2890 
  9 N        0.2670     4.6140    -0.9950 N.pl3 1 <1>  -0.8690 
 10 C        1.3730     5.2490    -0.5610 C.ar  1 <1>   0.4100 
 11 N        1.3750     6.5380    -0.8020 N.ar  1 <1>  -0.6200 
 12 C        2.4490     4.6190     0.0970 C.ar  1 <1>  -0.1500 
 13 C        2.4200     7.2540    -0.4070 C.ar  1 <1>   0.7710 
 14 C        3.5120     5.3590     0.4860 C.ar  1 <1>   0.2180 
 15 N        3.4670     6.6840     0.2170 N.ar  1 <1>  -0.1790 
 16 N        2.4370     8.5930    -0.6420 N.pl3 1 <1>  -0.8380 
 17 C        4.7270     4.7760     1.1960 C.3   1 <1>  -0.0170 
 18 C        3.4230     9.6040    -0.1190 C.3   1 <1>   0.2090 
 19 C        1.3780     9.2690    -1.4820 C.3   1 <1>   0.2090 
 20 C        6.0100     4.9290     0.3680 C.3   1 <1>  -0.2400 
 21 C        2.7010    10.7930     0.5440 C.3   1 <1>   0.1200 
 22 C        0.7720    10.4790    -0.7500 C.3   1 <1>   0.1200 
 23 O        1.7790    11.3580    -0.3380 O.3   1 <1>  -0.5600 
 24 H       -0.5840     1.1260     1.8460 H     1 <1>   0.0800 
 25 H       -1.4290     0.9640     0.3420 H     1 <1>   0.0800 
 26 H       -0.2780     0.5180    -1.9570 H     1 <1>   0.0800 
 27 H        1.4320     0.3470    -2.1780 H     1 <1>   0.0800 
 28 H        0.4710     3.1470     1.1430 H     1 <1>   0.0800 
 29 H       -1.2320     3.3170     0.9170 H     1 <1>   0.0800 
 30 H        0.6400     2.5910    -2.8290 H     1 <1>   0.0800 
 31 H        1.8330     2.6210    -1.5810 H     1 <1>   0.0800 
 32 H       -1.1250     3.1310    -1.4050 H     1 <1>   0.0800 
 33 H       -0.4160     5.2240    -1.4560 H     1 <1>   0.4000 
 34 H        2.4240     3.5630     0.2820 H     1 <1>   0.1500 
 35 H        4.2380     7.2960     0.4440 H     1 <1>   0.4570 
 36 H        4.5620     3.7270     1.3820 H     1 <1>   0.0800 
 37 H        4.8530     5.2520     2.1540 H     1 <1>   0.0800 
 38 H        4.0150     9.9800    -0.9380 H     1 <1>   0.0800 
 39 H        4.0900     9.1720     0.6030 H     1 <1>   0.0800 
 40 H        0.5780     8.5990    -1.7450 H     1 <1>   0.0800 
 41 H        1.8210     9.6110    -2.4020 H     1 <1>   0.0800 
 42 H        5.8960     4.4530    -0.5920 H     1 <1>   0.0800 
 43 H        6.8300     4.4530     0.8780 H     1 <1>   0.0800 
 44 H        6.2650     5.9620     0.2160 H     1 <1>   0.0800 
 45 H        3.4090    11.5600     0.8080 H     1 <1>   0.0800 
 46 H        2.1810    10.4820     1.4340 H     1 <1>   0.0800 
 47 H        0.2110    10.1620     0.1120 H     1 <1>   0.0800 
 48 H        0.1150    11.0200    -1.4090 H     1 <1>   0.0800 
@<TRIPOS>BOND
  1   1   2  2   
  2   1   3  2   
  3   1   4  1   
  4   1   5  1   
  5   4   6  1   
  6   4  24  1   
  7   4  25  1   
  8   5   7  1   
  9   5  26  1   
 10   5  27  1   
 11   6   8  1   
 12   6  28  1   
 13   6  29  1   
 14   7   8  1   
 15   7  30  1   
 16   7  31  1   
 17   8   9  1   
 18   8  32  1   
 19   9  10  1   
 20   9  33  1   
 21  10  11  ar  
 22  10  12  ar  
 23  11  13  ar  
 24  12  14  ar  
 25  12  34  1   
 26  13  15  ar  
 27  13  16  1   
 28  14  15  ar  
 29  14  17  1   
 30  15  35  1   
 31  16  18  1   
 32  16  19  1   
 33  17  20  1   
 34  17  36  1   
 35  17  37  1   
 36  18  21  1   
 37  18  38  1   
 38  18  39  1   
 39  19  22  1   
 40  19  40  1   
 41  19  41  1   
 42  20  42  1   
 43  20  43  1   
 44  20  44  1   
 45  21  23  1   
 46  21  45  1   
 47  21  46  1   
 48  22  23  1   
 49  22  47  1   
 50  22  48  1   
@<TRIPOS>SUBSTRUCTURE
  1 ****  10 GROUP 4 **** **** 0

# MOE 2024.06 (io_trps.svl 2023.06)
