@<TRIPOS>MOLECULE
NONAME
42 44 1 0 0 
SMALL
USER_CHARGES


@<TRIPOS>ATOM
  1 O       -0.1710    -0.0180    -1.0110 O.2   1 <1>  -0.5700 
  2 C       -1.3610    -0.2270    -0.8670 C.2   1 <1>   0.7800 
  3 O       -1.8920    -1.4510    -0.8860 O.3   1 <1>  -0.2330 
  4 N       -2.3230     0.7180    -0.6460 N.am  1 <1>  -0.4770 
  5 C       -3.2140    -1.3030    -0.6670 C.ar  1 <1>   0.0820 
  6 C       -3.5130     0.0320    -0.5120 C.ar  1 <1>   0.1170 
  7 C       -2.1070     2.1750    -0.5760 C.3   1 <1>   0.1400 
  8 C       -4.1860    -2.2830    -0.5910 C.ar  1 <1>  -0.1500 
  9 C       -4.8180     0.4340    -0.2700 C.ar  1 <1>  -0.1500 
 10 C       -1.6970     2.5680     0.8410 C.3   1 <1>  -0.0990 
 11 C       -5.4920    -1.8820    -0.3510 C.ar  1 <1>  -0.1500 
 12 C       -5.8100    -0.5340    -0.1900 C.ar  1 <1>  -0.1440 
 13 C       -1.3800     4.0420     0.8860 C.2   1 <1>   0.5690 
 14 C       -7.2520    -0.1380     0.0730 C.3   1 <1>  -0.0960 
 15 O       -2.2840     4.8360     0.8080 O.2   1 <1>  -0.5700 
 16 N       -0.0850     4.4340     0.9850 N.am  1 <1>  -0.7300 
 17 C        0.3410     5.8490     1.1010 C.3   1 <1>   0.1400 
 18 C        0.3790     6.5060    -0.2790 C.3   1 <1>   0.0200 
 19 C        0.5430     8.0040    -0.1310 C.2   1 <1>   0.0070 
 20 N        1.6580     8.6400    -0.1900 N.2   1 <1>  -0.3380 
 21 N       -0.4790     8.8380     0.0950 N.pl3 1 <1>   0.0330 
 22 N        1.3840     9.9380     0.0060 N.2   1 <1>  -0.3380 
 23 C        0.1070    10.0320     0.1690 C.2   1 <1>   0.2700 
 24 N       -0.5540    11.2190     0.3900 N.pl3 1 <1>  -0.8840 
 25 H       -3.0090     2.6900    -0.8600 H     1 <1>   0.0800 
 26 H       -1.3290     2.4460    -1.2700 H     1 <1>   0.0800 
 27 H       -3.9270    -3.3190    -0.7160 H     1 <1>   0.1500 
 28 H       -5.0440     1.4770    -0.1480 H     1 <1>   0.1500 
 29 H       -0.8350     2.0030     1.1450 H     1 <1>   0.0800 
 30 H       -2.5030     2.3690     1.5220 H     1 <1>   0.0800 
 31 H       -6.2680    -2.6250    -0.2870 H     1 <1>   0.1500 
 32 H       -7.3560     0.9310     0.1230 H     1 <1>   0.0800 
 33 H       -7.5820    -0.5580     1.0060 H     1 <1>   0.0800 
 34 H       -7.8840    -0.5050    -0.7160 H     1 <1>   0.0800 
 35 H        0.6620     3.7350     1.0080 H     1 <1>   0.3700 
 36 H        1.3120     5.9060     1.5640 H     1 <1>   0.0800 
 37 H       -0.3610     6.3720     1.7290 H     1 <1>   0.0800 
 38 H       -0.5320     6.3040    -0.8130 H     1 <1>   0.0800 
 39 H        1.2060     6.1120    -0.8430 H     1 <1>   0.0800 
 40 H       -1.4690     8.6320     0.2220 H     1 <1>   0.2700 
 41 H        0.1220    11.9770     0.5260 H     1 <1>   0.4000 
 42 H       -1.1940    11.4830    -0.3620 H     1 <1>   0.4000 
@<TRIPOS>BOND
  1   1   2  2   
  2   2   3  1   
  3   2   4  am  
  4   3   5  1   
  5   4   6  1   
  6   4   7  1   
  7   5   6  ar  
  8   5   8  ar  
  9   6   9  ar  
 10   7  10  1   
 11   7  25  1   
 12   7  26  1   
 13   8  11  ar  
 14   8  27  1   
 15   9  12  ar  
 16   9  28  1   
 17  10  13  1   
 18  10  29  1   
 19  10  30  1   
 20  11  12  ar  
 21  11  31  1   
 22  12  14  1   
 23  13  15  2   
 24  13  16  am  
 25  14  32  1   
 26  14  33  1   
 27  14  34  1   
 28  16  17  1   
 29  16  35  1   
 30  17  18  1   
 31  17  36  1   
 32  17  37  1   
 33  18  19  1   
 34  18  38  1   
 35  18  39  1   
 36  19  20  2   
 37  19  21  1   
 38  20  22  1   
 39  21  23  1   
 40  21  40  1   
 41  22  23  2   
 42  23  24  1   
 43  24  41  1   
 44  24  42  1   
@<TRIPOS>SUBSTRUCTURE
  1 ****  10 GROUP 4 **** **** 0

# MOE 2024.06 (io_trps.svl 2023.06)
