@<TRIPOS>MOLECULE
NONAME
54 56 1 0 0 
SMALL
USER_CHARGES


@<TRIPOS>ATOM
  1 O       -0.2320     0.8820     1.8320 O.2   1 <1>  -0.5700 
  2 C       -0.1650     2.0950     1.7230 C.2   1 <1>   0.7150 
  3 N       -1.3420     2.8180     1.6540 N.am  1 <1>  -0.6600 
  4 C        1.1250     2.7510     1.6890 C.2   1 <1>   0.0550 
  5 C       -2.6600     2.2190     1.9970 C.3   1 <1>   0.1400 
  6 C       -1.4470     4.1780     1.0670 C.3   1 <1>   0.1400 
  7 O        2.1210     2.2800     0.9440 O.3   1 <1>  -0.2800 
  8 C        1.5680     3.8680     2.3330 C.2   1 <1>  -0.1500 
  9 C       -3.5320     2.1520     0.7430 C.3   1 <1>  -0.1600 
 10 C       -2.3160     4.1250    -0.1920 C.3   1 <1>  -0.1600 
 11 C        3.1790     3.0550     1.0800 C.2   1 <1>   0.1600 
 12 C        2.8890     4.0610     1.9380 C.2   1 <1>  -0.1500 
 13 C       -3.7190     3.5250     0.0640 C.3   1 <1>   0.2800 
 14 C        4.3800     2.7580     0.3680 C.1   1 <1>  -0.0200 
 15 O       -4.3560     4.3460     1.0200 O.3   1 <1>  -0.5600 
 16 C       -4.5810     3.3720    -1.2440 C.3   1 <1>   0.2000 
 17 C        5.3830     2.5160    -0.2270 C.1   1 <1>  -0.2000 
 18 C       -5.1450     5.3950     0.5570 C.3   1 <1>   0.1200 
 19 O       -4.1800     4.2910    -2.2310 O.3   1 <1>  -0.6800 
 20 C       -6.1030     3.5490    -0.9720 C.3   1 <1>   0.2800 
 21 C        6.6290     2.2010    -0.9750 C.3   1 <1>   0.4800 
 22 C       -6.3710     4.8570    -0.1980 C.3   1 <1>  -0.1600 
 23 O       -6.5450     2.5000    -0.1890 O.3   1 <1>  -0.6800 
 24 C       -6.9580     3.4670    -2.2420 C.3   1 <1>  -0.2400 
 25 O        7.4710     3.2740    -0.8540 O.3   1 <1>  -0.6800 
 26 C        6.3450     2.0130    -2.4610 C.3   1 <1>  -0.2400 
 27 C        7.3420     0.9960    -0.3730 C.3   1 <1>  -0.2400 
 28 H       -2.5360     1.2320     2.4080 H     1 <1>   0.0800 
 29 H       -3.1410     2.8300     2.7430 H     1 <1>   0.0800 
 30 H       -1.8920     4.8400     1.7910 H     1 <1>   0.0800 
 31 H       -0.4780     4.5630     0.8050 H     1 <1>   0.0800 
 32 H        1.0200     4.4880     3.0200 H     1 <1>   0.1500 
 33 H       -4.4850     1.7410     1.0160 H     1 <1>   0.0800 
 34 H       -3.0750     1.4660     0.0520 H     1 <1>   0.0800 
 35 H       -1.8090     3.5300    -0.9320 H     1 <1>   0.0800 
 36 H       -2.4010     5.1190    -0.5880 H     1 <1>   0.0800 
 37 H        3.5400     4.8550     2.2570 H     1 <1>   0.1500 
 38 H       -4.4120     2.3990    -1.6720 H     1 <1>   0.0800 
 39 H       -5.4560     5.9720     1.4110 H     1 <1>   0.0800 
 40 H       -4.5380     6.0210    -0.0730 H     1 <1>   0.0800 
 41 H       -4.3090     5.2000    -1.9070 H     1 <1>   0.4000 
 42 H       -6.6740     5.6260    -0.8850 H     1 <1>   0.0800 
 43 H       -7.1840     4.7240     0.4930 H     1 <1>   0.0800 
 44 H       -7.4920     2.6130     0.0060 H     1 <1>   0.4000 
 45 H       -6.7040     4.2620    -2.9200 H     1 <1>   0.0800 
 46 H       -8.0040     3.5510    -2.0080 H     1 <1>   0.0800 
 47 H       -6.7790     2.5340    -2.7470 H     1 <1>   0.0800 
 48 H        8.2920     3.0890    -1.3390 H     1 <1>   0.4000 
 49 H        5.6680     1.1890    -2.5970 H     1 <1>   0.0800 
 50 H        7.2490     1.8050    -3.0020 H     1 <1>   0.0800 
 51 H        5.8810     2.8970    -2.8610 H     1 <1>   0.0800 
 52 H        6.7020     0.1330    -0.4290 H     1 <1>   0.0800 
 53 H        7.5650     1.1800     0.6630 H     1 <1>   0.0800 
 54 H        8.2500     0.7810    -0.9040 H     1 <1>   0.0800 
@<TRIPOS>BOND
  1   1   2  2   
  2   2   3  am  
  3   2   4  1   
  4   3   5  1   
  5   3   6  1   
  6   4   7  1   
  7   4   8  2   
  8   5   9  1   
  9   5  28  1   
 10   5  29  1   
 11   6  10  1   
 12   6  30  1   
 13   6  31  1   
 14   7  11  1   
 15   8  12  1   
 16   8  32  1   
 17   9  13  1   
 18   9  33  1   
 19   9  34  1   
 20  10  13  1   
 21  10  35  1   
 22  10  36  1   
 23  11  12  2   
 24  11  14  1   
 25  12  37  1   
 26  13  15  1   
 27  13  16  1   
 28  14  17  3   
 29  15  18  1   
 30  16  19  1   
 31  16  20  1   
 32  16  38  1   
 33  17  21  1   
 34  18  22  1   
 35  18  39  1   
 36  18  40  1   
 37  19  41  1   
 38  20  22  1   
 39  20  23  1   
 40  20  24  1   
 41  21  25  1   
 42  21  26  1   
 43  21  27  1   
 44  22  42  1   
 45  22  43  1   
 46  23  44  1   
 47  24  45  1   
 48  24  46  1   
 49  24  47  1   
 50  25  48  1   
 51  26  49  1   
 52  26  50  1   
 53  26  51  1   
 54  27  52  1   
 55  27  53  1   
 56  27  54  1   
@<TRIPOS>SUBSTRUCTURE
  1 ****   3 GROUP 4 **** **** 0

# MOE 2024.06 (io_trps.svl 2023.06)
