@<TRIPOS>MOLECULE
NONAME
59 61 1 0 0 
SMALL
USER_CHARGES


@<TRIPOS>ATOM
  1 O       -0.3970    -0.1370    -0.4470 O.2   1 <1>  -0.5700 
  2 C       -1.2290     0.5560     0.0940 C.2   1 <1>   0.5690 
  3 N       -2.4380     0.0130     0.4730 N.am  1 <1>  -0.6600 
  4 C       -0.8450     2.0510     0.3350 C.3   1 <1>   0.3410 
  5 C       -2.6430    -1.4760     0.4930 C.3   1 <1>   0.1400 
  6 C       -3.7230     0.7540     0.6930 C.3   1 <1>   0.1400 
  7 O       -1.4580     2.5630     1.4870 O.3   1 <1>  -0.6800 
  8 C        0.6710     2.2220     0.5650 C.3   1 <1>  -0.1600 
  9 C       -1.2760     2.9400    -0.8500 C.3   1 <1>  -0.1600 
 10 C       -3.8140    -1.9000    -0.4100 C.3   1 <1>   0.3430 
 11 C       -4.8400     0.2240    -0.2380 C.3   1 <1>   0.2000 
 12 C        1.0970     3.6720     0.8250 C.3   1 <1>   0.3430 
 13 C       -0.4800     4.2440    -0.9860 C.3   1 <1>   0.3430 
 14 O       -4.9600    -1.1640    -0.0750 O.3   1 <1>  -0.5600 
 15 C       -4.1000    -3.3910    -0.2540 C.ar  1 <1>  -0.1440 
 16 C       -6.2350     0.8860    -0.0240 C.3   1 <1>   0.0000 
 17 N        0.0670     4.6380     0.3370 N.4   1 <1>  -0.9590 
 18 C       -4.9730    -3.8640     0.7170 C.ar  1 <1>  -0.1500 
 19 C       -3.4650    -4.3010    -1.0880 C.ar  1 <1>  -0.1500 
 20 C       -6.7930     0.6250     1.3880 C.3   1 <1>  -0.2400 
 21 C       -7.2360     0.3170    -1.0480 C.3   1 <1>  -0.2400 
 22 C       -6.1620     2.4090    -0.2440 C.3   1 <1>  -0.2400 
 23 C        0.5560     6.0480     0.3670 C.3   1 <1>   0.2630 
 24 C       -5.2060    -5.2220     0.8520 C.ar  1 <1>  -0.1500 
 25 C       -3.6970    -5.6590    -0.9540 C.ar  1 <1>  -0.1500 
 26 C       -4.5670    -6.1200     0.0170 C.ar  1 <1>  -0.1500 
 27 H       -1.7560    -1.9940     0.1740 H     1 <1>   0.0800 
 28 H       -2.8540    -1.7910     1.4990 H     1 <1>   0.0800 
 29 H       -4.0230     0.6330     1.7190 H     1 <1>   0.0800 
 30 H       -3.5910     1.8010     0.5070 H     1 <1>   0.0800 
 31 H       -1.5890     1.8260     2.1250 H     1 <1>   0.4000 
 32 H        0.9960     1.5970     1.3770 H     1 <1>   0.0800 
 33 H        1.1950     1.8750    -0.3090 H     1 <1>   0.0800 
 34 H       -1.1380     2.3890    -1.7640 H     1 <1>   0.0800 
 35 H       -2.3250     3.1620    -0.7820 H     1 <1>   0.0800 
 36 H       -3.5750    -1.6910    -1.4390 H     1 <1>   0.0800 
 37 H       -4.5450     0.4020    -1.2570 H     1 <1>   0.0800 
 38 H        2.0420     3.8570     0.3400 H     1 <1>   0.0800 
 39 H        1.2330     3.8130     1.8850 H     1 <1>   0.0800 
 40 H       -1.1230     5.0180    -1.3740 H     1 <1>   0.0800 
 41 H        0.3340     4.1010    -1.6790 H     1 <1>   0.0800 
 42 H       -0.7240     4.5270     1.0000 H     1 <1>   0.4500 
 43 H       -5.4780    -3.1730     1.3700 H     1 <1>   0.1500 
 44 H       -2.7850    -3.9580    -1.8490 H     1 <1>   0.1500 
 45 H       -7.7830     1.0340     1.4830 H     1 <1>   0.0800 
 46 H       -6.1770     1.0740     2.1450 H     1 <1>   0.0800 
 47 H       -6.8500    -0.4330     1.5790 H     1 <1>   0.0800 
 48 H       -8.2000     0.7820    -0.9420 H     1 <1>   0.0800 
 49 H       -7.3610    -0.7430    -0.9060 H     1 <1>   0.0800 
 50 H       -6.8870     0.4820    -2.0520 H     1 <1>   0.0800 
 51 H       -7.1470     2.8400    -0.1940 H     1 <1>   0.0800 
 52 H       -5.7500     2.6320    -1.2120 H     1 <1>   0.0800 
 53 H       -5.5620     2.8860     0.5090 H     1 <1>   0.0800 
 54 H        1.3820     6.1730    -0.3150 H     1 <1>   0.0800 
 55 H        0.8860     6.3070     1.3600 H     1 <1>   0.0800 
 56 H       -0.2340     6.7240     0.0820 H     1 <1>   0.0800 
 57 H       -5.8860    -5.5770     1.6070 H     1 <1>   0.1500 
 58 H       -3.2000    -6.3560    -1.6060 H     1 <1>   0.1500 
 59 H       -4.7480    -7.1760     0.1220 H     1 <1>   0.1500 
@<TRIPOS>BOND
  1   1   2  2   
  2   2   3  am  
  3   2   4  1   
  4   3   5  1   
  5   3   6  1   
  6   4   7  1   
  7   4   8  1   
  8   4   9  1   
  9   5  10  1   
 10   5  27  1   
 11   5  28  1   
 12   6  11  1   
 13   6  29  1   
 14   6  30  1   
 15   7  31  1   
 16   8  12  1   
 17   8  32  1   
 18   8  33  1   
 19   9  13  1   
 20   9  34  1   
 21   9  35  1   
 22  10  14  1   
 23  10  15  1   
 24  10  36  1   
 25  11  14  1   
 26  11  16  1   
 27  11  37  1   
 28  12  17  1   
 29  12  38  1   
 30  12  39  1   
 31  13  17  1   
 32  13  40  1   
 33  13  41  1   
 34  15  18  ar  
 35  15  19  ar  
 36  16  20  1   
 37  16  21  1   
 38  16  22  1   
 39  17  23  1   
 40  17  42  1   
 41  18  24  ar  
 42  18  43  1   
 43  19  25  ar  
 44  19  44  1   
 45  20  45  1   
 46  20  46  1   
 47  20  47  1   
 48  21  48  1   
 49  21  49  1   
 50  21  50  1   
 51  22  51  1   
 52  22  52  1   
 53  22  53  1   
 54  23  54  1   
 55  23  55  1   
 56  23  56  1   
 57  24  26  ar  
 58  24  57  1   
 59  25  26  ar  
 60  25  58  1   
 61  26  59  1   
@<TRIPOS>SUBSTRUCTURE
  1 ****   3 GROUP 4 **** **** 0

# MOE 2024.06 (io_trps.svl 2023.06)
