@<TRIPOS>MOLECULE
NONAME
42 43 1 0 0 
SMALL
USER_CHARGES


@<TRIPOS>ATOM
  1 CL      -1.0470    -1.2490    -2.8550 Cl    1 <1>  -0.1770 
  2 C       -2.2010    -1.7020    -1.6270 C.ar  1 <1>   0.1770 
  3 C       -2.2290    -3.0080    -1.1730 C.ar  1 <1>  -0.1500 
  4 C       -3.0690    -0.7480    -1.1290 C.ar  1 <1>  -0.1500 
  5 C       -3.1450    -3.3720    -0.1970 C.ar  1 <1>  -0.1440 
  6 C       -3.9830    -1.1120    -0.1550 C.ar  1 <1>  -0.1500 
  7 C       -4.0190    -2.4180     0.3070 C.ar  1 <1>  -0.1500 
  8 C       -3.2010    -4.8010     0.3170 C.3   1 <1>  -0.0160 
  9 C       -4.2900    -5.5900    -0.4210 C.3   1 <1>  -0.0990 
 10 C       -4.4610    -6.9830     0.1700 C.2   1 <1>   0.5690 
 11 O       -3.4790    -7.6870     0.1740 O.2   1 <1>  -0.5700 
 12 N       -5.6540    -7.4260     0.6870 N.am  1 <1>  -0.6600 
 13 C       -5.7190    -8.7320     1.4060 C.3   1 <1>   0.3200 
 14 C       -6.9760    -6.7280     0.5350 C.3   1 <1>   0.1400 
 15 C       -6.5770    -9.7110     0.6270 C.2   1 <1>  -0.3320 
 16 C       -7.3500    -5.9150     1.7830 C.3   1 <1>   0.1200 
 17 N       -6.2440   -10.2480    -0.5640 N.pl3 1 <1>   0.0480 
 18 C       -7.7860   -10.2210     0.9530 C.2   1 <1>   0.0770 
 19 O       -6.2740    -5.1410     2.1910 O.3   1 <1>  -0.6800 
 20 C       -7.2890   -11.0440    -0.8830 C.2   1 <1>   0.0360 
 21 C       -5.0140   -10.0380    -1.3500 C.3   1 <1>   0.0160 
 22 N       -8.2350   -11.0540    -0.0010 N.2   1 <1>  -0.5650 
 23 H       -1.5410    -3.7240    -1.5830 H     1 <1>   0.1500 
 24 H       -3.0260     0.2600    -1.4990 H     1 <1>   0.1500 
 25 H       -4.6660    -0.3810     0.2450 H     1 <1>   0.1500 
 26 H       -4.7360    -2.6920     1.0640 H     1 <1>   0.1500 
 27 H       -3.4130    -4.7880     1.3720 H     1 <1>   0.0800 
 28 H       -2.2470    -5.2810     0.1830 H     1 <1>   0.0800 
 29 H       -4.0150    -5.6900    -1.4540 H     1 <1>   0.0800 
 30 H       -5.1960    -5.0220    -0.3770 H     1 <1>   0.0800 
 31 H       -6.1460    -8.5750     2.3810 H     1 <1>   0.0800 
 32 H       -4.7370    -9.1500     1.5480 H     1 <1>   0.0800 
 33 H       -7.7520    -7.4510     0.3500 H     1 <1>   0.0800 
 34 H       -6.9700    -6.0840    -0.3240 H     1 <1>   0.0800 
 35 H       -7.6180    -6.5700     2.5930 H     1 <1>   0.0800 
 36 H       -8.1790    -5.2600     1.5770 H     1 <1>   0.0800 
 37 H       -8.3720   -10.0300     1.8370 H     1 <1>   0.1500 
 38 H       -5.4900    -5.7190     2.2910 H     1 <1>   0.4000 
 39 H       -7.3120   -11.6140    -1.7950 H     1 <1>   0.1500 
 40 H       -4.1570   -10.1380    -0.7090 H     1 <1>   0.0800 
 41 H       -5.0280    -9.0510    -1.7740 H     1 <1>   0.0800 
 42 H       -4.9570   -10.7670    -2.1380 H     1 <1>   0.0800 
@<TRIPOS>BOND
  1   1   2  1   
  2   2   3  ar  
  3   2   4  ar  
  4   3   5  ar  
  5   3  23  1   
  6   4   6  ar  
  7   4  24  1   
  8   5   7  ar  
  9   5   8  1   
 10   6   7  ar  
 11   6  25  1   
 12   7  26  1   
 13   8   9  1   
 14   8  27  1   
 15   8  28  1   
 16   9  10  1   
 17   9  29  1   
 18   9  30  1   
 19  10  11  2   
 20  10  12  am  
 21  12  13  1   
 22  12  14  1   
 23  13  15  1   
 24  13  31  1   
 25  13  32  1   
 26  14  16  1   
 27  14  33  1   
 28  14  34  1   
 29  15  17  1   
 30  15  18  2   
 31  16  19  1   
 32  16  35  1   
 33  16  36  1   
 34  17  20  1   
 35  17  21  1   
 36  18  22  1   
 37  18  37  1   
 38  19  38  1   
 39  20  22  2   
 40  20  39  1   
 41  21  40  1   
 42  21  41  1   
 43  21  42  1   
@<TRIPOS>SUBSTRUCTURE
  1 ****   9 GROUP 4 **** **** 0

# MOE 2024.06 (io_trps.svl 2023.06)
