@<TRIPOS>MOLECULE
NONAME
44 46 1 0 0 
SMALL
USER_CHARGES


@<TRIPOS>ATOM
  1 O        3.8980    -1.0200     0.4860 O.2   1 <1>  -0.5700 
  2 C        2.6890    -1.0580     0.5220 C.2   1 <1>   0.5690 
  3 N        1.8930     0.0310     0.3920 N.am  1 <1>  -0.4930 
  4 C        1.9990    -2.4090     0.7230 C.3   1 <1>   0.1710 
  5 C        2.1950     1.3670     0.1670 C.2   1 <1>   0.3520 
  6 N        0.6280    -2.4930     0.1400 N.3   1 <1>  -0.8100 
  7 N        1.2330     2.2120    -0.0210 N.2   1 <1>  -0.7070 
  8 C        3.4490     1.9700     0.1070 C.2   1 <1>  -0.1500 
  9 C        0.6280    -2.4450    -1.3330 C.3   1 <1>   0.1100 
 10 C       -0.0720    -3.7340     0.5210 C.3   1 <1>   0.1100 
 11 N        1.8510     3.3950    -0.2100 N.pl3 1 <1>   0.3140 
 12 C        3.1900     3.2710    -0.1360 C.2   1 <1>  -0.3020 
 13 C       -0.6870    -3.1030    -1.7360 C.3   1 <1>   0.2000 
 14 C       -0.8260    -4.2370    -0.7240 C.3   1 <1>  -0.0800 
 15 C        1.0880     4.6220    -0.4590 C.3   1 <1>   0.0160 
 16 O       -1.7020    -2.1960    -1.5020 O.3   1 <1>  -0.6800 
 17 C       -0.2260    -5.5440    -1.2770 C.3   1 <1>   0.0200 
 18 C       -0.2800    -6.6660    -0.2570 C.2   1 <1>  -0.0400 
 19 O       -1.4240    -7.0320     0.2570 O.3   1 <1>  -0.0190 
 20 C        0.6790    -7.4320     0.2850 C.2   1 <1>  -0.1500 
 21 N       -1.2810    -7.9980     1.1180 N.2   1 <1>  -0.4100 
 22 C       -0.0240    -8.2610     1.1540 C.2   1 <1>   0.1080 
 23 C        0.5950    -9.3310     2.0250 C.3   1 <1>  -0.0590 
 24 H        0.8920    -0.1600     0.3830 H     1 <1>   0.3700 
 25 H        1.9380    -2.5790     1.7830 H     1 <1>   0.0800 
 26 H        2.6230    -3.1780     0.3020 H     1 <1>   0.0800 
 27 H        4.3930     1.4710     0.2320 H     1 <1>   0.1500 
 28 H        0.6960    -1.4360    -1.7040 H     1 <1>   0.0800 
 29 H        1.4490    -3.0220    -1.7240 H     1 <1>   0.0800 
 30 H        0.6230    -4.4750     0.8800 H     1 <1>   0.0800 
 31 H       -0.7700    -3.5150     1.3120 H     1 <1>   0.0800 
 32 H        3.8700     4.0940    -0.2570 H     1 <1>   0.1500 
 33 H       -0.7280    -3.4110    -2.7660 H     1 <1>   0.0800 
 34 H       -1.8620    -4.4150    -0.4910 H     1 <1>   0.0800 
 35 H        1.7610     5.4250    -0.6930 H     1 <1>   0.0800 
 36 H        0.5200     4.8630     0.4200 H     1 <1>   0.0800 
 37 H        0.4200     4.4540    -1.2830 H     1 <1>   0.0800 
 38 H       -1.5390    -1.8040    -0.6190 H     1 <1>   0.4000 
 39 H        0.7960    -5.3890    -1.5710 H     1 <1>   0.0800 
 40 H       -0.7810    -5.8490    -2.1470 H     1 <1>   0.0800 
 41 H        1.7400    -7.4370     0.1170 H     1 <1>   0.1500 
 42 H        1.3500    -8.8990     2.6550 H     1 <1>   0.0800 
 43 H        1.0370   -10.0920     1.4090 H     1 <1>   0.0800 
 44 H       -0.1600    -9.7810     2.6450 H     1 <1>   0.0800 
@<TRIPOS>BOND
  1   1   2  2   
  2   2   3  am  
  3   2   4  1   
  4   3   5  1   
  5   3  24  1   
  6   4   6  1   
  7   4  25  1   
  8   4  26  1   
  9   5   7  2   
 10   5   8  1   
 11   6   9  1   
 12   6  10  1   
 13   7  11  1   
 14   8  12  2   
 15   8  27  1   
 16   9  13  1   
 17   9  28  1   
 18   9  29  1   
 19  10  14  1   
 20  10  30  1   
 21  10  31  1   
 22  11  12  1   
 23  11  15  1   
 24  12  32  1   
 25  13  14  1   
 26  13  16  1   
 27  13  33  1   
 28  14  17  1   
 29  14  34  1   
 30  15  35  1   
 31  15  36  1   
 32  15  37  1   
 33  16  38  1   
 34  17  18  1   
 35  17  39  1   
 36  17  40  1   
 37  18  19  1   
 38  18  20  2   
 39  19  21  1   
 40  20  22  1   
 41  20  41  1   
 42  21  22  2   
 43  22  23  1   
 44  23  42  1   
 45  23  43  1   
 46  23  44  1   
@<TRIPOS>SUBSTRUCTURE
  1 ****   6 GROUP 4 **** **** 0

# MOE 2024.06 (io_trps.svl 2023.06)
