@<TRIPOS>MOLECULE
NONAME
67 72 1 0 0 
SMALL
USER_CHARGES


@<TRIPOS>ATOM
  1 O       -0.1760    -1.0850    -0.1590 O.2   1 <1>  -0.5700 
  2 C       -0.7000    -0.0290    -0.4250 C.2   1 <1>   0.5690 
  3 N       -1.8710     0.3620     0.1880 N.am  1 <1>  -0.6600 
  4 C       -0.0320     0.8050    -1.5160 C.3   1 <1>  -0.0990 
  5 C       -2.5800     1.6660    -0.0510 C.3   1 <1>   0.1400 
  6 C       -2.6860    -0.6510     0.9280 C.3   1 <1>   0.1400 
  7 C        1.2200     1.6080    -1.0830 C.3   1 <1>   0.0000 
  8 C       -3.1940     2.2640     1.2330 C.3   1 <1>   0.1440 
  9 C       -3.2970    -0.0680     2.2070 C.3   1 <1>  -0.1600 
 10 C        0.9510     2.4410     0.1880 C.3   1 <1>  -0.1600 
 11 C        2.4210     0.6720    -0.8000 C.3   1 <1>  -0.1600 
 12 C        1.6210     2.5720    -2.2260 C.3   1 <1>  -0.1600 
 13 C       -3.9540     3.5170     0.8430 C.ar  1 <1>   0.1660 
 14 C       -4.0890     1.2160     1.9210 C.3   1 <1>  -0.1600 
 15 C       -2.1210     2.8210     2.2070 C.3   1 <1>  -0.1600 
 16 C        2.1950     3.2520     0.5640 C.3   1 <1>   0.2800 
 17 C        3.6740     1.4840    -0.4110 C.3   1 <1>  -0.0800 
 18 C        2.8640     3.3990    -1.8440 C.3   1 <1>  -0.0800 
 19 N       -5.0890     3.5400     0.1890 N.ar  1 <1>  -0.6200 
 20 C       -3.2980     4.6460     1.2320 C.ar  1 <1>  -0.1440 
 21 C       -2.0090     4.3340     1.9490 C.3   1 <1>  -0.0170 
 22 O        1.9150     3.9820     1.6960 O.3   1 <1>  -0.6800 
 23 C        3.3700     2.3090     0.8540 C.3   1 <1>  -0.1600 
 24 C        2.5560     4.2150    -0.5730 C.3   1 <1>  -0.1600 
 25 C        4.0360     2.4400    -1.5630 C.3   1 <1>  -0.1600 
 26 C       -5.5760     4.7570    -0.0650 C.ar  1 <1>   0.7200 
 27 C       -3.8720     5.8530     0.9250 C.ar  1 <1>   0.1600 
 28 N       -5.0100     5.9200     0.2770 N.ar  1 <1>  -0.6200 
 29 N       -6.7750     4.8190    -0.7480 N.pl3 1 <1>  -0.8380 
 30 C       -7.6730     3.6390    -0.8800 C.3   1 <1>   0.1290 
 31 C       -7.2850     6.0880    -1.3360 C.3   1 <1>   0.1290 
 32 H       -0.7510     1.4620    -1.9610 H     1 <1>   0.0800 
 33 H        0.2580     0.1250    -2.2960 H     1 <1>   0.0800 
 34 H       -3.3700     1.4950    -0.7620 H     1 <1>   0.0800 
 35 H       -1.9160     2.3950    -0.4730 H     1 <1>   0.0800 
 36 H       -2.0850    -1.5060     1.1880 H     1 <1>   0.0800 
 37 H       -3.4750    -0.9930     0.2800 H     1 <1>   0.0800 
 38 H       -2.5080     0.1240     2.9130 H     1 <1>   0.0800 
 39 H       -3.9510    -0.8010     2.6460 H     1 <1>   0.0800 
 40 H        0.7020     1.7830     1.0000 H     1 <1>   0.0800 
 41 H        0.1350     3.1140     0.0090 H     1 <1>   0.0800 
 42 H        2.6360     0.0780    -1.6710 H     1 <1>   0.0800 
 43 H        2.1820    -0.0090    -0.0010 H     1 <1>   0.0800 
 44 H        0.8080     3.2420    -2.4450 H     1 <1>   0.0800 
 45 H        1.8290     2.0110    -3.1200 H     1 <1>   0.0800 
 46 H       -4.9170     0.9820     1.2730 H     1 <1>   0.0800 
 47 H       -4.4970     1.6160     2.8330 H     1 <1>   0.0800 
 48 H       -1.1770     2.3200     2.1100 H     1 <1>   0.0800 
 49 H       -2.4580     2.6900     3.2210 H     1 <1>   0.0800 
 50 H        4.4960     0.8140    -0.2210 H     1 <1>   0.0800 
 51 H        3.1220     4.0650    -2.6500 H     1 <1>   0.0800 
 52 H       -1.1720     4.5600     1.3120 H     1 <1>   0.0800 
 53 H       -1.9220     4.8860     2.8690 H     1 <1>   0.0800 
 54 H        1.8630     3.3760     2.4560 H     1 <1>   0.4000 
 55 H        3.1240     1.6430     1.6620 H     1 <1>   0.0800 
 56 H        4.2390     2.8800     1.1300 H     1 <1>   0.0800 
 57 H        3.4180     4.7970    -0.2970 H     1 <1>   0.0800 
 58 H        1.7370     4.8860    -0.7590 H     1 <1>   0.0800 
 59 H        4.2630     1.8730    -2.4490 H     1 <1>   0.0800 
 60 H        4.9150     3.0050    -1.3050 H     1 <1>   0.0800 
 61 H       -3.3920     6.7720     1.2120 H     1 <1>   0.1500 
 62 H       -7.5280     2.9590    -0.0580 H     1 <1>   0.0800 
 63 H       -7.4580     3.1260    -1.8010 H     1 <1>   0.0800 
 64 H       -8.7010     3.9540    -0.8790 H     1 <1>   0.0800 
 65 H       -6.4670     6.7260    -1.6240 H     1 <1>   0.0800 
 66 H       -7.8900     6.6030    -0.6100 H     1 <1>   0.0800 
 67 H       -7.8750     5.8800    -2.2110 H     1 <1>   0.0800 
@<TRIPOS>BOND
  1   1   2  2   
  2   2   3  am  
  3   2   4  1   
  4   3   5  1   
  5   3   6  1   
  6   4   7  1   
  7   4  32  1   
  8   4  33  1   
  9   5   8  1   
 10   5  34  1   
 11   5  35  1   
 12   6   9  1   
 13   6  36  1   
 14   6  37  1   
 15   7  10  1   
 16   7  11  1   
 17   7  12  1   
 18   8  13  1   
 19   8  14  1   
 20   8  15  1   
 21   9  14  1   
 22   9  38  1   
 23   9  39  1   
 24  10  16  1   
 25  10  40  1   
 26  10  41  1   
 27  11  17  1   
 28  11  42  1   
 29  11  43  1   
 30  12  18  1   
 31  12  44  1   
 32  12  45  1   
 33  13  19  ar  
 34  13  20  ar  
 35  14  46  1   
 36  14  47  1   
 37  15  21  1   
 38  15  48  1   
 39  15  49  1   
 40  16  22  1   
 41  16  23  1   
 42  16  24  1   
 43  17  23  1   
 44  17  25  1   
 45  17  50  1   
 46  18  24  1   
 47  18  25  1   
 48  18  51  1   
 49  19  26  ar  
 50  20  21  1   
 51  20  27  ar  
 52  21  52  1   
 53  21  53  1   
 54  22  54  1   
 55  23  55  1   
 56  23  56  1   
 57  24  57  1   
 58  24  58  1   
 59  25  59  1   
 60  25  60  1   
 61  26  28  ar  
 62  26  29  1   
 63  27  28  ar  
 64  27  61  1   
 65  29  30  1   
 66  29  31  1   
 67  30  62  1   
 68  30  63  1   
 69  30  64  1   
 70  31  65  1   
 71  31  66  1   
 72  31  67  1   
@<TRIPOS>SUBSTRUCTURE
  1 ****   5 GROUP 4 **** **** 0

# MOE 2024.06 (io_trps.svl 2023.06)
