@<TRIPOS>MOLECULE
NONAME
46 47 1 0 0 
SMALL
USER_CHARGES


@<TRIPOS>ATOM
  1 S        0.7820     0.1360    -0.2550 S.o2  1 <1>   1.3330 
  2 O        1.7200    -0.0120     0.8350 O.2   1 <1>  -0.6500 
  3 O        1.2610     0.1190    -1.6180 O.2   1 <1>  -0.6500 
  4 N       -0.4010    -1.0690    -0.0900 N.am  1 <1>  -0.8490 
  5 C       -0.1460     1.6500    -0.0300 C.3   1 <1>  -0.0550 
  6 C       -0.0520    -2.2900    -0.8220 C.3   1 <1>   0.1160 
  7 C       -0.7080    -1.3970     1.3070 C.3   1 <1>   0.1160 
  8 C        0.7060     2.9190    -0.2330 C.3   1 <1>  -0.0800 
  9 C       -0.0940     4.2240    -0.2150 C.3   1 <1>   0.2000 
 10 C        1.7970     3.1250     0.8300 C.3   1 <1>   0.1400 
 11 O       -0.9840     4.1960     0.8480 O.3   1 <1>  -0.6800 
 12 C        0.9610     5.2870     0.0790 C.3   1 <1>   0.1400 
 13 N        1.9220     4.5980     0.9780 N.am  1 <1>  -0.6600 
 14 C        2.8080     5.1700     1.8490 C.2   1 <1>   0.5690 
 15 O        3.5030     4.5020     2.5730 O.2   1 <1>  -0.5700 
 16 C        2.9550     6.6800     1.9310 C.3   1 <1>  -0.0990 
 17 C        3.7840     7.2370     0.7620 C.3   1 <1>  -0.1600 
 18 C        3.9700     8.7560     0.8740 C.3   1 <1>   0.0960 
 19 N        4.6320     9.2860    -0.3320 N.pl3 1 <1>   0.3140 
 20 N        3.9670     9.5860    -1.4380 N.2   1 <1>  -0.7070 
 21 C        5.9300     9.5340    -0.5330 C.2   1 <1>   0.0360 
 22 C        4.9070     9.9960    -2.2240 C.2   1 <1>   0.3660 
 23 N        6.1460     9.9850    -1.7150 N.2   1 <1>  -0.5650 
 24 H       -0.9510     1.6640    -0.7380 H     1 <1>   0.0800 
 25 H       -0.5780     1.6600     0.9510 H     1 <1>   0.0800 
 26 H       -0.8290    -3.0270    -0.7120 H     1 <1>   0.0800 
 27 H        0.8770    -2.6950    -0.4540 H     1 <1>   0.0800 
 28 H        0.0580    -2.0720    -1.8710 H     1 <1>   0.0800 
 29 H       -1.5200    -2.1020     1.3510 H     1 <1>   0.0800 
 30 H       -1.0010    -0.5100     1.8410 H     1 <1>   0.0800 
 31 H        0.1550    -1.8240     1.7920 H     1 <1>   0.0800 
 32 H        1.1970     2.8500    -1.1890 H     1 <1>   0.0800 
 33 H       -0.6430     4.4060    -1.1230 H     1 <1>   0.0800 
 34 H        2.7360     2.6930     0.5240 H     1 <1>   0.0800 
 35 H        1.5080     2.7000     1.7770 H     1 <1>   0.0800 
 36 H       -0.4740     4.1960     1.6830 H     1 <1>   0.4000 
 37 H        0.5230     6.1600     0.5300 H     1 <1>   0.0800 
 38 H        1.4650     5.5600    -0.8320 H     1 <1>   0.0800 
 39 H        1.9830     7.1340     1.9560 H     1 <1>   0.0800 
 40 H        3.4450     6.9160     2.8590 H     1 <1>   0.0800 
 41 H        3.2870     7.0110    -0.1660 H     1 <1>   0.0800 
 42 H        4.7480     6.7560     0.7530 H     1 <1>   0.0800 
 43 H        4.5650     9.0010     1.7360 H     1 <1>   0.0800 
 44 H        3.0150     9.2410     0.9650 H     1 <1>   0.0800 
 45 H        6.6830     9.3700     0.2150 H     1 <1>   0.1500 
 46 H        4.7310    10.3320    -3.2340 H     1 <1>   0.1500 
@<TRIPOS>BOND
  1   1   2  2   
  2   1   3  2   
  3   1   4  am  
  4   1   5  1   
  5   4   6  1   
  6   4   7  1   
  7   5   8  1   
  8   5  24  1   
  9   5  25  1   
 10   6  26  1   
 11   6  27  1   
 12   6  28  1   
 13   7  29  1   
 14   7  30  1   
 15   7  31  1   
 16   8   9  1   
 17   8  10  1   
 18   8  32  1   
 19   9  11  1   
 20   9  12  1   
 21   9  33  1   
 22  10  13  1   
 23  10  34  1   
 24  10  35  1   
 25  11  36  1   
 26  12  13  1   
 27  12  37  1   
 28  12  38  1   
 29  13  14  am  
 30  14  15  2   
 31  14  16  1   
 32  16  17  1   
 33  16  39  1   
 34  16  40  1   
 35  17  18  1   
 36  17  41  1   
 37  17  42  1   
 38  18  19  1   
 39  18  43  1   
 40  18  44  1   
 41  19  20  1   
 42  19  21  1   
 43  20  22  2   
 44  21  23  2   
 45  21  45  1   
 46  22  23  1   
 47  22  46  1   
@<TRIPOS>SUBSTRUCTURE
  1 ****  13 GROUP 4 **** **** 0

# MOE 2024.06 (io_trps.svl 2023.06)
