@<TRIPOS>MOLECULE
NONAME
51 53 1 0 0 
SMALL
USER_CHARGES


@<TRIPOS>ATOM
  1 CL       0.6420     0.3640     3.3670 Cl    1 <1>  -0.1770 
  2 C        1.5900    -0.4460     2.1470 C.ar  1 <1>   0.1770 
  3 C        1.7150    -1.8210     2.1970 C.ar  1 <1>  -0.1500 
  4 C        2.1960     0.2960     1.1540 C.ar  1 <1>  -0.1500 
  5 C        2.4520    -2.4950     1.2310 C.ar  1 <1>  -0.1440 
  6 C        2.9370    -0.3630     0.1900 C.ar  1 <1>  -0.1500 
  7 C        3.0690    -1.7440     0.2240 C.ar  1 <1>   0.0830 
  8 C        2.5490    -4.0110     1.3640 C.3   1 <1>   0.4870 
  9 O        3.7460    -2.2980    -0.8030 O.3   1 <1>  -0.3630 
 10 N        2.0690    -4.8100     0.1920 N.4   1 <1>  -0.9590 
 11 C        5.0380    -2.8720    -0.5930 C.3   1 <1>   0.0140 
 12 C        0.6920    -4.6840    -0.3390 C.3   1 <1>   0.4230 
 13 C        2.4150    -6.2400     0.4350 C.3   1 <1>   0.2630 
 14 C        4.9480    -4.3830    -0.5320 C.2   1 <1>   0.9060 
 15 C       -0.3950    -4.5580     0.7250 C.3   1 <1>  -0.1600 
 16 C        0.4730    -3.4890    -1.2550 C.3   1 <1>  -0.1600 
 17 O        4.2950    -4.9830    -1.3960 O.co2 1 <1>  -0.9000 
 18 O        5.3020    -4.9660     0.4970 O.co2 1 <1>  -0.9000 
 19 C       -1.6090    -3.9940    -0.0290 C.3   1 <1>  -0.0800 
 20 C       -1.0510    -3.3270    -1.3090 C.3   1 <1>  -0.0800 
 21 C       -2.4830    -3.0750     0.8480 C.3   1 <1>   0.1400 
 22 C       -1.4960    -1.8630    -1.4950 C.3   1 <1>  -0.0990 
 23 N       -3.4130    -2.3010    -0.0090 N.am  1 <1>  -0.6600 
 24 C       -2.9640    -1.7040    -1.1550 C.2   1 <1>   0.5690 
 25 C       -4.8160    -2.1670     0.4680 C.3   1 <1>   0.0600 
 26 O       -3.6730    -1.0630    -1.8930 O.2   1 <1>  -0.5700 
 27 H        1.2310    -2.3460     3.0010 H     1 <1>   0.1500 
 28 H        2.0870     1.3660     1.1350 H     1 <1>   0.1500 
 29 H        3.4130     0.1890    -0.6020 H     1 <1>   0.1500 
 30 H        1.9890    -4.3110     2.2310 H     1 <1>   0.0800 
 31 H        3.5760    -4.2600     1.5680 H     1 <1>   0.0800 
 32 H        2.7340    -4.5690    -0.5880 H     1 <1>   0.4500 
 33 H        5.6600    -2.5980    -1.4220 H     1 <1>   0.0800 
 34 H        5.4560    -2.4880     0.3180 H     1 <1>   0.0800 
 35 H        0.4750    -5.5590    -0.9300 H     1 <1>   0.0800 
 36 H        1.8130    -6.6520     1.2270 H     1 <1>   0.0800 
 37 H        3.4580    -6.3240     0.7030 H     1 <1>   0.0800 
 38 H        2.2660    -6.8120    -0.4660 H     1 <1>   0.0800 
 39 H       -0.6200    -5.5090     1.1720 H     1 <1>   0.0800 
 40 H       -0.1010    -3.8600     1.4840 H     1 <1>   0.0800 
 41 H        0.9010    -2.6020    -0.8380 H     1 <1>   0.0800 
 42 H        0.8920    -3.6590    -2.2310 H     1 <1>   0.0800 
 43 H       -2.2270    -4.8210    -0.3380 H     1 <1>   0.0800 
 44 H       -1.4230    -3.8890    -2.1510 H     1 <1>   0.0800 
 45 H       -1.8680    -2.3770     1.3910 H     1 <1>   0.0800 
 46 H       -3.0360    -3.6650     1.5580 H     1 <1>   0.0800 
 47 H       -1.3250    -1.5510    -2.5090 H     1 <1>   0.0800 
 48 H       -0.9420    -1.2100    -0.8460 H     1 <1>   0.0800 
 49 H       -5.2740    -3.1380     0.5330 H     1 <1>   0.0800 
 50 H       -5.3900    -1.5620    -0.2140 H     1 <1>   0.0800 
 51 H       -4.8290    -1.6980     1.4360 H     1 <1>   0.0800 
@<TRIPOS>BOND
  1   1   2  1   
  2   2   3  ar  
  3   2   4  ar  
  4   3   5  ar  
  5   3  27  1   
  6   4   6  ar  
  7   4  28  1   
  8   5   7  ar  
  9   5   8  1   
 10   6   7  ar  
 11   6  29  1   
 12   7   9  1   
 13   8  10  1   
 14   8  30  1   
 15   8  31  1   
 16   9  11  1   
 17  10  12  1   
 18  10  13  1   
 19  10  32  1   
 20  11  14  1   
 21  11  33  1   
 22  11  34  1   
 23  12  15  1   
 24  12  16  1   
 25  12  35  1   
 26  13  36  1   
 27  13  37  1   
 28  13  38  1   
 29  14  17  ar  
 30  14  18  ar  
 31  15  19  1   
 32  15  39  1   
 33  15  40  1   
 34  16  20  1   
 35  16  41  1   
 36  16  42  1   
 37  19  20  1   
 38  19  21  1   
 39  19  43  1   
 40  20  22  1   
 41  20  44  1   
 42  21  23  1   
 43  21  45  1   
 44  21  46  1   
 45  22  24  1   
 46  22  47  1   
 47  22  48  1   
 48  23  24  am  
 49  23  25  1   
 50  24  26  2   
 51  25  49  1   
 52  25  50  1   
 53  25  51  1   
@<TRIPOS>SUBSTRUCTURE
  1 ****  16 GROUP 4 **** **** 0

# MOE 2024.06 (io_trps.svl 2023.06)
