@<TRIPOS>MOLECULE
NONAME
65 67 1 0 0 
SMALL
USER_CHARGES


@<TRIPOS>ATOM
  1 O        0.2550     0.2020     0.8830 O.2   1 <1>  -0.5700 
  2 C        0.9890    -0.7410     0.7210 C.2   1 <1>   0.5690 
  3 N        0.5790    -2.0430     0.8120 N.am  1 <1>  -0.6600 
  4 C        2.4490    -0.4910     0.3980 C.3   1 <1>  -0.0990 
  5 C        1.5340    -3.1550     0.5950 C.3   1 <1>   0.1400 
  6 C       -0.8170    -2.4150     1.1690 C.3   1 <1>   0.0600 
  7 C        2.9090    -1.4020    -0.7560 C.3   1 <1>  -0.0800 
  8 C        2.4050    -2.8610    -0.6440 C.3   1 <1>  -0.0800 
  9 C        4.4340    -1.4790    -0.9000 C.3   1 <1>  -0.1600 
 10 C        3.6530    -3.7510    -0.7330 C.3   1 <1>  -0.1600 
 11 C        4.6840    -2.8790    -1.4470 C.3   1 <1>   0.4230 
 12 N        6.0970    -3.3390    -1.3050 N.4   1 <1>  -0.9590 
 13 C        6.6380    -3.4200     0.0830 C.3   1 <1>   0.4860 
 14 C        6.3270    -4.6190    -2.0440 C.3   1 <1>   0.2630 
 15 C        7.5740    -2.2430     0.2810 C.ar  1 <1>  -0.1430 
 16 C        8.6910    -2.0770    -0.5280 C.ar  1 <1>  -0.1500 
 17 C        7.3180    -1.3160     1.2810 C.ar  1 <1>  -0.1500 
 18 C        9.5180    -0.9820    -0.3550 C.ar  1 <1>  -0.1500 
 19 C        8.1470    -0.2230     1.4560 C.ar  1 <1>  -0.1500 
 20 C        9.2500    -0.0440     0.6270 C.ar  1 <1>   0.0820 
 21 O       10.1010     1.0110     0.7080 O.3   1 <1>  -0.3620 
 22 C        9.8880     2.0830     1.6230 C.3   1 <1>   0.1810 
 23 C        8.6310     2.8800     1.2880 C.2   1 <1>   0.5690 
 24 O        7.9630     3.2970     2.2040 O.2   1 <1>  -0.5700 
 25 N        8.3010     3.0580    -0.0210 N.am  1 <1>  -0.7300 
 26 C        7.1040     3.6710    -0.6000 C.3   1 <1>   0.3000 
 27 C        7.0180     5.1390    -0.1830 C.3   1 <1>  -0.2400 
 28 C        5.8680     2.8880    -0.1580 C.3   1 <1>  -0.2400 
 29 C        7.2580     3.5740    -2.1170 C.3   1 <1>  -0.2400 
 30 H        2.5840     0.5420     0.1340 H     1 <1>   0.0800 
 31 H        3.0130    -0.6840     1.2920 H     1 <1>   0.0800 
 32 H        2.1450    -3.2490     1.4760 H     1 <1>   0.0800 
 33 H        0.9990    -4.0790     0.4530 H     1 <1>   0.0800 
 34 H       -0.8200    -3.0040     2.0690 H     1 <1>   0.0800 
 35 H       -1.2590    -2.9830     0.3690 H     1 <1>   0.0800 
 36 H       -1.4140    -1.5340     1.3340 H     1 <1>   0.0800 
 37 H        2.5000    -0.9940    -1.6670 H     1 <1>   0.0800 
 38 H        1.7920    -3.0560    -1.5100 H     1 <1>   0.0800 
 39 H        4.8800    -1.3590     0.0680 H     1 <1>   0.0800 
 40 H        4.8020    -0.7160    -1.5630 H     1 <1>   0.0800 
 41 H        3.4400    -4.6510    -1.2840 H     1 <1>   0.0800 
 42 H        3.9810    -4.0040     0.2580 H     1 <1>   0.0800 
 43 H        4.4270    -2.8610    -2.4950 H     1 <1>   0.0800 
 44 H        6.6740    -2.6070    -1.7450 H     1 <1>   0.4500 
 45 H        5.8430    -3.3840     0.8090 H     1 <1>   0.0800 
 46 H        7.1890    -4.3350     0.2230 H     1 <1>   0.0800 
 47 H        5.7570    -5.4180    -1.5980 H     1 <1>   0.0800 
 48 H        7.3720    -4.8850    -2.0200 H     1 <1>   0.0800 
 49 H        6.0250    -4.5150    -3.0740 H     1 <1>   0.0800 
 50 H        8.9400    -2.7910    -1.2950 H     1 <1>   0.1500 
 51 H        6.4720    -1.4270     1.9390 H     1 <1>   0.1500 
 52 H       10.3830    -0.8460    -0.9800 H     1 <1>   0.1500 
 53 H        7.9140     0.4730     2.2420 H     1 <1>   0.1500 
 54 H        9.8270     1.6800     2.6170 H     1 <1>   0.0800 
 55 H       10.7410     2.7330     1.5660 H     1 <1>   0.0800 
 56 H        8.9050     2.6100    -0.7100 H     1 <1>   0.3700 
 57 H        6.1840     5.6130    -0.6670 H     1 <1>   0.0800 
 58 H        7.9160     5.6620    -0.4580 H     1 <1>   0.0800 
 59 H        6.8760     5.2250     0.8790 H     1 <1>   0.0800 
 60 H        4.9900     3.2790    -0.6400 H     1 <1>   0.0800 
 61 H        5.7260     2.9750     0.9040 H     1 <1>   0.0800 
 62 H        5.9670     1.8490    -0.4140 H     1 <1>   0.0800 
 63 H        6.4040     4.0110    -2.6020 H     1 <1>   0.0800 
 64 H        7.3330     2.5480    -2.4270 H     1 <1>   0.0800 
 65 H        8.1340     4.1080    -2.4410 H     1 <1>   0.0800 
@<TRIPOS>BOND
  1   1   2  2   
  2   2   3  am  
  3   2   4  1   
  4   3   5  1   
  5   3   6  1   
  6   4   7  1   
  7   4  30  1   
  8   4  31  1   
  9   5   8  1   
 10   5  32  1   
 11   5  33  1   
 12   6  34  1   
 13   6  35  1   
 14   6  36  1   
 15   7   8  1   
 16   7   9  1   
 17   7  37  1   
 18   8  10  1   
 19   8  38  1   
 20   9  11  1   
 21   9  39  1   
 22   9  40  1   
 23  10  11  1   
 24  10  41  1   
 25  10  42  1   
 26  11  12  1   
 27  11  43  1   
 28  12  13  1   
 29  12  14  1   
 30  12  44  1   
 31  13  15  1   
 32  13  45  1   
 33  13  46  1   
 34  14  47  1   
 35  14  48  1   
 36  14  49  1   
 37  15  16  ar  
 38  15  17  ar  
 39  16  18  ar  
 40  16  50  1   
 41  17  19  ar  
 42  17  51  1   
 43  18  20  ar  
 44  18  52  1   
 45  19  20  ar  
 46  19  53  1   
 47  20  21  1   
 48  21  22  1   
 49  22  23  1   
 50  22  54  1   
 51  22  55  1   
 52  23  24  2   
 53  23  25  am  
 54  25  26  1   
 55  25  56  1   
 56  26  27  1   
 57  26  28  1   
 58  26  29  1   
 59  27  57  1   
 60  27  58  1   
 61  27  59  1   
 62  28  60  1   
 63  28  61  1   
 64  28  62  1   
 65  29  63  1   
 66  29  64  1   
 67  29  65  1   
@<TRIPOS>SUBSTRUCTURE
  1 ****   9 GROUP 4 **** **** 0

# MOE 2024.06 (io_trps.svl 2023.06)
