@<TRIPOS>MOLECULE
NONAME
39 41 1 0 0 
SMALL
USER_CHARGES


@<TRIPOS>ATOM
  1 CL       1.8740     0.5650     2.6830 Cl    1 <1>  -0.1770 
  2 C        2.1940    -0.5920     1.4180 C.ar  1 <1>   0.1770 
  3 C        2.0990    -1.9420     1.6980 C.ar  1 <1>  -0.1500 
  4 C        2.5370    -0.1310     0.1580 C.ar  1 <1>  -0.1500 
  5 C        2.3410    -2.8920     0.7050 C.ar  1 <1>   0.0860 
  6 C        2.7950    -1.0520    -0.8430 C.ar  1 <1>  -0.1500 
  7 C        2.6960    -2.4020    -0.5530 C.ar  1 <1>   0.1900 
  8 C        2.2350    -4.3040     1.0000 C.2   1 <1>   0.5440 
  9 F        2.9580    -3.2400    -1.5180 F     1 <1>  -0.1900 
 10 O        2.8970    -4.7730     1.9050 O.2   1 <1>  -0.5700 
 11 N        1.3740    -5.1350     0.3240 N.am  1 <1>  -0.6600 
 12 C        0.3130    -4.7200    -0.6280 C.3   1 <1>   0.1400 
 13 C        1.2720    -6.5890     0.6070 C.3   1 <1>   0.1400 
 14 C       -0.7200    -5.8410    -0.5470 C.3   1 <1>   0.2000 
 15 C        0.1270    -7.0920    -0.2820 C.3   1 <1>  -0.0800 
 16 O       -1.5370    -5.5940     0.5460 O.3   1 <1>  -0.6800 
 17 C       -0.6460    -8.2860     0.3090 C.3   1 <1>   0.0200 
 18 C        0.1930    -9.5480     0.4140 C.2   1 <1>  -0.0400 
 19 O       -0.3180   -10.5920     1.0120 O.3   1 <1>  -0.0190 
 20 C        1.4300    -9.8790     0.0070 C.2   1 <1>  -0.1500 
 21 N        0.5080   -11.5980     1.0300 N.2   1 <1>  -0.4100 
 22 C        1.5700   -11.1970     0.4310 C.2   1 <1>   0.1080 
 23 C        2.8020   -12.0490     0.2220 C.3   1 <1>  -0.0590 
 24 H        1.8400    -2.2640     2.6910 H     1 <1>   0.1500 
 25 H        2.6030     0.9270    -0.0270 H     1 <1>   0.1500 
 26 H        3.0710    -0.7310    -1.8330 H     1 <1>   0.1500 
 27 H       -0.1140    -3.7650    -0.3720 H     1 <1>   0.0800 
 28 H        0.7280    -4.6790    -1.6200 H     1 <1>   0.0800 
 29 H        2.2020    -7.0800     0.3810 H     1 <1>   0.0800 
 30 H        1.0430    -6.7280     1.6510 H     1 <1>   0.0800 
 31 H       -1.3360    -5.9160    -1.4270 H     1 <1>   0.0800 
 32 H        0.5530    -7.3950    -1.2220 H     1 <1>   0.0800 
 33 H       -0.9740    -5.4030     1.3240 H     1 <1>   0.4000 
 34 H       -1.5010    -8.4980    -0.3090 H     1 <1>   0.0800 
 35 H       -1.0100    -8.0390     1.2910 H     1 <1>   0.0800 
 36 H        2.1690    -9.3070    -0.5220 H     1 <1>   0.1500 
 37 H        3.6530   -11.5790     0.6800 H     1 <1>   0.0800 
 38 H        2.9860   -12.1720    -0.8290 H     1 <1>   0.0800 
 39 H        2.6580   -13.0170     0.6670 H     1 <1>   0.0800 
@<TRIPOS>BOND
  1   1   2  1   
  2   2   3  ar  
  3   2   4  ar  
  4   3   5  ar  
  5   3  24  1   
  6   4   6  ar  
  7   4  25  1   
  8   5   7  ar  
  9   5   8  1   
 10   6   7  ar  
 11   6  26  1   
 12   7   9  1   
 13   8  10  2   
 14   8  11  am  
 15  11  12  1   
 16  11  13  1   
 17  12  14  1   
 18  12  27  1   
 19  12  28  1   
 20  13  15  1   
 21  13  29  1   
 22  13  30  1   
 23  14  15  1   
 24  14  16  1   
 25  14  31  1   
 26  15  17  1   
 27  15  32  1   
 28  16  33  1   
 29  17  18  1   
 30  17  34  1   
 31  17  35  1   
 32  18  19  1   
 33  18  20  2   
 34  19  21  1   
 35  20  22  1   
 36  20  36  1   
 37  21  22  2   
 38  22  23  1   
 39  23  37  1   
 40  23  38  1   
 41  23  39  1   
@<TRIPOS>SUBSTRUCTURE
  1 ****  11 GROUP 4 **** **** 0

# MOE 2024.06 (io_trps.svl 2023.06)
