@<TRIPOS>MOLECULE
NONAME
48 50 1 0 0 
SMALL
USER_CHARGES


@<TRIPOS>ATOM
  1 O       -0.3870     0.3200    -0.9330 O.2   1 <1>  -0.5700 
  2 C       -1.3830     1.0170    -0.8220 C.2   1 <1>   0.5440 
  3 N       -2.6090     0.3770    -0.7320 N.am  1 <1>  -0.6600 
  4 C       -1.2480     2.4780    -0.7590 C.ar  1 <1>   0.3960 
  5 C       -3.9090     1.0800    -0.5080 C.3   1 <1>   0.1400 
  6 C       -2.7650    -1.0980    -0.9230 C.3   1 <1>   0.1400 
  7 N       -1.9060     3.2180    -1.6710 N.ar  1 <1>  -0.6200 
  8 C       -0.4600     3.0770     0.2400 C.ar  1 <1>  -0.1430 
  9 C       -4.7650     0.3520     0.5470 C.3   1 <1>   0.2950 
 10 C       -3.6870    -1.7070     0.1550 C.3   1 <1>   0.2000 
 11 C       -1.7670     4.5270    -1.6050 C.ar  1 <1>   0.1600 
 12 C       -0.3350     4.4500     0.2900 C.ar  1 <1>  -0.1500 
 13 C        0.2750     2.2480     1.2900 C.3   1 <1>  -0.0970 
 14 O       -4.8950    -1.0030     0.2090 O.3   1 <1>  -0.5600 
 15 C       -6.1600     0.9930     0.6600 C.3   1 <1>  -0.1950 
 16 C       -4.0450    -3.1740    -0.1150 C.3   1 <1>  -0.1600 
 17 C       -1.0060     5.1860    -0.6590 C.ar  1 <1>  -0.1500 
 18 C       -7.3510     0.2450     1.1770 C.3   1 <1>  -0.2000 
 19 C       -7.2810     0.6450    -0.2710 C.3   1 <1>  -0.2000 
 20 C       -2.8280    -4.1120    -0.0570 C.3   1 <1>  -0.1600 
 21 C       -3.2510    -5.5740    -0.2380 C.3   1 <1>  -0.1600 
 22 C       -2.0390    -6.5090    -0.1830 C.3   1 <1>  -0.2400 
 23 H       -3.7450     2.0890    -0.1770 H     1 <1>   0.0800 
 24 H       -4.4510     1.1200    -1.4360 H     1 <1>   0.0800 
 25 H       -3.1850    -1.2810    -1.8960 H     1 <1>   0.0800 
 26 H       -1.8060    -1.5830    -0.8830 H     1 <1>   0.0800 
 27 H       -4.2790     0.4090     1.5050 H     1 <1>   0.0800 
 28 H       -3.2130    -1.6300     1.1190 H     1 <1>   0.0800 
 29 H       -2.2880     5.1110    -2.3450 H     1 <1>   0.1500 
 30 H        0.2640     4.9390     1.0380 H     1 <1>   0.1500 
 31 H        0.6720     2.8710     2.0710 H     1 <1>   0.0800 
 32 H        1.0910     1.7180     0.8310 H     1 <1>   0.0800 
 33 H       -0.3910     1.5310     1.7380 H     1 <1>   0.0800 
 34 H       -6.0890     2.0240     0.9570 H     1 <1>   0.1000 
 35 H       -4.7580    -3.4860     0.6280 H     1 <1>   0.0800 
 36 H       -4.5130    -3.2500    -1.0810 H     1 <1>   0.0800 
 37 H       -0.9410     6.2590    -0.6690 H     1 <1>   0.1500 
 38 H       -7.2490    -0.7990     1.4220 H     1 <1>   0.1000 
 39 H       -8.0440     0.7540     1.8230 H     1 <1>   0.1000 
 40 H       -7.9270     1.4290    -0.6240 H     1 <1>   0.1000 
 41 H       -7.1310    -0.1300    -1.0040 H     1 <1>   0.1000 
 42 H       -2.1270    -3.8540    -0.8320 H     1 <1>   0.0800 
 43 H       -2.3340    -3.9990     0.8930 H     1 <1>   0.0800 
 44 H       -3.9450    -5.8490     0.5380 H     1 <1>   0.0800 
 45 H       -3.7470    -5.6930    -1.1860 H     1 <1>   0.0800 
 46 H       -1.5390    -6.4220     0.7660 H     1 <1>   0.0800 
 47 H       -1.3420    -6.2680    -0.9660 H     1 <1>   0.0800 
 48 H       -2.3560    -7.5290    -0.3110 H     1 <1>   0.0800 
@<TRIPOS>BOND
  1   1   2  2   
  2   2   3  am  
  3   2   4  1   
  4   3   5  1   
  5   3   6  1   
  6   4   7  ar  
  7   4   8  ar  
  8   5   9  1   
  9   5  23  1   
 10   5  24  1   
 11   6  10  1   
 12   6  25  1   
 13   6  26  1   
 14   7  11  ar  
 15   8  12  ar  
 16   8  13  1   
 17   9  14  1   
 18   9  15  1   
 19   9  27  1   
 20  10  14  1   
 21  10  16  1   
 22  10  28  1   
 23  11  17  ar  
 24  11  29  1   
 25  12  17  ar  
 26  12  30  1   
 27  13  31  1   
 28  13  32  1   
 29  13  33  1   
 30  15  18  1   
 31  15  19  1   
 32  15  34  1   
 33  16  20  1   
 34  16  35  1   
 35  16  36  1   
 36  17  37  1   
 37  18  19  1   
 38  18  38  1   
 39  18  39  1   
 40  19  40  1   
 41  19  41  1   
 42  20  21  1   
 43  20  42  1   
 44  20  43  1   
 45  21  22  1   
 46  21  44  1   
 47  21  45  1   
 48  22  46  1   
 49  22  47  1   
 50  22  48  1   
@<TRIPOS>SUBSTRUCTURE
  1 ****   3 GROUP 4 **** **** 0

# MOE 2024.06 (io_trps.svl 2023.06)
