@<TRIPOS>MOLECULE
NONAME
50 51 1 0 0 
SMALL
USER_CHARGES


@<TRIPOS>ATOM
  1 S        0.3070    -0.2200     0.1040 S.3   1 <1>  -0.0800 
  2 C        0.2490     1.5150     0.2010 C.2   1 <1>   0.4620 
  3 C       -1.4260    -0.2130     0.1460 C.2   1 <1>   0.1980 
  4 N       -0.9600     1.9500     0.2550 N.2   1 <1>  -0.3380 
  5 N        1.4160     2.2630     0.2180 N.pl3 1 <1>  -0.8220 
  6 N       -1.9040     0.9640     0.2210 N.2   1 <1>  -0.3380 
  7 C       -2.1400    -1.5610     0.0890 C.3   1 <1>   0.1000 
  8 C        1.3330     3.7460     0.4550 C.3   1 <1>   0.2090 
  9 C        2.7860     1.6780     0.0100 C.3   1 <1>   0.2090 
 10 C       -3.5980    -1.4120    -0.3710 C.3   1 <1>  -0.2400 
 11 C       -2.0930    -2.2560     1.4560 C.3   1 <1>  -0.2400 
 12 C        2.2580     4.5230    -0.5120 C.3   1 <1>   0.4230 
 13 C        3.6790     2.5770    -0.8820 C.3   1 <1>   0.3430 
 14 N        3.6700     4.0160    -0.4440 N.4   1 <1>  -0.9590 
 15 C        2.1920     6.0480    -0.3250 C.3   1 <1>  -0.1600 
 16 C        4.3310     4.2320     0.8820 C.3   1 <1>   0.3430 
 17 C        2.8010     6.8450    -1.4890 C.3   1 <1>   0.1200 
 18 C        5.8270     3.8670     0.8640 C.3   1 <1>  -0.0800 
 19 O        4.1050     6.4350    -1.7200 O.3   1 <1>  -0.6800 
 20 C        6.4480     4.1970     2.2270 C.3   1 <1>  -0.2400 
 21 C        6.6040     4.6070    -0.2380 C.3   1 <1>  -0.2400 
 22 H       -1.6280    -2.1780    -0.6290 H     1 <1>   0.0800 
 23 H        1.5970     3.9590     1.4760 H     1 <1>   0.0800 
 24 H        0.3230     4.0880     0.3080 H     1 <1>   0.0800 
 25 H        2.7180     0.7120    -0.4570 H     1 <1>   0.0800 
 26 H        3.2560     1.5400     0.9680 H     1 <1>   0.0800 
 27 H       -4.1530    -0.8130     0.3300 H     1 <1>   0.0800 
 28 H       -4.0680    -2.3750    -0.4530 H     1 <1>   0.0800 
 29 H       -3.6330    -0.9290    -1.3320 H     1 <1>   0.0800 
 30 H       -2.5850    -1.6500     2.1970 H     1 <1>   0.0800 
 31 H       -1.0740    -2.4100     1.7620 H     1 <1>   0.0800 
 32 H       -2.5830    -3.2120     1.4090 H     1 <1>   0.0800 
 33 H        1.8820     4.3220    -1.5020 H     1 <1>   0.0800 
 34 H        3.3110     2.5130    -1.8920 H     1 <1>   0.0800 
 35 H        4.6860     2.1940    -0.8810 H     1 <1>   0.0800 
 36 H        4.1840     4.6180    -1.1190 H     1 <1>   0.4500 
 37 H        2.6350     6.3550     0.6040 H     1 <1>   0.0800 
 38 H        1.1550     6.3310    -0.2690 H     1 <1>   0.0800 
 39 H        3.8310     3.6530     1.6410 H     1 <1>   0.0800 
 40 H        4.2530     5.2720     1.1530 H     1 <1>   0.0800 
 41 H        2.8130     7.8980    -1.2560 H     1 <1>   0.0800 
 42 H        2.2380     6.6940    -2.3960 H     1 <1>   0.0800 
 43 H        5.9350     2.8060     0.7160 H     1 <1>   0.0800 
 44 H        4.5440     7.0510    -2.3490 H     1 <1>   0.4000 
 45 H        6.3910     5.2530     2.4310 H     1 <1>   0.0800 
 46 H        7.4850     3.9070     2.2470 H     1 <1>   0.0800 
 47 H        5.9410     3.6670     3.0160 H     1 <1>   0.0800 
 48 H        6.4920     5.6730    -0.1330 H     1 <1>   0.0800 
 49 H        6.2660     4.3210    -1.2180 H     1 <1>   0.0800 
 50 H        7.6530     4.3730    -0.1750 H     1 <1>   0.0800 
@<TRIPOS>BOND
  1   1   2  1   
  2   1   3  1   
  3   2   4  2   
  4   2   5  1   
  5   3   6  2   
  6   3   7  1   
  7   4   6  1   
  8   5   8  1   
  9   5   9  1   
 10   7  10  1   
 11   7  11  1   
 12   7  22  1   
 13   8  12  1   
 14   8  23  1   
 15   8  24  1   
 16   9  13  1   
 17   9  25  1   
 18   9  26  1   
 19  10  27  1   
 20  10  28  1   
 21  10  29  1   
 22  11  30  1   
 23  11  31  1   
 24  11  32  1   
 25  12  14  1   
 26  12  15  1   
 27  12  33  1   
 28  13  14  1   
 29  13  34  1   
 30  13  35  1   
 31  14  16  1   
 32  14  36  1   
 33  15  17  1   
 34  15  37  1   
 35  15  38  1   
 36  16  18  1   
 37  16  39  1   
 38  16  40  1   
 39  17  19  1   
 40  17  41  1   
 41  17  42  1   
 42  18  20  1   
 43  18  21  1   
 44  18  43  1   
 45  19  44  1   
 46  20  45  1   
 47  20  46  1   
 48  20  47  1   
 49  21  48  1   
 50  21  49  1   
 51  21  50  1   
@<TRIPOS>SUBSTRUCTURE
  1 ****   5 GROUP 4 **** **** 0

# MOE 2024.06 (io_trps.svl 2023.06)
