@<TRIPOS>MOLECULE
NONAME
56 59 1 0 0 
SMALL
USER_CHARGES


@<TRIPOS>ATOM
  1 F        2.3610    -2.3070    -1.6500 F     1 <1>  -0.1900 
  2 C        2.3950    -2.6010    -0.3780 C.ar  1 <1>   0.1900 
  3 C        1.2810    -3.1920     0.2180 C.ar  1 <1>   0.0000 
  4 C        3.5560    -2.3060     0.3130 C.ar  1 <1>  -0.1500 
  5 C        0.0660    -3.4990    -0.5060 C.ar  1 <1>   0.0000 
  6 C        1.3870    -3.4840     1.5770 C.ar  1 <1>  -0.1500 
  7 C        3.6270    -2.6100     1.6610 C.ar  1 <1>  -0.1500 
  8 C       -0.4310    -4.7970    -0.5470 C.ar  1 <1>  -0.1500 
  9 C       -0.6460    -2.5080    -1.1740 C.ar  1 <1>  -0.1500 
 10 C        2.5410    -3.1990     2.2890 C.ar  1 <1>  -0.1500 
 11 C       -1.6060    -5.1320    -1.2170 C.ar  1 <1>   0.0860 
 12 C       -1.8070    -2.8080    -1.8590 C.ar  1 <1>  -0.1500 
 13 C       -2.1010    -6.4990    -1.2220 C.2   1 <1>   0.5440 
 14 C       -2.2790    -4.1070    -1.8820 C.ar  1 <1>  -0.1500 
 15 O       -1.3290    -7.4410    -1.1710 O.2   1 <1>  -0.5700 
 16 N       -3.4480    -6.7940    -1.2380 N.am  1 <1>  -0.6600 
 17 C       -3.8810    -8.1620    -1.6230 C.3   1 <1>   0.1400 
 18 C       -4.3810    -6.1180    -0.2960 C.3   1 <1>   0.1400 
 19 C       -3.9280    -9.0380    -0.3520 C.3   1 <1>   0.4230 
 20 C       -4.4670    -6.9650     0.9820 C.3   1 <1>  -0.1600 
 21 N       -4.1410   -10.5200    -0.6280 N.4   1 <1>  -0.9590 
 22 C       -4.8830    -8.4460     0.7300 C.3   1 <1>   0.0000 
 23 C       -4.5920   -11.3060     0.5660 C.3   1 <1>   0.3430 
 24 C       -5.0020   -10.8420    -1.8120 C.3   1 <1>   0.2630 
 25 C       -4.7140    -9.2450     2.0570 C.3   1 <1>  -0.1600 
 26 C       -6.3570    -8.5150     0.2390 C.3   1 <1>   0.1200 
 27 C       -4.1180   -10.6530     1.8640 C.3   1 <1>  -0.1600 
 28 O       -7.2110    -7.8190     1.0780 O.3   1 <1>  -0.6800 
 29 H        4.3850    -1.8500    -0.1970 H     1 <1>   0.1500 
 30 H        0.5530    -3.9380     2.0820 H     1 <1>   0.1500 
 31 H        4.5220    -2.3900     2.2200 H     1 <1>   0.1500 
 32 H        0.1170    -5.5760    -0.0460 H     1 <1>   0.1500 
 33 H       -0.2810    -1.4950    -1.1580 H     1 <1>   0.1500 
 34 H        2.5950    -3.4360     3.3380 H     1 <1>   0.1500 
 35 H       -2.3410    -2.0300    -2.3770 H     1 <1>   0.1500 
 36 H       -3.1790    -4.3310    -2.4270 H     1 <1>   0.1500 
 37 H       -4.8380    -8.1010    -2.1060 H     1 <1>   0.0800 
 38 H       -3.1720    -8.5720    -2.3230 H     1 <1>   0.0800 
 39 H       -4.0230    -5.1330    -0.0500 H     1 <1>   0.0800 
 40 H       -5.3510    -6.0140    -0.7520 H     1 <1>   0.0800 
 41 H       -2.9400    -8.9540     0.0710 H     1 <1>   0.0800 
 42 H       -3.4960    -6.9340     1.4480 H     1 <1>   0.0800 
 43 H       -5.1470    -6.4890     1.6670 H     1 <1>   0.0800 
 44 H       -3.1930   -10.8640    -0.8490 H     1 <1>   0.4500 
 45 H       -5.6690   -11.3560     0.5840 H     1 <1>   0.0800 
 46 H       -4.2140   -12.3140     0.5050 H     1 <1>   0.0800 
 47 H       -6.0010   -10.4650    -1.6680 H     1 <1>   0.0800 
 48 H       -5.0560   -11.9100    -1.9550 H     1 <1>   0.0800 
 49 H       -4.5920   -10.4040    -2.7080 H     1 <1>   0.0800 
 50 H       -4.0690    -8.7160     2.7390 H     1 <1>   0.0800 
 51 H       -5.6620    -9.3340     2.5580 H     1 <1>   0.0800 
 52 H       -6.7100    -9.5290     0.1910 H     1 <1>   0.0800 
 53 H       -6.4680    -8.0710    -0.7340 H     1 <1>   0.0800 
 54 H       -4.4020   -11.2730     2.6970 H     1 <1>   0.0800 
 55 H       -3.0430   -10.6040     1.8610 H     1 <1>   0.0800 
 56 H       -7.2350    -8.1970     1.9800 H     1 <1>   0.4000 
@<TRIPOS>BOND
  1   1   2  1   
  2   2   3  ar  
  3   2   4  ar  
  4   3   5  1   
  5   3   6  ar  
  6   4   7  ar  
  7   4  29  1   
  8   5   8  ar  
  9   5   9  ar  
 10   6  10  ar  
 11   6  30  1   
 12   7  10  ar  
 13   7  31  1   
 14   8  11  ar  
 15   8  32  1   
 16   9  12  ar  
 17   9  33  1   
 18  10  34  1   
 19  11  13  1   
 20  11  14  ar  
 21  12  14  ar  
 22  12  35  1   
 23  13  15  2   
 24  13  16  am  
 25  14  36  1   
 26  16  17  1   
 27  16  18  1   
 28  17  19  1   
 29  17  37  1   
 30  17  38  1   
 31  18  20  1   
 32  18  39  1   
 33  18  40  1   
 34  19  21  1   
 35  19  22  1   
 36  19  41  1   
 37  20  22  1   
 38  20  42  1   
 39  20  43  1   
 40  21  23  1   
 41  21  24  1   
 42  21  44  1   
 43  22  25  1   
 44  22  26  1   
 45  23  27  1   
 46  23  45  1   
 47  23  46  1   
 48  24  47  1   
 49  24  48  1   
 50  24  49  1   
 51  25  27  1   
 52  25  50  1   
 53  25  51  1   
 54  26  28  1   
 55  26  52  1   
 56  26  53  1   
 57  27  54  1   
 58  27  55  1   
 59  28  56  1   
@<TRIPOS>SUBSTRUCTURE
  1 ****  13 GROUP 4 **** **** 0

# MOE 2024.06 (io_trps.svl 2023.06)
