@<TRIPOS>MOLECULE
NONAME
53 56 1 0 0 
SMALL
USER_CHARGES


@<TRIPOS>ATOM
  1 S       -0.3280     0.2740     2.3030 S.3   1 <1>  -0.0800 
  2 C        0.8330     0.1230     1.0100 C.2   1 <1>   0.1980 
  3 C       -0.6230    -1.4330     2.1960 C.2   1 <1>  -0.1100 
  4 N        0.9560    -1.0580     0.5530 N.2   1 <1>  -0.5650 
  5 C        1.5910     1.3710     0.5760 C.3   1 <1>   0.5230 
  6 C        0.1340    -1.9850     1.2200 C.2   1 <1>   0.1410 
  7 N        2.5290     1.0190    -0.5440 N.4   1 <1>  -0.9590 
  8 C        0.1700    -3.3980     0.8510 C.2   1 <1>   0.7160 
  9 C        3.7320     1.9000    -0.5970 C.3   1 <1>   0.2630 
 10 C        1.8190     0.9500    -1.8570 C.3   1 <1>   0.2630 
 11 O        1.2360    -3.9370     0.6120 O.2   1 <1>  -0.5700 
 12 N       -0.9780    -4.1590     0.7590 N.am  1 <1>  -0.6600 
 13 C       -2.3480    -3.6180     0.5480 C.3   1 <1>   0.1400 
 14 C       -0.9430    -5.6020     0.3950 C.3   1 <1>   0.1400 
 15 C       -3.2380    -4.8540     0.4410 C.3   1 <1>   0.2000 
 16 C       -2.3250    -5.9060    -0.1990 C.3   1 <1>  -0.0800 
 17 O       -3.5770    -5.2470     1.7280 O.3   1 <1>  -0.6800 
 18 C       -2.7880    -7.3660    -0.0080 C.3   1 <1>  -0.0170 
 19 C       -1.9690    -8.4440    -0.7300 C.ar  1 <1>  -0.1430 
 20 C       -2.1820    -9.8120    -0.4210 C.ar  1 <1>   0.0000 
 21 C       -1.0290    -8.1670    -1.6840 C.ar  1 <1>  -0.1500 
 22 C       -1.3900   -10.7770    -1.0920 C.ar  1 <1>   0.3100 
 23 C       -3.1410   -10.2810     0.5090 C.ar  1 <1>  -0.1500 
 24 C       -0.3040    -9.1990    -2.2910 C.ar  1 <1>   0.1600 
 25 N       -0.4570   -10.4550    -2.0200 N.ar  1 <1>  -0.6200 
 26 C       -1.5730   -12.1370    -0.7940 C.ar  1 <1>  -0.1500 
 27 C       -3.2960   -11.6150     0.7740 C.ar  1 <1>  -0.1500 
 28 C       -2.5020   -12.5570     0.1180 C.ar  1 <1>  -0.1500 
 29 H       -1.3270    -1.8650     2.8840 H     1 <1>   0.1500 
 30 H        2.1500     1.7360     1.4210 H     1 <1>   0.0800 
 31 H        0.8990     2.1350     0.2640 H     1 <1>   0.0800 
 32 H        2.8160     0.0450    -0.3220 H     1 <1>   0.4500 
 33 H        3.4460     2.9170    -0.8100 H     1 <1>   0.0800 
 34 H        4.4050     1.5630    -1.3690 H     1 <1>   0.0800 
 35 H        4.2570     1.8760     0.3450 H     1 <1>   0.0800 
 36 H        1.4350     1.9190    -2.1320 H     1 <1>   0.0800 
 37 H        0.9960     0.2540    -1.7990 H     1 <1>   0.0800 
 38 H        2.4930     0.6130    -2.6280 H     1 <1>   0.0800 
 39 H       -2.6680    -2.9820     1.3540 H     1 <1>   0.0800 
 40 H       -2.3710    -3.0700    -0.3780 H     1 <1>   0.0800 
 41 H       -0.1550    -5.8050    -0.3100 H     1 <1>   0.0800 
 42 H       -0.7720    -6.1840     1.2860 H     1 <1>   0.0800 
 43 H       -4.1450    -4.6770    -0.1120 H     1 <1>   0.0800 
 44 H       -2.2930    -5.6870    -1.2520 H     1 <1>   0.0800 
 45 H       -2.7640    -5.3150     2.2670 H     1 <1>   0.4000 
 46 H       -3.8100    -7.4470    -0.3360 H     1 <1>   0.0800 
 47 H       -2.7690    -7.5840     1.0450 H     1 <1>   0.0800 
 48 H       -0.8030    -7.1710    -2.0100 H     1 <1>   0.1500 
 49 H       -3.7710    -9.5810     1.0230 H     1 <1>   0.1500 
 50 H        0.4300    -8.9290    -3.0310 H     1 <1>   0.1500 
 51 H       -0.9530   -12.8430    -1.3140 H     1 <1>   0.1500 
 52 H       -4.0290   -11.9540     1.4860 H     1 <1>   0.1500 
 53 H       -2.6320   -13.6040     0.3350 H     1 <1>   0.1500 
@<TRIPOS>BOND
  1   1   2  1   
  2   1   3  1   
  3   2   4  2   
  4   2   5  1   
  5   3   6  2   
  6   3  29  1   
  7   4   6  1   
  8   5   7  1   
  9   5  30  1   
 10   5  31  1   
 11   6   8  1   
 12   7   9  1   
 13   7  10  1   
 14   7  32  1   
 15   8  11  2   
 16   8  12  am  
 17   9  33  1   
 18   9  34  1   
 19   9  35  1   
 20  10  36  1   
 21  10  37  1   
 22  10  38  1   
 23  12  13  1   
 24  12  14  1   
 25  13  15  1   
 26  13  39  1   
 27  13  40  1   
 28  14  16  1   
 29  14  41  1   
 30  14  42  1   
 31  15  16  1   
 32  15  17  1   
 33  15  43  1   
 34  16  18  1   
 35  16  44  1   
 36  17  45  1   
 37  18  19  1   
 38  18  46  1   
 39  18  47  1   
 40  19  20  ar  
 41  19  21  ar  
 42  20  22  ar  
 43  20  23  ar  
 44  21  24  ar  
 45  21  48  1   
 46  22  25  ar  
 47  22  26  ar  
 48  23  27  ar  
 49  23  49  1   
 50  24  25  ar  
 51  24  50  1   
 52  26  28  ar  
 53  26  51  1   
 54  27  28  ar  
 55  27  52  1   
 56  28  53  1   
@<TRIPOS>SUBSTRUCTURE
  1 ****  14 GROUP 4 **** **** 0

# MOE 2024.06 (io_trps.svl 2023.06)
