@<TRIPOS>MOLECULE
NONAME
48 50 1 0 0 
SMALL
USER_CHARGES


@<TRIPOS>ATOM
  1 O       -0.7190     0.1750    -0.3560 O.2   1 <1>  -0.5700 
  2 C       -1.6470     0.8140     0.1020 C.2   1 <1>   0.5440 
  3 N       -2.7650     0.1360     0.5360 N.am  1 <1>  -0.6600 
  4 C       -1.5610     2.2580     0.1510 C.ar  1 <1>   0.0860 
  5 C       -2.7590    -1.3490     0.7270 C.3   1 <1>   0.1400 
  6 C       -4.1490     0.6880     0.4240 C.3   1 <1>   0.1400 
  7 C       -1.0180     2.9660    -0.9180 C.ar  1 <1>   0.1600 
  8 C       -2.0040     3.0010     1.2370 C.ar  1 <1>  -0.1500 
  9 C       -3.6410    -2.0410    -0.3260 C.3   1 <1>   0.3440 
 10 C       -4.9670    -0.1070    -0.6200 C.3   1 <1>   0.2000 
 11 N       -0.9130     4.2840    -1.0010 N.ar  1 <1>  -0.6200 
 12 C       -1.8950     4.3730     1.1730 C.ar  1 <1>  -0.1500 
 13 O       -4.9280    -1.4760    -0.3210 O.3   1 <1>  -0.5600 
 14 C       -3.7350    -3.5380    -0.0470 C.ar  1 <1>  -0.1430 
 15 C       -6.4510     0.3170    -0.7230 C.3   1 <1>  -0.0800 
 16 C       -1.3510     4.9630     0.0440 C.ar  1 <1>   0.1670 
 17 C       -4.7240    -4.0640     0.7740 C.ar  1 <1>  -0.1500 
 18 C       -2.8040    -4.3980    -0.6130 C.ar  1 <1>  -0.1500 
 19 C       -6.6010     1.7730    -1.1930 C.3   1 <1>  -0.2400 
 20 C       -7.2440     0.1110     0.5790 C.3   1 <1>  -0.2400 
 21 C       -1.2250     6.4690    -0.0480 C.3   1 <1>  -0.0970 
 22 C       -4.7810    -5.4240     1.0250 C.ar  1 <1>  -0.1500 
 23 C       -2.8590    -5.7580    -0.3630 C.ar  1 <1>  -0.1500 
 24 C       -3.8480    -6.2720     0.4570 C.ar  1 <1>  -0.1500 
 25 H       -1.7580    -1.7380     0.6630 H     1 <1>   0.0800 
 26 H       -3.1360    -1.5820     1.7070 H     1 <1>   0.0800 
 27 H       -4.6270     0.6270     1.3850 H     1 <1>   0.0800 
 28 H       -4.1180     1.7210     0.1300 H     1 <1>   0.0800 
 29 H       -0.6500     2.3980    -1.7560 H     1 <1>   0.1500 
 30 H       -2.4150     2.5120     2.1030 H     1 <1>   0.1500 
 31 H       -3.2170    -1.8890    -1.3040 H     1 <1>   0.0800 
 32 H       -4.5130     0.0250    -1.5880 H     1 <1>   0.0800 
 33 H       -2.2280     4.9790     1.9960 H     1 <1>   0.1500 
 34 H       -6.8950    -0.3080    -1.4800 H     1 <1>   0.0800 
 35 H       -5.4570    -3.4120     1.2180 H     1 <1>   0.1500 
 36 H       -2.0280    -4.0120    -1.2520 H     1 <1>   0.1500 
 37 H       -6.2430     2.4630    -0.4500 H     1 <1>   0.0800 
 38 H       -7.6370     1.9920    -1.3830 H     1 <1>   0.0800 
 39 H       -6.0540     1.9310    -2.1060 H     1 <1>   0.0800 
 40 H       -6.8950     0.7620     1.3600 H     1 <1>   0.0800 
 41 H       -7.1530    -0.9080     0.9130 H     1 <1>   0.0800 
 42 H       -8.2870     0.3130     0.4110 H     1 <1>   0.0800 
 43 H       -1.6020     6.9470     0.8360 H     1 <1>   0.0800 
 44 H       -1.7760     6.8240    -0.8990 H     1 <1>   0.0800 
 45 H       -0.1910     6.7340    -0.1730 H     1 <1>   0.0800 
 46 H       -5.5530    -5.8200     1.6610 H     1 <1>   0.1500 
 47 H       -2.1330    -6.4160    -0.8070 H     1 <1>   0.1500 
 48 H       -3.8920    -7.3290     0.6510 H     1 <1>   0.1500 
@<TRIPOS>BOND
  1   1   2  2   
  2   2   3  am  
  3   2   4  1   
  4   3   5  1   
  5   3   6  1   
  6   4   7  ar  
  7   4   8  ar  
  8   5   9  1   
  9   5  25  1   
 10   5  26  1   
 11   6  10  1   
 12   6  27  1   
 13   6  28  1   
 14   7  11  ar  
 15   7  29  1   
 16   8  12  ar  
 17   8  30  1   
 18   9  13  1   
 19   9  14  1   
 20   9  31  1   
 21  10  13  1   
 22  10  15  1   
 23  10  32  1   
 24  11  16  ar  
 25  12  16  ar  
 26  12  33  1   
 27  14  17  ar  
 28  14  18  ar  
 29  15  19  1   
 30  15  20  1   
 31  15  34  1   
 32  16  21  1   
 33  17  22  ar  
 34  17  35  1   
 35  18  23  ar  
 36  18  36  1   
 37  19  37  1   
 38  19  38  1   
 39  19  39  1   
 40  20  40  1   
 41  20  41  1   
 42  20  42  1   
 43  21  43  1   
 44  21  44  1   
 45  21  45  1   
 46  22  24  ar  
 47  22  46  1   
 48  23  24  ar  
 49  23  47  1   
 50  24  48  1   
@<TRIPOS>SUBSTRUCTURE
  1 ****   3 GROUP 4 **** **** 0

# MOE 2024.06 (io_trps.svl 2023.06)
