@<TRIPOS>MOLECULE
NONAME
56 58 1 0 0 
SMALL
USER_CHARGES


@<TRIPOS>ATOM
  1 O       -2.1330     0.9990    -1.3080 O.2   1 <1>  -0.5700 
  2 C       -3.1140     1.4670    -0.7750 C.2   1 <1>   0.5690 
  3 N       -4.3430     0.8670    -0.9160 N.am  1 <1>  -0.6600 
  4 C       -2.9360     2.7330     0.0770 C.3   1 <1>  -0.0190 
  5 C       -4.4820    -0.3360    -1.7820 C.3   1 <1>   0.3200 
  6 C       -5.5980     1.2760    -0.2160 C.3   1 <1>   0.1400 
  7 C       -3.2840     3.9940    -0.7360 C.3   1 <1>  -0.1600 
  8 C       -1.5120     2.8690     0.6580 C.3   1 <1>  -0.1600 
  9 C       -4.0540    -1.5580    -1.0000 C.2   1 <1>  -0.3320 
 10 C       -5.8080     0.4470     1.0560 C.3   1 <1>   0.1200 
 11 C       -3.1050     5.2700     0.0920 C.3   1 <1>   0.1400 
 12 C       -1.3540     4.1550     1.4730 C.3   1 <1>   0.1400 
 13 N       -2.7900    -1.7180    -0.5710 N.pl3 1 <1>   0.0330 
 14 C       -4.7330    -2.6520    -0.5930 C.2   1 <1>   0.0770 
 15 O       -6.8930     0.9570     1.7550 O.3   1 <1>  -0.6800 
 16 N       -1.7140     5.3240     0.6230 N.am  1 <1>  -0.6600 
 17 C       -2.7800    -2.9000     0.0780 C.2   1 <1>   0.0070 
 18 N       -3.9290    -3.4920     0.0880 N.2   1 <1>  -0.5650 
 19 C       -0.8700     6.3570     0.2770 C.2   1 <1>   0.5690 
 20 C       -1.5350    -3.4650     0.7260 C.3   1 <1>  -0.0600 
 21 O       -1.2580     7.2670    -0.4210 O.2   1 <1>  -0.5700 
 22 C        0.5890     6.3890     0.7590 C.3   1 <1>  -0.0190 
 23 C        1.3090     7.7350     0.6170 C.3   1 <1>  -0.1600 
 24 C        1.5090     5.4330    -0.0090 C.3   1 <1>  -0.1600 
 25 C        2.7940     7.3930     0.7270 C.3   1 <1>  -0.1600 
 26 C        2.9320     5.9520     0.2200 C.3   1 <1>  -0.1600 
 27 H       -3.6010     2.6720     0.9180 H     1 <1>   0.0800 
 28 H       -3.8630    -0.2310    -2.6570 H     1 <1>   0.0800 
 29 H       -5.5010    -0.4470    -2.1110 H     1 <1>   0.0800 
 30 H       -6.4390     1.1330    -0.8720 H     1 <1>   0.0800 
 31 H       -5.5600     2.3190     0.0360 H     1 <1>   0.0800 
 32 H       -4.2980     3.9430    -1.0870 H     1 <1>   0.0800 
 33 H       -2.6450     4.0540    -1.6010 H     1 <1>   0.0800 
 34 H       -0.7890     2.8800    -0.1400 H     1 <1>   0.0800 
 35 H       -1.2940     2.0220     1.2830 H     1 <1>   0.0800 
 36 H       -4.9440     0.4790     1.6960 H     1 <1>   0.0800 
 37 H       -6.0330    -0.5760     0.8060 H     1 <1>   0.0800 
 38 H       -3.7960     5.2790     0.9170 H     1 <1>   0.0800 
 39 H       -3.3170     6.1270    -0.5240 H     1 <1>   0.0800 
 40 H       -0.3470     4.2220     1.8380 H     1 <1>   0.0800 
 41 H       -2.0100     4.1310     2.3270 H     1 <1>   0.0800 
 42 H       -2.0240    -1.0460    -0.7170 H     1 <1>   0.2700 
 43 H       -5.7720    -2.8890    -0.7510 H     1 <1>   0.1500 
 44 H       -6.6460     1.7490     2.2710 H     1 <1>   0.4000 
 45 H       -1.1790    -2.7950     1.4860 H     1 <1>   0.0800 
 46 H       -0.7690    -3.6090    -0.0130 H     1 <1>   0.0800 
 47 H       -1.7610    -4.4140     1.1790 H     1 <1>   0.0800 
 48 H        0.6130     6.1380     1.8030 H     1 <1>   0.0800 
 49 H        0.9950     8.4410     1.3650 H     1 <1>   0.0800 
 50 H        1.1180     8.1510    -0.3590 H     1 <1>   0.0800 
 51 H        1.2760     5.4940    -1.0600 H     1 <1>   0.0800 
 52 H        1.4000     4.4130     0.3110 H     1 <1>   0.0800 
 53 H        3.1000     7.4410     1.7580 H     1 <1>   0.0800 
 54 H        3.3950     8.0770     0.1530 H     1 <1>   0.0800 
 55 H        3.4950     5.9190    -0.6980 H     1 <1>   0.0800 
 56 H        3.4370     5.3530     0.9580 H     1 <1>   0.0800 
@<TRIPOS>BOND
  1   1   2  2   
  2   2   3  am  
  3   2   4  1   
  4   3   5  1   
  5   3   6  1   
  6   4   7  1   
  7   4   8  1   
  8   4  27  1   
  9   5   9  1   
 10   5  28  1   
 11   5  29  1   
 12   6  10  1   
 13   6  30  1   
 14   6  31  1   
 15   7  11  1   
 16   7  32  1   
 17   7  33  1   
 18   8  12  1   
 19   8  34  1   
 20   8  35  1   
 21   9  13  1   
 22   9  14  2   
 23  10  15  1   
 24  10  36  1   
 25  10  37  1   
 26  11  16  1   
 27  11  38  1   
 28  11  39  1   
 29  12  16  1   
 30  12  40  1   
 31  12  41  1   
 32  13  17  1   
 33  13  42  1   
 34  14  18  1   
 35  14  43  1   
 36  15  44  1   
 37  16  19  am  
 38  17  18  2   
 39  17  20  1   
 40  19  21  2   
 41  19  22  1   
 42  20  45  1   
 43  20  46  1   
 44  20  47  1   
 45  22  23  1   
 46  22  24  1   
 47  22  48  1   
 48  23  25  1   
 49  23  49  1   
 50  23  50  1   
 51  24  26  1   
 52  24  51  1   
 53  24  52  1   
 54  25  26  1   
 55  25  53  1   
 56  25  54  1   
 57  26  55  1   
 58  26  56  1   
@<TRIPOS>SUBSTRUCTURE
  1 ****   4 GROUP 4 **** **** 0

# MOE 2024.06 (io_trps.svl 2023.06)
