@<TRIPOS>MOLECULE
NONAME
50 51 1 0 0 
SMALL
USER_CHARGES


@<TRIPOS>ATOM
  1 S       -0.3580    -0.3450    -1.5950 S.3   1 <1>  -0.0800 
  2 C       -0.4010     0.7220    -0.2380 C.2   1 <1>   0.1980 
  3 C       -1.1900    -1.4930    -0.6040 C.2   1 <1>   0.1980 
  4 N       -0.9760     0.2180     0.7780 N.2   1 <1>  -0.3380 
  5 C        0.2210     2.1030    -0.3680 C.3   1 <1>   0.5230 
  6 N       -1.4250    -1.0540     0.5670 N.2   1 <1>  -0.3380 
  7 C       -1.5360    -2.8390    -1.2000 C.3   1 <1>  -0.0600 
  8 N        0.3260     2.7620     0.9840 N.4   1 <1>  -0.9590 
  9 C        0.3340     4.2620     0.9490 C.3   1 <1>   0.3430 
 10 C        1.3840     2.1240     1.8340 C.3   1 <1>   0.2630 
 11 C        1.5760     4.9130     0.2840 C.3   1 <1>  -0.0800 
 12 C        2.7550     5.1080     1.2650 C.3   1 <1>  -0.1600 
 13 C        1.1760     6.2890    -0.2870 C.3   1 <1>  -0.1600 
 14 C        3.9140     5.9050     0.6510 C.3   1 <1>   0.3430 
 15 C        2.3590     7.0600    -0.8820 C.3   1 <1>   0.3430 
 16 N        3.4220     7.2170     0.1510 N.4   1 <1>  -0.9590 
 17 C        4.5640     8.0450    -0.3470 C.3   1 <1>   0.3430 
 18 C        4.1670     9.5230    -0.5250 C.3   1 <1>  -0.0800 
 19 C        5.4070    10.3400    -0.9120 C.3   1 <1>  -0.2400 
 20 C        3.5360    10.1280     0.7420 C.3   1 <1>  -0.2400 
 21 H       -0.4060     2.6910    -1.0160 H     1 <1>   0.0800 
 22 H        1.1950     2.0170    -0.8180 H     1 <1>   0.0800 
 23 H       -2.1770    -2.7090    -2.0530 H     1 <1>   0.0800 
 24 H       -2.0470    -3.4410    -0.4700 H     1 <1>   0.0800 
 25 H       -0.6400    -3.3480    -1.5040 H     1 <1>   0.0800 
 26 H       -0.5640     2.4800     1.4390 H     1 <1>   0.4500 
 27 H        0.2360     4.6430     1.9530 H     1 <1>   0.0800 
 28 H       -0.5420     4.5840     0.4090 H     1 <1>   0.0800 
 29 H        2.3530     2.2210     1.3740 H     1 <1>   0.0800 
 30 H        1.1730     1.0730     1.9630 H     1 <1>   0.0800 
 31 H        1.4100     2.5820     2.8090 H     1 <1>   0.0800 
 32 H        1.9020     4.3050    -0.5420 H     1 <1>   0.0800 
 33 H        3.1470     4.1580     1.5760 H     1 <1>   0.0800 
 34 H        2.4200     5.6200     2.1510 H     1 <1>   0.0800 
 35 H        0.7250     6.8970     0.4800 H     1 <1>   0.0800 
 36 H        0.4390     6.1600    -1.0620 H     1 <1>   0.0800 
 37 H        4.3490     5.3460    -0.1630 H     1 <1>   0.0800 
 38 H        4.6790     6.0600     1.3970 H     1 <1>   0.0800 
 39 H        2.0220     8.0290    -1.2160 H     1 <1>   0.0800 
 40 H        2.7530     6.5280    -1.7330 H     1 <1>   0.0800 
 41 H        3.0250     7.7380     0.9440 H     1 <1>   0.4500 
 42 H        4.9280     7.6540    -1.2840 H     1 <1>   0.0800 
 43 H        5.3720     8.0020     0.3650 H     1 <1>   0.0800 
 44 H        3.4660     9.6080    -1.3390 H     1 <1>   0.0800 
 45 H        6.1460    10.3160    -0.1300 H     1 <1>   0.0800 
 46 H        5.1380    11.3670    -1.0890 H     1 <1>   0.0800 
 47 H        5.8500     9.9560    -1.8150 H     1 <1>   0.0800 
 48 H        4.1950    10.0220     1.5870 H     1 <1>   0.0800 
 49 H        2.5900     9.6740     0.9720 H     1 <1>   0.0800 
 50 H        3.3560    11.1800     0.5940 H     1 <1>   0.0800 
@<TRIPOS>BOND
  1   1   2  1   
  2   1   3  1   
  3   2   4  2   
  4   2   5  1   
  5   3   6  2   
  6   3   7  1   
  7   4   6  1   
  8   5   8  1   
  9   5  21  1   
 10   5  22  1   
 11   7  23  1   
 12   7  24  1   
 13   7  25  1   
 14   8   9  1   
 15   8  10  1   
 16   8  26  1   
 17   9  11  1   
 18   9  27  1   
 19   9  28  1   
 20  10  29  1   
 21  10  30  1   
 22  10  31  1   
 23  11  12  1   
 24  11  13  1   
 25  11  32  1   
 26  12  14  1   
 27  12  33  1   
 28  12  34  1   
 29  13  15  1   
 30  13  35  1   
 31  13  36  1   
 32  14  16  1   
 33  14  37  1   
 34  14  38  1   
 35  15  16  1   
 36  15  39  1   
 37  15  40  1   
 38  16  17  1   
 39  16  41  1   
 40  17  18  1   
 41  17  42  1   
 42  17  43  1   
 43  18  19  1   
 44  18  20  1   
 45  18  44  1   
 46  19  45  1   
 47  19  46  1   
 48  19  47  1   
 49  20  48  1   
 50  20  49  1   
 51  20  50  1   
@<TRIPOS>SUBSTRUCTURE
  1 ****  11 GROUP 4 **** **** 0

# MOE 2024.06 (io_trps.svl 2023.06)
