@<TRIPOS>MOLECULE
NONAME
53 56 1 0 0 
SMALL
USER_CHARGES


@<TRIPOS>ATOM
  1 O       -0.2060     2.3080    -4.0950 O.2   1 <1>  -0.5700 
  2 C       -0.0370     2.8310    -3.0180 C.2   1 <1>   0.5690 
  3 N       -0.9940     2.7610    -2.0320 N.am  1 <1>  -0.6600 
  4 C        1.2750     3.5830    -2.8130 C.3   1 <1>   0.0440 
  5 C       -0.8430     3.3870    -0.6830 C.3   1 <1>   0.1400 
  6 C       -2.2270     1.9480    -2.2500 C.3   1 <1>   0.1400 
  7 C        2.1120     3.1000    -1.6280 C.ar  1 <1>  -0.1440 
  8 C       -2.2180     3.7400    -0.1170 C.3   1 <1>  -0.1600 
  9 C       -2.7370     1.3850    -0.9220 C.3   1 <1>  -0.1600 
 10 C        2.1430     1.7820    -1.2530 C.ar  1 <1>  -0.1500 
 11 C        2.8650     4.0340    -0.9020 C.ar  1 <1>  -0.1500 
 12 C       -3.1070     2.4880     0.0960 C.3   1 <1>   0.2800 
 13 C        2.8960     1.3440    -0.1460 C.ar  1 <1>   0.0000 
 14 C        3.6100     3.6370     0.1740 C.ar  1 <1>  -0.1500 
 15 O       -2.8260     1.9190     1.3470 O.3   1 <1>  -0.5600 
 16 C       -4.6190     2.8080     0.0050 C.3   1 <1>  -0.1600 
 17 C        3.6440     2.2900     0.5840 C.ar  1 <1>   0.0000 
 18 C        2.9270    -0.0050     0.2630 C.ar  1 <1>  -0.1500 
 19 C       -3.2410     2.5590     2.5220 C.3   1 <1>   0.1200 
 20 C       -5.1980     3.5110     1.2340 C.3   1 <1>   0.2800 
 21 C        4.3940     1.8520     1.6940 C.ar  1 <1>  -0.1500 
 22 C        3.6630    -0.4030     1.3450 C.ar  1 <1>  -0.1500 
 23 C       -4.7540     2.7840     2.5010 C.3   1 <1>  -0.1600 
 24 O       -4.7150     4.7960     1.2810 O.3   1 <1>  -0.6800 
 25 C       -6.7180     3.6310     1.1570 C.3   1 <1>  -0.2400 
 26 C        4.4050     0.5360     2.0690 C.ar  1 <1>  -0.1500 
 27 H        1.0400     4.6230    -2.7000 H     1 <1>   0.0800 
 28 H        1.8680     3.4850    -3.7050 H     1 <1>   0.0800 
 29 H       -0.2500     4.2820    -0.7500 H     1 <1>   0.0800 
 30 H       -0.3440     2.6970    -0.0220 H     1 <1>   0.0800 
 31 H       -2.0120     1.1330    -2.9210 H     1 <1>   0.0800 
 32 H       -2.9810     2.5670    -2.7060 H     1 <1>   0.0800 
 33 H       -2.6910     4.4030    -0.8210 H     1 <1>   0.0800 
 34 H       -2.0810     4.2930     0.7890 H     1 <1>   0.0800 
 35 H       -1.9540     0.7660    -0.5170 H     1 <1>   0.0800 
 36 H       -3.5740     0.7410    -1.1150 H     1 <1>   0.0800 
 37 H        1.5820     1.0430    -1.7980 H     1 <1>   0.1500 
 38 H        2.8560     5.0690    -1.1990 H     1 <1>   0.1500 
 39 H        4.1870     4.3540     0.7290 H     1 <1>   0.1500 
 40 H       -5.1510     1.8800    -0.0990 H     1 <1>   0.0800 
 41 H       -4.8290     3.3810    -0.8800 H     1 <1>   0.0800 
 42 H        2.3540    -0.7220    -0.2980 H     1 <1>   0.1500 
 43 H       -2.7060     3.4830     2.6360 H     1 <1>   0.0800 
 44 H       -2.9770     1.9180     3.3450 H     1 <1>   0.0800 
 45 H        4.9640     2.5770     2.2460 H     1 <1>   0.1500 
 46 H        3.6810    -1.4340     1.6510 H     1 <1>   0.1500 
 47 H       -5.0570     3.3390     3.3710 H     1 <1>   0.0800 
 48 H       -5.2340     1.8230     2.5480 H     1 <1>   0.0800 
 49 H       -3.7430     4.7660     1.3040 H     1 <1>   0.4000 
 50 H       -7.1680     2.6560     1.1260 H     1 <1>   0.0800 
 51 H       -7.0050     4.1660     0.2700 H     1 <1>   0.0800 
 52 H       -7.0950     4.1520     2.0180 H     1 <1>   0.0800 
 53 H        4.9790     0.2070     2.9170 H     1 <1>   0.1500 
@<TRIPOS>BOND
  1   1   2  2   
  2   2   3  am  
  3   2   4  1   
  4   3   5  1   
  5   3   6  1   
  6   4   7  1   
  7   4  27  1   
  8   4  28  1   
  9   5   8  1   
 10   5  29  1   
 11   5  30  1   
 12   6   9  1   
 13   6  31  1   
 14   6  32  1   
 15   7  10  ar  
 16   7  11  ar  
 17   8  12  1   
 18   8  33  1   
 19   8  34  1   
 20   9  12  1   
 21   9  35  1   
 22   9  36  1   
 23  10  13  ar  
 24  10  37  1   
 25  11  14  ar  
 26  11  38  1   
 27  12  15  1   
 28  12  16  1   
 29  13  17  ar  
 30  13  18  ar  
 31  14  17  ar  
 32  14  39  1   
 33  15  19  1   
 34  16  20  1   
 35  16  40  1   
 36  16  41  1   
 37  17  21  ar  
 38  18  22  ar  
 39  18  42  1   
 40  19  23  1   
 41  19  43  1   
 42  19  44  1   
 43  20  23  1   
 44  20  24  1   
 45  20  25  1   
 46  21  26  ar  
 47  21  45  1   
 48  22  26  ar  
 49  22  46  1   
 50  23  47  1   
 51  23  48  1   
 52  24  49  1   
 53  25  50  1   
 54  25  51  1   
 55  25  52  1   
 56  26  53  1   
@<TRIPOS>SUBSTRUCTURE
  1 ****   5 GROUP 4 **** **** 0

# MOE 2024.06 (io_trps.svl 2023.06)
