@<TRIPOS>MOLECULE
NONAME
52 55 1 0 0 
SMALL
USER_CHARGES


@<TRIPOS>ATOM
  1 O        0.4460    -0.5870     0.4920 O.3   1 <1>  -0.3630 
  2 C        0.1410    -1.8880     0.2680 C.ar  1 <1>   0.0830 
  3 C        0.9650     0.2420    -0.5250 C.3   1 <1>   0.0400 
  4 C       -0.3260    -2.6200     1.3260 C.ar  1 <1>  -0.1500 
  5 C        0.2850    -2.5070    -0.9890 C.ar  1 <1>  -0.1500 
  6 C       -0.6700    -3.9780     1.1940 C.ar  1 <1>   0.0000 
  7 C       -0.0430    -3.8260    -1.1440 C.ar  1 <1>  -0.1500 
  8 C       -0.5300    -4.5940    -0.0660 C.ar  1 <1>   0.0000 
  9 C       -1.1470    -4.7460     2.2730 C.ar  1 <1>  -0.1500 
 10 C       -0.8850    -5.9510    -0.2010 C.ar  1 <1>  -0.1500 
 11 C       -1.4860    -6.0610     2.1160 C.ar  1 <1>  -0.1500 
 12 C       -1.3670    -6.6750     0.8600 C.ar  1 <1>  -0.1430 
 13 C       -1.7790    -8.1230     0.6940 C.3   1 <1>   0.4860 
 14 N       -3.1290    -8.2060     0.0570 N.4   1 <1>  -0.9590 
 15 C       -4.1950    -7.6260     0.9450 C.3   1 <1>   0.4230 
 16 C       -3.3500    -9.6060    -0.4300 C.3   1 <1>   0.2630 
 17 C       -5.5610    -8.3190     0.8460 C.3   1 <1>  -0.1600 
 18 C       -4.5330    -6.2180     0.4460 C.3   1 <1>  -0.1600 
 19 C       -6.2170    -7.7670    -0.4290 C.3   1 <1>  -0.0800 
 20 C       -5.5470    -6.4140    -0.6910 C.3   1 <1>  -0.0800 
 21 C       -7.7260    -7.5010    -0.3330 C.3   1 <1>  -0.1600 
 22 C       -6.6670    -5.3680    -0.7600 C.3   1 <1>  -0.1600 
 23 C       -7.9210    -6.1780    -1.0630 C.3   1 <1>   0.2000 
 24 O       -9.0360    -5.5290    -0.5870 O.3   1 <1>  -0.6800 
 25 H        1.1360     1.2160    -0.1040 H     1 <1>   0.0800 
 26 H        0.2450     0.3100    -1.3210 H     1 <1>   0.0800 
 27 H        1.8930    -0.1740    -0.8750 H     1 <1>   0.0800 
 28 H       -0.4310    -2.1460     2.2840 H     1 <1>   0.1500 
 29 H        0.6510    -1.9510    -1.8300 H     1 <1>   0.1500 
 30 H        0.0690    -4.2960    -2.1040 H     1 <1>   0.1500 
 31 H       -1.2350    -4.2680     3.2340 H     1 <1>   0.1500 
 32 H       -0.7640    -6.3960    -1.1730 H     1 <1>   0.1500 
 33 H       -1.8420    -6.6220     2.9640 H     1 <1>   0.1500 
 34 H       -1.7870    -8.6150     1.6530 H     1 <1>   0.0800 
 35 H       -1.0500    -8.6160     0.0710 H     1 <1>   0.0800 
 36 H       -3.0980    -7.5800    -0.7570 H     1 <1>   0.4500 
 37 H       -3.8570    -7.6040     1.9690 H     1 <1>   0.0800 
 38 H       -3.4140   -10.2870     0.4030 H     1 <1>   0.0800 
 39 H       -2.5380    -9.9150    -1.0680 H     1 <1>   0.0800 
 40 H       -4.2650    -9.6660    -0.9950 H     1 <1>   0.0800 
 41 H       -5.5350    -9.3920     0.8820 H     1 <1>   0.0800 
 42 H       -6.1320    -7.9970     1.7000 H     1 <1>   0.0800 
 43 H       -4.9990    -5.6910     1.2610 H     1 <1>   0.0800 
 44 H       -3.6850    -5.6390     0.1320 H     1 <1>   0.0800 
 45 H       -6.0250    -8.4160    -1.2670 H     1 <1>   0.0800 
 46 H       -5.0390    -6.4570    -1.6410 H     1 <1>   0.0800 
 47 H       -8.0320    -7.3950     0.6930 H     1 <1>   0.0800 
 48 H       -8.2970    -8.2850    -0.7970 H     1 <1>   0.0800 
 49 H       -6.4810    -4.6400    -1.5310 H     1 <1>   0.0800 
 50 H       -6.7790    -4.8650     0.1850 H     1 <1>   0.0800 
 51 H       -8.0340    -6.3340    -2.1240 H     1 <1>   0.0800 
 52 H       -8.9540    -5.3630     0.3700 H     1 <1>   0.4000 
@<TRIPOS>BOND
  1   1   2  1   
  2   1   3  1   
  3   2   4  ar  
  4   2   5  ar  
  5   3  25  1   
  6   3  26  1   
  7   3  27  1   
  8   4   6  ar  
  9   4  28  1   
 10   5   7  ar  
 11   5  29  1   
 12   6   8  ar  
 13   6   9  ar  
 14   7   8  ar  
 15   7  30  1   
 16   8  10  ar  
 17   9  11  ar  
 18   9  31  1   
 19  10  12  ar  
 20  10  32  1   
 21  11  12  ar  
 22  11  33  1   
 23  12  13  1   
 24  13  14  1   
 25  13  34  1   
 26  13  35  1   
 27  14  15  1   
 28  14  16  1   
 29  14  36  1   
 30  15  17  1   
 31  15  18  1   
 32  15  37  1   
 33  16  38  1   
 34  16  39  1   
 35  16  40  1   
 36  17  19  1   
 37  17  41  1   
 38  17  42  1   
 39  18  20  1   
 40  18  43  1   
 41  18  44  1   
 42  19  20  1   
 43  19  21  1   
 44  19  45  1   
 45  20  22  1   
 46  20  46  1   
 47  21  23  1   
 48  21  47  1   
 49  21  48  1   
 50  22  23  1   
 51  22  49  1   
 52  22  50  1   
 53  23  24  1   
 54  23  51  1   
 55  24  52  1   
@<TRIPOS>SUBSTRUCTURE
  1 ****  18 GROUP 4 **** **** 0

# MOE 2024.06 (io_trps.svl 2023.06)
