@<TRIPOS>MOLECULE
NONAME
51 54 1 0 0 
SMALL
USER_CHARGES


@<TRIPOS>ATOM
  1 O        0.4500    -0.0310    -0.0240 O.3   1 <1>  -0.6800 
  2 C        1.7060    -0.1670    -0.6000 C.3   1 <1>   0.2000 
  3 C        2.4200    -1.3950    -0.0470 C.3   1 <1>  -0.0800 
  4 C        2.6100     1.0090    -0.2280 C.3   1 <1>   0.2090 
  5 C        3.9010    -1.0520    -0.2140 C.3   1 <1>   0.2090 
  6 C        2.0160    -2.7110    -0.7320 C.3   1 <1>  -0.0170 
  7 N        3.9780     0.4320    -0.0980 N.pl3 1 <1>  -0.8380 
  8 C        2.8650    -3.8680    -0.2360 C.ar  1 <1>   0.1660 
  9 C        5.1200     1.1070     0.1390 C.ar  1 <1>   0.4100 
 10 N        3.9210    -4.1700    -0.9270 N.ar  1 <1>  -0.6200 
 11 C        2.4840    -4.5380     0.9370 C.ar  1 <1>  -0.1500 
 12 N        6.2510     0.3920     0.2130 N.ar  1 <1>  -0.6200 
 13 C        5.1550     2.4960     0.3070 C.ar  1 <1>  -0.1500 
 14 C        4.6950    -5.1940    -0.4840 C.ar  1 <1>   0.3100 
 15 C        3.2440    -5.5660     1.4070 C.ar  1 <1>  -0.1500 
 16 C        7.3650     1.0130     0.4430 C.ar  1 <1>   0.5280 
 17 C        6.3440     3.1190     0.5490 C.ar  1 <1>   0.2180 
 18 C        4.3970    -5.9230     0.6890 C.ar  1 <1>   0.0000 
 19 C        5.8410    -5.5450    -1.2150 C.ar  1 <1>  -0.1500 
 20 N        7.4480     2.3480     0.6140 N.ar  1 <1>  -0.1790 
 21 C        8.6360     0.1930     0.5240 C.3   1 <1>  -0.0970 
 22 C        6.4680     4.6250     0.7470 C.3   1 <1>  -0.0170 
 23 C        5.2590    -6.9650     1.0850 C.ar  1 <1>  -0.1500 
 24 C        6.6660    -6.5620    -0.8130 C.ar  1 <1>  -0.1500 
 25 C        7.3270     5.2850    -0.3410 C.3   1 <1>  -0.2400 
 26 C        6.3710    -7.2780     0.3510 C.ar  1 <1>  -0.1500 
 27 H       -0.1320    -0.7700    -0.2870 H     1 <1>   0.4000 
 28 H        1.5970    -0.2180    -1.6700 H     1 <1>   0.0800 
 29 H        2.2320    -1.4670     1.0110 H     1 <1>   0.0800 
 30 H        2.3060     1.4230     0.7190 H     1 <1>   0.0800 
 31 H        2.5830     1.7630    -0.9950 H     1 <1>   0.0800 
 32 H        4.2550    -1.3480    -1.1880 H     1 <1>   0.0800 
 33 H        4.4980    -1.5390     0.5400 H     1 <1>   0.0800 
 34 H        2.1400    -2.6210    -1.7980 H     1 <1>   0.0800 
 35 H        0.9800    -2.9210    -0.5410 H     1 <1>   0.0800 
 36 H        1.5950    -4.2280     1.4560 H     1 <1>   0.1500 
 37 H        4.2400     3.0520     0.2450 H     1 <1>   0.1500 
 38 H        2.9860    -6.1020     2.3030 H     1 <1>   0.1500 
 39 H        6.0490    -4.9840    -2.1070 H     1 <1>   0.1500 
 40 H        8.3590     2.7700     0.7890 H     1 <1>   0.4570 
 41 H        8.4100    -0.8500     0.3780 H     1 <1>   0.0800 
 42 H        9.0940     0.3030     1.4900 H     1 <1>   0.0800 
 43 H        9.3270     0.4960    -0.2410 H     1 <1>   0.0800 
 44 H        5.4880     5.0700     0.7270 H     1 <1>   0.0800 
 45 H        6.8900     4.8300     1.7160 H     1 <1>   0.0800 
 46 H        5.0260    -7.5130     1.9810 H     1 <1>   0.1500 
 47 H        7.5420    -6.8200    -1.3830 H     1 <1>   0.1500 
 48 H        6.9150     5.0880    -1.3170 H     1 <1>   0.0800 
 49 H        8.3430     4.9340    -0.3140 H     1 <1>   0.0800 
 50 H        7.3390     6.3520    -0.1960 H     1 <1>   0.0800 
 51 H        7.0280    -8.0750     0.6560 H     1 <1>   0.1500 
@<TRIPOS>BOND
  1   1   2  1   
  2   1  27  1   
  3   2   3  1   
  4   2   4  1   
  5   2  28  1   
  6   3   5  1   
  7   3   6  1   
  8   3  29  1   
  9   4   7  1   
 10   4  30  1   
 11   4  31  1   
 12   5   7  1   
 13   5  32  1   
 14   5  33  1   
 15   6   8  1   
 16   6  34  1   
 17   6  35  1   
 18   7   9  1   
 19   8  10  ar  
 20   8  11  ar  
 21   9  12  ar  
 22   9  13  ar  
 23  10  14  ar  
 24  11  15  ar  
 25  11  36  1   
 26  12  16  ar  
 27  13  17  ar  
 28  13  37  1   
 29  14  18  ar  
 30  14  19  ar  
 31  15  18  ar  
 32  15  38  1   
 33  16  20  ar  
 34  16  21  1   
 35  17  20  ar  
 36  17  22  1   
 37  18  23  ar  
 38  19  24  ar  
 39  19  39  1   
 40  20  40  1   
 41  21  41  1   
 42  21  42  1   
 43  21  43  1   
 44  22  25  1   
 45  22  44  1   
 46  22  45  1   
 47  23  26  ar  
 48  23  46  1   
 49  24  26  ar  
 50  24  47  1   
 51  25  48  1   
 52  25  49  1   
 53  25  50  1   
 54  26  51  1   
@<TRIPOS>SUBSTRUCTURE
  1 ****   5 GROUP 4 **** **** 0

# MOE 2024.06 (io_trps.svl 2023.06)
