@<TRIPOS>MOLECULE
NONAME
46 48 1 0 0 
SMALL
USER_CHARGES


@<TRIPOS>ATOM
  1 O       -4.0690     2.6540    -2.5790 O.2   1 <1>  -0.5700 
  2 C       -2.9550     2.2610    -2.3330 C.2   1 <1>   0.5690 
  3 N       -2.5740     0.9840    -2.5770 N.am  1 <1>  -0.7300 
  4 C       -1.9470     3.2020    -1.6950 C.3   1 <1>   0.0440 
  5 C       -3.4610    -0.1370    -2.9560 C.3   1 <1>   0.2200 
  6 C       -1.2250     2.5110    -0.5410 C.ar  1 <1>  -0.1440 
  7 C       -3.6290    -1.1030    -1.7890 C.3   1 <1>  -0.0800 
  8 C       -2.7180    -1.0270    -3.9430 C.3   1 <1>   0.1200 
  9 C       -0.0140     1.8660    -0.7480 C.ar  1 <1>  -0.1500 
 10 C       -1.8010     2.4890     0.7190 C.ar  1 <1>  -0.1500 
 11 C       -2.3640    -1.9630    -1.8750 C.3   1 <1>   0.1200 
 12 C       -3.8610    -0.4640    -0.4060 C.3   1 <1>  -0.0170 
 13 O       -1.8460    -1.7920    -3.1640 O.3   1 <1>  -0.5600 
 14 C        0.6020     1.1840     0.2870 C.ar  1 <1>  -0.1500 
 15 C       -1.1860     1.8090     1.7550 C.ar  1 <1>  -0.1500 
 16 C       -3.9160    -1.5130     0.6930 C.ar  1 <1>  -0.1440 
 17 C        0.0110     1.1450     1.5460 C.ar  1 <1>   0.0820 
 18 C       -2.8810    -1.6730     1.5930 C.ar  1 <1>  -0.1500 
 19 C       -4.9970    -2.3560     0.8510 C.ar  1 <1>  -0.1500 
 20 O        0.5340     0.4820     2.6070 O.3   1 <1>  -0.3620 
 21 C       -2.9720    -2.6440     2.5750 C.ar  1 <1>   0.1600 
 22 C       -4.9880    -3.2960     1.8680 C.ar  1 <1>   0.1600 
 23 C        1.7840    -0.1670     2.5220 C.3   1 <1>   0.0400 
 24 N       -4.0000    -3.4620     2.7330 N.ar  1 <1>  -0.6200 
 25 H       -1.6410     0.6790    -2.2880 H     1 <1>   0.3700 
 26 H       -1.2450     3.5170    -2.4440 H     1 <1>   0.0800 
 27 H       -2.4610     4.0750    -1.3350 H     1 <1>   0.0800 
 28 H       -4.3970     0.2280    -3.3460 H     1 <1>   0.0800 
 29 H       -4.4660    -1.7430    -2.0070 H     1 <1>   0.0800 
 30 H       -2.1600    -0.4660    -4.6710 H     1 <1>   0.0800 
 31 H       -3.3970    -1.7000    -4.4360 H     1 <1>   0.0800 
 32 H        0.4530     1.8840    -1.7180 H     1 <1>   0.1500 
 33 H       -2.7380     2.9900     0.8980 H     1 <1>   0.1500 
 34 H       -2.5760    -3.0070    -1.7160 H     1 <1>   0.0800 
 35 H       -1.6130    -1.6350    -1.1770 H     1 <1>   0.0800 
 36 H       -4.7800     0.0970    -0.4170 H     1 <1>   0.0800 
 37 H       -3.0690     0.2230    -0.1740 H     1 <1>   0.0800 
 38 H        1.5350     0.6890     0.0940 H     1 <1>   0.1500 
 39 H       -1.6350     1.7850     2.7320 H     1 <1>   0.1500 
 40 H       -2.0040    -1.0510     1.5430 H     1 <1>   0.1500 
 41 H       -5.8450    -2.2900     0.1950 H     1 <1>   0.1500 
 42 H       -2.1550    -2.7510     3.2680 H     1 <1>   0.1500 
 43 H       -5.8390    -3.9460     1.9760 H     1 <1>   0.1500 
 44 H        2.0050    -0.5940     3.4830 H     1 <1>   0.0800 
 45 H        2.5360     0.5570     2.2620 H     1 <1>   0.0800 
 46 H        1.7250    -0.9450     1.7810 H     1 <1>   0.0800 
@<TRIPOS>BOND
  1   1   2  2   
  2   2   3  am  
  3   2   4  1   
  4   3   5  1   
  5   3  25  1   
  6   4   6  1   
  7   4  26  1   
  8   4  27  1   
  9   5   7  1   
 10   5   8  1   
 11   5  28  1   
 12   6   9  ar  
 13   6  10  ar  
 14   7  11  1   
 15   7  12  1   
 16   7  29  1   
 17   8  13  1   
 18   8  30  1   
 19   8  31  1   
 20   9  14  ar  
 21   9  32  1   
 22  10  15  ar  
 23  10  33  1   
 24  11  13  1   
 25  11  34  1   
 26  11  35  1   
 27  12  16  1   
 28  12  36  1   
 29  12  37  1   
 30  14  17  ar  
 31  14  38  1   
 32  15  17  ar  
 33  15  39  1   
 34  16  18  ar  
 35  16  19  ar  
 36  17  20  1   
 37  18  21  ar  
 38  18  40  1   
 39  19  22  ar  
 40  19  41  1   
 41  20  23  1   
 42  21  24  ar  
 43  21  42  1   
 44  22  24  ar  
 45  22  43  1   
 46  23  44  1   
 47  23  45  1   
 48  23  46  1   
@<TRIPOS>SUBSTRUCTURE
  1 ****  12 GROUP 4 **** **** 0

# MOE 2024.06 (io_trps.svl 2023.06)
