@<TRIPOS>MOLECULE
NONAME
53 55 1 0 0 
SMALL
USER_CHARGES


@<TRIPOS>ATOM
  1 S        0.0500     0.7650    -1.3440 S.o2  1 <1>   1.3330 
  2 O       -0.6300    -0.3520    -1.9480 O.2   1 <1>  -0.6500 
  3 O        0.1500     2.0330    -2.0310 O.2   1 <1>  -0.6500 
  4 N        1.6290     0.2760    -0.9550 N.am  1 <1>  -0.8490 
  5 C       -0.6800     1.1050     0.2660 C.3   1 <1>  -0.0550 
  6 C        1.7000    -1.1250    -0.5070 C.3   1 <1>   0.1160 
  7 C        2.5360     0.4340    -2.1010 C.3   1 <1>   0.1160 
  8 C       -0.3290     2.4690     0.9130 C.3   1 <1>  -0.0800 
  9 C       -0.9620     3.6690     0.1850 C.3   1 <1>   0.2000 
 10 C        1.1800     2.7770     0.9830 C.3   1 <1>   0.3430 
 11 O       -1.6470     4.4310     1.1260 O.3   1 <1>  -0.6800 
 12 C        0.2230     4.4880    -0.3410 C.3   1 <1>   0.3430 
 13 N        1.3510     4.2020     0.5940 N.4   1 <1>  -0.9590 
 14 C        1.3170     5.1200     1.7670 C.3   1 <1>   0.4860 
 15 C        1.6490     6.5200     1.2900 C.ar  1 <1>  -0.1440 
 16 C        2.9530     6.8650     0.9670 C.ar  1 <1>  -0.1500 
 17 C        0.6490     7.4720     1.1640 C.ar  1 <1>  -0.1500 
 18 C        3.2420     8.1380     0.5140 C.ar  1 <1>  -0.1500 
 19 C        0.9490     8.7430     0.7110 C.ar  1 <1>  -0.1500 
 20 C        2.2510     9.1080     0.3710 C.ar  1 <1>   0.0530 
 21 C        2.5610    10.4370    -0.1090 C.2   1 <1>   0.0870 
 22 O        3.7730    10.7120    -0.5760 O.3   1 <1>  -0.2800 
 23 C        1.8030    11.5630    -0.1930 C.2   1 <1>  -0.1500 
 24 C        3.8100    11.9710    -0.9520 C.2   1 <1>  -0.0400 
 25 C        2.6150    12.5580    -0.7400 C.2   1 <1>  -0.1500 
 26 C        5.0980    12.5220    -1.5220 C.3   1 <1>  -0.0600 
 27 H       -1.7480     1.0570     0.1630 H     1 <1>   0.0800 
 28 H       -0.4060     0.3180     0.9420 H     1 <1>   0.0800 
 29 H        2.7080    -1.3720    -0.2180 H     1 <1>   0.0800 
 30 H        1.3950    -1.7920    -1.2980 H     1 <1>   0.0800 
 31 H        1.0580    -1.2870     0.3410 H     1 <1>   0.0800 
 32 H        3.5330     0.1240    -1.8380 H     1 <1>   0.0800 
 33 H        2.5760     1.4660    -2.4090 H     1 <1>   0.0800 
 34 H        2.1940    -0.1580    -2.9350 H     1 <1>   0.0800 
 35 H       -0.6980     2.4330     1.9230 H     1 <1>   0.0800 
 36 H       -1.6440     3.4070    -0.6080 H     1 <1>   0.0800 
 37 H        1.7210     2.1660     0.2830 H     1 <1>   0.0800 
 38 H        1.5720     2.5900     1.9700 H     1 <1>   0.0800 
 39 H       -2.5530     4.0840     1.2730 H     1 <1>   0.4000 
 40 H       -0.0170     5.5370    -0.3930 H     1 <1>   0.0800 
 41 H        0.4820     4.1440    -1.3280 H     1 <1>   0.0800 
 42 H        2.2380     4.3600     0.1010 H     1 <1>   0.4500 
 43 H        0.3420     5.1100     2.2270 H     1 <1>   0.0800 
 44 H        2.0450     4.8150     2.5010 H     1 <1>   0.0800 
 45 H        3.7570     6.1560     1.0660 H     1 <1>   0.1500 
 46 H       -0.3720     7.2320     1.4160 H     1 <1>   0.1500 
 47 H        4.2580     8.3940     0.2660 H     1 <1>   0.1500 
 48 H        0.1590     9.4670     0.6180 H     1 <1>   0.1500 
 49 H        0.7780    11.7010     0.0980 H     1 <1>   0.1500 
 50 H        2.3190    13.5730    -0.9380 H     1 <1>   0.1500 
 51 H        4.9760    13.5570    -1.7830 H     1 <1>   0.0800 
 52 H        5.3710    11.9680    -2.4010 H     1 <1>   0.0800 
 53 H        5.8840    12.4330    -0.7940 H     1 <1>   0.0800 
@<TRIPOS>BOND
  1   1   2  2   
  2   1   3  2   
  3   1   4  am  
  4   1   5  1   
  5   4   6  1   
  6   4   7  1   
  7   5   8  1   
  8   5  27  1   
  9   5  28  1   
 10   6  29  1   
 11   6  30  1   
 12   6  31  1   
 13   7  32  1   
 14   7  33  1   
 15   7  34  1   
 16   8   9  1   
 17   8  10  1   
 18   8  35  1   
 19   9  11  1   
 20   9  12  1   
 21   9  36  1   
 22  10  13  1   
 23  10  37  1   
 24  10  38  1   
 25  11  39  1   
 26  12  13  1   
 27  12  40  1   
 28  12  41  1   
 29  13  14  1   
 30  13  42  1   
 31  14  15  1   
 32  14  43  1   
 33  14  44  1   
 34  15  16  ar  
 35  15  17  ar  
 36  16  18  ar  
 37  16  45  1   
 38  17  19  ar  
 39  17  46  1   
 40  18  20  ar  
 41  18  47  1   
 42  19  20  ar  
 43  19  48  1   
 44  20  21  1   
 45  21  22  1   
 46  21  23  2   
 47  22  24  1   
 48  23  25  1   
 49  23  49  1   
 50  24  25  2   
 51  24  26  1   
 52  25  50  1   
 53  26  51  1   
 54  26  52  1   
 55  26  53  1   
@<TRIPOS>SUBSTRUCTURE
  1 ****  13 GROUP 4 **** **** 0

# MOE 2024.06 (io_trps.svl 2023.06)
