@<TRIPOS>MOLECULE
NONAME
50 51 1 0 0 
SMALL
USER_CHARGES


@<TRIPOS>ATOM
  1 S       -0.7950    -0.3080     0.5760 S.o2  1 <1>   1.4470 
  2 O       -2.1420     0.2060     0.5040 O.2   1 <1>  -0.6500 
  3 O        0.2350     0.4230     1.2810 O.2   1 <1>  -0.6500 
  4 N       -0.3260    -0.4340    -1.0310 N.am  1 <1>  -0.9140 
  5 C       -0.8080    -2.0390     1.1220 C.ar  1 <1>  -0.0090 
  6 C        0.4010     0.7060    -1.5670 C.3   1 <1>   0.1960 
  7 C       -1.8950    -2.8640     0.8610 C.ar  1 <1>  -0.1500 
  8 C        0.2780    -2.5980     1.7850 C.ar  1 <1>  -0.1500 
  9 C       -0.5340     1.9020    -1.7780 C.3   1 <1>  -0.1600 
 10 C       -1.8930    -4.1930     1.2410 C.ar  1 <1>  -0.1500 
 11 C        0.2810    -3.9290     2.1660 C.ar  1 <1>  -0.1500 
 12 C        0.1950     3.0590    -2.4700 C.3   1 <1>  -0.2400 
 13 C       -0.7990    -4.7620     1.8890 C.ar  1 <1>   0.0860 
 14 C       -0.7790    -6.1650     2.2580 C.2   1 <1>   0.5440 
 15 O       -0.6870    -6.4720     3.4300 O.2   1 <1>  -0.5700 
 16 N       -0.8650    -7.1670     1.3170 N.am  1 <1>  -0.6600 
 17 C       -0.5510    -6.9190    -0.1170 C.3   1 <1>   0.3200 
 18 C       -0.9740    -8.6100     1.7170 C.3   1 <1>   0.1400 
 19 C       -1.8170    -6.5750    -0.8710 C.2   1 <1>  -0.3320 
 20 C       -2.2630    -8.9280     2.4960 C.3   1 <1>   0.1200 
 21 N       -2.9890    -7.2190    -0.7180 N.pl3 1 <1>   0.0330 
 22 C       -2.0380    -5.6050    -1.7860 C.2   1 <1>   0.0770 
 23 O       -3.3520    -8.2940     1.9140 O.3   1 <1>  -0.6800 
 24 C       -3.8510    -6.5910    -1.5440 C.2   1 <1>   0.0060 
 25 N       -3.3170    -5.6170    -2.2040 N.2   1 <1>  -0.5650 
 26 C       -5.3030    -6.9980    -1.6630 C.3   1 <1>  -0.0600 
 27 H       -1.2070    -0.5000    -1.5360 H     1 <1>   0.4200 
 28 H        0.8210     0.4220    -2.5180 H     1 <1>   0.0800 
 29 H        1.2180     0.9730    -0.9170 H     1 <1>   0.0800 
 30 H       -2.7570    -2.4630     0.3520 H     1 <1>   0.1500 
 31 H        1.1340    -1.9810     2.0060 H     1 <1>   0.1500 
 32 H       -0.9020     2.2530    -0.8290 H     1 <1>   0.0800 
 33 H       -1.3730     1.6070    -2.3840 H     1 <1>   0.0800 
 34 H       -2.7540    -4.8020     1.0240 H     1 <1>   0.1500 
 35 H        1.1310    -4.3370     2.6870 H     1 <1>   0.1500 
 36 H        1.0280     3.3890    -1.8730 H     1 <1>   0.0800 
 37 H       -0.4770     3.8890    -2.6030 H     1 <1>   0.0800 
 38 H        0.5580     2.7560    -3.4370 H     1 <1>   0.0800 
 39 H       -0.0980    -7.7930    -0.5520 H     1 <1>   0.0800 
 40 H        0.1550    -6.1110    -0.2060 H     1 <1>   0.0800 
 41 H       -0.1250    -8.8710     2.3270 H     1 <1>   0.0800 
 42 H       -0.9490    -9.2370     0.8440 H     1 <1>   0.0800 
 43 H       -2.1810    -8.5880     3.5150 H     1 <1>   0.0800 
 44 H       -2.4480    -9.9880     2.5010 H     1 <1>   0.0800 
 45 H       -3.1970    -7.9790    -0.0540 H     1 <1>   0.2700 
 46 H       -1.3370    -4.8820    -2.1700 H     1 <1>   0.1500 
 47 H       -3.2400    -7.3300     2.0570 H     1 <1>   0.4000 
 48 H       -5.7870    -6.9240    -0.7070 H     1 <1>   0.0800 
 49 H       -5.3730    -8.0090    -2.0200 H     1 <1>   0.0800 
 50 H       -5.8070    -6.3510    -2.3580 H     1 <1>   0.0800 
@<TRIPOS>BOND
  1   1   2  2   
  2   1   3  2   
  3   1   4  am  
  4   1   5  1   
  5   4   6  1   
  6   4  27  1   
  7   5   7  ar  
  8   5   8  ar  
  9   6   9  1   
 10   6  28  1   
 11   6  29  1   
 12   7  10  ar  
 13   7  30  1   
 14   8  11  ar  
 15   8  31  1   
 16   9  12  1   
 17   9  32  1   
 18   9  33  1   
 19  10  13  ar  
 20  10  34  1   
 21  11  13  ar  
 22  11  35  1   
 23  12  36  1   
 24  12  37  1   
 25  12  38  1   
 26  13  14  1   
 27  14  15  2   
 28  14  16  am  
 29  16  17  1   
 30  16  18  1   
 31  17  19  1   
 32  17  39  1   
 33  17  40  1   
 34  18  20  1   
 35  18  41  1   
 36  18  42  1   
 37  19  21  1   
 38  19  22  2   
 39  20  23  1   
 40  20  43  1   
 41  20  44  1   
 42  21  24  1   
 43  21  45  1   
 44  22  25  1   
 45  22  46  1   
 46  23  47  1   
 47  24  25  2   
 48  24  26  1   
 49  26  48  1   
 50  26  49  1   
 51  26  50  1   
@<TRIPOS>SUBSTRUCTURE
  1 ****  10 GROUP 4 **** **** 0

# MOE 2024.06 (io_trps.svl 2023.06)
