@<TRIPOS>MOLECULE
NONAME
40 41 1 0 0 
SMALL
USER_CHARGES


@<TRIPOS>ATOM
  1 S       -0.6920     0.8670     2.1190 S.o2  1 <1>   1.4470 
  2 O       -0.3190     0.0190     3.2320 O.2   1 <1>  -0.6500 
  3 O       -1.4630     2.0620     2.3910 O.2   1 <1>  -0.6500 
  4 N       -1.6090    -0.0810     1.0530 N.am  1 <1>  -0.8490 
  5 C        0.7780     1.3170     1.1510 C.ar  1 <1>  -0.0090 
  6 C       -0.9120    -1.3260     0.6520 C.3   1 <1>   0.1960 
  7 C       -2.9560    -0.3400     1.5530 C.3   1 <1>   0.1960 
  8 C        0.8260     2.5030     0.4280 C.ar  1 <1>  -0.1500 
  9 C        1.8820     0.4760     1.0850 C.ar  1 <1>  -0.1500 
 10 C       -1.8530    -2.4300     0.1460 C.3   1 <1>  -0.1860 
 11 C       -3.8340    -0.8690     0.4130 C.3   1 <1>  -0.1600 
 12 C        1.9310     2.8540    -0.3300 C.ar  1 <1>  -0.1440 
 13 C        2.9930     0.8040     0.3300 C.ar  1 <1>  -0.1500 
 14 C       -1.0930    -3.3870    -0.7490 C.2   1 <1>   0.9060 
 15 C       -3.0700    -1.8040    -0.5340 C.3   1 <1>   0.2000 
 16 C        3.0270     1.9980    -0.3840 C.ar  1 <1>   0.0820 
 17 C        1.9350     4.1660    -1.1000 C.3   1 <1>  -0.0970 
 18 O        0.1350    -3.4590    -0.6390 O.co2 1 <1>  -0.9000 
 19 O       -1.7240    -4.0890    -1.5500 O.co2 1 <1>  -0.9000 
 20 O       -3.9200    -2.8100    -0.9380 O.3   1 <1>  -0.6800 
 21 O        4.0890     2.3740    -1.1440 O.3   1 <1>  -0.3630 
 22 C        5.1900     1.5180    -1.3490 C.3   1 <1>   0.0400 
 23 H       -0.2140    -1.0730    -0.1300 H     1 <1>   0.0800 
 24 H       -0.3430    -1.7330     1.4720 H     1 <1>   0.0800 
 25 H       -2.9080    -1.0590     2.3550 H     1 <1>   0.0800 
 26 H       -3.3960     0.5650     1.9390 H     1 <1>   0.0800 
 27 H       -0.0270     3.1600     0.4650 H     1 <1>   0.1500 
 28 H        1.8710    -0.4540     1.6300 H     1 <1>   0.1500 
 29 H       -2.1840    -3.0030     0.9910 H     1 <1>   0.0800 
 30 H       -4.2050    -0.0370    -0.1570 H     1 <1>   0.0800 
 31 H       -4.6760    -1.3790     0.8450 H     1 <1>   0.0800 
 32 H        3.8160     0.1160     0.3100 H     1 <1>   0.1500 
 33 H       -2.7490    -1.2700    -1.4130 H     1 <1>   0.0800 
 34 H        1.0270     4.7180    -0.9370 H     1 <1>   0.0800 
 35 H        2.0350     3.9690    -2.1520 H     1 <1>   0.0800 
 36 H        2.7660     4.7710    -0.7820 H     1 <1>   0.0800 
 37 H       -3.3240    -3.5080    -1.3440 H     1 <1>   0.4000 
 38 H        5.8740     2.0090    -2.0180 H     1 <1>   0.0800 
 39 H        4.8410     0.6010    -1.7910 H     1 <1>   0.0800 
 40 H        5.6710     1.3340    -0.4050 H     1 <1>   0.0800 
@<TRIPOS>BOND
  1   1   2  2   
  2   1   3  2   
  3   1   4  am  
  4   1   5  1   
  5   4   6  1   
  6   4   7  1   
  7   5   8  ar  
  8   5   9  ar  
  9   6  10  1   
 10   6  23  1   
 11   6  24  1   
 12   7  11  1   
 13   7  25  1   
 14   7  26  1   
 15   8  12  ar  
 16   8  27  1   
 17   9  13  ar  
 18   9  28  1   
 19  10  14  1   
 20  10  15  1   
 21  10  29  1   
 22  11  15  1   
 23  11  30  1   
 24  11  31  1   
 25  12  16  ar  
 26  12  17  1   
 27  13  16  ar  
 28  13  32  1   
 29  14  18  ar  
 30  14  19  ar  
 31  15  20  1   
 32  15  33  1   
 33  16  21  1   
 34  17  34  1   
 35  17  35  1   
 36  17  36  1   
 37  20  37  1   
 38  21  22  1   
 39  22  38  1   
 40  22  39  1   
 41  22  40  1   
@<TRIPOS>SUBSTRUCTURE
  1 ****   6 GROUP 4 **** **** 0

# MOE 2024.06 (io_trps.svl 2023.06)
