@<TRIPOS>MOLECULE
NONAME
63 65 1 0 0 
SMALL
USER_CHARGES


@<TRIPOS>ATOM
  1 O        0.8460    -0.1760     2.3180 O.2   1 <1>  -0.5700 
  2 C        0.9670    -1.2430     1.7670 C.2   1 <1>   0.5690 
  3 N        1.9900    -1.4470     0.8760 N.am  1 <1>  -0.6600 
  4 C       -0.0730    -2.2950     2.1310 C.3   1 <1>  -0.0990 
  5 C        2.1420    -2.7100     0.0980 C.3   1 <1>   0.1400 
  6 C        3.0930    -0.4120     0.7620 C.3   1 <1>   0.2010 
  7 C        0.1520    -3.7590     1.7270 C.3   1 <1>   0.1200 
  8 C        2.4400    -3.9470     0.9950 C.3   1 <1>   0.2800 
  9 C        3.7590    -0.3040    -0.6150 C.2   1 <1>   0.5690 
 10 O        1.4700    -4.1420     1.9820 O.3   1 <1>  -0.5600 
 11 C        2.5190    -5.2320     0.1650 C.3   1 <1>  -0.1600 
 12 C        3.7540    -3.8000     1.7670 C.3   1 <1>  -0.1600 
 13 O        4.7460    -0.9860    -0.8020 O.2   1 <1>  -0.5700 
 14 N        3.2340     0.5000    -1.6000 N.am  1 <1>  -0.6600 
 15 C        3.7390    -5.2320    -0.7570 C.3   1 <1>   0.3430 
 16 C        4.9580    -3.7820     0.8350 C.3   1 <1>   0.3430 
 17 C        1.9460     1.2420    -1.4700 C.3   1 <1>   0.0600 
 18 C        3.9440     0.7360    -2.8880 C.3   1 <1>   0.0600 
 19 N        5.0120    -5.0340     0.0120 N.4   1 <1>  -0.9590 
 20 C        6.2260    -5.0660    -0.8770 C.3   1 <1>   0.4230 
 21 C        6.2700    -6.3900    -1.6640 C.3   1 <1>  -0.1600 
 22 C        7.5120    -4.8800    -0.0450 C.3   1 <1>  -0.1600 
 23 C        7.5600    -6.5330    -2.4680 C.3   1 <1>   0.1400 
 24 C        8.7780    -5.0670    -0.8840 C.3   1 <1>   0.1400 
 25 N        8.7090    -6.3890    -1.5450 N.am  1 <1>  -0.6600 
 26 C        9.5750    -7.4340    -1.3300 C.2   1 <1>   0.5690 
 27 O        9.3790    -8.5270    -1.8010 O.2   1 <1>  -0.5700 
 28 C       10.8080    -7.2570    -0.4760 C.3   1 <1>  -0.1790 
 29 H       -1.0170    -1.9730     1.7340 H     1 <1>   0.0800 
 30 H       -0.1730    -2.2730     3.2010 H     1 <1>   0.0800 
 31 H        2.9230    -2.6120    -0.6260 H     1 <1>   0.0800 
 32 H        1.2480    -2.8690    -0.4770 H     1 <1>   0.0800 
 33 H        3.8560    -0.6510     1.4790 H     1 <1>   0.0800 
 34 H        2.7180     0.5590     1.0300 H     1 <1>   0.0800 
 35 H       -0.0990    -3.9430     0.6980 H     1 <1>   0.0800 
 36 H       -0.4810    -4.3860     2.3310 H     1 <1>   0.0800 
 37 H        1.6310    -5.3340    -0.4330 H     1 <1>   0.0800 
 38 H        2.5740    -6.0850     0.8190 H     1 <1>   0.0800 
 39 H        3.8630    -4.6130     2.4640 H     1 <1>   0.0800 
 40 H        3.7390    -2.8910     2.3400 H     1 <1>   0.0800 
 41 H        3.6380    -4.4470    -1.4900 H     1 <1>   0.0800 
 42 H        3.7660    -6.1740    -1.2800 H     1 <1>   0.0800 
 43 H        5.8480    -3.6890     1.4350 H     1 <1>   0.0800 
 44 H        4.9050    -2.9250     0.1870 H     1 <1>   0.0800 
 45 H        1.3100     0.7950    -0.7250 H     1 <1>   0.0800 
 46 H        1.4190     1.2280    -2.4080 H     1 <1>   0.0800 
 47 H        2.1420     2.2650    -1.1960 H     1 <1>   0.0800 
 48 H        4.9140     0.2690    -2.8850 H     1 <1>   0.0800 
 49 H        4.0770     1.7930    -3.0420 H     1 <1>   0.0800 
 50 H        3.3680     0.3310    -3.7010 H     1 <1>   0.0800 
 51 H        5.1040    -5.8240     0.6660 H     1 <1>   0.4500 
 52 H        6.1670    -4.2540    -1.5860 H     1 <1>   0.0800 
 53 H        5.4610    -6.4460    -2.3670 H     1 <1>   0.0800 
 54 H        6.2040    -7.2280    -0.9920 H     1 <1>   0.0800 
 55 H        7.5370    -5.5900     0.7620 H     1 <1>   0.0800 
 56 H        7.5580    -3.8880     0.3640 H     1 <1>   0.0800 
 57 H        7.6200    -5.7740    -3.2310 H     1 <1>   0.0800 
 58 H        7.5790    -7.4930    -2.9600 H     1 <1>   0.0800 
 59 H        9.6460    -4.9890    -0.2520 H     1 <1>   0.0800 
 60 H        8.8490    -4.2990    -1.6370 H     1 <1>   0.0800 
 61 H       11.4080    -6.4540    -0.8590 H     1 <1>   0.0800 
 62 H       11.3930    -8.1590    -0.4960 H     1 <1>   0.0800 
 63 H       10.5250    -7.0550     0.5390 H     1 <1>   0.0800 
@<TRIPOS>BOND
  1   1   2  2   
  2   2   3  am  
  3   2   4  1   
  4   3   5  1   
  5   3   6  1   
  6   4   7  1   
  7   4  29  1   
  8   4  30  1   
  9   5   8  1   
 10   5  31  1   
 11   5  32  1   
 12   6   9  1   
 13   6  33  1   
 14   6  34  1   
 15   7  10  1   
 16   7  35  1   
 17   7  36  1   
 18   8  10  1   
 19   8  11  1   
 20   8  12  1   
 21   9  13  2   
 22   9  14  am  
 23  11  15  1   
 24  11  37  1   
 25  11  38  1   
 26  12  16  1   
 27  12  39  1   
 28  12  40  1   
 29  14  17  1   
 30  14  18  1   
 31  15  19  1   
 32  15  41  1   
 33  15  42  1   
 34  16  19  1   
 35  16  43  1   
 36  16  44  1   
 37  17  45  1   
 38  17  46  1   
 39  17  47  1   
 40  18  48  1   
 41  18  49  1   
 42  18  50  1   
 43  19  20  1   
 44  19  51  1   
 45  20  21  1   
 46  20  22  1   
 47  20  52  1   
 48  21  23  1   
 49  21  53  1   
 50  21  54  1   
 51  22  24  1   
 52  22  55  1   
 53  22  56  1   
 54  23  25  1   
 55  23  57  1   
 56  23  58  1   
 57  24  25  1   
 58  24  59  1   
 59  24  60  1   
 60  25  26  am  
 61  26  27  2   
 62  26  28  1   
 63  28  61  1   
 64  28  62  1   
 65  28  63  1   
@<TRIPOS>SUBSTRUCTURE
  1 ****  16 GROUP 4 **** **** 0

# MOE 2024.06 (io_trps.svl 2023.06)
