@<TRIPOS>MOLECULE
NONAME
53 55 1 0 0 
SMALL
USER_CHARGES


@<TRIPOS>ATOM
  1 S       -1.3410    -0.3620    -0.5970 S.o2  1 <1>   1.3330 
  2 O       -0.0310    -0.3870    -1.1990 O.2   1 <1>  -0.6500 
  3 O       -2.5120    -0.6860    -1.3850 O.2   1 <1>  -0.6500 
  4 N       -1.5980     1.1930     0.0260 N.am  1 <1>  -0.8490 
  5 C       -1.3460    -1.4520     0.8370 C.3   1 <1>  -0.0550 
  6 C       -0.5170     1.6500     0.9130 C.3   1 <1>   0.1160 
  7 C       -1.7140     2.1710    -1.0660 C.3   1 <1>   0.1160 
  8 C       -2.6110    -1.4300     1.7310 C.3   1 <1>  -0.1600 
  9 C       -3.7780    -2.2860     1.2150 C.3   1 <1>   0.3430 
 10 N       -4.5750    -1.5990     0.1670 N.4   1 <1>  -0.9590 
 11 C       -5.4430    -0.5090     0.7350 C.3   1 <1>   0.3430 
 12 C       -5.3820    -2.5760    -0.6150 C.3   1 <1>   0.3430 
 13 C       -6.2060     0.2610    -0.3560 C.3   1 <1>   0.1430 
 14 C       -6.0890    -1.8600    -1.7680 C.3   1 <1>  -0.1600 
 15 C       -7.1600     1.2210     0.3120 C.ar  1 <1>   0.1670 
 16 C       -6.9810    -0.7110    -1.2690 C.3   1 <1>  -0.1600 
 17 C       -5.2930     1.2180    -1.1640 C.3   1 <1>  -0.1600 
 18 N       -7.9520     0.9110     1.3130 N.ar  1 <1>  -0.6200 
 19 C       -7.0950     2.4650    -0.2370 C.ar  1 <1>  -0.1430 
 20 C       -6.0850     2.5250    -1.3560 C.3   1 <1>  -0.0170 
 21 C       -8.7020     1.9200     1.7400 C.ar  1 <1>   0.4770 
 22 C       -7.9120     3.4350     0.2870 C.ar  1 <1>   0.1600 
 23 N       -8.7250     3.1660     1.2870 N.ar  1 <1>  -0.6200 
 24 C       -9.6380     1.6210     2.8860 C.3   1 <1>  -0.0970 
 25 H       -0.5060    -1.1900     1.4500 H     1 <1>   0.0800 
 26 H       -1.1700    -2.4580     0.5060 H     1 <1>   0.0800 
 27 H       -0.4420     1.0160     1.7790 H     1 <1>   0.0800 
 28 H       -0.7180     2.6520     1.2560 H     1 <1>   0.0800 
 29 H        0.4290     1.6460     0.3950 H     1 <1>   0.0800 
 30 H       -2.4860     1.8760    -1.7570 H     1 <1>   0.0800 
 31 H       -0.7860     2.2390    -1.6110 H     1 <1>   0.0800 
 32 H       -1.9620     3.1420    -0.6740 H     1 <1>   0.0800 
 33 H       -2.9190    -0.4190     1.9300 H     1 <1>   0.0800 
 34 H       -2.3230    -1.8530     2.6770 H     1 <1>   0.0800 
 35 H       -4.4280    -2.5330     2.0400 H     1 <1>   0.0800 
 36 H       -3.3840    -3.2110     0.8240 H     1 <1>   0.0800 
 37 H       -3.9240    -1.1600    -0.5170 H     1 <1>   0.4500 
 38 H       -4.8460     0.1910     1.2950 H     1 <1>   0.0800 
 39 H       -6.1640    -0.9400     1.4100 H     1 <1>   0.0800 
 40 H       -6.1170    -3.0400     0.0240 H     1 <1>   0.0800 
 41 H       -4.7420    -3.3460    -1.0150 H     1 <1>   0.0800 
 42 H       -6.6960    -2.5720    -2.3000 H     1 <1>   0.0800 
 43 H       -5.3510    -1.4920    -2.4610 H     1 <1>   0.0800 
 44 H       -7.4030    -0.1790    -2.1040 H     1 <1>   0.0800 
 45 H       -7.8030    -1.1290    -0.7110 H     1 <1>   0.0800 
 46 H       -4.9690     0.8080    -2.1040 H     1 <1>   0.0800 
 47 H       -4.4240     1.4470    -0.5740 H     1 <1>   0.0800 
 48 H       -6.5960     2.5290    -2.3040 H     1 <1>   0.0800 
 49 H       -5.4510     3.3920    -1.2780 H     1 <1>   0.0800 
 50 H       -7.9040     4.4370    -0.1090 H     1 <1>   0.1500 
 51 H       -9.7990     0.5620     2.9740 H     1 <1>   0.0800 
 52 H      -10.5830     2.1030     2.7180 H     1 <1>   0.0800 
 53 H       -9.2110     1.9910     3.7980 H     1 <1>   0.0800 
@<TRIPOS>BOND
  1   1   2  2   
  2   1   3  2   
  3   1   4  am  
  4   1   5  1   
  5   4   6  1   
  6   4   7  1   
  7   5   8  1   
  8   5  25  1   
  9   5  26  1   
 10   6  27  1   
 11   6  28  1   
 12   6  29  1   
 13   7  30  1   
 14   7  31  1   
 15   7  32  1   
 16   8   9  1   
 17   8  33  1   
 18   8  34  1   
 19   9  10  1   
 20   9  35  1   
 21   9  36  1   
 22  10  11  1   
 23  10  12  1   
 24  10  37  1   
 25  11  13  1   
 26  11  38  1   
 27  11  39  1   
 28  12  14  1   
 29  12  40  1   
 30  12  41  1   
 31  13  15  1   
 32  13  16  1   
 33  13  17  1   
 34  14  16  1   
 35  14  42  1   
 36  14  43  1   
 37  15  18  ar  
 38  15  19  ar  
 39  16  44  1   
 40  16  45  1   
 41  17  20  1   
 42  17  46  1   
 43  17  47  1   
 44  18  21  ar  
 45  19  20  1   
 46  19  22  ar  
 47  20  48  1   
 48  20  49  1   
 49  21  23  ar  
 50  21  24  1   
 51  22  23  ar  
 52  22  50  1   
 53  24  51  1   
 54  24  52  1   
 55  24  53  1   
@<TRIPOS>SUBSTRUCTURE
  1 ****  11 GROUP 4 **** **** 0

# MOE 2024.06 (io_trps.svl 2023.06)
