@<TRIPOS>MOLECULE
NONAME
49 52 1 0 0 
SMALL
USER_CHARGES


@<TRIPOS>ATOM
  1 F       -0.2750    -0.2270     0.6920 F     1 <1>  -0.3400 
  2 C        0.6980    -1.0730     0.3710 C.3   1 <1>   1.2000 
  3 F        1.3120    -0.5310    -0.6760 F     1 <1>  -0.3400 
  4 F        1.5680    -1.0450     1.3740 F     1 <1>  -0.3400 
  5 C        0.1430    -2.4710     0.0390 C.2   1 <1>   0.0060 
  6 N        0.4260    -3.6000     0.6140 N.2   1 <1>  -0.5650 
  7 N       -0.7580    -2.6040    -0.9730 N.pl3 1 <1>   0.0330 
  8 C       -0.3220    -4.5270    -0.0460 C.ar  1 <1>   0.2270 
  9 C       -1.0660    -3.9210    -1.0390 C.ar  1 <1>  -0.1520 
 10 C       -0.4110    -5.8990     0.1530 C.ar  1 <1>  -0.1500 
 11 C       -1.9130    -4.6670    -1.8590 C.ar  1 <1>  -0.1500 
 12 C       -1.2530    -6.6710    -0.6340 C.ar  1 <1>   0.0860 
 13 C       -1.9920    -6.0240    -1.6500 C.ar  1 <1>  -0.1500 
 14 C       -1.3630    -8.1010    -0.4240 C.2   1 <1>   0.5440 
 15 O       -0.3540    -8.7720    -0.3030 O.2   1 <1>  -0.5700 
 16 N       -2.5840    -8.7320    -0.3450 N.am  1 <1>  -0.6600 
 17 C       -3.8790    -8.0620    -0.0930 C.3   1 <1>   0.1400 
 18 C       -2.7070   -10.1930    -0.1510 C.3   1 <1>   0.1400 
 19 C       -4.7220    -9.0910     0.6720 C.3   1 <1>  -0.0800 
 20 C       -4.1740   -10.4530     0.2030 C.3   1 <1>  -0.0800 
 21 C       -6.2710    -8.9310     0.5650 C.3   1 <1>   0.2800 
 22 C       -4.9810   -10.9900    -0.9890 C.3   1 <1>  -0.1600 
 23 O       -6.6110    -8.3060    -0.6210 O.3   1 <1>  -0.6800 
 24 C       -6.9460   -10.3150     0.5370 C.3   1 <1>  -0.1600 
 25 C       -6.8650    -8.0790     1.7090 C.3   1 <1>  -0.1600 
 26 C       -6.4580   -11.2180    -0.6180 C.3   1 <1>  -0.1600 
 27 C       -6.3430    -6.6350     1.8030 C.3   1 <1>  -0.2400 
 28 H       -1.1360    -1.8640    -1.5730 H     1 <1>   0.2700 
 29 H        0.1840    -6.3520     0.9250 H     1 <1>   0.1500 
 30 H       -2.4840    -4.1880    -2.6360 H     1 <1>   0.1500 
 31 H       -2.6280    -6.6270    -2.2740 H     1 <1>   0.1500 
 32 H       -3.7470    -7.1590     0.4760 H     1 <1>   0.0800 
 33 H       -4.3190    -7.8240    -1.0450 H     1 <1>   0.0800 
 34 H       -2.4070   -10.7130    -1.0450 H     1 <1>   0.0800 
 35 H       -2.0670   -10.4930     0.6610 H     1 <1>   0.0800 
 36 H       -4.4520    -9.0070     1.7090 H     1 <1>   0.0800 
 37 H       -4.2210   -11.1750     1.0000 H     1 <1>   0.0800 
 38 H       -4.9290   -10.2720    -1.7910 H     1 <1>   0.0800 
 39 H       -4.5530   -11.9100    -1.3480 H     1 <1>   0.0800 
 40 H       -7.5800    -8.2980    -0.7120 H     1 <1>   0.4000 
 41 H       -6.7220   -10.8090     1.4660 H     1 <1>   0.0800 
 42 H       -8.0160   -10.2140     0.4890 H     1 <1>   0.0800 
 43 H       -7.9350    -8.0490     1.6010 H     1 <1>   0.0800 
 44 H       -6.6620    -8.5710     2.6440 H     1 <1>   0.0800 
 45 H       -6.6040   -12.2460    -0.3350 H     1 <1>   0.0800 
 46 H       -7.0580   -11.0360    -1.4930 H     1 <1>   0.0800 
 47 H       -6.4770    -6.1180     0.8690 H     1 <1>   0.0800 
 48 H       -5.3010    -6.6190     2.0650 H     1 <1>   0.0800 
 49 H       -6.8840    -6.1010     2.5650 H     1 <1>   0.0800 
@<TRIPOS>BOND
  1   1   2  1   
  2   2   3  1   
  3   2   4  1   
  4   2   5  1   
  5   5   6  2   
  6   5   7  1   
  7   6   8  1   
  8   7   9  1   
  9   7  28  1   
 10   8   9  ar  
 11   8  10  ar  
 12   9  11  ar  
 13  10  12  ar  
 14  10  29  1   
 15  11  13  ar  
 16  11  30  1   
 17  12  13  ar  
 18  12  14  1   
 19  13  31  1   
 20  14  15  2   
 21  14  16  am  
 22  16  17  1   
 23  16  18  1   
 24  17  19  1   
 25  17  32  1   
 26  17  33  1   
 27  18  20  1   
 28  18  34  1   
 29  18  35  1   
 30  19  20  1   
 31  19  21  1   
 32  19  36  1   
 33  20  22  1   
 34  20  37  1   
 35  21  23  1   
 36  21  24  1   
 37  21  25  1   
 38  22  26  1   
 39  22  38  1   
 40  22  39  1   
 41  23  40  1   
 42  24  26  1   
 43  24  41  1   
 44  24  42  1   
 45  25  27  1   
 46  25  43  1   
 47  25  44  1   
 48  26  45  1   
 49  26  46  1   
 50  27  47  1   
 51  27  48  1   
 52  27  49  1   
@<TRIPOS>SUBSTRUCTURE
  1 ****  12 GROUP 4 **** **** 0

# MOE 2024.06 (io_trps.svl 2023.06)
