@<TRIPOS>MOLECULE
NONAME
48 51 1 0 0 
SMALL
USER_CHARGES


@<TRIPOS>ATOM
  1 O        0.6730    -1.4240    -1.9740 O.3   1 <1>  -0.6800 
  2 C        0.1330    -1.9370    -0.8070 C.3   1 <1>   0.1200 
  3 C        1.1840    -2.0620     0.3360 C.3   1 <1>   0.0000 
  4 C        2.5510    -2.6810    -0.0890 C.3   1 <1>   0.4230 
  5 C        1.4360    -0.6600     0.9570 C.3   1 <1>  -0.1600 
  6 C        0.5730    -2.9760     1.4390 C.3   1 <1>  -0.1600 
  7 N        2.4300    -4.0780    -0.6880 N.4   1 <1>  -0.9590 
  8 C        3.4670    -1.7120    -0.8770 C.3   1 <1>   0.2090 
  9 C        2.3210     0.2660     0.1130 C.3   1 <1>   0.2090 
 10 C        1.0120    -4.4530     1.3380 C.3   1 <1>  -0.1600 
 11 C        1.3200    -4.8900    -0.0950 C.3   1 <1>   0.3430 
 12 C        2.3160    -4.0870    -2.1830 C.3   1 <1>   0.2630 
 13 N        3.6230    -0.4160    -0.1460 N.pl3 1 <1>  -0.8380 
 14 C        4.8390     0.1330     0.1500 C.ar  1 <1>   0.4100 
 15 N        5.8150    -0.7320     0.4140 N.ar  1 <1>  -0.6200 
 16 C        5.0810     1.5430     0.1790 C.ar  1 <1>   0.2270 
 17 C        7.0080    -0.2590     0.7310 C.ar  1 <1>   0.7710 
 18 N        4.2960     2.6350    -0.0850 N.2   1 <1>  -0.5650 
 19 C        6.3340     1.9760     0.5050 C.ar  1 <1>   0.1560 
 20 N        7.3050     1.0550     0.7890 N.ar  1 <1>  -0.1260 
 21 N        7.9440    -1.1670     0.9990 N.pl3 1 <1>  -0.9000 
 22 C        5.0640     3.6520     0.0880 C.2   1 <1>   0.0360 
 23 N        6.3300     3.3220     0.4540 N.pl3 1 <1>   0.0330 
 24 H       -0.0280    -1.0370    -2.5430 H     1 <1>   0.4000 
 25 H       -0.6680    -1.2840    -0.5000 H     1 <1>   0.0800 
 26 H       -0.2970    -2.8920    -1.0500 H     1 <1>   0.0800 
 27 H        3.0750    -2.8110     0.8430 H     1 <1>   0.0800 
 28 H        1.9280    -0.7610     1.9090 H     1 <1>   0.0800 
 29 H        0.4990    -0.1640     1.1440 H     1 <1>   0.0800 
 30 H        0.8530    -2.6320     2.4210 H     1 <1>   0.0800 
 31 H       -0.5030    -2.9190     1.4040 H     1 <1>   0.0800 
 32 H        3.3080    -4.5550    -0.4440 H     1 <1>   0.4500 
 33 H        3.0650    -1.4980    -1.8490 H     1 <1>   0.0800 
 34 H        4.4260    -2.1760    -1.0190 H     1 <1>   0.0800 
 35 H        2.4650     1.1760     0.6660 H     1 <1>   0.0800 
 36 H        1.8470     0.5160    -0.8210 H     1 <1>   0.0800 
 37 H        0.2330    -5.0800     1.7400 H     1 <1>   0.0800 
 38 H        1.8860    -4.6170     1.9450 H     1 <1>   0.0800 
 39 H        0.4280    -4.7680    -0.6870 H     1 <1>   0.0800 
 40 H        1.5830    -5.9360    -0.1100 H     1 <1>   0.0800 
 41 H        1.4160    -3.5840    -2.4950 H     1 <1>   0.0800 
 42 H        2.2860    -5.1000    -2.5510 H     1 <1>   0.0800 
 43 H        3.1590    -3.5880    -2.6330 H     1 <1>   0.0800 
 44 H        8.2550     1.3100     1.0400 H     1 <1>   0.4570 
 45 H        8.9210    -1.0280     1.2650 H     1 <1>   0.4000 
 46 H        7.6780    -2.1560     0.9510 H     1 <1>   0.4000 
 47 H        4.7540     4.6780    -0.0410 H     1 <1>   0.1500 
 48 H        7.0860     3.9910     0.6320 H     1 <1>   0.2700 
@<TRIPOS>BOND
  1   1   2  1   
  2   1  24  1   
  3   2   3  1   
  4   2  25  1   
  5   2  26  1   
  6   3   4  1   
  7   3   5  1   
  8   3   6  1   
  9   4   7  1   
 10   4   8  1   
 11   4  27  1   
 12   5   9  1   
 13   5  28  1   
 14   5  29  1   
 15   6  10  1   
 16   6  30  1   
 17   6  31  1   
 18   7  11  1   
 19   7  12  1   
 20   7  32  1   
 21   8  13  1   
 22   8  33  1   
 23   8  34  1   
 24   9  13  1   
 25   9  35  1   
 26   9  36  1   
 27  10  11  1   
 28  10  37  1   
 29  10  38  1   
 30  11  39  1   
 31  11  40  1   
 32  12  41  1   
 33  12  42  1   
 34  12  43  1   
 35  13  14  1   
 36  14  15  ar  
 37  14  16  ar  
 38  15  17  ar  
 39  16  18  1   
 40  16  19  ar  
 41  17  20  ar  
 42  17  21  1   
 43  18  22  2   
 44  19  20  ar  
 45  19  23  1   
 46  20  44  1   
 47  21  45  1   
 48  21  46  1   
 49  22  23  1   
 50  22  47  1   
 51  23  48  1   
@<TRIPOS>SUBSTRUCTURE
  1 ****  13 GROUP 4 **** **** 0

# MOE 2024.06 (io_trps.svl 2023.06)
