@<TRIPOS>MOLECULE
NONAME
53 55 1 0 0 
SMALL
USER_CHARGES


@<TRIPOS>ATOM
  1 O       -0.5100     0.2250    -0.1210 O.2   1 <1>  -0.5700 
  2 C       -1.5550     0.8120     0.0340 C.2   1 <1>   0.5690 
  3 N       -2.7290     0.1300     0.2280 N.am  1 <1>  -0.6600 
  4 C       -1.5530     2.3390     0.0010 C.3   1 <1>  -0.0990 
  5 C       -2.7530    -1.3630     0.3550 C.3   1 <1>   0.1400 
  6 C       -4.1010     0.7260     0.2530 C.3   1 <1>   0.1400 
  7 C       -0.1510     2.9770     0.0320 C.3   1 <1>  -0.1600 
  8 C       -3.7630    -1.9890    -0.6240 C.3   1 <1>   0.3440 
  9 C       -5.0430    -0.0100    -0.7300 C.3   1 <1>   0.2950 
 10 C       -0.2270     4.5100     0.0200 C.3   1 <1>  -0.1600 
 11 O       -5.0210    -1.3840    -0.4750 O.3   1 <1>  -0.5600 
 12 C       -3.8840    -3.4910    -0.3830 C.ar  1 <1>  -0.1430 
 13 C       -6.5160     0.4300    -0.6620 C.3   1 <1>  -0.1950 
 14 C        1.1760     5.1330     0.0510 C.3   1 <1>  -0.1600 
 15 C       -4.8060    -4.0100     0.5170 C.ar  1 <1>  -0.1500 
 16 C       -3.0470    -4.3640    -1.0650 C.ar  1 <1>  -0.1500 
 17 C       -6.9580     1.8180    -0.3050 C.3   1 <1>  -0.2000 
 18 C       -7.2560     0.6690     0.6180 C.3   1 <1>  -0.2000 
 19 C        1.1080     6.6600     0.0370 C.3   1 <1>   0.1200 
 20 C       -4.8900    -5.3750     0.7310 C.ar  1 <1>  -0.1500 
 21 C       -3.1290    -5.7290    -0.8520 C.ar  1 <1>  -0.1500 
 22 O        2.4090     7.1470     0.0690 O.3   1 <1>  -0.5600 
 23 C       -4.0510    -6.2360     0.0470 C.ar  1 <1>  -0.1500 
 24 C        2.4930     8.5350     0.0600 C.3   1 <1>   0.0400 
 25 H       -2.0580     2.6520    -0.8940 H     1 <1>   0.0800 
 26 H       -2.1070     2.6930     0.8500 H     1 <1>   0.0800 
 27 H       -1.7800    -1.7800     0.1640 H     1 <1>   0.0800 
 28 H       -3.0290    -1.6290     1.3600 H     1 <1>   0.0800 
 29 H       -4.4940     0.6480     1.2500 H     1 <1>   0.0800 
 30 H       -4.0710     1.7650    -0.0130 H     1 <1>   0.0800 
 31 H        0.3670     2.6480     0.9170 H     1 <1>   0.0800 
 32 H        0.4120     2.6380    -0.8220 H     1 <1>   0.0800 
 33 H       -3.4340    -1.8210    -1.6350 H     1 <1>   0.0800 
 34 H       -4.6890     0.1470    -1.7340 H     1 <1>   0.0800 
 35 H       -0.7850     4.8480     0.8760 H     1 <1>   0.0800 
 36 H       -0.7410     4.8360    -0.8690 H     1 <1>   0.0800 
 37 H       -7.0760    -0.0510    -1.4460 H     1 <1>   0.1000 
 38 H        1.7360     4.8030    -0.8060 H     1 <1>   0.0800 
 39 H        1.6910     4.8160     0.9410 H     1 <1>   0.0800 
 40 H       -5.4670    -3.3490     1.0520 H     1 <1>   0.1500 
 41 H       -2.3240    -3.9850    -1.7660 H     1 <1>   0.1500 
 42 H       -6.2550     2.5590     0.0310 H     1 <1>   0.1000 
 43 H       -7.7730     2.2550    -0.8570 H     1 <1>   0.1000 
 44 H       -8.2670     0.3060     0.6920 H     1 <1>   0.1000 
 45 H       -6.7330     0.5980     1.5550 H     1 <1>   0.1000 
 46 H        0.5820     7.0240     0.9030 H     1 <1>   0.0800 
 47 H        0.6290     7.0110    -0.8610 H     1 <1>   0.0800 
 48 H       -5.6100    -5.7650     1.4290 H     1 <1>   0.1500 
 49 H       -2.4760    -6.3970    -1.3850 H     1 <1>   0.1500 
 50 H       -4.1160    -7.2970     0.2130 H     1 <1>   0.1500 
 51 H        3.5340     8.8060     0.0860 H     1 <1>   0.0800 
 52 H        1.9940     8.9270     0.9290 H     1 <1>   0.0800 
 53 H        2.0420     8.9120    -0.8420 H     1 <1>   0.0800 
@<TRIPOS>BOND
  1   1   2  2   
  2   2   3  am  
  3   2   4  1   
  4   3   5  1   
  5   3   6  1   
  6   4   7  1   
  7   4  25  1   
  8   4  26  1   
  9   5   8  1   
 10   5  27  1   
 11   5  28  1   
 12   6   9  1   
 13   6  29  1   
 14   6  30  1   
 15   7  10  1   
 16   7  31  1   
 17   7  32  1   
 18   8  11  1   
 19   8  12  1   
 20   8  33  1   
 21   9  11  1   
 22   9  13  1   
 23   9  34  1   
 24  10  14  1   
 25  10  35  1   
 26  10  36  1   
 27  12  15  ar  
 28  12  16  ar  
 29  13  17  1   
 30  13  18  1   
 31  13  37  1   
 32  14  19  1   
 33  14  38  1   
 34  14  39  1   
 35  15  20  ar  
 36  15  40  1   
 37  16  21  ar  
 38  16  41  1   
 39  17  18  1   
 40  17  42  1   
 41  17  43  1   
 42  18  44  1   
 43  18  45  1   
 44  19  22  1   
 45  19  46  1   
 46  19  47  1   
 47  20  23  ar  
 48  20  48  1   
 49  21  23  ar  
 50  21  49  1   
 51  22  24  1   
 52  23  50  1   
 53  24  51  1   
 54  24  52  1   
 55  24  53  1   
@<TRIPOS>SUBSTRUCTURE
  1 ****   3 GROUP 4 **** **** 0

# MOE 2024.06 (io_trps.svl 2023.06)
