@<TRIPOS>MOLECULE
NONAME
49 51 1 0 0 
SMALL
USER_CHARGES


@<TRIPOS>ATOM
  1 O        1.0470    -0.1100     1.9280 O.2   1 <1>  -0.5700 
  2 C        1.4940    -0.5900     0.9130 C.2   1 <1>   0.5690 
  3 N        2.2010     0.1220    -0.0180 N.am  1 <1>  -0.4930 
  4 C        1.1960    -2.0780     0.6700 C.3   1 <1>   0.4040 
  5 C        2.4810     1.5140    -0.0250 C.2   1 <1>   0.0630 
  6 N       -0.1950    -2.4240     0.1480 N.4   1 <1>  -0.9590 
  7 C        3.2610     2.2080    -0.9540 C.2   1 <1>   0.1080 
  8 C        2.0670     2.4650     0.8370 C.2   1 <1>  -0.3020 
  9 C       -1.2620    -1.7770     0.9960 C.3   1 <1>   0.4230 
 10 C       -0.2980    -3.9130     0.0070 C.3   1 <1>   0.2630 
 11 N        3.3220     3.4750    -0.6950 N.2   1 <1>  -0.7070 
 12 C        3.9770     1.6080    -2.1450 C.3   1 <1>  -0.0590 
 13 N        2.5870     3.6360     0.4170 N.pl3 1 <1>   0.3140 
 14 C       -2.5900    -2.5430     1.0460 C.3   1 <1>  -0.1600 
 15 C       -1.6890    -0.4760     0.3090 C.3   1 <1>  -0.1600 
 16 C        2.4100     4.9500     1.0450 C.3   1 <1>   0.0160 
 17 C       -3.3010    -2.2300    -0.2790 C.3   1 <1>  -0.0800 
 18 C       -2.7360    -0.8820    -0.7410 C.3   1 <1>  -0.0800 
 19 C       -4.8240    -2.0650    -0.1840 C.3   1 <1>  -0.1600 
 20 C       -3.9290     0.0730    -0.8800 C.3   1 <1>  -0.1600 
 21 C       -5.1290    -0.8490    -1.0500 C.3   1 <1>   0.2000 
 22 O       -6.2740    -0.2260    -0.6110 O.3   1 <1>  -0.6800 
 23 H        2.6130    -0.3670    -0.8120 H     1 <1>   0.3700 
 24 H        1.3420    -2.5760     1.6130 H     1 <1>   0.0800 
 25 H        1.9370    -2.4600    -0.0110 H     1 <1>   0.0800 
 26 H       -0.3160    -2.0040    -0.7830 H     1 <1>   0.4500 
 27 H        1.4480     2.3790     1.7100 H     1 <1>   0.1500 
 28 H       -0.8920    -1.5920     1.9930 H     1 <1>   0.0800 
 29 H       -0.2450    -4.3850     0.9750 H     1 <1>   0.0800 
 30 H        0.5030    -4.2910    -0.6070 H     1 <1>   0.0800 
 31 H       -1.2330    -4.1830    -0.4560 H     1 <1>   0.0800 
 32 H        4.6270     0.8160    -1.8240 H     1 <1>   0.0800 
 33 H        4.5710     2.3640    -2.6260 H     1 <1>   0.0800 
 34 H        3.2620     1.2330    -2.8530 H     1 <1>   0.0800 
 35 H       -2.5090    -3.5950     1.2490 H     1 <1>   0.0800 
 36 H       -3.1570    -2.1190     1.8560 H     1 <1>   0.0800 
 37 H       -2.1460     0.1450     1.0600 H     1 <1>   0.0800 
 38 H       -0.8820     0.0850    -0.1230 H     1 <1>   0.0800 
 39 H        2.3740     4.8340     2.1110 H     1 <1>   0.0800 
 40 H        1.4970     5.3870     0.6900 H     1 <1>   0.0800 
 41 H        3.2390     5.5790     0.7770 H     1 <1>   0.0800 
 42 H       -3.0670    -2.9770    -1.0190 H     1 <1>   0.0800 
 43 H       -2.2710    -1.0130    -1.7040 H     1 <1>   0.0800 
 44 H       -5.1260    -1.8720     0.8310 H     1 <1>   0.0800 
 45 H       -5.3390    -2.9360    -0.5490 H     1 <1>   0.0800 
 46 H       -3.8180     0.7240    -1.7290 H     1 <1>   0.0800 
 47 H       -4.0500     0.6640     0.0110 H     1 <1>   0.0800 
 48 H       -5.2600    -1.1310    -2.0820 H     1 <1>   0.0800 
 49 H       -6.1730     0.0610     0.3150 H     1 <1>   0.4000 
@<TRIPOS>BOND
  1   1   2  2   
  2   2   3  am  
  3   2   4  1   
  4   3   5  1   
  5   3  23  1   
  6   4   6  1   
  7   4  24  1   
  8   4  25  1   
  9   5   7  1   
 10   5   8  2   
 11   6   9  1   
 12   6  10  1   
 13   6  26  1   
 14   7  11  2   
 15   7  12  1   
 16   8  13  1   
 17   8  27  1   
 18   9  14  1   
 19   9  15  1   
 20   9  28  1   
 21  10  29  1   
 22  10  30  1   
 23  10  31  1   
 24  11  13  1   
 25  12  32  1   
 26  12  33  1   
 27  12  34  1   
 28  13  16  1   
 29  14  17  1   
 30  14  35  1   
 31  14  36  1   
 32  15  18  1   
 33  15  37  1   
 34  15  38  1   
 35  16  39  1   
 36  16  40  1   
 37  16  41  1   
 38  17  18  1   
 39  17  19  1   
 40  17  42  1   
 41  18  20  1   
 42  18  43  1   
 43  19  21  1   
 44  19  44  1   
 45  19  45  1   
 46  20  21  1   
 47  20  46  1   
 48  20  47  1   
 49  21  22  1   
 50  21  48  1   
 51  22  49  1   
@<TRIPOS>SUBSTRUCTURE
  1 ****  15 GROUP 4 **** **** 0

# MOE 2024.06 (io_trps.svl 2023.06)
