@<TRIPOS>MOLECULE
NONAME
47 49 1 0 0 
SMALL
USER_CHARGES


@<TRIPOS>ATOM
  1 CL      -0.8240    -0.9200    -0.4550 Cl    1 <1>  -0.1770 
  2 C       -2.1090    -0.0510     0.3600 C.ar  1 <1>   0.1770 
  3 C       -1.8700     0.4780     1.6220 C.ar  1 <1>   0.0830 
  4 C       -3.3480     0.0740    -0.2490 C.ar  1 <1>  -0.1440 
  5 O       -0.6680     0.3570     2.2160 O.3   1 <1>  -0.5320 
  6 C       -2.8870     1.1380     2.2890 C.ar  1 <1>  -0.1500 
  7 C       -4.3610     0.7410     0.4310 C.ar  1 <1>  -0.1500 
  8 C       -3.6010    -0.5270    -1.6190 C.3   1 <1>   0.4860 
  9 C       -4.1290     1.2670     1.6920 C.ar  1 <1>  -0.1500 
 10 N       -4.6620    -1.5560    -1.5010 N.4   1 <1>  -0.9590 
 11 C       -4.4720    -2.5560    -0.3800 C.3   1 <1>   0.3430 
 12 C       -5.1040    -2.1530    -2.7840 C.3   1 <1>   0.3430 
 13 C       -5.5530    -3.6910    -0.3370 C.3   1 <1>   0.4230 
 14 C       -6.4040    -2.9610    -2.5770 C.3   1 <1>  -0.1600 
 15 N       -5.9210    -4.1420     1.0550 N.4   1 <1>  -0.9590 
 16 C       -6.8160    -3.2270    -1.0910 C.3   1 <1>  -0.1060 
 17 C       -6.8710    -5.2880     1.0490 C.3   1 <1>   0.3430 
 18 C       -4.8000    -4.3570     2.0150 C.3   1 <1>   0.2630 
 19 C       -7.2610    -1.9330    -0.3780 C.2   1 <1>   0.9060 
 20 C       -7.9120    -4.3240    -1.0710 C.3   1 <1>  -0.1600 
 21 C       -8.1640    -4.8850     0.3370 C.3   1 <1>  -0.1600 
 22 O       -7.1900    -0.8650    -0.9920 O.co2 1 <1>  -0.9000 
 23 O       -7.3750    -1.9470     0.8500 O.co2 1 <1>  -0.9000 
 24 H        0.0130    -0.0460     1.6420 H     1 <1>   0.4500 
 25 H       -2.7030     1.5480     3.2670 H     1 <1>   0.1500 
 26 H       -5.3450     0.8560    -0.0030 H     1 <1>   0.1500 
 27 H       -2.7010    -0.9680    -2.0140 H     1 <1>   0.0800 
 28 H       -3.9220     0.2510    -2.2930 H     1 <1>   0.0800 
 29 H       -4.9240     1.7790     2.2100 H     1 <1>   0.1500 
 30 H       -5.5140    -0.9970    -1.2180 H     1 <1>   0.4500 
 31 H       -3.4970    -3.0050    -0.4610 H     1 <1>   0.0800 
 32 H       -4.5230    -2.0190     0.5530 H     1 <1>   0.0800 
 33 H       -5.2900    -1.3730    -3.5060 H     1 <1>   0.0800 
 34 H       -4.3310    -2.7960    -3.1720 H     1 <1>   0.0800 
 35 H       -5.1500    -4.5390    -0.8630 H     1 <1>   0.0800 
 36 H       -7.2060    -2.4350    -3.0670 H     1 <1>   0.0800 
 37 H       -6.2900    -3.8900    -3.1070 H     1 <1>   0.0800 
 38 H       -6.5060    -3.3290     1.3990 H     1 <1>   0.4500 
 39 H       -6.4260    -6.1320     0.5480 H     1 <1>   0.0800 
 40 H       -7.1050    -5.5760     2.0610 H     1 <1>   0.0800 
 41 H       -4.1600    -5.1550     1.6770 H     1 <1>   0.0800 
 42 H       -5.1940    -4.6190     2.9850 H     1 <1>   0.0800 
 43 H       -4.2180    -3.4570     2.1250 H     1 <1>   0.0800 
 44 H       -8.8320    -3.9190    -1.4610 H     1 <1>   0.0800 
 45 H       -7.6240    -5.1430    -1.7090 H     1 <1>   0.0800 
 46 H       -8.8090    -5.7430     0.2690 H     1 <1>   0.0800 
 47 H       -8.6810    -4.1540     0.9360 H     1 <1>   0.0800 
@<TRIPOS>BOND
  1   1   2  1   
  2   2   3  ar  
  3   2   4  ar  
  4   3   5  1   
  5   3   6  ar  
  6   4   7  ar  
  7   4   8  1   
  8   5  24  1   
  9   6   9  ar  
 10   6  25  1   
 11   7   9  ar  
 12   7  26  1   
 13   8  10  1   
 14   8  27  1   
 15   8  28  1   
 16   9  29  1   
 17  10  11  1   
 18  10  12  1   
 19  10  30  1   
 20  11  13  1   
 21  11  31  1   
 22  11  32  1   
 23  12  14  1   
 24  12  33  1   
 25  12  34  1   
 26  13  15  1   
 27  13  16  1   
 28  13  35  1   
 29  14  16  1   
 30  14  36  1   
 31  14  37  1   
 32  15  17  1   
 33  15  18  1   
 34  15  38  1   
 35  16  19  1   
 36  16  20  1   
 37  17  21  1   
 38  17  39  1   
 39  17  40  1   
 40  18  41  1   
 41  18  42  1   
 42  18  43  1   
 43  19  22  ar  
 44  19  23  ar  
 45  20  21  1   
 46  20  44  1   
 47  20  45  1   
 48  21  46  1   
 49  21  47  1   
@<TRIPOS>SUBSTRUCTURE
  1 ****  11 GROUP 4 **** **** 0

# MOE 2024.06 (io_trps.svl 2023.06)
