@<TRIPOS>MOLECULE
NONAME
46 47 1 0 0 
SMALL
USER_CHARGES


@<TRIPOS>ATOM
  1 O       -0.4030     0.1120    -0.1390 O.2   1 <1>  -0.5700 
  2 C       -1.4180     0.7320     0.0750 C.2   1 <1>   0.5690 
  3 N       -2.5970     0.0920     0.3560 N.am  1 <1>  -0.6600 
  4 C       -1.3640     2.2490     0.0060 C.3   1 <1>  -0.0990 
  5 C       -2.6560    -1.3940     0.5350 C.3   1 <1>   0.1400 
  6 C       -3.9470     0.7330     0.4370 C.3   1 <1>   0.1400 
  7 C        0.0640     2.7880     0.1120 C.3   1 <1>   0.1200 
  8 C       -3.7370    -2.0220    -0.3620 C.3   1 <1>   0.3440 
  9 C       -4.9630    -0.0010    -0.4710 C.3   1 <1>   0.2000 
 10 O        0.0190     4.1710     0.0450 O.3   1 <1>  -0.6800 
 11 O       -4.9640    -1.3710    -0.1610 O.3   1 <1>  -0.5600 
 12 C       -3.8920    -3.5100    -0.0570 C.ar  1 <1>  -0.1430 
 13 C       -6.4220     0.5420    -0.3890 C.3   1 <1>   0.0000 
 14 C       -3.1340    -4.4350    -0.7610 C.ar  1 <1>  -0.1500 
 15 C       -4.7680    -3.9620     0.9210 C.ar  1 <1>  -0.1500 
 16 C       -7.0270     0.3730     1.0180 C.3   1 <1>  -0.2400 
 17 C       -6.4770     2.0340    -0.7660 C.3   1 <1>  -0.2400 
 18 C       -7.3100    -0.2210    -1.3890 C.3   1 <1>  -0.2400 
 19 C       -3.2480    -5.7880    -0.4920 C.ar  1 <1>  -0.1500 
 20 C       -4.8830    -5.3150     1.1910 C.ar  1 <1>  -0.1500 
 21 C       -4.1230    -6.2290     0.4850 C.ar  1 <1>  -0.1500 
 22 H       -1.7990     2.5580    -0.9250 H     1 <1>   0.0800 
 23 H       -1.9320     2.6530     0.8230 H     1 <1>   0.0800 
 24 H       -1.7080    -1.8460     0.3050 H     1 <1>   0.0800 
 25 H       -2.8830    -1.6180     1.5630 H     1 <1>   0.0800 
 26 H       -4.2840     0.6990     1.4580 H     1 <1>   0.0800 
 27 H       -3.8930     1.7620     0.1390 H     1 <1>   0.0800 
 28 H        0.6860     2.4230    -0.6890 H     1 <1>   0.0800 
 29 H        0.5040     2.5120     1.0550 H     1 <1>   0.0800 
 30 H       -3.4630    -1.9000    -1.3950 H     1 <1>   0.0800 
 31 H       -4.6330     0.0970    -1.4910 H     1 <1>   0.0800 
 32 H       -0.1790     4.4680    -0.8640 H     1 <1>   0.4000 
 33 H       -2.4490    -4.1080    -1.5230 H     1 <1>   0.1500 
 34 H       -5.3660    -3.2590     1.4740 H     1 <1>   0.1500 
 35 H       -8.0540     0.6940     1.0270 H     1 <1>   0.0800 
 36 H       -6.4930     0.9510     1.7480 H     1 <1>   0.0800 
 37 H       -6.9990    -0.6610     1.3160 H     1 <1>   0.0800 
 38 H       -7.4980     2.3730    -0.8060 H     1 <1>   0.0800 
 39 H       -6.0330     2.1970    -1.7320 H     1 <1>   0.0800 
 40 H       -5.9630     2.6410    -0.0420 H     1 <1>   0.0800 
 41 H       -8.3170     0.1560    -1.3750 H     1 <1>   0.0800 
 42 H       -7.3450    -1.2680    -1.1420 H     1 <1>   0.0800 
 43 H       -6.9250    -0.1260    -2.3890 H     1 <1>   0.0800 
 44 H       -2.6560    -6.4980    -1.0430 H     1 <1>   0.1500 
 45 H       -5.5660    -5.6540     1.9510 H     1 <1>   0.1500 
 46 H       -4.2120    -7.2810     0.6940 H     1 <1>   0.1500 
@<TRIPOS>BOND
  1   1   2  2   
  2   2   3  am  
  3   2   4  1   
  4   3   5  1   
  5   3   6  1   
  6   4   7  1   
  7   4  22  1   
  8   4  23  1   
  9   5   8  1   
 10   5  24  1   
 11   5  25  1   
 12   6   9  1   
 13   6  26  1   
 14   6  27  1   
 15   7  10  1   
 16   7  28  1   
 17   7  29  1   
 18   8  11  1   
 19   8  12  1   
 20   8  30  1   
 21   9  11  1   
 22   9  13  1   
 23   9  31  1   
 24  10  32  1   
 25  12  14  ar  
 26  12  15  ar  
 27  13  16  1   
 28  13  17  1   
 29  13  18  1   
 30  14  19  ar  
 31  14  33  1   
 32  15  20  ar  
 33  15  34  1   
 34  16  35  1   
 35  16  36  1   
 36  16  37  1   
 37  17  38  1   
 38  17  39  1   
 39  17  40  1   
 40  18  41  1   
 41  18  42  1   
 42  18  43  1   
 43  19  21  ar  
 44  19  44  1   
 45  20  21  ar  
 46  20  45  1   
 47  21  46  1   
@<TRIPOS>SUBSTRUCTURE
  1 ****   8 GROUP 4 **** **** 0

# MOE 2024.06 (io_trps.svl 2023.06)
