@<TRIPOS>MOLECULE
NONAME
54 56 1 0 0 
SMALL
USER_CHARGES


@<TRIPOS>ATOM
  1 S       -0.4520     0.2410     1.5810 S.o2  1 <1>   1.4470 
  2 O       -0.1210    -1.1620     1.7400 O.2   1 <1>  -0.6500 
  3 O       -1.0320     0.9510     2.6980 O.2   1 <1>  -0.6500 
  4 N       -1.5670     0.3120     0.2910 N.am  1 <1>  -0.8490 
  5 C        0.9820     1.1420     0.9360 C.ar  1 <1>  -0.0090 
  6 C       -1.5540    -0.8690    -0.5910 C.3   1 <1>   0.1960 
  7 C       -2.9260     0.7460     0.6450 C.3   1 <1>   0.1960 
  8 C        0.8300     2.3600     0.2830 C.ar  1 <1>  -0.1500 
  9 C        2.2700     0.6420     1.0840 C.ar  1 <1>  -0.1500 
 10 C       -2.3260    -2.0570     0.0430 C.3   1 <1>   0.4230 
 11 C       -3.7460    -0.4110     1.2480 C.3   1 <1>  -0.1600 
 12 C        1.9160     3.0560    -0.2230 C.ar  1 <1>  -0.1440 
 13 C        3.3670     1.3230     0.5870 C.ar  1 <1>  -0.1500 
 14 N       -2.0940    -3.4040    -0.6190 N.4   1 <1>  -0.9590 
 15 C       -3.8040    -1.6750     0.3470 C.3   1 <1>   0.0000 
 16 C        3.1970     2.5350    -0.0740 C.ar  1 <1>   0.0830 
 17 C        1.7000     4.3850    -0.9330 C.3   1 <1>  -0.0970 
 18 C       -3.1520    -4.4110    -0.2870 C.3   1 <1>   0.3430 
 19 C       -1.9020    -3.3600    -2.1030 C.3   1 <1>   0.2630 
 20 C       -4.5000    -2.8150     1.1490 C.3   1 <1>  -0.1600 
 21 C       -4.6470    -1.2990    -0.9080 C.3   1 <1>   0.1200 
 22 O        4.2330     3.2470    -0.5880 O.3   1 <1>  -0.3630 
 23 C       -3.7420    -4.1550     1.1000 C.3   1 <1>  -0.1600 
 24 O       -4.8070    -2.3660    -1.7780 O.3   1 <1>  -0.6800 
 25 C        5.5700     2.8210    -0.4530 C.3   1 <1>   0.0400 
 26 H       -2.0010    -0.6010    -1.5320 H     1 <1>   0.0800 
 27 H       -0.5330    -1.1540    -0.7790 H     1 <1>   0.0800 
 28 H       -2.8910     1.5730     1.3370 H     1 <1>   0.0800 
 29 H       -3.4130     1.1160    -0.2410 H     1 <1>   0.0800 
 30 H       -0.1600     2.7670     0.1710 H     1 <1>   0.1500 
 31 H        2.4200    -0.2940     1.5960 H     1 <1>   0.1500 
 32 H       -1.8980    -2.1730     1.0220 H     1 <1>   0.0800 
 33 H       -3.3110    -0.6570     2.2030 H     1 <1>   0.0800 
 34 H       -4.7430    -0.0570     1.4500 H     1 <1>   0.0800 
 35 H        4.3420     0.8950     0.7240 H     1 <1>   0.1500 
 36 H       -1.2210    -3.7540    -0.2000 H     1 <1>   0.4500 
 37 H        0.6580     4.6440    -0.9730 H     1 <1>   0.0800 
 38 H        2.0780     4.3270    -1.9380 H     1 <1>   0.0800 
 39 H        2.2280     5.1640    -0.4130 H     1 <1>   0.0800 
 40 H       -3.9490    -4.3560    -1.0110 H     1 <1>   0.0800 
 41 H       -2.7360    -5.4050    -0.3290 H     1 <1>   0.0800 
 42 H       -2.7750    -2.9550    -2.5860 H     1 <1>   0.0800 
 43 H       -1.7320    -4.3530    -2.4860 H     1 <1>   0.0800 
 44 H       -1.0520    -2.7480    -2.3570 H     1 <1>   0.0800 
 45 H       -4.6200    -2.5460     2.1850 H     1 <1>   0.0800 
 46 H       -5.4950    -2.9710     0.7650 H     1 <1>   0.0800 
 47 H       -4.2050    -0.4930    -1.4670 H     1 <1>   0.0800 
 48 H       -5.6320    -0.9890    -0.6000 H     1 <1>   0.0800 
 49 H       -4.4240    -4.9510     1.3450 H     1 <1>   0.0800 
 50 H       -2.9550    -4.1710     1.8340 H     1 <1>   0.0800 
 51 H       -5.5250    -2.1770    -2.4210 H     1 <1>   0.4000 
 52 H        6.2020     3.5530    -0.9230 H     1 <1>   0.0800 
 53 H        5.6860     1.8710    -0.9440 H     1 <1>   0.0800 
 54 H        5.8100     2.7480     0.5930 H     1 <1>   0.0800 
@<TRIPOS>BOND
  1   1   2  2   
  2   1   3  2   
  3   1   4  am  
  4   1   5  1   
  5   4   6  1   
  6   4   7  1   
  7   5   8  ar  
  8   5   9  ar  
  9   6  10  1   
 10   6  26  1   
 11   6  27  1   
 12   7  11  1   
 13   7  28  1   
 14   7  29  1   
 15   8  12  ar  
 16   8  30  1   
 17   9  13  ar  
 18   9  31  1   
 19  10  14  1   
 20  10  15  1   
 21  10  32  1   
 22  11  15  1   
 23  11  33  1   
 24  11  34  1   
 25  12  16  ar  
 26  12  17  1   
 27  13  16  ar  
 28  13  35  1   
 29  14  18  1   
 30  14  19  1   
 31  14  36  1   
 32  15  20  1   
 33  15  21  1   
 34  16  22  1   
 35  17  37  1   
 36  17  38  1   
 37  17  39  1   
 38  18  23  1   
 39  18  40  1   
 40  18  41  1   
 41  19  42  1   
 42  19  43  1   
 43  19  44  1   
 44  20  23  1   
 45  20  45  1   
 46  20  46  1   
 47  21  24  1   
 48  21  47  1   
 49  21  48  1   
 50  22  25  1   
 51  23  49  1   
 52  23  50  1   
 53  24  51  1   
 54  25  52  1   
 55  25  53  1   
 56  25  54  1   
@<TRIPOS>SUBSTRUCTURE
  1 ****   4 GROUP 4 **** **** 0

# MOE 2024.06 (io_trps.svl 2023.06)
