@<TRIPOS>MOLECULE
NONAME
52 55 1 0 0 
SMALL
USER_CHARGES


@<TRIPOS>ATOM
  1 CL       0.5530     0.6340     1.2700 Cl    1 <1>  -0.1770 
  2 C        1.3750     2.1010     0.8060 C.ar  1 <1>   0.1770 
  3 C        2.6500     2.0290     0.2770 C.ar  1 <1>  -0.1500 
  4 C        0.7410     3.3180     0.9730 C.ar  1 <1>  -0.1500 
  5 C        3.2960     3.1960    -0.0880 C.ar  1 <1>  -0.1500 
  6 C        1.3980     4.4790     0.6040 C.ar  1 <1>  -0.1500 
  7 C        2.6870     4.4400     0.0710 C.ar  1 <1>   0.0530 
  8 C        3.3770     5.6460    -0.3100 C.2   1 <1>  -0.2050 
  9 N        3.3280     6.8020     0.4160 N.pl3 1 <1>   0.0330 
 10 C        4.1790     5.8770    -1.3930 C.2   1 <1>  -0.1500 
 11 C        4.0850     7.7440    -0.2030 C.2   1 <1>  -0.3320 
 12 C        4.6230     7.1970    -1.3270 C.2   1 <1>  -0.1500 
 13 C        4.2270     9.1460     0.3750 C.3   1 <1>   0.0200 
 14 C        5.1500    10.0350    -0.4690 C.3   1 <1>  -0.0990 
 15 C        5.3380    11.4360     0.0980 C.2   1 <1>   0.5690 
 16 O        4.6160    11.7840     1.0060 O.2   1 <1>  -0.5700 
 17 N        6.3030    12.2720    -0.4140 N.am  1 <1>  -0.6600 
 18 C        6.6880    13.5030     0.3520 C.3   1 <1>   0.1400 
 19 C        7.1470    11.9490    -1.6090 C.3   1 <1>   0.1400 
 20 C        8.1100    13.4700     0.9610 C.3   1 <1>   0.2200 
 21 C        8.6450    11.7310    -1.3130 C.3   1 <1>  -0.0190 
 22 N        9.1330    13.8330    -0.0620 N.am  1 <1>  -0.6600 
 23 C        8.4950    12.1680     1.7120 C.3   1 <1>   0.1200 
 24 C        9.3660    13.0500    -1.1540 C.2   1 <1>   0.5690 
 25 C        9.0190    10.7670    -0.1710 C.3   1 <1>   0.1200 
 26 C        9.8440    15.1260     0.1500 C.3   1 <1>   0.0600 
 27 O        8.2950    10.9730     1.0030 O.3   1 <1>  -0.5600 
 28 O       10.1450    13.3710    -2.0210 O.2   1 <1>  -0.5700 
 29 H        3.1240     1.0720     0.1540 H     1 <1>   0.1500 
 30 H       -0.2520     3.3490     1.3830 H     1 <1>   0.1500 
 31 H        4.2900     3.1520    -0.4980 H     1 <1>   0.1500 
 32 H        0.9040     5.4260     0.7200 H     1 <1>   0.1500 
 33 H        2.8170     6.9200     1.2960 H     1 <1>   0.2700 
 34 H        4.4320     5.1800    -2.1720 H     1 <1>   0.1500 
 35 H        5.2710     7.6590    -2.0510 H     1 <1>   0.1500 
 36 H        3.2540     9.6020     0.4360 H     1 <1>   0.0800 
 37 H        4.6260     9.0780     1.3740 H     1 <1>   0.0800 
 38 H        4.7440    10.1190    -1.4590 H     1 <1>   0.0800 
 39 H        6.1120     9.5610    -0.5210 H     1 <1>   0.0800 
 40 H        6.5980    14.3600    -0.2920 H     1 <1>   0.0800 
 41 H        5.9970    13.6530     1.1610 H     1 <1>   0.0800 
 42 H        6.7710    11.0720    -2.1010 H     1 <1>   0.0800 
 43 H        7.0520    12.7570    -2.3160 H     1 <1>   0.0800 
 44 H        8.1270    14.2500     1.7020 H     1 <1>   0.0800 
 45 H        9.0570    11.2930    -2.2040 H     1 <1>   0.0800 
 46 H        7.8830    12.0940     2.5930 H     1 <1>   0.0800 
 47 H        9.5230    12.2100     2.0230 H     1 <1>   0.0800 
 48 H       10.0690    10.8370     0.0600 H     1 <1>   0.0800 
 49 H        8.8120     9.7580    -0.4800 H     1 <1>   0.0800 
 50 H       10.3580    15.1100     1.0950 H     1 <1>   0.0800 
 51 H        9.1370    15.9370     0.1410 H     1 <1>   0.0800 
 52 H       10.5690    15.2970    -0.6280 H     1 <1>   0.0800 
@<TRIPOS>BOND
  1   1   2  1   
  2   2   3  ar  
  3   2   4  ar  
  4   3   5  ar  
  5   3  29  1   
  6   4   6  ar  
  7   4  30  1   
  8   5   7  ar  
  9   5  31  1   
 10   6   7  ar  
 11   6  32  1   
 12   7   8  1   
 13   8   9  1   
 14   8  10  2   
 15   9  11  1   
 16   9  33  1   
 17  10  12  1   
 18  10  34  1   
 19  11  12  2   
 20  11  13  1   
 21  12  35  1   
 22  13  14  1   
 23  13  36  1   
 24  13  37  1   
 25  14  15  1   
 26  14  38  1   
 27  14  39  1   
 28  15  16  2   
 29  15  17  am  
 30  17  18  1   
 31  17  19  1   
 32  18  20  1   
 33  18  40  1   
 34  18  41  1   
 35  19  21  1   
 36  19  42  1   
 37  19  43  1   
 38  20  22  1   
 39  20  23  1   
 40  20  44  1   
 41  21  24  1   
 42  21  25  1   
 43  21  45  1   
 44  22  24  am  
 45  22  26  1   
 46  23  27  1   
 47  23  46  1   
 48  23  47  1   
 49  24  28  2   
 50  25  27  1   
 51  25  48  1   
 52  25  49  1   
 53  26  50  1   
 54  26  51  1   
 55  26  52  1   
@<TRIPOS>SUBSTRUCTURE
  1 ****  14 GROUP 4 **** **** 0

# MOE 2024.06 (io_trps.svl 2023.06)
