@<TRIPOS>MOLECULE
NONAME
36 38 1 0 0 
SMALL
USER_CHARGES


@<TRIPOS>ATOM
  1 CL       0.2620    -0.8950     2.0250 Cl    1 <1>  -0.1770 
  2 C        1.4220    -1.4320     0.8200 C.ar  1 <1>   0.1770 
  3 C        1.1410    -2.5130    -0.0320 C.ar  1 <1>   0.4100 
  4 C        2.6200    -0.7640     0.7410 C.ar  1 <1>  -0.1500 
  5 N        2.0140    -2.9430    -0.9430 N.ar  1 <1>  -0.6200 
  6 N       -0.0680    -3.1930     0.0250 N.pl3 1 <1>  -0.8380 
  7 C        3.5140    -1.2160    -0.2090 C.ar  1 <1>  -0.1500 
  8 C        3.1650    -2.2910    -1.0080 C.ar  1 <1>   0.1600 
  9 C       -0.1070    -4.6480    -0.3060 C.3   1 <1>   0.2090 
 10 C       -1.2830    -2.4980    -0.4840 C.3   1 <1>   0.2090 
 11 C       -1.3970    -5.2980     0.2260 C.3   1 <1>   0.1100 
 12 C       -2.5540    -3.1590     0.0790 C.3   1 <1>   0.1100 
 13 N       -2.6220    -4.6020    -0.2410 N.3   1 <1>  -0.8100 
 14 C       -3.8630    -5.2050     0.3180 C.3   1 <1>   0.2900 
 15 C       -4.0470    -6.7000     0.0580 C.2   1 <1>   0.2980 
 16 O       -3.3970    -7.5630     0.8050 O.3   1 <1>  -0.2800 
 17 N       -4.8150    -7.2350    -0.8190 N.2   1 <1>  -0.5650 
 18 C       -3.7560    -8.7350     0.3700 C.2   1 <1>  -0.0100 
 19 C       -4.6370    -8.5890    -0.6410 C.2   1 <1>  -0.0060 
 20 C       -5.2480    -9.7020    -1.3710 C.2   1 <1>   1.0330 
 21 O       -4.9220   -10.8700    -1.0730 O.co2 1 <1>  -0.9000 
 22 O       -6.0890    -9.5430    -2.2770 O.co2 1 <1>  -0.9000 
 23 H        2.8420     0.0640     1.3890 H     1 <1>   0.1500 
 24 H        4.4720    -0.7410    -0.3280 H     1 <1>   0.1500 
 25 H        3.8710    -2.6350    -1.7450 H     1 <1>   0.1500 
 26 H        0.7480    -5.1380     0.1270 H     1 <1>   0.0800 
 27 H       -0.0600    -4.7740    -1.3740 H     1 <1>   0.0800 
 28 H       -1.3010    -2.5530    -1.5590 H     1 <1>   0.0800 
 29 H       -1.2610    -1.4610    -0.2020 H     1 <1>   0.0800 
 30 H       -1.3650    -5.3010     1.3020 H     1 <1>   0.0800 
 31 H       -1.4130    -6.3180    -0.1130 H     1 <1>   0.0800 
 32 H       -3.4130    -2.6630    -0.3370 H     1 <1>   0.0800 
 33 H       -2.5660    -3.0200     1.1470 H     1 <1>   0.0800 
 34 H       -4.7090    -4.7020    -0.1150 H     1 <1>   0.0800 
 35 H       -3.8930    -5.0470     1.3810 H     1 <1>   0.0800 
 36 H       -3.3610    -9.6350     0.8070 H     1 <1>   0.1500 
@<TRIPOS>BOND
  1   1   2  1   
  2   2   3  ar  
  3   2   4  ar  
  4   3   5  ar  
  5   3   6  1   
  6   4   7  ar  
  7   4  23  1   
  8   5   8  ar  
  9   6   9  1   
 10   6  10  1   
 11   7   8  ar  
 12   7  24  1   
 13   8  25  1   
 14   9  11  1   
 15   9  26  1   
 16   9  27  1   
 17  10  12  1   
 18  10  28  1   
 19  10  29  1   
 20  11  13  1   
 21  11  30  1   
 22  11  31  1   
 23  12  13  1   
 24  12  32  1   
 25  12  33  1   
 26  13  14  1   
 27  14  15  1   
 28  14  34  1   
 29  14  35  1   
 30  15  16  1   
 31  15  17  2   
 32  16  18  1   
 33  17  19  1   
 34  18  19  2   
 35  18  36  1   
 36  19  20  1   
 37  20  21  ar  
 38  20  22  ar  
@<TRIPOS>SUBSTRUCTURE
  1 ****  11 GROUP 4 **** **** 0

# MOE 2024.06 (io_trps.svl 2023.06)
