@<TRIPOS>MOLECULE
NONAME
46 49 1 0 0 
SMALL
USER_CHARGES


@<TRIPOS>ATOM
  1 O        2.0650    -0.0220    -1.7190 O.2   1 <1>  -0.5700 
  2 C        1.7270    -1.0480    -1.0950 C.2   1 <1>   0.6160 
  3 N        2.4980    -2.2150    -1.2440 N.am  1 <1>  -0.4690 
  4 C        0.6340    -1.0440    -0.2360 C.2   1 <1>  -0.1360 
  5 C        2.0740    -3.3840    -0.5990 C.2   1 <1>  -0.0290 
  6 C        3.7810    -2.1460    -2.0360 C.3   1 <1>   0.2010 
  7 C        0.2560    -2.1760     0.4630 C.2   1 <1>  -0.1500 
  8 C        0.9990    -3.3630     0.2300 C.2   1 <1>  -0.1500 
  9 C        2.8150    -4.6920    -0.8330 C.3   1 <1>  -0.1020 
 10 C        5.0500    -2.5260    -1.2620 C.2   1 <1>   0.5690 
 11 O       -0.6930    -2.1760     1.2610 O.3   1 <1>  -0.8500 
 12 O        5.7280    -3.4080    -1.7430 O.2   1 <1>  -0.5700 
 13 N        5.4140    -1.9210    -0.0780 N.am  1 <1>  -0.6600 
 14 C        6.5620    -2.4430     0.7250 C.3   1 <1>   0.1400 
 15 C        4.6400    -0.8170     0.5680 C.3   1 <1>   0.1400 
 16 C        7.4430    -1.3110     1.2790 C.3   1 <1>   0.0580 
 17 C        5.5480     0.2660     1.1800 C.3   1 <1>  -0.0800 
 18 C        8.1310    -0.5730     0.1290 C.2   1 <1>  -0.0290 
 19 C        6.5930    -0.3500     2.1140 C.3   1 <1>  -0.1600 
 20 C        6.2320     1.1110     0.0890 C.3   1 <1>   0.1400 
 21 N        7.5100     0.5370    -0.4410 N.am  1 <1>  -0.4690 
 22 C        9.3330    -1.0070    -0.3430 C.2   1 <1>  -0.1500 
 23 C        8.1100     1.2010    -1.5010 C.2   1 <1>   0.6160 
 24 C        9.9680    -0.3510    -1.4230 C.2   1 <1>  -0.1500 
 25 O        7.5830     2.1890    -2.0010 O.2   1 <1>  -0.5700 
 26 C        9.3590     0.7250    -1.9830 C.2   1 <1>  -0.1360 
 27 H        0.0670    -0.1470    -0.1040 H     1 <1>   0.1500 
 28 H        3.6870    -2.8080    -2.8760 H     1 <1>   0.0800 
 29 H        3.9380    -1.1630    -2.4350 H     1 <1>   0.0800 
 30 H        0.6420    -4.2290     0.7530 H     1 <1>   0.1500 
 31 H        2.9620    -4.8610    -1.8830 H     1 <1>   0.0800 
 32 H        2.2460    -5.5150    -0.4400 H     1 <1>   0.0800 
 33 H        3.7650    -4.6800    -0.3320 H     1 <1>   0.0800 
 34 H        6.1690    -3.0230     1.5410 H     1 <1>   0.0800 
 35 H        7.1730    -3.0940     0.1230 H     1 <1>   0.0800 
 36 H        4.0060    -0.3370    -0.1500 H     1 <1>   0.0800 
 37 H        4.0100    -1.2420     1.3320 H     1 <1>   0.0800 
 38 H        8.1950    -1.7490     1.9100 H     1 <1>   0.0800 
 39 H        4.9120     0.9240     1.7460 H     1 <1>   0.0800 
 40 H        6.1110    -0.8790     2.9170 H     1 <1>   0.0800 
 41 H        7.2160     0.4200     2.5360 H     1 <1>   0.0800 
 42 H        6.4620     2.0790     0.5000 H     1 <1>   0.0800 
 43 H        5.5500     1.2650    -0.7300 H     1 <1>   0.0800 
 44 H        9.8270    -1.8630     0.0810 H     1 <1>   0.1500 
 45 H       10.9140    -0.7230    -1.7750 H     1 <1>   0.1500 
 46 H        9.7860     1.2640    -2.8060 H     1 <1>   0.1500 
@<TRIPOS>BOND
  1   1   2  2   
  2   2   3  am  
  3   2   4  1   
  4   3   5  1   
  5   3   6  1   
  6   4   7  2   
  7   4  27  1   
  8   5   8  2   
  9   5   9  1   
 10   6  10  1   
 11   6  28  1   
 12   6  29  1   
 13   7   8  1   
 14   7  11  1   
 15   8  30  1   
 16   9  31  1   
 17   9  32  1   
 18   9  33  1   
 19  10  12  2   
 20  10  13  am  
 21  13  14  1   
 22  13  15  1   
 23  14  16  1   
 24  14  34  1   
 25  14  35  1   
 26  15  17  1   
 27  15  36  1   
 28  15  37  1   
 29  16  18  1   
 30  16  19  1   
 31  16  38  1   
 32  17  19  1   
 33  17  20  1   
 34  17  39  1   
 35  18  21  1   
 36  18  22  2   
 37  19  40  1   
 38  19  41  1   
 39  20  21  1   
 40  20  42  1   
 41  20  43  1   
 42  21  23  am  
 43  22  24  1   
 44  22  44  1   
 45  23  25  2   
 46  23  26  1   
 47  24  26  2   
 48  24  45  1   
 49  26  46  1   
@<TRIPOS>SUBSTRUCTURE
  1 ****  13 GROUP 4 **** **** 0

# MOE 2024.06 (io_trps.svl 2023.06)
