@<TRIPOS>MOLECULE
NONAME
37 39 1 0 0 
SMALL
USER_CHARGES


@<TRIPOS>ATOM
  1 F       -0.2540     0.9250     1.5560 F     1 <1>  -0.1900 
  2 C       -0.1140     2.1370     1.0930 C.ar  1 <1>   0.1900 
  3 C        1.1590     2.6570     0.9720 C.ar  1 <1>  -0.1500 
  4 C       -1.2400     2.8530     0.7440 C.ar  1 <1>  -0.1500 
  5 C        1.3210     3.9460     0.4800 C.ar  1 <1>  -0.1440 
  6 C       -1.0780     4.1380     0.2580 C.ar  1 <1>  -0.1500 
  7 C        0.1910     4.6870     0.1260 C.ar  1 <1>  -0.1430 
  8 C        2.7330     4.5040     0.3390 C.3   1 <1>   0.5670 
  9 C        0.3100     6.1150    -0.3910 C.3   1 <1>  -0.0160 
 10 N        2.6770     5.9880     0.3230 N.4   1 <1>  -0.9590 
 11 C        3.3950     3.9500    -0.9260 C.3   1 <1>  -0.2400 
 12 C        1.7490     6.5130    -0.7250 C.3   1 <1>   0.3430 
 13 C        4.0150     6.6450     0.3050 C.3   1 <1>   0.5230 
 14 C        3.8410     8.1220     0.5790 C.2   1 <1>  -0.0400 
 15 O        3.1520     8.4850     1.6260 O.3   1 <1>  -0.0190 
 16 C        4.2460     9.2330    -0.0580 C.2   1 <1>  -0.1500 
 17 N        3.0610     9.7750     1.7180 N.2   1 <1>  -0.4100 
 18 C        3.7160    10.2570     0.7230 C.2   1 <1>   0.1080 
 19 C        3.8800    11.7370     0.4510 C.3   1 <1>  -0.0590 
 20 H        1.9950     2.0440     1.2610 H     1 <1>   0.1500 
 21 H       -2.2160     2.4120     0.8520 H     1 <1>   0.1500 
 22 H       -1.9520     4.7070    -0.0130 H     1 <1>   0.1500 
 23 H        3.3060     4.1840     1.1950 H     1 <1>   0.0800 
 24 H       -0.0730     6.7880     0.3570 H     1 <1>   0.0800 
 25 H       -0.2970     6.2360    -1.2710 H     1 <1>   0.0800 
 26 H        2.2490     6.2520     1.2210 H     1 <1>   0.4500 
 27 H        2.8260     4.1870    -1.8060 H     1 <1>   0.0800 
 28 H        3.4370     2.8770    -0.8550 H     1 <1>   0.0800 
 29 H        4.4040     4.3010    -1.0360 H     1 <1>   0.0800 
 30 H        1.8080     7.5880    -0.7790 H     1 <1>   0.0800 
 31 H        2.0170     6.1120    -1.6880 H     1 <1>   0.0800 
 32 H        4.4930     6.5050    -0.6510 H     1 <1>   0.0800 
 33 H        4.6430     6.2210     1.0710 H     1 <1>   0.0800 
 34 H        4.8310     9.3630    -0.9510 H     1 <1>   0.1500 
 35 H        3.4850    11.9800    -0.5180 H     1 <1>   0.0800 
 36 H        4.9210    12.0030     0.4860 H     1 <1>   0.0800 
 37 H        3.3530    12.3090     1.1930 H     1 <1>   0.0800 
@<TRIPOS>BOND
  1   1   2  1   
  2   2   3  ar  
  3   2   4  ar  
  4   3   5  ar  
  5   3  20  1   
  6   4   6  ar  
  7   4  21  1   
  8   5   7  ar  
  9   5   8  1   
 10   6   7  ar  
 11   6  22  1   
 12   7   9  1   
 13   8  10  1   
 14   8  11  1   
 15   8  23  1   
 16   9  12  1   
 17   9  24  1   
 18   9  25  1   
 19  10  12  1   
 20  10  13  1   
 21  10  26  1   
 22  11  27  1   
 23  11  28  1   
 24  11  29  1   
 25  12  30  1   
 26  12  31  1   
 27  13  14  1   
 28  13  32  1   
 29  13  33  1   
 30  14  15  1   
 31  14  16  2   
 32  15  17  1   
 33  16  18  1   
 34  16  34  1   
 35  17  18  2   
 36  18  19  1   
 37  19  35  1   
 38  19  36  1   
 39  19  37  1   
@<TRIPOS>SUBSTRUCTURE
  1 ****  10 GROUP 4 **** **** 0

# MOE 2024.06 (io_trps.svl 2023.06)
