@<TRIPOS>MOLECULE
NONAME
53 55 1 0 0 
SMALL
USER_CHARGES


@<TRIPOS>ATOM
  1 O       -1.1320    -0.2100    -1.0610 O.2   1 <1>  -0.5700 
  2 C       -1.8460     0.3000    -0.2200 C.2   1 <1>   0.7800 
  3 O       -1.7850     1.6160    -0.0130 O.3   1 <1>  -0.4300 
  4 N       -2.7320    -0.4300     0.5360 N.am  1 <1>  -0.6600 
  5 C       -0.8880     2.4230    -0.7420 C.3   1 <1>   0.1200 
  6 C       -3.6180     0.1820     1.5580 C.3   1 <1>   0.1400 
  7 C       -2.8050    -1.9100     0.4210 C.3   1 <1>   0.1400 
  8 C       -1.0620     3.8650    -0.2750 C.3   1 <1>  -0.2400 
  9 C       -5.0660    -0.2110     1.2580 C.3   1 <1>  -0.1600 
 10 C       -4.2450    -2.3160     0.1110 C.3   1 <1>  -0.1600 
 11 C       -5.2010    -1.7340     1.1630 C.3   1 <1>   0.4230 
 12 N       -6.6240    -2.0930     0.9020 N.4   1 <1>  -0.9590 
 13 C       -7.2010    -1.6950    -0.4180 C.3   1 <1>   0.3430 
 14 C       -6.9290    -3.5490     1.0780 C.3   1 <1>   0.3430 
 15 C       -8.3930    -2.6330    -0.6070 C.3   1 <1>   0.2000 
 16 C       -7.8700    -3.9600    -0.0650 C.3   1 <1>  -0.0800 
 17 O       -9.4190    -2.2000     0.2260 O.3   1 <1>  -0.6800 
 18 C       -7.1250    -4.7550    -1.1550 C.3   1 <1>   0.0210 
 19 C       -6.5450    -6.0420    -0.6060 C.2   1 <1>   0.1080 
 20 N       -5.4610    -6.0760     0.1060 N.2   1 <1>  -0.7070 
 21 C       -7.0910    -7.3060    -0.7990 C.2   1 <1>  -0.1500 
 22 N       -5.2770    -7.3870     0.3780 N.pl3 1 <1>   0.3000 
 23 C       -6.2560    -8.1470    -0.1550 C.2   1 <1>  -0.3320 
 24 C       -6.3300    -9.6580    -0.0200 C.3   1 <1>  -0.0600 
 25 H        0.1140     2.0740    -0.5540 H     1 <1>   0.0800 
 26 H       -1.1150     2.3260    -1.7900 H     1 <1>   0.0800 
 27 H       -3.3250    -0.1720     2.5330 H     1 <1>   0.0800 
 28 H       -3.5290     1.2560     1.5570 H     1 <1>   0.0800 
 29 H       -2.1530    -2.2660    -0.3600 H     1 <1>   0.0800 
 30 H       -2.4790    -2.3510     1.3480 H     1 <1>   0.0800 
 31 H       -0.8420     3.9440     0.7750 H     1 <1>   0.0800 
 32 H       -2.0680     4.1960    -0.4600 H     1 <1>   0.0800 
 33 H       -0.3870     4.5040    -0.8140 H     1 <1>   0.0800 
 34 H       -5.3530     0.2580     0.3340 H     1 <1>   0.0800 
 35 H       -5.6920     0.1660     2.0460 H     1 <1>   0.0800 
 36 H       -4.2960    -3.3890     0.1030 H     1 <1>   0.0800 
 37 H       -4.4780    -1.9530    -0.8730 H     1 <1>   0.0800 
 38 H       -4.9190    -2.1440     2.1200 H     1 <1>   0.0800 
 39 H       -7.2140    -1.6110     1.5940 H     1 <1>   0.4500 
 40 H       -7.5090    -0.6620    -0.4320 H     1 <1>   0.0800 
 41 H       -6.4880    -1.8680    -1.2050 H     1 <1>   0.0800 
 42 H       -6.0260    -4.1310     1.0700 H     1 <1>   0.0800 
 43 H       -7.4210    -3.7030     2.0250 H     1 <1>   0.0800 
 44 H       -8.7510    -2.6670    -1.6230 H     1 <1>   0.0800 
 45 H       -8.6690    -4.5760     0.3120 H     1 <1>   0.0800 
 46 H      -10.2540    -2.6860     0.0490 H     1 <1>   0.4000 
 47 H       -6.3200    -4.1780    -1.5730 H     1 <1>   0.0800 
 48 H       -7.8030    -4.9990    -1.9550 H     1 <1>   0.0800 
 49 H       -7.9840    -7.5430    -1.3500 H     1 <1>   0.1500 
 50 H       -4.4770    -7.7360     0.9210 H     1 <1>   0.2700 
 51 H       -7.1980   -10.0330    -0.5330 H     1 <1>   0.0800 
 52 H       -6.3990    -9.9380     1.0160 H     1 <1>   0.0800 
 53 H       -5.4570   -10.1150    -0.4500 H     1 <1>   0.0800 
@<TRIPOS>BOND
  1   1   2  2   
  2   2   3  1   
  3   2   4  am  
  4   3   5  1   
  5   4   6  1   
  6   4   7  1   
  7   5   8  1   
  8   5  25  1   
  9   5  26  1   
 10   6   9  1   
 11   6  27  1   
 12   6  28  1   
 13   7  10  1   
 14   7  29  1   
 15   7  30  1   
 16   8  31  1   
 17   8  32  1   
 18   8  33  1   
 19   9  11  1   
 20   9  34  1   
 21   9  35  1   
 22  10  11  1   
 23  10  36  1   
 24  10  37  1   
 25  11  12  1   
 26  11  38  1   
 27  12  13  1   
 28  12  14  1   
 29  12  39  1   
 30  13  15  1   
 31  13  40  1   
 32  13  41  1   
 33  14  16  1   
 34  14  42  1   
 35  14  43  1   
 36  15  16  1   
 37  15  17  1   
 38  15  44  1   
 39  16  18  1   
 40  16  45  1   
 41  17  46  1   
 42  18  19  1   
 43  18  47  1   
 44  18  48  1   
 45  19  20  2   
 46  19  21  1   
 47  20  22  1   
 48  21  23  2   
 49  21  49  1   
 50  22  23  1   
 51  22  50  1   
 52  23  24  1   
 53  24  51  1   
 54  24  52  1   
 55  24  53  1   
@<TRIPOS>SUBSTRUCTURE
  1 ****  10 GROUP 4 **** **** 0

# MOE 2024.06 (io_trps.svl 2023.06)
