@<TRIPOS>MOLECULE
NONAME
58 61 1 0 0 
SMALL
USER_CHARGES


@<TRIPOS>ATOM
  1 O       -0.1810     0.1180    -0.1280 O.2   1 <1>  -0.5700 
  2 C       -1.1890     0.8040    -0.1130 C.2   1 <1>   0.7150 
  3 N       -2.3810     0.1760     0.1890 N.am  1 <1>  -0.6600 
  4 C       -1.0580     2.2180    -0.4080 C.2   1 <1>   0.0550 
  5 C       -3.7330     0.7940     0.2310 C.3   1 <1>   0.1400 
  6 C       -2.4850    -1.2950     0.3580 C.3   1 <1>   0.1400 
  7 O       -2.0650     3.0830    -0.3580 O.3   1 <1>  -0.2800 
  8 C        0.0580     2.9060    -0.7690 C.2   1 <1>  -0.1500 
  9 C       -4.6380    -0.2950     0.8030 C.3   1 <1>   0.2000 
 10 C       -3.9880    -1.5980     0.3270 C.3   1 <1>  -0.0800 
 11 C       -1.6410     4.2870    -0.6650 C.2   1 <1>  -0.0400 
 12 C       -0.3110     4.2450    -0.9240 C.2   1 <1>  -0.1810 
 13 O       -4.5760    -0.2230     2.1870 O.3   1 <1>  -0.6800 
 14 C       -4.3880    -2.8540     1.1240 C.3   1 <1>   0.0200 
 15 C       -2.7010     5.3820    -0.6480 C.3   1 <1>   0.0200 
 16 C        0.6650     5.3380    -1.2990 C.3   1 <1>   0.5240 
 17 C       -3.8320    -4.1380     0.5320 C.2   1 <1>  -0.0400 
 18 C       -2.2120     6.7700    -1.0740 C.3   1 <1>  -0.2400 
 19 N        1.2310     5.8890    -0.0420 N.4   1 <1>  -0.9590 
 20 O       -3.9830    -5.2510     1.2000 O.3   1 <1>  -0.0190 
 21 C       -3.1750    -4.4310    -0.6020 C.2   1 <1>  -0.1500 
 22 C        2.0380     7.1140    -0.2280 C.3   1 <1>   0.3430 
 23 C        2.0860     4.9320     0.7000 C.3   1 <1>   0.3430 
 24 N       -3.4600    -6.2680     0.5780 N.2   1 <1>  -0.4100 
 25 C       -2.9660    -5.8040    -0.5110 C.2   1 <1>   0.1080 
 26 C        2.8560     7.2200     1.0520 C.3   1 <1>  -0.1600 
 27 C        2.8960     5.8080     1.6460 C.3   1 <1>  -0.1600 
 28 C       -2.2540    -6.6440    -1.5480 C.3   1 <1>  -0.0590 
 29 H       -3.7540     1.6790     0.8430 H     1 <1>   0.0800 
 30 H       -4.0370     1.0390    -0.7720 H     1 <1>   0.0800 
 31 H       -1.9580    -1.8070    -0.4290 H     1 <1>   0.0800 
 32 H       -2.0550    -1.5700     1.3060 H     1 <1>   0.0800 
 33 H        1.0380     2.4810    -0.9090 H     1 <1>   0.1500 
 34 H       -5.6670    -0.1930     0.5010 H     1 <1>   0.0800 
 35 H       -4.2720    -1.7420    -0.7000 H     1 <1>   0.0800 
 36 H       -3.6400    -0.1510     2.4620 H     1 <1>   0.4000 
 37 H       -5.4600    -2.9300     1.1560 H     1 <1>   0.0800 
 38 H       -4.0400    -2.7710     2.1390 H     1 <1>   0.0800 
 39 H       -3.5010     5.0830    -1.3050 H     1 <1>   0.0800 
 40 H       -3.1120     5.4420     0.3450 H     1 <1>   0.0800 
 41 H        0.1510     6.1110    -1.8440 H     1 <1>   0.0800 
 42 H        1.4460     4.9390    -1.9260 H     1 <1>   0.0800 
 43 H       -1.8490     6.7460    -2.0860 H     1 <1>   0.0800 
 44 H       -1.4460     7.1270    -0.4120 H     1 <1>   0.0800 
 45 H       -3.0350     7.4630    -1.0350 H     1 <1>   0.0800 
 46 H        0.4360     6.1060     0.5710 H     1 <1>   0.4500 
 47 H       -2.8650    -3.8000    -1.4140 H     1 <1>   0.1500 
 48 H        2.7030     6.9930    -1.0680 H     1 <1>   0.0800 
 49 H        1.4200     7.9850    -0.3800 H     1 <1>   0.0800 
 50 H        1.4970     4.2010     1.2340 H     1 <1>   0.0800 
 51 H        2.7510     4.4260     0.0180 H     1 <1>   0.0800 
 52 H        3.8440     7.5920     0.8390 H     1 <1>   0.0800 
 53 H        2.3770     7.9000     1.7360 H     1 <1>   0.0800 
 54 H        2.4480     5.7980     2.6250 H     1 <1>   0.0800 
 55 H        3.9030     5.4360     1.7290 H     1 <1>   0.0800 
 56 H       -2.7580    -6.5620    -2.4930 H     1 <1>   0.0800 
 57 H       -2.2500    -7.6760    -1.2440 H     1 <1>   0.0800 
 58 H       -1.2390    -6.3090    -1.6550 H     1 <1>   0.0800 
@<TRIPOS>BOND
  1   1   2  2   
  2   2   3  am  
  3   2   4  1   
  4   3   5  1   
  5   3   6  1   
  6   4   7  1   
  7   4   8  2   
  8   5   9  1   
  9   5  29  1   
 10   5  30  1   
 11   6  10  1   
 12   6  31  1   
 13   6  32  1   
 14   7  11  1   
 15   8  12  1   
 16   8  33  1   
 17   9  10  1   
 18   9  13  1   
 19   9  34  1   
 20  10  14  1   
 21  10  35  1   
 22  11  12  2   
 23  11  15  1   
 24  12  16  1   
 25  13  36  1   
 26  14  17  1   
 27  14  37  1   
 28  14  38  1   
 29  15  18  1   
 30  15  39  1   
 31  15  40  1   
 32  16  19  1   
 33  16  41  1   
 34  16  42  1   
 35  17  20  1   
 36  17  21  2   
 37  18  43  1   
 38  18  44  1   
 39  18  45  1   
 40  19  22  1   
 41  19  23  1   
 42  19  46  1   
 43  20  24  1   
 44  21  25  1   
 45  21  47  1   
 46  22  26  1   
 47  22  48  1   
 48  22  49  1   
 49  23  27  1   
 50  23  50  1   
 51  23  51  1   
 52  24  25  2   
 53  25  28  1   
 54  26  27  1   
 55  26  52  1   
 56  26  53  1   
 57  27  54  1   
 58  27  55  1   
 59  28  56  1   
 60  28  57  1   
 61  28  58  1   
@<TRIPOS>SUBSTRUCTURE
  1 ****   2 GROUP 4 **** **** 0

# MOE 2024.06 (io_trps.svl 2023.06)
