@<TRIPOS>MOLECULE
NONAME
44 46 1 0 0 
SMALL
USER_CHARGES


@<TRIPOS>ATOM
  1 S        2.4290    -1.4510     1.3620 S.3   1 <1>  -0.0800 
  2 C        1.4500    -0.9210     0.0160 C.2   1 <1>   0.1980 
  3 C        2.0910    -3.0930     0.9240 C.2   1 <1>  -0.1100 
  4 N        0.9440    -1.8690    -0.6620 N.2   1 <1>  -0.5650 
  5 C        1.3080     0.5720    -0.2110 C.3   1 <1>   0.0200 
  6 C        1.2940    -3.1370    -0.1680 C.2   1 <1>   0.1410 
  7 C        0.3920     1.2200     0.8370 C.3   1 <1>  -0.1600 
  8 C        0.8070    -4.3580    -0.8020 C.2   1 <1>   0.7160 
  9 C        0.2260     2.7230     0.5890 C.3   1 <1>  -0.2400 
 10 O        0.5170    -4.4180    -1.9820 O.2   1 <1>  -0.5700 
 11 N        0.6520    -5.4920    -0.0550 N.am  1 <1>  -0.7300 
 12 C        0.1640    -6.7960    -0.5600 C.3   1 <1>   0.2200 
 13 C       -1.3050    -7.0090    -0.2180 C.3   1 <1>  -0.0800 
 14 C        0.8010    -7.9030     0.2680 C.3   1 <1>   0.1200 
 15 C       -1.2530    -7.5540     1.2150 C.3   1 <1>   0.1200 
 16 C       -2.2300    -5.7900    -0.4000 C.3   1 <1>  -0.0170 
 17 O        0.0760    -7.9170     1.4590 O.3   1 <1>  -0.5600 
 18 C       -3.6760    -6.1610    -0.1100 C.ar  1 <1>  -0.1430 
 19 C       -4.2790    -5.8770     1.0990 C.ar  1 <1>  -0.1500 
 20 C       -4.4610    -6.8050    -1.0450 C.ar  1 <1>  -0.1500 
 21 C       -5.5970    -6.2470     1.3100 C.ar  1 <1>   0.1600 
 22 C       -5.7700    -7.1310    -0.7330 C.ar  1 <1>   0.1600 
 23 N       -6.3570    -6.8700     0.4240 N.ar  1 <1>  -0.6200 
 24 H        2.5290    -3.8690     1.5240 H     1 <1>   0.1500 
 25 H        2.2830     1.0250    -0.1840 H     1 <1>   0.0800 
 26 H        0.8950     0.7270    -1.1920 H     1 <1>   0.0800 
 27 H       -0.5730     0.7440     0.8030 H     1 <1>   0.0800 
 28 H        0.8030     1.0660     1.8200 H     1 <1>   0.0800 
 29 H       -0.2090     2.9000    -0.3790 H     1 <1>   0.0800 
 30 H        1.1780     3.2230     0.6390 H     1 <1>   0.0800 
 31 H       -0.4220     3.1490     1.3350 H     1 <1>   0.0800 
 32 H        0.7640    -5.4560     0.9600 H     1 <1>   0.3700 
 33 H        0.3690    -6.9010    -1.6130 H     1 <1>   0.0800 
 34 H       -1.6740    -7.8010    -0.8460 H     1 <1>   0.0800 
 35 H        1.8420    -7.7270     0.4750 H     1 <1>   0.0800 
 36 H        0.6760    -8.8600    -0.2090 H     1 <1>   0.0800 
 37 H       -1.8800    -8.4210     1.3340 H     1 <1>   0.0800 
 38 H       -1.5250    -6.8060     1.9390 H     1 <1>   0.0800 
 39 H       -2.1520    -5.4290    -1.4110 H     1 <1>   0.0800 
 40 H       -1.9320    -4.9880     0.2510 H     1 <1>   0.0800 
 41 H       -3.7390    -5.3710     1.8780 H     1 <1>   0.1500 
 42 H       -4.0670    -7.0550    -2.0130 H     1 <1>   0.1500 
 43 H       -6.0510    -6.0170     2.2590 H     1 <1>   0.1500 
 44 H       -6.3670    -7.6330    -1.4750 H     1 <1>   0.1500 
@<TRIPOS>BOND
  1   1   2  1   
  2   1   3  1   
  3   2   4  2   
  4   2   5  1   
  5   3   6  2   
  6   3  24  1   
  7   4   6  1   
  8   5   7  1   
  9   5  25  1   
 10   5  26  1   
 11   6   8  1   
 12   7   9  1   
 13   7  27  1   
 14   7  28  1   
 15   8  10  2   
 16   8  11  am  
 17   9  29  1   
 18   9  30  1   
 19   9  31  1   
 20  11  12  1   
 21  11  32  1   
 22  12  13  1   
 23  12  14  1   
 24  12  33  1   
 25  13  15  1   
 26  13  16  1   
 27  13  34  1   
 28  14  17  1   
 29  14  35  1   
 30  14  36  1   
 31  15  17  1   
 32  15  37  1   
 33  15  38  1   
 34  16  18  1   
 35  16  39  1   
 36  16  40  1   
 37  18  19  ar  
 38  18  20  ar  
 39  19  21  ar  
 40  19  41  1   
 41  20  22  ar  
 42  20  42  1   
 43  21  23  ar  
 44  21  43  1   
 45  22  23  ar  
 46  22  44  1   
@<TRIPOS>SUBSTRUCTURE
  1 ****  11 GROUP 4 **** **** 0

# MOE 2024.06 (io_trps.svl 2023.06)
