@<TRIPOS>MOLECULE
NONAME
58 61 1 0 0 
SMALL
USER_CHARGES


@<TRIPOS>ATOM
  1 O       -0.5270     3.7180     0.0650 O.2   1 <1>  -0.5700 
  2 C       -1.4710     2.9520    -0.0820 C.2   1 <1>   0.6900 
  3 N       -2.4740     3.3050    -0.9380 N.am  1 <1>  -0.6600 
  4 N       -1.5630     1.8080     0.6530 N.am  1 <1>  -0.6600 
  5 C       -3.6720     3.9660    -0.3920 C.3   1 <1>   0.1400 
  6 C       -2.1790     3.7090    -2.3280 C.3   1 <1>   0.1400 
  7 C       -2.5430     0.7310     0.3890 C.3   1 <1>   0.1400 
  8 C       -0.4780     1.3330     1.5380 C.3   1 <1>   0.1400 
  9 C       -3.3410     5.4480    -0.2200 C.3   1 <1>  -0.1600 
 10 C       -1.8130     5.1930    -2.3560 C.3   1 <1>  -0.1600 
 11 C       -1.8860    -0.5330     0.9320 C.3   1 <1>  -0.1600 
 12 C       -0.9390    -0.0370     2.0210 C.3   1 <1>  -0.1600 
 13 C       -2.7240     6.0840    -1.4830 C.3   1 <1>   0.2890 
 14 N       -1.9700     7.2910    -1.0810 N.pl3 1 <1>  -0.8690 
 15 C       -0.8700     7.4550    -0.3310 C.ar  1 <1>   0.7710 
 16 N       -0.4860     8.7030    -0.1520 N.ar  1 <1>  -0.6200 
 17 N       -0.2090     6.4080     0.1980 N.ar  1 <1>  -0.1790 
 18 C        0.6010     8.9220     0.5660 C.ar  1 <1>   0.4100 
 19 C        0.8910     6.5870     0.9590 C.ar  1 <1>   0.2110 
 20 N        1.0160    10.2100     0.7130 N.pl3 1 <1>  -0.8380 
 21 C        1.3120     7.8580     1.1590 C.ar  1 <1>  -0.1500 
 22 C        2.4560    10.6190     0.8230 C.3   1 <1>   0.2090 
 23 C        0.0850    11.3750     0.5850 C.3   1 <1>   0.2090 
 24 C        2.8640    11.4910    -0.3780 C.3   1 <1>   0.2000 
 25 C        0.4650    12.2100    -0.6420 C.3   1 <1>  -0.1600 
 26 O        4.1470    11.9740    -0.1850 O.3   1 <1>  -0.6800 
 27 C        1.9260    12.6860    -0.5800 C.3   1 <1>  -0.1600 
 28 H       -3.9330     3.5290     0.5580 H     1 <1>   0.0800 
 29 H       -4.5000     3.8340    -1.0680 H     1 <1>   0.0800 
 30 H       -3.0470     3.5260    -2.9400 H     1 <1>   0.0800 
 31 H       -1.3660     3.1170    -2.7140 H     1 <1>   0.0800 
 32 H       -2.7560     0.6430    -0.6630 H     1 <1>   0.0800 
 33 H       -3.4500     0.9420     0.9280 H     1 <1>   0.0800 
 34 H       -0.3270     2.0130     2.3580 H     1 <1>   0.0800 
 35 H        0.4300     1.2450     0.9660 H     1 <1>   0.0800 
 36 H       -2.6860     5.5320     0.6240 H     1 <1>   0.0800 
 37 H       -4.2450     5.9750     0.0300 H     1 <1>   0.0800 
 38 H       -1.8670     5.5360    -3.3740 H     1 <1>   0.0800 
 39 H       -0.7840     5.2700    -2.0680 H     1 <1>   0.0800 
 40 H       -1.3230    -1.0010     0.1430 H     1 <1>   0.0800 
 41 H       -2.6120    -1.2330     1.3060 H     1 <1>   0.0800 
 42 H       -1.4750     0.0800     2.9460 H     1 <1>   0.0800 
 43 H       -0.1100    -0.7050     2.1800 H     1 <1>   0.0800 
 44 H       -3.5480     6.3900    -2.1090 H     1 <1>   0.0800 
 45 H       -2.3680     8.1700    -1.4260 H     1 <1>   0.4000 
 46 H       -0.5600     5.4580     0.0020 H     1 <1>   0.4570 
 47 H        1.3820     5.7210     1.3750 H     1 <1>   0.1500 
 48 H        2.1670     8.0700     1.7710 H     1 <1>   0.1500 
 49 H        3.1010     9.7600     0.8420 H     1 <1>   0.0800 
 50 H        2.5890    11.1740     1.7360 H     1 <1>   0.0800 
 51 H        0.1580    11.9800     1.4730 H     1 <1>   0.0800 
 52 H       -0.9370    11.0470     0.5000 H     1 <1>   0.0800 
 53 H        2.8800    10.8780    -1.2630 H     1 <1>   0.0800 
 54 H       -0.1880    13.0620    -0.7070 H     1 <1>   0.0800 
 55 H        0.3120    11.6130    -1.5250 H     1 <1>   0.0800 
 56 H        4.1380    12.7300     0.4320 H     1 <1>   0.4000 
 57 H        2.1780    13.1910    -1.4950 H     1 <1>   0.0800 
 58 H        2.0300    13.3750     0.2400 H     1 <1>   0.0800 
@<TRIPOS>BOND
  1   1   2  2   
  2   2   3  am  
  3   2   4  am  
  4   3   5  1   
  5   3   6  1   
  6   4   7  1   
  7   4   8  1   
  8   5   9  1   
  9   5  28  1   
 10   5  29  1   
 11   6  10  1   
 12   6  30  1   
 13   6  31  1   
 14   7  11  1   
 15   7  32  1   
 16   7  33  1   
 17   8  12  1   
 18   8  34  1   
 19   8  35  1   
 20   9  13  1   
 21   9  36  1   
 22   9  37  1   
 23  10  13  1   
 24  10  38  1   
 25  10  39  1   
 26  11  12  1   
 27  11  40  1   
 28  11  41  1   
 29  12  42  1   
 30  12  43  1   
 31  13  14  1   
 32  13  44  1   
 33  14  15  1   
 34  14  45  1   
 35  15  16  ar  
 36  15  17  ar  
 37  16  18  ar  
 38  17  19  ar  
 39  17  46  1   
 40  18  20  1   
 41  18  21  ar  
 42  19  21  ar  
 43  19  47  1   
 44  20  22  1   
 45  20  23  1   
 46  21  48  1   
 47  22  24  1   
 48  22  49  1   
 49  22  50  1   
 50  23  25  1   
 51  23  51  1   
 52  23  52  1   
 53  24  26  1   
 54  24  27  1   
 55  24  53  1   
 56  25  27  1   
 57  25  54  1   
 58  25  55  1   
 59  26  56  1   
 60  27  57  1   
 61  27  58  1   
@<TRIPOS>SUBSTRUCTURE
  1 ****  17 GROUP 4 **** **** 0

# MOE 2024.06 (io_trps.svl 2023.06)
