@<TRIPOS>MOLECULE
NONAME
35 37 1 0 0 
SMALL
USER_CHARGES


@<TRIPOS>ATOM
  1 F       -0.7650    -0.0880     0.5750 F     1 <1>  -0.1900 
  2 C       -1.8460    -0.7870     0.3260 C.ar  1 <1>   0.1900 
  3 C       -2.9760    -0.1770    -0.1580 C.ar  1 <1>   0.1600 
  4 C       -1.8670    -2.1420     0.5470 C.ar  1 <1>   0.1600 
  5 N       -4.0660    -0.8700    -0.4110 N.ar  1 <1>  -0.6200 
  6 N       -2.9460    -2.8540     0.3020 N.ar  1 <1>  -0.6200 
  7 C       -4.0000    -2.1840    -0.1740 C.ar  1 <1>   0.7200 
  8 N       -5.1270    -2.9180    -0.4450 N.pl3 1 <1>  -0.8380 
  9 C       -6.4640    -2.3270    -0.7120 C.3   1 <1>   0.2090 
 10 C       -5.2540    -4.3690    -0.1520 C.3   1 <1>   0.2090 
 11 C       -7.4420    -3.3320    -0.1060 C.3   1 <1>   0.2000 
 12 C       -6.7450    -4.6810    -0.3190 C.3   1 <1>  -0.0800 
 13 O       -7.5370    -3.0740     1.2550 O.3   1 <1>  -0.6800 
 14 C       -7.2460    -5.8300     0.5760 C.3   1 <1>  -0.0170 
 15 C       -6.5330    -7.1310     0.2440 C.ar  1 <1>  -0.1430 
 16 C       -6.9100    -7.9130    -0.8300 C.ar  1 <1>  -0.1500 
 17 C       -5.4730    -7.5990     0.9940 C.ar  1 <1>  -0.1500 
 18 C       -6.2270    -9.0880    -1.0950 C.ar  1 <1>   0.1600 
 19 C       -4.8570    -8.7890     0.6430 C.ar  1 <1>   0.1600 
 20 N       -5.2090    -9.5450    -0.3840 N.ar  1 <1>  -0.6200 
 21 H       -2.9810     0.8830    -0.3370 H     1 <1>   0.1500 
 22 H       -0.9910    -2.6380     0.9260 H     1 <1>   0.1500 
 23 H       -6.5800    -1.3500    -0.2740 H     1 <1>   0.0800 
 24 H       -6.6080    -2.2610    -1.7760 H     1 <1>   0.0800 
 25 H       -4.6510    -4.9490    -0.8290 H     1 <1>   0.0800 
 26 H       -4.9350    -4.5560     0.8600 H     1 <1>   0.0800 
 27 H       -8.4270    -3.2820    -0.5360 H     1 <1>   0.0800 
 28 H       -6.8950    -4.9640    -1.3460 H     1 <1>   0.0800 
 29 H       -6.6340    -2.8830     1.5860 H     1 <1>   0.4000 
 30 H       -8.3050    -5.9570     0.4350 H     1 <1>   0.0800 
 31 H       -7.0890    -5.5920     1.6140 H     1 <1>   0.0800 
 32 H       -7.7280    -7.6200    -1.4620 H     1 <1>   0.1500 
 33 H       -5.1190    -7.0510     1.8480 H     1 <1>   0.1500 
 34 H       -6.5350    -9.6850    -1.9360 H     1 <1>   0.1500 
 35 H       -4.0320    -9.1370     1.2400 H     1 <1>   0.1500 
@<TRIPOS>BOND
  1   1   2  1   
  2   2   3  ar  
  3   2   4  ar  
  4   3   5  ar  
  5   3  21  1   
  6   4   6  ar  
  7   4  22  1   
  8   5   7  ar  
  9   6   7  ar  
 10   7   8  1   
 11   8   9  1   
 12   8  10  1   
 13   9  11  1   
 14   9  23  1   
 15   9  24  1   
 16  10  12  1   
 17  10  25  1   
 18  10  26  1   
 19  11  12  1   
 20  11  13  1   
 21  11  27  1   
 22  12  14  1   
 23  12  28  1   
 24  13  29  1   
 25  14  15  1   
 26  14  30  1   
 27  14  31  1   
 28  15  16  ar  
 29  15  17  ar  
 30  16  18  ar  
 31  16  32  1   
 32  17  19  ar  
 33  17  33  1   
 34  18  20  ar  
 35  18  34  1   
 36  19  20  ar  
 37  19  35  1   
@<TRIPOS>SUBSTRUCTURE
  1 ****  10 GROUP 4 **** **** 0

# MOE 2024.06 (io_trps.svl 2023.06)
