@<TRIPOS>MOLECULE
NONAME
50 53 1 0 0 
SMALL
USER_CHARGES


@<TRIPOS>ATOM
  1 O        0.5910    -0.4360     1.1060 O.3   1 <1>  -0.5600 
  2 C        1.7230    -0.9760     0.4620 C.3   1 <1>   0.4240 
  3 C       -0.6620    -0.8440     0.6530 C.3   1 <1>   0.1200 
  4 C        1.5270    -2.4720     0.1300 C.ar  1 <1>  -0.1440 
  5 C        2.8790    -0.7920     1.4520 C.3   1 <1>  -0.1600 
  6 C        1.9940    -0.1580    -0.8100 C.3   1 <1>  -0.1600 
  7 C       -0.8350    -2.3280     0.9600 C.3   1 <1>  -0.0160 
  8 C        0.3180    -3.1130     0.3660 C.ar  1 <1>  -0.1440 
  9 C        2.5640    -3.2120    -0.4250 C.ar  1 <1>  -0.1500 
 10 C        3.1510     0.6840     1.7480 C.3   1 <1>   0.2090 
 11 C        2.2380     1.3160    -0.4940 C.3   1 <1>   0.2090 
 12 C        0.1570    -4.4550     0.0610 C.ar  1 <1>  -0.1500 
 13 C        2.4230    -4.5550    -0.7300 C.ar  1 <1>   0.0820 
 14 N        3.3550     1.4370     0.4790 N.pl3 1 <1>  -0.8380 
 15 C        1.1970    -5.1940    -0.4970 C.ar  1 <1>   0.0820 
 16 O        3.5320    -5.1470    -1.2560 O.3   1 <1>  -0.3630 
 17 C        4.6340     1.7370     0.0380 C.ar  1 <1>   0.4100 
 18 O        1.0380    -6.5090    -0.8340 O.3   1 <1>  -0.3630 
 19 C        3.8630    -6.4760    -0.9180 C.3   1 <1>   0.0400 
 20 N        5.5130     0.7410     0.1210 N.ar  1 <1>  -0.6200 
 21 C        4.9590     3.0100    -0.4580 C.ar  1 <1>   0.0730 
 22 C       -0.2180    -7.1490    -0.7860 C.3   1 <1>   0.0400 
 23 C        6.7370     0.9920    -0.3010 C.ar  1 <1>   0.1600 
 24 C        3.9850     4.0560    -0.5140 C.1   1 <1>   0.4840 
 25 C        6.2510     3.2430    -0.8940 C.ar  1 <1>  -0.1500 
 26 C        7.1550     2.2060    -0.8120 C.ar  1 <1>  -0.1500 
 27 N        3.2330     4.9100    -0.6040 N.1   1 <1>  -0.5570 
 28 H       -0.7380    -0.6540    -0.4030 H     1 <1>   0.0800 
 29 H       -1.4040    -0.2630     1.1710 H     1 <1>   0.0800 
 30 H        3.7790    -1.2200     1.0540 H     1 <1>   0.0800 
 31 H        2.6510    -1.3110     2.3640 H     1 <1>   0.0800 
 32 H        1.1760    -0.2590    -1.4970 H     1 <1>   0.0800 
 33 H        2.8690    -0.5410    -1.3010 H     1 <1>   0.0800 
 34 H       -1.7690    -2.6670     0.5490 H     1 <1>   0.0800 
 35 H       -0.8610    -2.4720     2.0260 H     1 <1>   0.0800 
 36 H        3.5140    -2.7510    -0.6290 H     1 <1>   0.1500 
 37 H        4.0240     0.7750     2.3710 H     1 <1>   0.0800 
 38 H        2.3160     1.1110     2.2780 H     1 <1>   0.0800 
 39 H        1.3520     1.7590    -0.0710 H     1 <1>   0.0800 
 40 H        2.4770     1.8420    -1.4020 H     1 <1>   0.0800 
 41 H       -0.7920    -4.9090     0.2650 H     1 <1>   0.1500 
 42 H        4.9160    -6.6110    -1.0850 H     1 <1>   0.0800 
 43 H        3.3060    -7.1430    -1.5510 H     1 <1>   0.0800 
 44 H        3.6260    -6.6460     0.1170 H     1 <1>   0.0800 
 45 H       -0.0980    -8.1470    -1.1660 H     1 <1>   0.0800 
 46 H       -0.9110    -6.6050    -1.4040 H     1 <1>   0.0800 
 47 H       -0.5540    -7.1860     0.2350 H     1 <1>   0.0800 
 48 H        7.4470     0.1840    -0.2370 H     1 <1>   0.1500 
 49 H        6.5440     4.2040    -1.2840 H     1 <1>   0.1500 
 50 H        8.1720     2.3350    -1.1370 H     1 <1>   0.1500 
@<TRIPOS>BOND
  1   1   2  1   
  2   1   3  1   
  3   2   4  1   
  4   2   5  1   
  5   2   6  1   
  6   3   7  1   
  7   3  28  1   
  8   3  29  1   
  9   4   8  ar  
 10   4   9  ar  
 11   5  10  1   
 12   5  30  1   
 13   5  31  1   
 14   6  11  1   
 15   6  32  1   
 16   6  33  1   
 17   7   8  1   
 18   7  34  1   
 19   7  35  1   
 20   8  12  ar  
 21   9  13  ar  
 22   9  36  1   
 23  10  14  1   
 24  10  37  1   
 25  10  38  1   
 26  11  14  1   
 27  11  39  1   
 28  11  40  1   
 29  12  15  ar  
 30  12  41  1   
 31  13  15  ar  
 32  13  16  1   
 33  14  17  1   
 34  15  18  1   
 35  16  19  1   
 36  17  20  ar  
 37  17  21  ar  
 38  18  22  1   
 39  19  42  1   
 40  19  43  1   
 41  19  44  1   
 42  20  23  ar  
 43  21  24  1   
 44  21  25  ar  
 45  22  45  1   
 46  22  46  1   
 47  22  47  1   
 48  23  26  ar  
 49  23  48  1   
 50  24  27  3   
 51  25  26  ar  
 52  25  49  1   
 53  26  50  1   
@<TRIPOS>SUBSTRUCTURE
  1 ****   2 GROUP 4 **** **** 0

# MOE 2024.06 (io_trps.svl 2023.06)
