@<TRIPOS>MOLECULE
NONAME
43 45 1 0 0 
SMALL
USER_CHARGES


@<TRIPOS>ATOM
  1 O        1.1170    -0.7920     0.8930 O.3   1 <1>  -0.5600 
  2 C        0.0010    -1.6290     0.9840 C.3   1 <1>   0.1200 
  3 C        1.5520    -0.4960    -0.3900 C.3   1 <1>   0.1200 
  4 C        0.4110    -3.1050     0.8210 C.3   1 <1>   0.1900 
  5 C        2.1190    -1.7390    -1.0960 C.3   1 <1>  -0.0800 
  6 N        0.4410    -3.5920    -0.6030 N.3   1 <1>  -0.8100 
  7 C        1.7780    -3.3650     1.5000 C.3   1 <1>   0.3430 
  8 C        0.9910    -2.6610    -1.6090 C.3   1 <1>   0.1100 
  9 C        3.2490    -2.4070    -0.2760 C.3   1 <1>   0.3430 
 10 C       -0.8330    -4.1960    -1.0410 C.3   1 <1>   0.2910 
 11 N        2.8300    -3.6330     0.4680 N.4   1 <1>  -0.9590 
 12 C       -1.0960    -5.4490    -0.2290 C.2   1 <1>  -0.1810 
 13 C        3.9770    -4.4070     1.0170 C.3   1 <1>   0.2630 
 14 C       -2.0240    -5.6950     0.7120 C.2   1 <1>  -0.0400 
 15 C       -0.3800    -6.6440    -0.2920 C.2   1 <1>   0.1080 
 16 O       -1.8320    -6.9080     1.1550 O.3   1 <1>  -0.0190 
 17 C       -3.1520    -4.8700     1.2970 C.3   1 <1>  -0.0600 
 18 N       -0.8360    -7.4920     0.5570 N.2   1 <1>  -0.4100 
 19 C        0.7690    -6.9450    -1.2290 C.3   1 <1>  -0.0590 
 20 H       -0.4030    -1.4850     1.9720 H     1 <1>   0.0800 
 21 H       -0.7480    -1.3330     0.2700 H     1 <1>   0.0800 
 22 H        0.7350    -0.0620    -0.9430 H     1 <1>   0.0800 
 23 H        2.3200     0.2520    -0.2920 H     1 <1>   0.0800 
 24 H       -0.3120    -3.6770     1.3740 H     1 <1>   0.0800 
 25 H        2.5920    -1.3450    -1.9770 H     1 <1>   0.0800 
 26 H        1.6700    -4.2300     2.1340 H     1 <1>   0.0800 
 27 H        2.0550    -2.5300     2.1230 H     1 <1>   0.0800 
 28 H        1.3690    -3.2470    -2.4310 H     1 <1>   0.0800 
 29 H        0.1960    -2.0480    -2.0020 H     1 <1>   0.0800 
 30 H        3.6580    -1.6860     0.4140 H     1 <1>   0.0800 
 31 H        4.0340    -2.6810    -0.9620 H     1 <1>   0.0800 
 32 H       -1.6380    -3.4920    -0.9220 H     1 <1>   0.0800 
 33 H       -0.7750    -4.4680    -2.0820 H     1 <1>   0.0800 
 34 H        2.2880    -4.1910    -0.2200 H     1 <1>   0.4500 
 35 H        4.5000    -3.8240     1.7570 H     1 <1>   0.0800 
 36 H        4.6650    -4.6660     0.2290 H     1 <1>   0.0800 
 37 H        3.6250    -5.3160     1.4780 H     1 <1>   0.0800 
 38 H       -3.1890    -3.8970     0.8460 H     1 <1>   0.0800 
 39 H       -3.0110    -4.7620     2.3570 H     1 <1>   0.0800 
 40 H       -4.0880    -5.3690     1.1240 H     1 <1>   0.0800 
 41 H        1.5560    -6.2290    -1.0910 H     1 <1>   0.0800 
 42 H        0.4260    -6.9080    -2.2460 H     1 <1>   0.0800 
 43 H        1.1540    -7.9300    -1.0310 H     1 <1>   0.0800 
@<TRIPOS>BOND
  1   1   2  1   
  2   1   3  1   
  3   2   4  1   
  4   2  20  1   
  5   2  21  1   
  6   3   5  1   
  7   3  22  1   
  8   3  23  1   
  9   4   6  1   
 10   4   7  1   
 11   4  24  1   
 12   5   8  1   
 13   5   9  1   
 14   5  25  1   
 15   6   8  1   
 16   6  10  1   
 17   7  11  1   
 18   7  26  1   
 19   7  27  1   
 20   8  28  1   
 21   8  29  1   
 22   9  11  1   
 23   9  30  1   
 24   9  31  1   
 25  10  12  1   
 26  10  32  1   
 27  10  33  1   
 28  11  13  1   
 29  11  34  1   
 30  12  14  2   
 31  12  15  1   
 32  13  35  1   
 33  13  36  1   
 34  13  37  1   
 35  14  16  1   
 36  14  17  1   
 37  15  18  2   
 38  15  19  1   
 39  16  18  1   
 40  17  38  1   
 41  17  39  1   
 42  17  40  1   
 43  19  41  1   
 44  19  42  1   
 45  19  43  1   
@<TRIPOS>SUBSTRUCTURE
  1 ****   6 GROUP 4 **** **** 0

# MOE 2024.06 (io_trps.svl 2023.06)
