@<TRIPOS>MOLECULE
NONAME
45 46 1 0 0 
SMALL
USER_CHARGES


@<TRIPOS>ATOM
  1 S        0.4210    -0.9420     2.6050 S.o2  1 <1>   1.4470 
  2 O       -0.1760    -0.2330     3.7100 O.2   1 <1>  -0.6500 
  3 O        1.5660    -1.7910     2.8500 O.2   1 <1>  -0.6500 
  4 N       -0.7900    -1.9490     2.0280 N.am  1 <1>  -0.9140 
  5 C        0.7680     0.1680     1.2240 C.ar  1 <1>  -0.0090 
  6 C       -0.3330    -3.1250     1.3020 C.3   1 <1>   0.2760 
  7 C       -0.2350     0.9110     0.6220 C.ar  1 <1>   0.1900 
  8 C        2.0520     0.3210     0.7120 C.ar  1 <1>  -0.1500 
  9 C       -1.4740    -3.6610     0.4500 C.3   1 <1>  -0.0800 
 10 C       -0.1400    -4.2930     2.2650 C.3   1 <1>   0.1200 
 11 F       -1.4630     0.8130     1.0560 F     1 <1>  -0.1900 
 12 C       -0.0070     1.7650    -0.4410 C.ar  1 <1>  -0.1500 
 13 C        2.3050     1.1720    -0.3530 C.ar  1 <1>  -0.1500 
 14 C       -2.2580    -4.5430     1.4330 C.3   1 <1>   0.1200 
 15 C       -2.3250    -2.5800    -0.2500 C.3   1 <1>  -0.0550 
 16 O       -1.4310    -4.7360     2.5440 O.3   1 <1>  -0.5600 
 17 C        1.2790     1.8970    -0.9370 C.ar  1 <1>  -0.1430 
 18 S       -3.5420    -3.2610    -1.3720 S.o2  1 <1>   1.3330 
 19 C        1.5610     2.8300    -2.1010 C.3   1 <1>  -0.0970 
 20 O       -4.5740    -3.9280    -0.6100 O.2   1 <1>  -0.6500 
 21 O       -2.8260    -3.9900    -2.3940 O.2   1 <1>  -0.6500 
 22 N       -4.2260    -1.8810    -2.0840 N.am  1 <1>  -0.8490 
 23 C       -4.8210    -2.1750    -3.3910 C.3   1 <1>   0.1160 
 24 C       -5.2110    -1.2120    -1.2270 C.3   1 <1>   0.1160 
 25 H       -1.2550    -2.2990     2.8680 H     1 <1>   0.4200 
 26 H        0.5450    -2.9120     0.7140 H     1 <1>   0.0800 
 27 H        2.8680    -0.2320     1.1500 H     1 <1>   0.1500 
 28 H       -1.0550    -4.3070    -0.3030 H     1 <1>   0.0800 
 29 H        0.3560    -4.0200     3.1800 H     1 <1>   0.0800 
 30 H        0.3920    -5.0980     1.7900 H     1 <1>   0.0800 
 31 H       -0.8260     2.3160    -0.8660 H     1 <1>   0.1500 
 32 H        3.3110     1.2690    -0.7260 H     1 <1>   0.1500 
 33 H       -2.5010    -5.5010     1.0060 H     1 <1>   0.0800 
 34 H       -3.1590    -4.0620     1.7770 H     1 <1>   0.0800 
 35 H       -1.6720    -1.9350    -0.8040 H     1 <1>   0.0800 
 36 H       -2.8240    -1.9800     0.4870 H     1 <1>   0.0800 
 37 H        2.3860     2.4650    -2.6870 H     1 <1>   0.0800 
 38 H        1.8070     3.8100    -1.7320 H     1 <1>   0.0800 
 39 H        0.7010     2.9080    -2.7410 H     1 <1>   0.0800 
 40 H       -5.2270    -1.2790    -3.8270 H     1 <1>   0.0800 
 41 H       -5.6050    -2.9080    -3.2890 H     1 <1>   0.0800 
 42 H       -4.0700    -2.5640    -4.0590 H     1 <1>   0.0800 
 43 H       -5.5570    -0.3070    -1.6980 H     1 <1>   0.0800 
 44 H       -4.7680    -0.9510    -0.2820 H     1 <1>   0.0800 
 45 H       -6.0560    -1.8580    -1.0470 H     1 <1>   0.0800 
@<TRIPOS>BOND
  1   1   2  2   
  2   1   3  2   
  3   1   4  am  
  4   1   5  1   
  5   4   6  1   
  6   4  25  1   
  7   5   7  ar  
  8   5   8  ar  
  9   6   9  1   
 10   6  10  1   
 11   6  26  1   
 12   7  11  1   
 13   7  12  ar  
 14   8  13  ar  
 15   8  27  1   
 16   9  14  1   
 17   9  15  1   
 18   9  28  1   
 19  10  16  1   
 20  10  29  1   
 21  10  30  1   
 22  12  17  ar  
 23  12  31  1   
 24  13  17  ar  
 25  13  32  1   
 26  14  16  1   
 27  14  33  1   
 28  14  34  1   
 29  15  18  1   
 30  15  35  1   
 31  15  36  1   
 32  17  19  1   
 33  18  20  2   
 34  18  21  2   
 35  18  22  am  
 36  19  37  1   
 37  19  38  1   
 38  19  39  1   
 39  22  23  1   
 40  22  24  1   
 41  23  40  1   
 42  23  41  1   
 43  23  42  1   
 44  24  43  1   
 45  24  44  1   
 46  24  45  1   
@<TRIPOS>SUBSTRUCTURE
  1 ****  15 GROUP 4 **** **** 0

# MOE 2024.06 (io_trps.svl 2023.06)
