@<TRIPOS>MOLECULE
NONAME
45 47 1 0 0 
SMALL
USER_CHARGES


@<TRIPOS>ATOM
  1 S        2.9210    -0.7980     0.6840 S.3   1 <1>  -0.0800 
  2 C        1.8260     0.3220    -0.1150 C.2   1 <1>  -0.1400 
  3 C        1.6030    -1.5130     1.5930 C.2   1 <1>  -0.1100 
  4 C        0.5650     0.1250     0.3130 C.2   1 <1>  -0.1500 
  5 C        2.4010     1.3050    -1.1250 C.3   1 <1>   0.0810 
  6 C        0.4370    -0.9180     1.2840 C.2   1 <1>  -0.1500 
  7 C        3.2070     2.4250    -0.4760 C.2   1 <1>   0.5690 
  8 O        2.5960     3.4250    -0.1730 O.2   1 <1>  -0.5700 
  9 N        4.5660     2.3410    -0.2780 N.am  1 <1>  -0.6600 
 10 C        5.4590     1.2130    -0.7030 C.3   1 <1>   0.1400 
 11 C        5.2840     3.4340     0.4360 C.3   1 <1>   0.1400 
 12 C        6.3010     1.5630    -1.9420 C.3   1 <1>   0.1400 
 13 C        5.7180     4.5430    -0.5300 C.3   1 <1>  -0.1600 
 14 N        7.0690     2.8370    -1.7680 N.am  1 <1>  -0.6600 
 15 C        6.2240     4.0590    -1.8960 C.3   1 <1>   0.1400 
 16 C        8.4040     2.8100    -1.4500 C.2   1 <1>   0.5690 
 17 O        9.0020     1.7670    -1.3260 O.2   1 <1>  -0.5700 
 18 C        9.2020     4.0730    -1.2070 C.3   1 <1>  -0.0990 
 19 C        9.8640     4.0210     0.1700 C.3   1 <1>   0.2810 
 20 N        8.8440     3.9160     1.2470 N.am  1 <1>  -0.7300 
 21 C       10.5270     5.3430     0.5570 C.2   1 <1>   0.5690 
 22 C        8.9770     4.9460     2.1040 C.2   1 <1>   0.6900 
 23 O       11.4160     5.8950    -0.0370 O.2   1 <1>  -0.5700 
 24 N        9.9340     5.7990     1.6830 N.am  1 <1>  -0.4900 
 25 O        8.3480     5.0750     3.1250 O.2   1 <1>  -0.5700 
 26 H        1.8440    -2.3120     2.2720 H     1 <1>   0.1500 
 27 H       -0.2990     0.6790    -0.0140 H     1 <1>   0.1500 
 28 H        1.5830     1.7610    -1.6510 H     1 <1>   0.0800 
 29 H        2.9870     0.7850    -1.8560 H     1 <1>   0.0800 
 30 H       -0.5230    -1.1670     1.7020 H     1 <1>   0.1500 
 31 H        4.8860     0.3320    -0.9160 H     1 <1>   0.0800 
 32 H        6.1210     0.9610     0.1070 H     1 <1>   0.0800 
 33 H        6.1510     3.0280     0.9280 H     1 <1>   0.0800 
 34 H        4.6500     3.8500     1.2010 H     1 <1>   0.0800 
 35 H        5.6570     1.6470    -2.7980 H     1 <1>   0.0800 
 36 H        6.9780     0.7490    -2.1380 H     1 <1>   0.0800 
 37 H        6.4760     5.1340    -0.0510 H     1 <1>   0.0800 
 38 H        4.8780     5.1950    -0.6940 H     1 <1>   0.0800 
 39 H        6.7660     4.8430    -2.3950 H     1 <1>   0.0800 
 40 H        5.3720     3.8310    -2.5130 H     1 <1>   0.0800 
 41 H        8.6060     4.9590    -1.2780 H     1 <1>   0.0800 
 42 H        9.9680     4.1360    -1.9580 H     1 <1>   0.0800 
 43 H       10.5710     3.2120     0.2400 H     1 <1>   0.0800 
 44 H        8.4510     3.0190     1.5380 H     1 <1>   0.3700 
 45 H       10.1970     6.6360     2.1910 H     1 <1>   0.3700 
@<TRIPOS>BOND
  1   1   2  1   
  2   1   3  1   
  3   2   4  2   
  4   2   5  1   
  5   3   6  2   
  6   3  26  1   
  7   4   6  1   
  8   4  27  1   
  9   5   7  1   
 10   5  28  1   
 11   5  29  1   
 12   6  30  1   
 13   7   8  2   
 14   7   9  am  
 15   9  10  1   
 16   9  11  1   
 17  10  12  1   
 18  10  31  1   
 19  10  32  1   
 20  11  13  1   
 21  11  33  1   
 22  11  34  1   
 23  12  14  1   
 24  12  35  1   
 25  12  36  1   
 26  13  15  1   
 27  13  37  1   
 28  13  38  1   
 29  14  15  1   
 30  14  16  am  
 31  15  39  1   
 32  15  40  1   
 33  16  17  2   
 34  16  18  1   
 35  18  19  1   
 36  18  41  1   
 37  18  42  1   
 38  19  20  1   
 39  19  21  1   
 40  19  43  1   
 41  20  22  am  
 42  20  44  1   
 43  21  23  2   
 44  21  24  am  
 45  22  24  am  
 46  22  25  2   
 47  24  45  1   
@<TRIPOS>SUBSTRUCTURE
  1 ****  11 GROUP 4 **** **** 0

# MOE 2024.06 (io_trps.svl 2023.06)
