@<TRIPOS>MOLECULE
NONAME
45 46 1 0 0 
SMALL
USER_CHARGES


@<TRIPOS>ATOM
  1 O        0.2560     0.1020    -0.5960 O.co2 1 <1>  -0.9000 
  2 C        1.4320    -0.0290    -0.9260 C.2   1 <1>   0.9060 
  3 O        1.8150    -0.7530    -1.8530 O.co2 1 <1>  -0.9000 
  4 C        2.4830     0.7120    -0.1320 C.3   1 <1>  -0.1860 
  5 C        3.5330    -0.2800     0.3790 C.3   1 <1>   0.2000 
  6 C        3.1190     1.8770    -0.9340 C.3   1 <1>  -0.1600 
  7 O        4.1660    -0.8500    -0.7130 O.3   1 <1>  -0.6800 
  8 C        4.5950     0.4420     1.2310 C.3   1 <1>   0.3430 
  9 C        4.6230     2.0340    -0.6940 C.3   1 <1>   0.3430 
 10 N        4.9260     1.8420     0.7590 N.4   1 <1>  -0.9590 
 11 C        6.3310     2.1910     1.0740 C.3   1 <1>   0.4860 
 12 C        6.5180     3.6850     0.8910 C.ar  1 <1>  -0.1430 
 13 C        7.0660     4.1760    -0.2820 C.ar  1 <1>  -0.1500 
 14 C        6.1440     4.5760     1.8840 C.ar  1 <1>  -0.1500 
 15 C        7.2310     5.5340    -0.4930 C.ar  1 <1>   0.0830 
 16 C        6.3060     5.9380     1.6950 C.ar  1 <1>  -0.1500 
 17 O        7.7710     5.8360    -1.7090 O.3   1 <1>  -0.3630 
 18 C        6.8430     6.4400     0.5110 C.ar  1 <1>   0.0830 
 19 C        8.2780     7.1110    -2.0350 C.3   1 <1>   0.0400 
 20 O        6.9830     7.7830     0.3170 O.3   1 <1>  -0.3630 
 21 C        6.7050     8.7350     1.3180 C.3   1 <1>   0.1200 
 22 C        7.0430    10.1140     0.7590 C.3   1 <1>  -0.2400 
 23 H        1.9820     1.1250     0.7240 H     1 <1>   0.0800 
 24 H        3.0690    -1.0780     0.9340 H     1 <1>   0.0800 
 25 H        2.6070     2.7950    -0.7030 H     1 <1>   0.0800 
 26 H        2.9790     1.7000    -1.9870 H     1 <1>   0.0800 
 27 H        3.4310    -1.0570    -1.3730 H     1 <1>   0.4000 
 28 H        5.4790    -0.1730     1.2290 H     1 <1>   0.0800 
 29 H        4.2340     0.4960     2.2440 H     1 <1>   0.0800 
 30 H        4.9360     3.0100    -1.0280 H     1 <1>   0.0800 
 31 H        5.1500     1.2900    -1.2710 H     1 <1>   0.0800 
 32 H        4.3160     2.5040     1.2500 H     1 <1>   0.4500 
 33 H        6.5580     1.9290     2.0950 H     1 <1>   0.0800 
 34 H        7.0020     1.6510     0.4260 H     1 <1>   0.0800 
 35 H        7.3780     3.5080    -1.0660 H     1 <1>   0.1500 
 36 H        5.7260     4.2260     2.8130 H     1 <1>   0.1500 
 37 H        6.0030     6.5940     2.4890 H     1 <1>   0.1500 
 38 H        8.7870     7.0390    -2.9790 H     1 <1>   0.0800 
 39 H        8.9680     7.4210    -1.2700 H     1 <1>   0.0800 
 40 H        7.4590     7.8030    -2.1150 H     1 <1>   0.0800 
 41 H        5.6600     8.6740     1.5690 H     1 <1>   0.0800 
 42 H        7.3140     8.5150     2.1780 H     1 <1>   0.0800 
 43 H        6.4430    10.3180    -0.1100 H     1 <1>   0.0800 
 44 H        8.0840    10.1620     0.4970 H     1 <1>   0.0800 
 45 H        6.8410    10.8670     1.4990 H     1 <1>   0.0800 
@<TRIPOS>BOND
  1   1   2  ar  
  2   2   3  ar  
  3   2   4  1   
  4   4   5  1   
  5   4   6  1   
  6   4  23  1   
  7   5   7  1   
  8   5   8  1   
  9   5  24  1   
 10   6   9  1   
 11   6  25  1   
 12   6  26  1   
 13   7  27  1   
 14   8  10  1   
 15   8  28  1   
 16   8  29  1   
 17   9  10  1   
 18   9  30  1   
 19   9  31  1   
 20  10  11  1   
 21  10  32  1   
 22  11  12  1   
 23  11  33  1   
 24  11  34  1   
 25  12  13  ar  
 26  12  14  ar  
 27  13  15  ar  
 28  13  35  1   
 29  14  16  ar  
 30  14  36  1   
 31  15  17  1   
 32  15  18  ar  
 33  16  18  ar  
 34  16  37  1   
 35  17  19  1   
 36  18  20  1   
 37  19  38  1   
 38  19  39  1   
 39  19  40  1   
 40  20  21  1   
 41  21  22  1   
 42  21  41  1   
 43  21  42  1   
 44  22  43  1   
 45  22  44  1   
 46  22  45  1   
@<TRIPOS>SUBSTRUCTURE
  1 ****  12 GROUP 4 **** **** 0

# MOE 2024.06 (io_trps.svl 2023.06)
