@<TRIPOS>MOLECULE
NONAME
60 63 1 0 0 
SMALL
USER_CHARGES


@<TRIPOS>ATOM
  1 O        1.1670    -2.7800     1.7990 O.3   1 <1>  -0.5600 
  2 C       -0.1890    -2.7840     2.1510 C.3   1 <1>   0.1200 
  3 C        1.4300    -2.1650     0.5660 C.3   1 <1>   0.1200 
  4 C       -1.0190    -3.5520     1.0960 C.3   1 <1>   0.3430 
  5 C        0.6390    -2.8560    -0.5690 C.3   1 <1>   0.3430 
  6 N       -0.1450    -4.0400    -0.0410 N.4   1 <1>  -0.9590 
  7 C       -0.8200    -4.9170    -1.0630 C.3   1 <1>   0.5030 
  8 C       -1.4400    -6.1950    -0.3790 C.3   1 <1>   0.3430 
  9 C       -1.8890    -4.0900    -1.7940 C.3   1 <1>  -0.2400 
 10 C        0.2390    -5.3730    -2.0760 C.3   1 <1>  -0.2400 
 11 N       -2.1950    -7.1890    -1.2470 N.4   1 <1>  -0.9590 
 12 C       -3.6460    -6.8120    -1.4150 C.3   1 <1>   0.3430 
 13 C       -2.2210    -8.5300    -0.5590 C.3   1 <1>   0.3430 
 14 C       -4.3950    -7.5080    -0.2770 C.3   1 <1>   0.2000 
 15 C       -3.6810    -8.8560    -0.2210 C.3   1 <1>  -0.0800 
 16 O       -4.1690    -6.7910     0.8980 O.3   1 <1>  -0.6800 
 17 C       -3.8430    -9.6780     1.0760 C.3   1 <1>  -0.0170 
 18 C       -2.8800   -10.8610     1.0730 C.ar  1 <1>  -0.1440 
 19 C       -3.0570   -11.9850     0.2290 C.ar  1 <1>   0.0000 
 20 C       -1.7830   -10.8500     1.8860 C.ar  1 <1>  -0.1500 
 21 C       -2.0390   -12.9700     0.2270 C.ar  1 <1>   0.3100 
 22 C       -4.1800   -12.1950    -0.6050 C.ar  1 <1>  -0.1500 
 23 C       -0.8530   -11.8940     1.8300 C.ar  1 <1>   0.1600 
 24 N       -0.9470   -12.9030     1.0260 N.ar  1 <1>  -0.6200 
 25 C       -2.1580   -14.0710    -0.6360 C.ar  1 <1>  -0.1500 
 26 C       -4.2690   -13.2830    -1.4300 C.ar  1 <1>  -0.1500 
 27 C       -3.2430   -14.2300    -1.4540 C.ar  1 <1>  -0.1500 
 28 H       -0.2780    -3.2540     3.1160 H     1 <1>   0.0800 
 29 H       -0.5270    -1.7650     2.2430 H     1 <1>   0.0800 
 30 H        1.1740    -1.1210     0.6350 H     1 <1>   0.0800 
 31 H        2.4880    -2.2390     0.3830 H     1 <1>   0.0800 
 32 H       -1.7890    -2.8980     0.7200 H     1 <1>   0.0800 
 33 H       -1.5060    -4.3790     1.5840 H     1 <1>   0.0800 
 34 H        1.3400    -3.1680    -1.3250 H     1 <1>   0.0800 
 35 H       -0.0260    -2.1370    -1.0190 H     1 <1>   0.0800 
 36 H        0.5930    -4.5840     0.4350 H     1 <1>   0.4500 
 37 H       -2.0980    -5.8720     0.4080 H     1 <1>   0.0800 
 38 H       -0.6230    -6.7200     0.0860 H     1 <1>   0.0800 
 39 H       -2.3090    -4.6550    -2.6060 H     1 <1>   0.0800 
 40 H       -1.4720    -3.1990    -2.2280 H     1 <1>   0.0800 
 41 H       -2.6910    -3.8110    -1.1340 H     1 <1>   0.0800 
 42 H       -0.1850    -6.0650    -2.7820 H     1 <1>   0.0800 
 43 H        1.0590    -5.8670    -1.5840 H     1 <1>   0.0800 
 44 H        0.6210    -4.5510    -2.6550 H     1 <1>   0.0800 
 45 H       -1.7470    -7.3030    -2.1680 H     1 <1>   0.4500 
 46 H       -3.8100    -5.7490    -1.3870 H     1 <1>   0.0800 
 47 H       -4.0100    -7.1980    -2.3540 H     1 <1>   0.0800 
 48 H       -1.8080    -9.3030    -1.1900 H     1 <1>   0.0800 
 49 H       -1.6460    -8.4930     0.3520 H     1 <1>   0.0800 
 50 H       -5.4560    -7.5770    -0.4550 H     1 <1>   0.0800 
 51 H       -4.0540    -9.4490    -1.0380 H     1 <1>   0.0800 
 52 H       -4.8230    -7.0450     1.5870 H     1 <1>   0.4000 
 53 H       -4.8560   -10.0270     1.1810 H     1 <1>   0.0800 
 54 H       -3.6310    -9.0670     1.9360 H     1 <1>   0.0800 
 55 H       -1.5950   -10.0540     2.5830 H     1 <1>   0.1500 
 56 H       -4.9950   -11.4980    -0.5890 H     1 <1>   0.1500 
 57 H       -0.0020   -11.8530     2.4900 H     1 <1>   0.1500 
 58 H       -1.3620   -14.7930    -0.6290 H     1 <1>   0.1500 
 59 H       -5.1270   -13.4320    -2.0640 H     1 <1>   0.1500 
 60 H       -3.3210   -15.0800    -2.1100 H     1 <1>   0.1500 
@<TRIPOS>BOND
  1   1   2  1   
  2   1   3  1   
  3   2   4  1   
  4   2  28  1   
  5   2  29  1   
  6   3   5  1   
  7   3  30  1   
  8   3  31  1   
  9   4   6  1   
 10   4  32  1   
 11   4  33  1   
 12   5   6  1   
 13   5  34  1   
 14   5  35  1   
 15   6   7  1   
 16   6  36  1   
 17   7   8  1   
 18   7   9  1   
 19   7  10  1   
 20   8  11  1   
 21   8  37  1   
 22   8  38  1   
 23   9  39  1   
 24   9  40  1   
 25   9  41  1   
 26  10  42  1   
 27  10  43  1   
 28  10  44  1   
 29  11  12  1   
 30  11  13  1   
 31  11  45  1   
 32  12  14  1   
 33  12  46  1   
 34  12  47  1   
 35  13  15  1   
 36  13  48  1   
 37  13  49  1   
 38  14  15  1   
 39  14  16  1   
 40  14  50  1   
 41  15  17  1   
 42  15  51  1   
 43  16  52  1   
 44  17  18  1   
 45  17  53  1   
 46  17  54  1   
 47  18  19  ar  
 48  18  20  ar  
 49  19  21  ar  
 50  19  22  ar  
 51  20  23  ar  
 52  20  55  1   
 53  21  24  ar  
 54  21  25  ar  
 55  22  26  ar  
 56  22  56  1   
 57  23  24  ar  
 58  23  57  1   
 59  25  27  ar  
 60  25  58  1   
 61  26  27  ar  
 62  26  59  1   
 63  27  60  1   
@<TRIPOS>SUBSTRUCTURE
  1 ****  13 GROUP 4 **** **** 0

# MOE 2024.06 (io_trps.svl 2023.06)
