@<TRIPOS>MOLECULE
NONAME
50 53 1 0 0 
SMALL
USER_CHARGES


@<TRIPOS>ATOM
  1 O       -0.0480    -0.0490     0.1090 O.2   1 <1>  -0.5700 
  2 C        1.0800    -0.5060     0.1160 C.2   1 <1>   0.7150 
  3 N        2.1640     0.3220     0.2230 N.am  1 <1>  -0.4940 
  4 C        1.3280    -1.9250     0.0280 C.2   1 <1>  -0.2370 
  5 C        2.2550     1.7340     0.2400 C.2   1 <1>  -0.0880 
  6 N        0.3900    -2.9050     0.2990 N.pl3 1 <1>   0.0480 
  7 C        2.4910    -2.5540    -0.3260 C.2   1 <1>  -0.1500 
  8 N        3.3530     2.4590     0.6050 N.pl3 1 <1>   0.3140 
  9 C        1.3060     2.6360    -0.1040 C.2   1 <1>  -0.1500 
 10 C        0.9750    -4.1380     0.1160 C.ar  1 <1>  -0.1520 
 11 C       -1.0060    -2.6910     0.7410 C.3   1 <1>   0.0160 
 12 C        2.2930    -3.9420    -0.2750 C.ar  1 <1>   0.0000 
 13 N        3.1160     3.7910     0.4890 N.2   1 <1>  -0.7070 
 14 C        4.6590     1.9940     1.1640 C.3   1 <1>   0.2710 
 15 C        1.8960     3.8790     0.0680 C.2   1 <1>   0.1080 
 16 C        0.4690    -5.4360     0.2540 C.ar  1 <1>  -0.1500 
 17 C        3.1210    -5.0410    -0.5280 C.ar  1 <1>  -0.1500 
 18 C        5.1950     0.7210     0.4770 C.3   1 <1>  -0.1950 
 19 C        4.5500     1.7850     2.6800 C.3   1 <1>  -0.2400 
 20 C        1.2240     5.2060    -0.1940 C.3   1 <1>  -0.0590 
 21 C        1.2890    -6.5120     0.0030 C.ar  1 <1>  -0.1500 
 22 C        2.6270    -6.3170    -0.3910 C.ar  1 <1>   0.0830 
 23 C        6.6360     0.6400     0.0760 C.3   1 <1>  -0.2000 
 24 C        5.5670     0.7130    -0.9740 C.3   1 <1>  -0.2000 
 25 O        3.4850    -7.3420    -0.6530 O.3   1 <1>  -0.3630 
 26 C        3.0630    -8.6850    -0.5640 C.3   1 <1>   0.0400 
 27 H        3.0460    -0.1820     0.2560 H     1 <1>   0.3700 
 28 H        3.4270    -2.1130    -0.6170 H     1 <1>   0.1500 
 29 H        0.3030     2.4470    -0.4430 H     1 <1>   0.1500 
 30 H       -1.0170    -2.0010     1.5650 H     1 <1>   0.0800 
 31 H       -1.4470    -3.6170     1.0530 H     1 <1>   0.0800 
 32 H       -1.5730    -2.2790    -0.0740 H     1 <1>   0.0800 
 33 H        5.3590     2.7910     0.9840 H     1 <1>   0.0800 
 34 H       -0.5510    -5.5900     0.5520 H     1 <1>   0.1500 
 35 H        4.1380    -4.8820    -0.8300 H     1 <1>   0.1500 
 36 H        4.8010    -0.1810     0.9120 H     1 <1>   0.1000 
 37 H        3.8340     1.0160     2.9060 H     1 <1>   0.0800 
 38 H        4.2420     2.7020     3.1510 H     1 <1>   0.0800 
 39 H        5.5050     1.5000     3.0810 H     1 <1>   0.0800 
 40 H        0.2160     5.0560    -0.5310 H     1 <1>   0.0800 
 41 H        1.7730     5.7430    -0.9450 H     1 <1>   0.0800 
 42 H        1.2120     5.7850     0.7110 H     1 <1>   0.0800 
 43 H        0.8910    -7.5020     0.1130 H     1 <1>   0.1500 
 44 H        7.1630    -0.2900     0.2070 H     1 <1>   0.1000 
 45 H        7.2780     1.4950     0.2060 H     1 <1>   0.1000 
 46 H        5.4630     1.6230    -1.5430 H     1 <1>   0.1000 
 47 H        5.3610    -0.1630    -1.5640 H     1 <1>   0.1000 
 48 H        3.8970    -9.3130    -0.8210 H     1 <1>   0.0800 
 49 H        2.2580    -8.8450    -1.2590 H     1 <1>   0.0800 
 50 H        2.7520    -8.8870     0.4450 H     1 <1>   0.0800 
@<TRIPOS>BOND
  1   1   2  2   
  2   2   3  am  
  3   2   4  1   
  4   3   5  1   
  5   3  27  1   
  6   4   6  1   
  7   4   7  2   
  8   5   8  1   
  9   5   9  2   
 10   6  10  1   
 11   6  11  1   
 12   7  12  1   
 13   7  28  1   
 14   8  13  1   
 15   8  14  1   
 16   9  15  1   
 17   9  29  1   
 18  10  12  ar  
 19  10  16  ar  
 20  11  30  1   
 21  11  31  1   
 22  11  32  1   
 23  12  17  ar  
 24  13  15  2   
 25  14  18  1   
 26  14  19  1   
 27  14  33  1   
 28  15  20  1   
 29  16  21  ar  
 30  16  34  1   
 31  17  22  ar  
 32  17  35  1   
 33  18  23  1   
 34  18  24  1   
 35  18  36  1   
 36  19  37  1   
 37  19  38  1   
 38  19  39  1   
 39  20  40  1   
 40  20  41  1   
 41  20  42  1   
 42  21  22  ar  
 43  21  43  1   
 44  22  25  1   
 45  23  24  1   
 46  23  44  1   
 47  23  45  1   
 48  24  46  1   
 49  24  47  1   
 50  25  26  1   
 51  26  48  1   
 52  26  49  1   
 53  26  50  1   
@<TRIPOS>SUBSTRUCTURE
  1 ****   4 GROUP 4 **** **** 0

# MOE 2024.06 (io_trps.svl 2023.06)
