@<TRIPOS>MOLECULE
NONAME
53 55 1 0 0 
SMALL
USER_CHARGES


@<TRIPOS>ATOM
  1 O        0.3940     0.2050     0.1600 O.3   1 <1>  -0.5600 
  2 C        0.3140     1.4530     0.7910 C.3   1 <1>   0.2000 
  3 C        1.5730    -0.5030     0.3950 C.3   1 <1>   0.2000 
  4 C       -1.1070     2.0170     0.5520 C.3   1 <1>  -0.0800 
  5 C        1.4580     2.3650     0.2890 C.3   1 <1>   0.2090 
  6 C        2.7840     0.3070    -0.1250 C.3   1 <1>   0.2090 
  7 C        1.4110    -1.8610    -0.3000 C.3   1 <1>  -0.1600 
  8 C       -1.4490     2.2300    -0.9330 C.3   1 <1>  -0.2400 
  9 C       -1.3460     3.3230     1.3270 C.3   1 <1>  -0.2400 
 10 N        2.8020     1.7030     0.4310 N.pl3 1 <1>  -0.8380 
 11 C        2.5730    -2.8310    -0.0250 C.3   1 <1>  -0.1600 
 12 C        3.9280     2.4700     0.4010 C.ar  1 <1>   0.7710 
 13 C        2.3010    -4.1990    -0.6620 C.3   1 <1>  -0.1600 
 14 N        4.9840     2.0270     1.1410 N.ar  1 <1>  -0.1790 
 15 N        3.9620     3.5760    -0.2920 N.ar  1 <1>  -0.5670 
 16 C        3.4520    -5.1730    -0.3950 C.3   1 <1>  -0.2400 
 17 C        6.1580     2.6690     1.2040 C.ar  1 <1>   0.4610 
 18 C        5.1390     4.2520    -0.2650 C.ar  1 <1>   0.1050 
 19 N        7.1630     2.1900     1.9570 N.pl3 1 <1>  -0.9000 
 20 C        6.2410     3.8450     0.4500 C.ar  1 <1>   0.0000 
 21 N        5.4850     5.4030    -0.8920 N.pl3 1 <1>   0.3140 
 22 C        7.2030     4.8310     0.1820 C.2   1 <1>   0.1390 
 23 N        6.7640     5.7510    -0.6070 N.2   1 <1>  -0.7070 
 24 C        4.6540     6.2300    -1.7800 C.3   1 <1>   0.0160 
 25 H        0.4350     1.2900     1.8480 H     1 <1>   0.0800 
 26 H        1.6600    -0.6580     1.4570 H     1 <1>   0.0800 
 27 H       -1.7950     1.2870     0.9440 H     1 <1>   0.0800 
 28 H        1.4480     3.2860     0.8470 H     1 <1>   0.0800 
 29 H        1.2930     2.6060    -0.7460 H     1 <1>   0.0800 
 30 H        2.7240     0.3560    -1.2000 H     1 <1>   0.0800 
 31 H        3.6920    -0.2090     0.1290 H     1 <1>   0.0800 
 32 H        0.4990    -2.3090     0.0560 H     1 <1>   0.0800 
 33 H        1.3120    -1.7090    -1.3610 H     1 <1>   0.0800 
 34 H       -0.8470     3.0060    -1.3700 H     1 <1>   0.0800 
 35 H       -2.4830     2.5080    -1.0360 H     1 <1>   0.0800 
 36 H       -1.2950     1.3200    -1.4860 H     1 <1>   0.0800 
 37 H       -0.7430     4.1250     0.9400 H     1 <1>   0.0800 
 38 H       -1.1210     3.1890     2.3710 H     1 <1>   0.0800 
 39 H       -2.3800     3.6120     1.2450 H     1 <1>   0.0800 
 40 H        3.4890    -2.4390    -0.4290 H     1 <1>   0.0800 
 41 H        2.6930    -2.9570     1.0380 H     1 <1>   0.0800 
 42 H        1.3900    -4.6120    -0.2610 H     1 <1>   0.0800 
 43 H        2.1730    -4.0870    -1.7260 H     1 <1>   0.0800 
 44 H        4.7970     1.2010     1.6890 H     1 <1>   0.4570 
 45 H        3.5840    -5.3200     0.6630 H     1 <1>   0.0800 
 46 H        4.3690    -4.7980    -0.8130 H     1 <1>   0.0800 
 47 H        3.2370    -6.1260    -0.8460 H     1 <1>   0.0800 
 48 H        7.1560     1.3390     2.5310 H     1 <1>   0.4000 
 49 H        8.0710     2.6720     2.0220 H     1 <1>   0.4000 
 50 H        8.2020     4.8290     0.5870 H     1 <1>   0.1500 
 51 H        3.6910     5.7730    -1.9100 H     1 <1>   0.0800 
 52 H        5.1430     6.3200    -2.7320 H     1 <1>   0.0800 
 53 H        4.5390     7.2040    -1.3440 H     1 <1>   0.0800 
@<TRIPOS>BOND
  1   1   2  1   
  2   1   3  1   
  3   2   4  1   
  4   2   5  1   
  5   2  25  1   
  6   3   6  1   
  7   3   7  1   
  8   3  26  1   
  9   4   8  1   
 10   4   9  1   
 11   4  27  1   
 12   5  10  1   
 13   5  28  1   
 14   5  29  1   
 15   6  10  1   
 16   6  30  1   
 17   6  31  1   
 18   7  11  1   
 19   7  32  1   
 20   7  33  1   
 21   8  34  1   
 22   8  35  1   
 23   8  36  1   
 24   9  37  1   
 25   9  38  1   
 26   9  39  1   
 27  10  12  1   
 28  11  13  1   
 29  11  40  1   
 30  11  41  1   
 31  12  14  ar  
 32  12  15  ar  
 33  13  16  1   
 34  13  42  1   
 35  13  43  1   
 36  14  17  ar  
 37  14  44  1   
 38  15  18  ar  
 39  16  45  1   
 40  16  46  1   
 41  16  47  1   
 42  17  19  1   
 43  17  20  ar  
 44  18  20  ar  
 45  18  21  1   
 46  19  48  1   
 47  19  49  1   
 48  20  22  1   
 49  21  23  1   
 50  21  24  1   
 51  22  23  2   
 52  22  50  1   
 53  24  51  1   
 54  24  52  1   
 55  24  53  1   
@<TRIPOS>SUBSTRUCTURE
  1 ****  10 GROUP 4 **** **** 0

# MOE 2024.06 (io_trps.svl 2023.06)
