@<TRIPOS>MOLECULE
NONAME
50 52 1 0 0 
SMALL
USER_CHARGES


@<TRIPOS>ATOM
  1 O        0.7090     0.2790    -1.7370 O.2   1 <1>  -0.5700 
  2 C        1.5900    -0.3070    -1.1500 C.2   1 <1>   0.5690 
  3 N        2.4870     0.3620    -0.3470 N.am  1 <1>  -0.6600 
  4 C        1.6660    -1.8100    -1.3820 C.3   1 <1>   0.0810 
  5 C        3.5680    -0.2960     0.4500 C.3   1 <1>   0.1400 
  6 C        2.3610     1.8370    -0.1630 C.3   1 <1>   0.1400 
  7 C        0.8620    -2.5880    -0.3570 C.2   1 <1>  -0.0400 
  8 C        4.8990    -0.3140    -0.3180 C.3   1 <1>   0.1100 
  9 C        3.7070     2.5670    -0.0600 C.3   1 <1>  -0.1600 
 10 O        1.3130    -2.7410     0.8600 O.3   1 <1>  -0.0190 
 11 C       -0.3200    -3.2170    -0.4390 C.2   1 <1>  -0.1500 
 12 N        5.5810     0.9950    -0.3700 N.3   1 <1>  -0.8100 
 13 C        4.7810     2.0510    -1.0210 C.3   1 <1>   0.1100 
 14 N        0.4990    -3.4400     1.5950 N.2   1 <1>  -0.4100 
 15 C       -0.4970    -3.7390     0.8390 C.2   1 <1>   0.1080 
 16 C        6.9120     0.8550    -1.0160 C.3   1 <1>   0.2900 
 17 C       -1.6940    -4.5470     1.2880 C.3   1 <1>  -0.0590 
 18 C        7.8000     2.0870    -0.8680 C.2   1 <1>   0.2980 
 19 O        8.1940     2.4810     0.3000 O.3   1 <1>  -0.2800 
 20 N        8.2420     2.8360    -1.8070 N.2   1 <1>  -0.3380 
 21 C        8.9060     3.5310     0.0480 C.2   1 <1>   0.2980 
 22 N        8.9660     3.7820    -1.2070 N.2   1 <1>  -0.3380 
 23 C        9.5470     4.2940     1.2060 C.3   1 <1>   0.1000 
 24 C       10.1030     5.6590     0.7710 C.3   1 <1>  -0.2400 
 25 C       10.6620     3.4600     1.8540 C.3   1 <1>  -0.2400 
 26 H        2.6840    -2.1440    -1.3840 H     1 <1>   0.0800 
 27 H        1.2620    -2.0120    -2.3560 H     1 <1>   0.0800 
 28 H        3.2910    -1.3060     0.6780 H     1 <1>   0.0800 
 29 H        3.6970     0.2100     1.3910 H     1 <1>   0.0800 
 30 H        1.7790     2.0290     0.7220 H     1 <1>   0.0800 
 31 H        1.8230     2.2530    -0.9980 H     1 <1>   0.0800 
 32 H        4.7310    -0.6820    -1.3160 H     1 <1>   0.0800 
 33 H        5.5480    -1.0100     0.1850 H     1 <1>   0.0800 
 34 H        4.0750     2.5350     0.9500 H     1 <1>   0.0800 
 35 H        3.5220     3.6020    -0.2850 H     1 <1>   0.0800 
 36 H       -0.9940    -3.3120    -1.2700 H     1 <1>   0.1500 
 37 H        5.4150     2.8860    -1.2650 H     1 <1>   0.0800 
 38 H        4.3420     1.6920    -1.9370 H     1 <1>   0.0800 
 39 H        6.7820     0.6450    -2.0630 H     1 <1>   0.0800 
 40 H        7.4370     0.0290    -0.5720 H     1 <1>   0.0800 
 41 H       -1.7740    -5.4400     0.6970 H     1 <1>   0.0800 
 42 H       -2.5890    -3.9640     1.1740 H     1 <1>   0.0800 
 43 H       -1.5860    -4.8210     2.3220 H     1 <1>   0.0800 
 44 H        8.7790     4.4650     1.9400 H     1 <1>   0.0800 
 45 H       10.8810     5.5310     0.0390 H     1 <1>   0.0800 
 46 H       10.5040     6.1900     1.6160 H     1 <1>   0.0800 
 47 H        9.3190     6.2520     0.3330 H     1 <1>   0.0800 
 48 H       11.4390     3.2580     1.1380 H     1 <1>   0.0800 
 49 H       10.2660     2.5230     2.2030 H     1 <1>   0.0800 
 50 H       11.0870     3.9850     2.6910 H     1 <1>   0.0800 
@<TRIPOS>BOND
  1   1   2  2   
  2   2   3  am  
  3   2   4  1   
  4   3   5  1   
  5   3   6  1   
  6   4   7  1   
  7   4  26  1   
  8   4  27  1   
  9   5   8  1   
 10   5  28  1   
 11   5  29  1   
 12   6   9  1   
 13   6  30  1   
 14   6  31  1   
 15   7  10  1   
 16   7  11  2   
 17   8  12  1   
 18   8  32  1   
 19   8  33  1   
 20   9  13  1   
 21   9  34  1   
 22   9  35  1   
 23  10  14  1   
 24  11  15  1   
 25  11  36  1   
 26  12  13  1   
 27  12  16  1   
 28  13  37  1   
 29  13  38  1   
 30  14  15  2   
 31  15  17  1   
 32  16  18  1   
 33  16  39  1   
 34  16  40  1   
 35  17  41  1   
 36  17  42  1   
 37  17  43  1   
 38  18  19  1   
 39  18  20  2   
 40  19  21  1   
 41  20  22  1   
 42  21  22  2   
 43  21  23  1   
 44  23  24  1   
 45  23  25  1   
 46  23  44  1   
 47  24  45  1   
 48  24  46  1   
 49  24  47  1   
 50  25  48  1   
 51  25  49  1   
 52  25  50  1   
@<TRIPOS>SUBSTRUCTURE
  1 ****   8 GROUP 4 **** **** 0

# MOE 2024.06 (io_trps.svl 2023.06)
