@<TRIPOS>MOLECULE
NONAME
51 54 1 0 0 
SMALL
USER_CHARGES


@<TRIPOS>ATOM
  1 CL      -0.4930    -0.9630    -1.8280 Cl    1 <1>  -0.1770 
  2 C       -1.7630    -0.5660    -0.6920 C.ar  1 <1>   0.1770 
  3 C       -2.5510    -1.5700    -0.1050 C.ar  1 <1>  -0.1520 
  4 C       -1.9660     0.7570    -0.3820 C.ar  1 <1>  -0.1500 
  5 N       -2.5820    -2.9440    -0.2280 N.pl3 1 <1>   0.0480 
  6 C       -3.5290    -1.1950     0.8110 C.ar  1 <1>   0.0000 
  7 C       -2.9610     1.1210     0.5330 C.ar  1 <1>  -0.1500 
  8 C       -3.5580    -3.4380     0.6200 C.2   1 <1>  -0.2370 
  9 C       -1.7740    -3.7310    -1.1870 C.3   1 <1>   0.0160 
 10 C       -3.7360     0.1550     1.1270 C.ar  1 <1>  -0.1500 
 11 C       -4.1380    -2.3760     1.2520 C.2   1 <1>  -0.1500 
 12 C       -3.8740    -4.8340     0.8010 C.2   1 <1>   0.7150 
 13 O       -3.0020    -5.6860     0.7660 O.2   1 <1>  -0.5700 
 14 N       -5.1680    -5.2470     1.0100 N.am  1 <1>  -0.6600 
 15 C       -5.4600    -6.6040     1.5530 C.3   1 <1>   0.1400 
 16 C       -6.3250    -4.6260     0.3070 C.3   1 <1>   0.1400 
 17 C       -5.8270    -7.5420     0.3790 C.3   1 <1>   0.4230 
 18 C       -6.7520    -5.5490    -0.8450 C.3   1 <1>  -0.1600 
 19 N       -6.0430    -8.9760     0.7740 N.4   1 <1>  -0.9590 
 20 C       -7.0690    -6.9940    -0.3600 C.3   1 <1>  -0.1060 
 21 C       -6.2720    -9.8490    -0.4050 C.3   1 <1>   0.3430 
 22 C       -5.0330    -9.5370     1.7100 C.3   1 <1>   0.2630 
 23 C       -8.2620    -6.9920     0.6170 C.2   1 <1>   0.9060 
 24 C       -7.3700    -7.8790    -1.5920 C.3   1 <1>  -0.1600 
 25 C       -7.4820    -9.3620    -1.2070 C.3   1 <1>  -0.1600 
 26 O       -8.3230    -7.8700     1.4930 O.co2 1 <1>  -0.9000 
 27 O       -9.1210    -6.1170     0.5220 O.co2 1 <1>  -0.9000 
 28 H       -1.3580     1.5160    -0.8400 H     1 <1>   0.1500 
 29 H       -3.1080     2.1620     0.7650 H     1 <1>   0.1500 
 30 H       -2.1660    -4.7240    -1.2910 H     1 <1>   0.0800 
 31 H       -0.7600    -3.7820    -0.8350 H     1 <1>   0.0800 
 32 H       -1.8000    -3.2560    -2.1490 H     1 <1>   0.0800 
 33 H       -4.5030     0.4130     1.8350 H     1 <1>   0.1500 
 34 H       -4.9300    -2.4080     1.9800 H     1 <1>   0.1500 
 35 H       -4.5920    -6.9690     2.0710 H     1 <1>   0.0800 
 36 H       -6.2690    -6.5350     2.2590 H     1 <1>   0.0800 
 37 H       -7.1390    -4.4920     1.0020 H     1 <1>   0.0800 
 38 H       -6.0650    -3.6600    -0.0890 H     1 <1>   0.0800 
 39 H       -4.9950    -7.5130    -0.3040 H     1 <1>   0.0800 
 40 H       -7.6260    -5.1280    -1.3130 H     1 <1>   0.0800 
 41 H       -5.9690    -5.5620    -1.5810 H     1 <1>   0.0800 
 42 H       -6.9740    -8.9020     1.2690 H     1 <1>   0.4500 
 43 H       -5.3970    -9.8420    -1.0340 H     1 <1>   0.0800 
 44 H       -6.4510   -10.8610    -0.0790 H     1 <1>   0.0800 
 45 H       -4.0530    -9.5090     1.2620 H     1 <1>   0.0800 
 46 H       -5.2800   -10.5570     1.9520 H     1 <1>   0.0800 
 47 H       -5.0170    -8.9680     2.6240 H     1 <1>   0.0800 
 48 H       -8.2940    -7.5570    -2.0440 H     1 <1>   0.0800 
 49 H       -6.5890    -7.7650    -2.3240 H     1 <1>   0.0800 
 50 H       -7.5780    -9.9570    -2.0980 H     1 <1>   0.0800 
 51 H       -8.3740    -9.5200    -0.6230 H     1 <1>   0.0800 
@<TRIPOS>BOND
  1   1   2  1   
  2   2   3  ar  
  3   2   4  ar  
  4   3   5  1   
  5   3   6  ar  
  6   4   7  ar  
  7   4  28  1   
  8   5   8  1   
  9   5   9  1   
 10   6  10  ar  
 11   6  11  1   
 12   7  10  ar  
 13   7  29  1   
 14   8  11  2   
 15   8  12  1   
 16   9  30  1   
 17   9  31  1   
 18   9  32  1   
 19  10  33  1   
 20  11  34  1   
 21  12  13  2   
 22  12  14  am  
 23  14  15  1   
 24  14  16  1   
 25  15  17  1   
 26  15  35  1   
 27  15  36  1   
 28  16  18  1   
 29  16  37  1   
 30  16  38  1   
 31  17  19  1   
 32  17  20  1   
 33  17  39  1   
 34  18  20  1   
 35  18  40  1   
 36  18  41  1   
 37  19  21  1   
 38  19  22  1   
 39  19  42  1   
 40  20  23  1   
 41  20  24  1   
 42  21  25  1   
 43  21  43  1   
 44  21  44  1   
 45  22  45  1   
 46  22  46  1   
 47  22  47  1   
 48  23  26  ar  
 49  23  27  ar  
 50  24  25  1   
 51  24  48  1   
 52  24  49  1   
 53  25  50  1   
 54  25  51  1   
@<TRIPOS>SUBSTRUCTURE
  1 ****  14 GROUP 4 **** **** 0

# MOE 2024.06 (io_trps.svl 2023.06)
