@<TRIPOS>MOLECULE
NONAME
46 48 1 0 0 
SMALL
USER_CHARGES


@<TRIPOS>ATOM
  1 F       -1.2320     1.4300     0.9010 F     1 <1>  -0.3400 
  2 C       -0.8800     2.4690     1.6470 C.3   1 <1>   0.8800 
  3 F       -1.9460     2.7770     2.3700 F     1 <1>  -0.3400 
  4 O       -0.6010     3.5590     0.8000 O.3   1 <1>  -0.3630 
  5 C        0.6060     3.6770     0.1960 C.ar  1 <1>   0.0830 
  6 C        0.8720     4.8910    -0.4120 C.ar  1 <1>  -0.1500 
  7 C        1.5660     2.6680     0.1670 C.ar  1 <1>  -0.1500 
  8 C        2.0920     5.1410    -1.0330 C.ar  1 <1>   0.0860 
  9 C        2.7790     2.8970    -0.4550 C.ar  1 <1>  -0.1500 
 10 C        2.3740     6.4380    -1.6120 C.2   1 <1>   0.5440 
 11 C        3.0360     4.1190    -1.0490 C.ar  1 <1>  -0.1500 
 12 O        2.0480     6.6660    -2.7590 O.2   1 <1>  -0.5700 
 13 N        2.9910     7.4410    -0.8870 N.am  1 <1>  -0.6600 
 14 C        3.3730     7.2610     0.5660 C.3   1 <1>   0.2200 
 15 C        3.2740     8.7410    -1.5760 C.3   1 <1>   0.1400 
 16 C        2.8010     8.3710     1.4610 C.3   1 <1>   0.1200 
 17 C        4.8990     7.1220     0.7610 C.3   1 <1>   0.3430 
 18 C        4.2230     9.6990    -0.8380 C.3   1 <1>  -0.0800 
 19 O        3.6500     9.4790     1.5000 O.3   1 <1>  -0.5600 
 20 N        5.6890     7.6640    -0.3930 N.4   1 <1>  -0.9590 
 21 C        3.5770    10.3290     0.4060 C.3   1 <1>   0.1200 
 22 C        5.6320     9.1410    -0.5600 C.3   1 <1>   0.3430 
 23 C        7.1130     7.1230    -0.3600 C.3   1 <1>   0.2370 
 24 C        7.2270     5.5930    -0.4270 C.2   1 <1>   0.9060 
 25 O        8.2700     5.0580    -0.0570 O.co2 1 <1>  -0.9000 
 26 O        6.2300     4.9620    -0.8030 O.co2 1 <1>  -0.9000 
 27 H       -0.0600     2.2100     2.2930 H     1 <1>   0.0800 
 28 H        0.1200     5.6590    -0.4030 H     1 <1>   0.1500 
 29 H        1.3960     1.7010     0.6050 H     1 <1>   0.1500 
 30 H        3.5340     2.1280    -0.4860 H     1 <1>   0.1500 
 31 H        3.9860     4.2820    -1.5320 H     1 <1>   0.1500 
 32 H        2.9350     6.3510     0.9340 H     1 <1>   0.0800 
 33 H        3.6950     8.5260    -2.5440 H     1 <1>   0.0800 
 34 H        2.3340     9.2370    -1.7510 H     1 <1>   0.0800 
 35 H        2.7330     8.0060     2.4710 H     1 <1>   0.0800 
 36 H        1.8150     8.6680     1.1440 H     1 <1>   0.0800 
 37 H        5.1130     6.0710     0.8690 H     1 <1>   0.0800 
 38 H        5.1950     7.6060     1.6760 H     1 <1>   0.0800 
 39 H        4.3680    10.5260    -1.5100 H     1 <1>   0.0800 
 40 H        5.2440     7.1990    -1.2060 H     1 <1>   0.4500 
 41 H        2.5480    10.5950     0.2300 H     1 <1>   0.0800 
 42 H        4.1110    11.2240     0.6760 H     1 <1>   0.0800 
 43 H        6.0340     9.6170     0.3200 H     1 <1>   0.0800 
 44 H        6.2650     9.4070    -1.3910 H     1 <1>   0.0800 
 45 H        7.6670     7.5080    -1.1950 H     1 <1>   0.0800 
 46 H        7.6050     7.4380     0.5420 H     1 <1>   0.0800 
@<TRIPOS>BOND
  1   1   2  1   
  2   2   3  1   
  3   2   4  1   
  4   2  27  1   
  5   4   5  1   
  6   5   6  ar  
  7   5   7  ar  
  8   6   8  ar  
  9   6  28  1   
 10   7   9  ar  
 11   7  29  1   
 12   8  10  1   
 13   8  11  ar  
 14   9  11  ar  
 15   9  30  1   
 16  10  12  2   
 17  10  13  am  
 18  11  31  1   
 19  13  14  1   
 20  13  15  1   
 21  14  16  1   
 22  14  17  1   
 23  14  32  1   
 24  15  18  1   
 25  15  33  1   
 26  15  34  1   
 27  16  19  1   
 28  16  35  1   
 29  16  36  1   
 30  17  20  1   
 31  17  37  1   
 32  17  38  1   
 33  18  21  1   
 34  18  22  1   
 35  18  39  1   
 36  19  21  1   
 37  20  22  1   
 38  20  23  1   
 39  20  40  1   
 40  21  41  1   
 41  21  42  1   
 42  22  43  1   
 43  22  44  1   
 44  23  24  1   
 45  23  45  1   
 46  23  46  1   
 47  24  25  ar  
 48  24  26  ar  
@<TRIPOS>SUBSTRUCTURE
  1 ****  14 GROUP 4 **** **** 0

# MOE 2024.06 (io_trps.svl 2023.06)
