@<TRIPOS>MOLECULE
NONAME
58 61 1 0 0 
SMALL
USER_CHARGES


@<TRIPOS>ATOM
  1 O       -2.5990    -1.2300     1.5250 O.2   1 <1>  -0.5700 
  2 C       -2.7090    -0.2550     0.8180 C.2   1 <1>   0.5690 
  3 N       -3.0330    -0.3640    -0.5080 N.am  1 <1>  -0.6600 
  4 C       -2.4930     1.1060     1.4550 C.3   1 <1>  -0.0990 
  5 C       -3.2460     0.8010    -1.4060 C.3   1 <1>   0.1400 
  6 C       -3.2260    -1.7060    -1.1180 C.3   1 <1>   0.1400 
  7 C       -3.7790     1.9460     1.5220 C.3   1 <1>  -0.1600 
  8 C       -4.4540     1.6300    -0.9540 C.3   1 <1>  -0.1600 
  9 C       -4.6660    -2.1630    -0.9030 C.3   1 <1>  -0.0990 
 10 C       -4.1450     2.6120     0.1880 C.3   1 <1>  -0.1600 
 11 C       -4.8080    -3.6040    -1.3160 C.2   1 <1>   0.5690 
 12 O       -5.2000    -3.8650    -2.4250 O.2   1 <1>  -0.5700 
 13 N       -4.4890    -4.5670    -0.4190 N.am  1 <1>  -0.7300 
 14 C       -4.5380    -6.0250    -0.6820 C.3   1 <1>   0.2200 
 15 C       -5.7620    -6.6690    -0.0420 C.3   1 <1>  -0.0800 
 16 C       -3.4230    -6.7060     0.0990 C.3   1 <1>   0.1200 
 17 C       -5.3070    -6.8660     1.4080 C.3   1 <1>   0.1200 
 18 C       -7.0780    -5.8790    -0.2010 C.3   1 <1>  -0.0170 
 19 O       -3.9090    -6.8440     1.4010 O.3   1 <1>  -0.5600 
 20 C       -8.3530    -6.5500     0.3250 C.ar  1 <1>  -0.1440 
 21 C       -9.5600    -5.8090     0.3790 C.ar  1 <1>   0.0000 
 22 C       -8.4070    -7.8490     0.7470 C.ar  1 <1>  -0.1500 
 23 C      -10.7130    -6.4500     0.8950 C.ar  1 <1>   0.3100 
 24 C       -9.6930    -4.4670    -0.0540 C.ar  1 <1>  -0.1500 
 25 C       -9.6040    -8.3910     1.2310 C.ar  1 <1>   0.1600 
 26 N      -10.7180    -7.7390     1.3160 N.ar  1 <1>  -0.6200 
 27 C      -11.9170    -5.7310     0.9730 C.ar  1 <1>  -0.1500 
 28 C      -10.8820    -3.7960     0.0340 C.ar  1 <1>  -0.1500 
 29 C      -12.0090    -4.4320     0.5560 C.ar  1 <1>  -0.1500 
 30 H       -2.1400     0.9430     2.4570 H     1 <1>   0.0800 
 31 H       -1.7200     1.6320     0.9270 H     1 <1>   0.0800 
 32 H       -2.3590     1.4100    -1.4290 H     1 <1>   0.0800 
 33 H       -3.4250     0.4500    -2.4080 H     1 <1>   0.0800 
 34 H       -2.9940    -1.6830    -2.1690 H     1 <1>   0.0800 
 35 H       -2.5530    -2.4060    -0.6510 H     1 <1>   0.0800 
 36 H       -4.5930     1.3280     1.8600 H     1 <1>   0.0800 
 37 H       -3.6380     2.7220     2.2550 H     1 <1>   0.0800 
 38 H       -4.7820     2.2120    -1.7980 H     1 <1>   0.0800 
 39 H       -5.2650     0.9780    -0.6830 H     1 <1>   0.0800 
 40 H       -5.3340    -1.5600    -1.4890 H     1 <1>   0.0800 
 41 H       -4.9310    -2.0690     0.1340 H     1 <1>   0.0800 
 42 H       -3.3470     3.2700    -0.1120 H     1 <1>   0.0800 
 43 H       -5.0160     3.2240     0.3490 H     1 <1>   0.0800 
 44 H       -4.1630    -4.3160     0.5200 H     1 <1>   0.3700 
 45 H       -4.4730    -6.2190    -1.7400 H     1 <1>   0.0800 
 46 H       -5.8820    -7.6370    -0.4960 H     1 <1>   0.0800 
 47 H       -2.5110    -6.1350     0.1100 H     1 <1>   0.0800 
 48 H       -3.2350    -7.6920    -0.2870 H     1 <1>   0.0800 
 49 H       -5.6370    -7.8040     1.8180 H     1 <1>   0.0800 
 50 H       -5.6400    -6.0590     2.0380 H     1 <1>   0.0800 
 51 H       -7.2190    -5.6620    -1.2460 H     1 <1>   0.0800 
 52 H       -6.9670    -4.9400     0.3130 H     1 <1>   0.0800 
 53 H       -7.5580    -8.5030     0.7290 H     1 <1>   0.1500 
 54 H       -8.8440    -3.9570    -0.4680 H     1 <1>   0.1500 
 55 H       -9.5950    -9.4170     1.5550 H     1 <1>   0.1500 
 56 H      -12.7710    -6.2440     1.3750 H     1 <1>   0.1500 
 57 H      -10.9640    -2.7750    -0.2990 H     1 <1>   0.1500 
 58 H      -12.9390    -3.8930     0.6220 H     1 <1>   0.1500 
@<TRIPOS>BOND
  1   1   2  2   
  2   2   3  am  
  3   2   4  1   
  4   3   5  1   
  5   3   6  1   
  6   4   7  1   
  7   4  30  1   
  8   4  31  1   
  9   5   8  1   
 10   5  32  1   
 11   5  33  1   
 12   6   9  1   
 13   6  34  1   
 14   6  35  1   
 15   7  10  1   
 16   7  36  1   
 17   7  37  1   
 18   8  10  1   
 19   8  38  1   
 20   8  39  1   
 21   9  11  1   
 22   9  40  1   
 23   9  41  1   
 24  10  42  1   
 25  10  43  1   
 26  11  12  2   
 27  11  13  am  
 28  13  14  1   
 29  13  44  1   
 30  14  15  1   
 31  14  16  1   
 32  14  45  1   
 33  15  17  1   
 34  15  18  1   
 35  15  46  1   
 36  16  19  1   
 37  16  47  1   
 38  16  48  1   
 39  17  19  1   
 40  17  49  1   
 41  17  50  1   
 42  18  20  1   
 43  18  51  1   
 44  18  52  1   
 45  20  21  ar  
 46  20  22  ar  
 47  21  23  ar  
 48  21  24  ar  
 49  22  25  ar  
 50  22  53  1   
 51  23  26  ar  
 52  23  27  ar  
 53  24  28  ar  
 54  24  54  1   
 55  25  26  ar  
 56  25  55  1   
 57  27  29  ar  
 58  27  56  1   
 59  28  29  ar  
 60  28  57  1   
 61  29  58  1   
@<TRIPOS>SUBSTRUCTURE
  1 ****  13 GROUP 4 **** **** 0

# MOE 2024.06 (io_trps.svl 2023.06)
