@<TRIPOS>MOLECULE
NONAME
49 51 1 0 0 
SMALL
USER_CHARGES


@<TRIPOS>ATOM
  1 F       -1.6180    -1.5320     3.0300 F     1 <1>  -0.1900 
  2 C       -1.8950    -2.4870     2.1790 C.ar  1 <1>   0.1900 
  3 C       -0.8930    -3.1920     1.5030 C.ar  1 <1>   0.0830 
  4 C       -3.2340    -2.7620     1.9800 C.ar  1 <1>  -0.1500 
  5 O        0.4550    -3.0130     1.6140 O.3   1 <1>  -0.3630 
  6 C       -1.2900    -4.1840     0.6210 C.ar  1 <1>  -0.1500 
  7 C       -3.5950    -3.7580     1.0920 C.ar  1 <1>  -0.1500 
  8 C        1.0370    -2.0850     2.5030 C.3   1 <1>   0.0400 
  9 C       -2.6340    -4.4940     0.3960 C.ar  1 <1>   0.0530 
 10 C       -3.0070    -5.5390    -0.5260 C.2   1 <1>   0.0870 
 11 O       -2.2170    -5.8750    -1.5200 O.3   1 <1>  -0.0190 
 12 C       -4.0980    -6.3370    -0.6170 C.2   1 <1>  -0.2330 
 13 N       -2.7180    -6.8280    -2.2680 N.2   1 <1>  -0.4100 
 14 C       -3.8530    -7.1180    -1.7440 C.2   1 <1>   0.3720 
 15 C       -5.2710    -6.4480     0.1710 C.2   1 <1>   1.0330 
 16 N       -4.7070    -8.0880    -2.2840 N.pl3 1 <1>  -0.8210 
 17 O       -6.2480    -5.7140    -0.0330 O.co2 1 <1>  -0.9000 
 18 O       -5.4630    -7.4300     0.9090 O.co2 1 <1>  -0.9000 
 19 C       -5.9510    -7.5410    -2.9210 C.3   1 <1>   0.2090 
 20 C       -4.8560    -9.3300    -1.4520 C.3   1 <1>   0.2090 
 21 C       -7.2390    -7.6000    -2.0570 C.3   1 <1>   0.3430 
 22 C       -6.3190    -9.7360    -1.1570 C.3   1 <1>   0.3430 
 23 N       -7.1840    -8.5460    -0.8910 N.4   1 <1>  -0.9590 
 24 C       -8.5090    -8.7810    -0.2820 C.3   1 <1>   0.3430 
 25 C       -8.3640    -9.3530     1.1280 C.3   1 <1>  -0.1600 
 26 C       -9.7420    -9.5070     1.7680 C.3   1 <1>   0.1200 
 27 O       -9.5810    -9.9860     3.0510 O.3   1 <1>  -0.6800 
 28 H       -3.9840    -2.2040     2.5110 H     1 <1>   0.1500 
 29 H       -0.5310    -4.7350     0.0960 H     1 <1>   0.1500 
 30 H       -4.6410    -3.9600     0.9350 H     1 <1>   0.1500 
 31 H        2.1050    -2.1630     2.4150 H     1 <1>   0.0800 
 32 H        0.7350    -2.3260     3.5070 H     1 <1>   0.0800 
 33 H        0.7200    -1.0940     2.2300 H     1 <1>   0.0800 
 34 H       -6.1240    -8.0900    -3.8300 H     1 <1>   0.0800 
 35 H       -5.7810    -6.5170    -3.2090 H     1 <1>   0.0800 
 36 H       -4.3450    -9.1930    -0.5130 H     1 <1>   0.0800 
 37 H       -4.3620   -10.1420    -1.9560 H     1 <1>   0.0800 
 38 H       -8.0600    -7.8650    -2.7000 H     1 <1>   0.0800 
 39 H       -7.4400    -6.6070    -1.6860 H     1 <1>   0.0800 
 40 H       -6.3190   -10.3900    -0.3030 H     1 <1>   0.0800 
 41 H       -6.7070   -10.2820    -1.9990 H     1 <1>   0.0800 
 42 H       -6.6490    -8.0060    -0.1570 H     1 <1>   0.4500 
 43 H       -9.0860    -9.4500    -0.8990 H     1 <1>   0.0800 
 44 H       -9.0310    -7.8400    -0.2140 H     1 <1>   0.0800 
 45 H       -7.7770    -8.6710     1.7220 H     1 <1>   0.0800 
 46 H       -7.8830   -10.3110     1.0940 H     1 <1>   0.0800 
 47 H      -10.3590   -10.2030     1.2250 H     1 <1>   0.0800 
 48 H      -10.2470    -8.5570     1.8380 H     1 <1>   0.0800 
 49 H       -9.0740   -10.8210     3.0650 H     1 <1>   0.4000 
@<TRIPOS>BOND
  1   1   2  1   
  2   2   3  ar  
  3   2   4  ar  
  4   3   5  1   
  5   3   6  ar  
  6   4   7  ar  
  7   4  28  1   
  8   5   8  1   
  9   6   9  ar  
 10   6  29  1   
 11   7   9  ar  
 12   7  30  1   
 13   8  31  1   
 14   8  32  1   
 15   8  33  1   
 16   9  10  1   
 17  10  11  1   
 18  10  12  2   
 19  11  13  1   
 20  12  14  1   
 21  12  15  1   
 22  13  14  2   
 23  14  16  1   
 24  15  17  ar  
 25  15  18  ar  
 26  16  19  1   
 27  16  20  1   
 28  19  21  1   
 29  19  34  1   
 30  19  35  1   
 31  20  22  1   
 32  20  36  1   
 33  20  37  1   
 34  21  23  1   
 35  21  38  1   
 36  21  39  1   
 37  22  23  1   
 38  22  40  1   
 39  22  41  1   
 40  23  24  1   
 41  23  42  1   
 42  24  25  1   
 43  24  43  1   
 44  24  44  1   
 45  25  26  1   
 46  25  45  1   
 47  25  46  1   
 48  26  27  1   
 49  26  47  1   
 50  26  48  1   
 51  27  49  1   
@<TRIPOS>SUBSTRUCTURE
  1 ****  12 GROUP 4 **** **** 0

# MOE 2024.06 (io_trps.svl 2023.06)
