@<TRIPOS>MOLECULE
NONAME
46 48 1 0 0 
SMALL
USER_CHARGES


@<TRIPOS>ATOM
  1 S       -0.9930    -1.2230    -0.9770 S.3   1 <1>  -0.0800 
  2 C       -1.1480    -1.6900     0.7240 C.2   1 <1>  -0.0450 
  3 C        0.0040     0.1610    -0.5830 C.2   1 <1>  -0.1100 
  4 C       -1.9080    -2.8600     1.0890 C.2   1 <1>   0.7150 
  5 C       -0.4500    -0.8020     1.4770 C.2   1 <1>  -0.1500 
  6 C        0.1940     0.2390     0.7460 C.2   1 <1>  -0.1500 
  7 O       -1.8680    -3.2830     2.2300 O.2   1 <1>  -0.5700 
  8 N       -2.7190    -3.5010     0.1890 N.am  1 <1>  -0.6600 
  9 C       -2.7410    -4.9990     0.1930 C.3   1 <1>   0.3640 
 10 C       -3.9660    -2.8200    -0.2460 C.3   1 <1>   0.1400 
 11 C       -1.3020    -5.4850    -0.0140 C.ar  1 <1>  -0.1430 
 12 C       -3.6650    -5.6190    -0.9020 C.3   1 <1>   0.2000 
 13 C       -4.5760    -3.5200    -1.4600 C.3   1 <1>   0.1200 
 14 C       -0.7110    -6.3270     0.9180 C.ar  1 <1>  -0.1500 
 15 C       -0.5680    -5.0940    -1.1280 C.ar  1 <1>  -0.1500 
 16 O       -4.8190    -4.8540    -1.1420 O.3   1 <1>  -0.5600 
 17 C       -4.1660    -7.0320    -0.5530 C.3   1 <1>   0.1200 
 18 C        0.5810    -6.7900     0.7380 C.ar  1 <1>   0.0830 
 19 C        0.7310    -5.5390    -1.3080 C.ar  1 <1>  -0.1500 
 20 O       -3.1280    -7.9020    -0.2330 O.3   1 <1>  -0.6800 
 21 O        1.0770    -7.6450     1.6640 O.3   1 <1>  -0.3630 
 22 C        1.3180    -6.3760    -0.3760 C.ar  1 <1>   0.0830 
 23 C        1.2370    -8.9800     1.2430 C.3   1 <1>   0.0400 
 24 O        2.6010    -6.7560    -0.5960 O.3   1 <1>  -0.3630 
 25 C        3.5540    -6.3140     0.3470 C.3   1 <1>   0.0400 
 26 H        0.3480     0.7770    -1.3950 H     1 <1>   0.1500 
 27 H       -0.3690    -0.8600     2.5500 H     1 <1>   0.1500 
 28 H        0.7710     0.9950     1.2500 H     1 <1>   0.1500 
 29 H       -3.0920    -5.3270     1.1560 H     1 <1>   0.0800 
 30 H       -4.6770    -2.8320     0.5620 H     1 <1>   0.0800 
 31 H       -3.7580    -1.7930    -0.4920 H     1 <1>   0.0800 
 32 H       -3.1310    -5.6700    -1.8340 H     1 <1>   0.0800 
 33 H       -3.9190    -3.4700    -2.3110 H     1 <1>   0.0800 
 34 H       -5.5170    -3.0670    -1.7170 H     1 <1>   0.0800 
 35 H       -1.2540    -6.6400     1.7920 H     1 <1>   0.1500 
 36 H       -1.0010    -4.4310    -1.8560 H     1 <1>   0.1500 
 37 H       -4.7000    -7.4480    -1.3890 H     1 <1>   0.0800 
 38 H       -4.8220    -6.9890     0.2990 H     1 <1>   0.0800 
 39 H        1.2990    -5.2310    -2.1670 H     1 <1>   0.1500 
 40 H       -2.4210    -7.8810    -0.9100 H     1 <1>   0.4000 
 41 H        1.5840    -9.5580     2.0800 H     1 <1>   0.0800 
 42 H        1.9580    -9.0160     0.4460 H     1 <1>   0.0800 
 43 H        0.2860    -9.3530     0.9060 H     1 <1>   0.0800 
 44 H        4.5330    -6.5510    -0.0280 H     1 <1>   0.0800 
 45 H        3.3890    -6.8160     1.2830 H     1 <1>   0.0800 
 46 H        3.4530    -5.2500     0.4700 H     1 <1>   0.0800 
@<TRIPOS>BOND
  1   1   2  1   
  2   1   3  1   
  3   2   4  1   
  4   2   5  2   
  5   3   6  2   
  6   3  26  1   
  7   4   7  2   
  8   4   8  am  
  9   5   6  1   
 10   5  27  1   
 11   6  28  1   
 12   8   9  1   
 13   8  10  1   
 14   9  11  1   
 15   9  12  1   
 16   9  29  1   
 17  10  13  1   
 18  10  30  1   
 19  10  31  1   
 20  11  14  ar  
 21  11  15  ar  
 22  12  16  1   
 23  12  17  1   
 24  12  32  1   
 25  13  16  1   
 26  13  33  1   
 27  13  34  1   
 28  14  18  ar  
 29  14  35  1   
 30  15  19  ar  
 31  15  36  1   
 32  17  20  1   
 33  17  37  1   
 34  17  38  1   
 35  18  21  1   
 36  18  22  ar  
 37  19  22  ar  
 38  19  39  1   
 39  20  40  1   
 40  21  23  1   
 41  22  24  1   
 42  23  41  1   
 43  23  42  1   
 44  23  43  1   
 45  24  25  1   
 46  25  44  1   
 47  25  45  1   
 48  25  46  1   
@<TRIPOS>SUBSTRUCTURE
  1 ****  11 GROUP 4 **** **** 0

# MOE 2024.06 (io_trps.svl 2023.06)
