@<TRIPOS>MOLECULE
NONAME
46 48 1 0 0 
SMALL
USER_CHARGES


@<TRIPOS>ATOM
  1 O       -0.7310    -0.0180     0.7010 O.co2 1 <1>  -0.9000 
  2 C       -1.3540    -1.0500     0.9710 C.2   1 <1>   0.9060 
  3 O       -1.4360    -1.5260     2.1060 O.co2 1 <1>  -0.9000 
  4 C       -2.1840    -1.6980    -0.1430 C.3   1 <1>   0.2370 
  5 N       -3.5800    -1.1230    -0.3090 N.4   1 <1>  -0.9590 
  6 C       -4.3870    -1.3800     0.9230 C.3   1 <1>   0.3430 
  7 C       -3.5010     0.3380    -0.5910 C.3   1 <1>   0.3430 
  8 C       -5.8980    -1.2270     0.6200 C.3   1 <1>   0.1900 
  9 C       -4.8600     0.9710    -0.9570 C.3   1 <1>  -0.0800 
 10 N       -6.1600    -1.2380    -0.8660 N.3   1 <1>  -0.8100 
 11 C       -6.4830    -0.0030     1.3500 C.3   1 <1>   0.1200 
 12 C       -5.4520     1.7970     0.1970 C.3   1 <1>   0.1200 
 13 C       -5.9150     0.0330    -1.5840 C.3   1 <1>   0.1100 
 14 C       -7.5010    -1.7840    -1.1990 C.3   1 <1>   0.2910 
 15 O       -5.5760     1.0600     1.3660 O.3   1 <1>  -0.5600 
 16 C       -7.6840    -3.2230    -0.7320 C.2   1 <1>   0.1080 
 17 N       -8.4040    -3.5530     0.3000 N.2   1 <1>  -0.7070 
 18 C       -7.1130    -4.3320    -1.3450 C.2   1 <1>  -0.1500 
 19 N       -8.3210    -4.8960     0.3680 N.pl3 1 <1>   0.3140 
 20 C       -7.5410    -5.3850    -0.6170 C.2   1 <1>  -0.3020 
 21 C       -9.0220    -5.6760     1.4080 C.3   1 <1>   0.0960 
 22 C      -10.3200    -6.2850     0.8630 C.3   1 <1>  -0.2400 
 23 H       -2.2470    -2.7470     0.0810 H     1 <1>   0.0800 
 24 H       -1.6320    -1.5780    -1.0560 H     1 <1>   0.0800 
 25 H       -4.1320    -1.5680    -1.0580 H     1 <1>   0.4500 
 26 H       -4.2080    -2.3870     1.2620 H     1 <1>   0.0800 
 27 H       -4.0840    -0.7170     1.7180 H     1 <1>   0.0800 
 28 H       -3.0800     0.8480     0.2620 H     1 <1>   0.0800 
 29 H       -2.8200     0.4860    -1.4140 H     1 <1>   0.0800 
 30 H       -6.3690    -2.0860     1.0630 H     1 <1>   0.0800 
 31 H       -4.6390     1.7020    -1.7140 H     1 <1>   0.0800 
 32 H       -6.6550    -0.2660     2.3790 H     1 <1>   0.0800 
 33 H       -7.4180     0.3150     0.9230 H     1 <1>   0.0800 
 34 H       -6.4180     2.2000    -0.0590 H     1 <1>   0.0800 
 35 H       -4.7970     2.6210     0.4230 H     1 <1>   0.0800 
 36 H       -5.6060    -0.2120    -2.5870 H     1 <1>   0.0800 
 37 H       -6.8400     0.5800    -1.6660 H     1 <1>   0.0800 
 38 H       -8.2680    -1.1750    -0.7520 H     1 <1>   0.0800 
 39 H       -7.6410    -1.7630    -2.2660 H     1 <1>   0.0800 
 40 H       -6.4750    -4.3220    -2.2100 H     1 <1>   0.1500 
 41 H       -7.3420    -6.4330    -0.7430 H     1 <1>   0.1500 
 42 H       -8.3630    -6.4500     1.7560 H     1 <1>   0.0800 
 43 H       -9.2430    -5.0180     2.2290 H     1 <1>   0.0800 
 44 H      -10.1080    -6.9570     0.0500 H     1 <1>   0.0800 
 45 H      -10.9750    -5.5040     0.5180 H     1 <1>   0.0800 
 46 H      -10.8210    -6.8340     1.6400 H     1 <1>   0.0800 
@<TRIPOS>BOND
  1   1   2  ar  
  2   2   3  ar  
  3   2   4  1   
  4   4   5  1   
  5   4  23  1   
  6   4  24  1   
  7   5   6  1   
  8   5   7  1   
  9   5  25  1   
 10   6   8  1   
 11   6  26  1   
 12   6  27  1   
 13   7   9  1   
 14   7  28  1   
 15   7  29  1   
 16   8  10  1   
 17   8  11  1   
 18   8  30  1   
 19   9  12  1   
 20   9  13  1   
 21   9  31  1   
 22  10  13  1   
 23  10  14  1   
 24  11  15  1   
 25  11  32  1   
 26  11  33  1   
 27  12  15  1   
 28  12  34  1   
 29  12  35  1   
 30  13  36  1   
 31  13  37  1   
 32  14  16  1   
 33  14  38  1   
 34  14  39  1   
 35  16  17  2   
 36  16  18  1   
 37  17  19  1   
 38  18  20  2   
 39  18  40  1   
 40  19  20  1   
 41  19  21  1   
 42  20  41  1   
 43  21  22  1   
 44  21  42  1   
 45  21  43  1   
 46  22  44  1   
 47  22  45  1   
 48  22  46  1   
@<TRIPOS>SUBSTRUCTURE
  1 ****   8 GROUP 4 **** **** 0

# MOE 2024.06 (io_trps.svl 2023.06)
