@<TRIPOS>MOLECULE
NONAME
40 40 1 0 0 
SMALL
USER_CHARGES


@<TRIPOS>ATOM
  1 S        0.2840     0.4270     1.3100 S.3   1 <1>  -0.3320 
  2 C        0.0590     2.0250     0.5560 C.ar  1 <1>   0.7720 
  3 C       -1.1410    -0.6680     0.8550 C.3   1 <1>  -0.0100 
  4 N        0.9620     2.9190     0.7710 N.ar  1 <1>  -0.6200 
  5 N       -1.0440     2.2030    -0.1980 N.ar  1 <1>  -0.1790 
  6 C        0.7760     4.1140     0.1970 C.ar  1 <1>   0.4100 
  7 C       -1.2700     3.3840    -0.7940 C.ar  1 <1>   0.4610 
  8 N        1.7410     5.0040     0.4650 N.pl3 1 <1>  -0.8690 
  9 C       -0.3300     4.3730    -0.5900 C.ar  1 <1>  -0.1500 
 10 N       -2.3760     3.5580    -1.5490 N.pl3 1 <1>  -0.9000 
 11 C        1.9300     6.4180     0.0290 C.3   1 <1>   0.2090 
 12 C        3.4270     6.8360     0.0130 C.3   1 <1>   0.2800 
 13 O        3.9780     6.4520     1.2240 O.3   1 <1>  -0.6800 
 14 C        4.1910     6.0850    -1.1110 C.3   1 <1>  -0.0220 
 15 C        3.5000     8.3790    -0.1010 C.3   1 <1>  -0.0220 
 16 C        5.7180     5.9280    -1.0470 C.2   1 <1>  -0.2880 
 17 C        4.8880     9.0010    -0.1370 C.2   1 <1>  -0.2880 
 18 C        6.6250     6.3980    -0.1810 C.2   1 <1>  -0.3000 
 19 C        5.3950     9.7880     0.8160 C.2   1 <1>  -0.3000 
 20 H       -0.9710    -1.6190     1.3300 H     1 <1>   0.0800 
 21 H       -1.1570    -0.7890    -0.2130 H     1 <1>   0.0800 
 22 H       -2.0490    -0.2280     1.2310 H     1 <1>   0.0800 
 23 H       -1.6930     1.4370    -0.3050 H     1 <1>   0.4570 
 24 H        2.4760     4.7240     1.1340 H     1 <1>   0.4000 
 25 H       -0.4590     5.3390    -1.0360 H     1 <1>   0.1500 
 26 H       -2.5760     4.4550    -2.0120 H     1 <1>   0.4000 
 27 H       -3.1140     2.8700    -1.7410 H     1 <1>   0.4000 
 28 H        1.3990     7.0560     0.7150 H     1 <1>   0.0800 
 29 H        1.5100     6.5620    -0.9500 H     1 <1>   0.0800 
 30 H        4.9490     6.4180     1.1020 H     1 <1>   0.4000 
 31 H        3.9450     6.5500    -2.0490 H     1 <1>   0.0800 
 32 H        3.7950     5.0870    -1.1670 H     1 <1>   0.0800 
 33 H        2.9580     8.8040     0.7260 H     1 <1>   0.0800 
 34 H        2.9880     8.6840    -0.9960 H     1 <1>   0.0800 
 35 H        6.0520     5.3170    -1.8710 H     1 <1>   0.1500 
 36 H        5.4420     8.7510    -1.0280 H     1 <1>   0.1500 
 37 H        7.6780     6.1890    -0.2720 H     1 <1>   0.1500 
 38 H        6.4410     7.0240     0.6740 H     1 <1>   0.1500 
 39 H        6.3780    10.2260     0.7740 H     1 <1>   0.1500 
 40 H        4.8740    10.0600     1.7190 H     1 <1>   0.1500 
@<TRIPOS>BOND
  1   1   2  1   
  2   1   3  1   
  3   2   4  ar  
  4   2   5  ar  
  5   3  20  1   
  6   3  21  1   
  7   3  22  1   
  8   4   6  ar  
  9   5   7  ar  
 10   5  23  1   
 11   6   8  1   
 12   6   9  ar  
 13   7   9  ar  
 14   7  10  1   
 15   8  11  1   
 16   8  24  1   
 17   9  25  1   
 18  10  26  1   
 19  10  27  1   
 20  11  12  1   
 21  11  28  1   
 22  11  29  1   
 23  12  13  1   
 24  12  14  1   
 25  12  15  1   
 26  13  30  1   
 27  14  16  1   
 28  14  31  1   
 29  14  32  1   
 30  15  17  1   
 31  15  33  1   
 32  15  34  1   
 33  16  18  2   
 34  16  35  1   
 35  17  19  2   
 36  17  36  1   
 37  18  37  1   
 38  18  38  1   
 39  19  39  1   
 40  19  40  1   
@<TRIPOS>SUBSTRUCTURE
  1 ****   8 GROUP 4 **** **** 0

# MOE 2024.06 (io_trps.svl 2023.06)
