@<TRIPOS>MOLECULE
NONAME
55 57 1 0 0 
SMALL
USER_CHARGES


@<TRIPOS>ATOM
  1 CL       1.6590     0.9830     2.2720 Cl    1 <1>  -0.1770 
  2 C        2.2520    -0.4970     1.5650 C.ar  1 <1>   0.1770 
  3 C        3.1140    -0.4340     0.4890 C.ar  1 <1>  -0.1500 
  4 C        1.8400    -1.7040     2.0940 C.ar  1 <1>  -0.1500 
  5 C        3.5870    -1.6120    -0.0820 C.ar  1 <1>   0.0830 
  6 C        2.3070    -2.8870     1.5410 C.ar  1 <1>  -0.1440 
  7 O        4.4040    -1.5930    -1.1730 O.3   1 <1>  -0.3620 
  8 C        3.1910    -2.8460     0.4640 C.ar  1 <1>   0.0830 
  9 C        1.8490    -4.2140     2.1200 C.3   1 <1>   0.4870 
 10 C        4.8230    -0.3890    -1.7810 C.3   1 <1>   0.0400 
 11 O        3.6080    -4.0540    -0.0180 O.3   1 <1>  -0.3630 
 12 N        1.2120    -5.0190     1.0500 N.4   1 <1>  -0.9590 
 13 C        4.9620    -4.2510    -0.3730 C.3   1 <1>   0.1200 
 14 C        0.0650    -4.3610     0.3480 C.3   1 <1>   0.3430 
 15 C        0.7750    -6.3770     1.4470 C.3   1 <1>   0.3430 
 16 C        5.2640    -5.7470    -0.2830 C.3   1 <1>  -0.1600 
 17 C       -0.9920    -5.4570     0.1320 C.3   1 <1>   0.2000 
 18 C       -0.2560    -6.7730     0.3880 C.3   1 <1>  -0.0800 
 19 C        6.7350    -6.0370    -0.5990 C.3   1 <1>  -0.2400 
 20 O       -2.0050    -5.3170     1.0720 O.3   1 <1>  -0.6800 
 21 C        0.3920    -7.2920    -0.9150 C.3   1 <1>  -0.0170 
 22 C        1.3760    -8.4220    -0.6650 C.ar  1 <1>   0.1670 
 23 N        2.5930    -8.0560    -0.2910 N.ar  1 <1>  -0.6200 
 24 C        0.9750    -9.7380    -0.8360 C.ar  1 <1>  -0.1500 
 25 C        3.4510    -9.0470    -0.0940 C.ar  1 <1>   0.1600 
 26 C        1.8760   -10.7570    -0.6160 C.ar  1 <1>  -0.1500 
 27 C        3.1490   -10.3900    -0.2370 C.ar  1 <1>  -0.1500 
 28 H        3.3890     0.5350     0.1220 H     1 <1>   0.1500 
 29 H        1.1640    -1.6940     2.9320 H     1 <1>   0.1500 
 30 H        1.1500    -4.0450     2.9220 H     1 <1>   0.0800 
 31 H        2.7040    -4.7410     2.5120 H     1 <1>   0.0800 
 32 H        5.4530    -0.6390    -2.6160 H     1 <1>   0.0800 
 33 H        5.3810     0.1910    -1.0670 H     1 <1>   0.0800 
 34 H        3.9590     0.1490    -2.1280 H     1 <1>   0.0800 
 35 H        1.9710    -5.1340     0.3480 H     1 <1>   0.4500 
 36 H        5.1090    -3.9020    -1.3800 H     1 <1>   0.0800 
 37 H        5.5850    -3.6910     0.3040 H     1 <1>   0.0800 
 38 H       -0.3510    -3.5550     0.9300 H     1 <1>   0.0800 
 39 H        0.4010    -3.9750    -0.6010 H     1 <1>   0.0800 
 40 H        1.6020    -7.0650     1.5050 H     1 <1>   0.0800 
 41 H        0.2950    -6.3360     2.4110 H     1 <1>   0.0800 
 42 H        5.0410    -6.1010     0.7080 H     1 <1>   0.0800 
 43 H        4.6460    -6.2730    -0.9900 H     1 <1>   0.0800 
 44 H       -1.4430    -5.3970    -0.8450 H     1 <1>   0.0800 
 45 H       -0.9170    -7.5340     0.7660 H     1 <1>   0.0800 
 46 H        7.3800    -5.5340     0.1020 H     1 <1>   0.0800 
 47 H        6.9800    -5.7050    -1.5930 H     1 <1>   0.0800 
 48 H        6.9250    -7.0940    -0.5380 H     1 <1>   0.0800 
 49 H       -1.7220    -5.5300     1.9810 H     1 <1>   0.4000 
 50 H        0.9190    -6.5020    -1.4220 H     1 <1>   0.0800 
 51 H       -0.3790    -7.6330    -1.5830 H     1 <1>   0.0800 
 52 H       -0.0290    -9.9730    -1.1400 H     1 <1>   0.1500 
 53 H        4.4530    -8.7780     0.1970 H     1 <1>   0.1500 
 54 H        1.6020   -11.7920    -0.7390 H     1 <1>   0.1500 
 55 H        3.9010   -11.1370    -0.0560 H     1 <1>   0.1500 
@<TRIPOS>BOND
  1   1   2  1   
  2   2   3  ar  
  3   2   4  ar  
  4   3   5  ar  
  5   3  28  1   
  6   4   6  ar  
  7   4  29  1   
  8   5   7  1   
  9   5   8  ar  
 10   6   8  ar  
 11   6   9  1   
 12   7  10  1   
 13   8  11  1   
 14   9  12  1   
 15   9  30  1   
 16   9  31  1   
 17  10  32  1   
 18  10  33  1   
 19  10  34  1   
 20  11  13  1   
 21  12  14  1   
 22  12  15  1   
 23  12  35  1   
 24  13  16  1   
 25  13  36  1   
 26  13  37  1   
 27  14  17  1   
 28  14  38  1   
 29  14  39  1   
 30  15  18  1   
 31  15  40  1   
 32  15  41  1   
 33  16  19  1   
 34  16  42  1   
 35  16  43  1   
 36  17  18  1   
 37  17  20  1   
 38  17  44  1   
 39  18  21  1   
 40  18  45  1   
 41  19  46  1   
 42  19  47  1   
 43  19  48  1   
 44  20  49  1   
 45  21  22  1   
 46  21  50  1   
 47  21  51  1   
 48  22  23  ar  
 49  22  24  ar  
 50  23  25  ar  
 51  24  26  ar  
 52  24  52  1   
 53  25  27  ar  
 54  25  53  1   
 55  26  27  ar  
 56  26  54  1   
 57  27  55  1   
@<TRIPOS>SUBSTRUCTURE
  1 ****  12 GROUP 4 **** **** 0

# MOE 2024.06 (io_trps.svl 2023.06)
