@<TRIPOS>MOLECULE
NONAME
53 57 1 0 0 
SMALL
USER_CHARGES


@<TRIPOS>ATOM
  1 O       -6.1680    -2.9940    -4.8300 O.2   1 <1>  -0.5200 
  2 N       -5.1980    -2.6260    -4.1420 N.pl3 1 <1>   0.8360 
  3 O       -4.2340    -2.0580    -4.6890 O.2   1 <1>  -0.5200 
  4 C       -5.1050    -3.0060    -2.7980 C.2   1 <1>   0.2190 
  5 C       -5.8440    -2.2350    -1.8580 C.2   1 <1>   0.6160 
  6 C       -4.3410    -4.0600    -2.3790 C.2   1 <1>  -0.1500 
  7 O       -6.5070    -1.2570    -2.1930 O.2   1 <1>  -0.5700 
  8 N       -5.7910    -2.5890    -0.5130 N.am  1 <1>  -0.4690 
  9 C       -4.3150    -4.3990    -1.0130 C.2   1 <1>  -0.1500 
 10 C       -5.0360    -3.6830    -0.1050 C.2   1 <1>  -0.0290 
 11 C       -6.5270    -1.7100     0.4590 C.3   1 <1>   0.1400 
 12 C       -5.0520    -4.1120     1.3640 C.3   1 <1>   0.0580 
 13 C       -6.6090    -2.2620     1.8960 C.3   1 <1>  -0.0800 
 14 C       -6.1810    -5.1360     1.5790 C.3   1 <1>   0.1400 
 15 C       -5.2690    -2.9020     2.2810 C.3   1 <1>  -0.1600 
 16 C       -7.7660    -3.2700     2.0650 C.3   1 <1>   0.1400 
 17 N       -7.5070    -4.5140     1.2810 N.am  1 <1>  -0.6600 
 18 C       -8.2690    -4.9550     0.2260 C.2   1 <1>   0.5690 
 19 O       -7.9230    -5.8910    -0.4590 O.2   1 <1>  -0.5700 
 20 C       -9.5830    -4.2630    -0.1070 C.3   1 <1>  -0.0990 
 21 C      -10.3480    -4.8920    -1.2900 C.3   1 <1>  -0.0990 
 22 C      -11.6790    -4.2220    -1.5920 C.2   1 <1>   0.4390 
 23 N      -12.2580    -4.5570    -2.7760 N.pl3 1 <1>  -0.5500 
 24 N      -12.2070    -3.4040    -0.7610 N.2   1 <1>  -0.6610 
 25 C      -13.4750    -4.0370    -3.1750 C.ar  1 <1>   0.1000 
 26 C      -13.4170    -2.8350    -1.0730 C.2   1 <1>   0.6950 
 27 C      -14.0970    -3.1400    -2.3060 C.ar  1 <1>   0.0860 
 28 C      -14.0720    -4.3810    -4.3860 C.ar  1 <1>  -0.1500 
 29 O      -13.8990    -2.0620    -0.2650 O.2   1 <1>  -0.5700 
 30 C      -15.3310    -2.5990    -2.6850 C.ar  1 <1>  -0.1500 
 31 C      -15.2880    -3.8360    -4.7380 C.ar  1 <1>  -0.1500 
 32 C      -15.9200    -2.9410    -3.8840 C.ar  1 <1>  -0.1500 
 33 H       -3.7650    -4.6470    -3.0750 H     1 <1>   0.1500 
 34 H       -3.7260    -5.2500    -0.7140 H     1 <1>   0.1500 
 35 H       -6.0170    -0.7630     0.4850 H     1 <1>   0.0800 
 36 H       -7.5220    -1.5280     0.0910 H     1 <1>   0.0800 
 37 H       -4.1150    -4.5780     1.6120 H     1 <1>   0.0800 
 38 H       -6.8050    -1.4340     2.5540 H     1 <1>   0.0800 
 39 H       -6.1770    -5.4780     2.5990 H     1 <1>   0.0800 
 40 H       -6.0110    -5.9910     0.9470 H     1 <1>   0.0800 
 41 H       -5.2840    -3.2140     3.3110 H     1 <1>   0.0800 
 42 H       -4.4670    -2.1960     2.1530 H     1 <1>   0.0800 
 43 H       -8.6910    -2.8060     1.7760 H     1 <1>   0.0800 
 44 H       -7.8540    -3.5380     3.1040 H     1 <1>   0.0800 
 45 H      -10.2050    -4.2960     0.7690 H     1 <1>   0.0800 
 46 H       -9.3780    -3.2350    -0.3430 H     1 <1>   0.0800 
 47 H      -10.5330    -5.9290    -1.0760 H     1 <1>   0.0800 
 48 H       -9.7250    -4.8380    -2.1660 H     1 <1>   0.0800 
 49 H      -11.7690    -5.2100    -3.3900 H     1 <1>   0.4000 
 50 H      -13.5820    -5.0730    -5.0470 H     1 <1>   0.1500 
 51 H      -15.8200    -1.9060    -2.0200 H     1 <1>   0.1500 
 52 H      -15.7530    -4.0980    -5.6740 H     1 <1>   0.1500 
 53 H      -16.8700    -2.5170    -4.1620 H     1 <1>   0.1500 
@<TRIPOS>BOND
  1   1   2  2   
  2   2   3  2   
  3   2   4  1   
  4   4   5  1   
  5   4   6  2   
  6   5   7  2   
  7   5   8  am  
  8   6   9  1   
  9   6  33  1   
 10   8  10  1   
 11   8  11  1   
 12   9  10  2   
 13   9  34  1   
 14  10  12  1   
 15  11  13  1   
 16  11  35  1   
 17  11  36  1   
 18  12  14  1   
 19  12  15  1   
 20  12  37  1   
 21  13  15  1   
 22  13  16  1   
 23  13  38  1   
 24  14  17  1   
 25  14  39  1   
 26  14  40  1   
 27  15  41  1   
 28  15  42  1   
 29  16  17  1   
 30  16  43  1   
 31  16  44  1   
 32  17  18  am  
 33  18  19  2   
 34  18  20  1   
 35  20  21  1   
 36  20  45  1   
 37  20  46  1   
 38  21  22  1   
 39  21  47  1   
 40  21  48  1   
 41  22  23  1   
 42  22  24  2   
 43  23  25  1   
 44  23  49  1   
 45  24  26  1   
 46  25  27  ar  
 47  25  28  ar  
 48  26  27  1   
 49  26  29  2   
 50  27  30  ar  
 51  28  31  ar  
 52  28  50  1   
 53  30  32  ar  
 54  30  51  1   
 55  31  32  ar  
 56  31  52  1   
 57  32  53  1   
@<TRIPOS>SUBSTRUCTURE
  1 ****  20 GROUP 4 **** **** 0

# MOE 2024.06 (io_trps.svl 2023.06)
