@<TRIPOS>MOLECULE
NONAME
45 46 1 0 0 
SMALL
USER_CHARGES


@<TRIPOS>ATOM
  1 F       -0.6710    -0.0120    -0.2290 F     1 <1>  -0.1900 
  2 C       -1.9140     0.3820    -0.1280 C.ar  1 <1>   0.1900 
  3 C       -2.5040     1.2280    -1.0750 C.ar  1 <1>   0.0820 
  4 C       -2.6200    -0.0830     0.9650 C.ar  1 <1>  -0.1500 
  5 O       -1.9150     1.7540    -2.1870 O.3   1 <1>  -0.3630 
  6 C       -3.8280     1.5850    -0.8810 C.ar  1 <1>  -0.1500 
  7 C       -3.9400     0.2930     1.1280 C.ar  1 <1>  -0.1500 
  8 C       -0.5620     1.5320    -2.5190 C.3   1 <1>   0.0400 
  9 C       -4.5740     1.1280     0.2070 C.ar  1 <1>   0.0530 
 10 C       -5.9480     1.5290     0.3670 C.2   1 <1>   0.0870 
 11 O       -6.2660     2.7910     0.2290 O.3   1 <1>  -0.0190 
 12 C       -7.1000     0.8550     0.6430 C.2   1 <1>  -0.0860 
 13 N       -7.5380     3.0200     0.4040 N.2   1 <1>  -0.4100 
 14 C       -8.0630     1.8730     0.6570 C.2   1 <1>   0.3720 
 15 C       -7.3400    -0.5430     0.8450 C.2   1 <1>   0.7160 
 16 N       -9.4330     1.7100     0.9160 N.pl3 1 <1>  -0.8210 
 17 O       -6.4310    -1.3490     0.8710 O.2   1 <1>  -0.5700 
 18 N       -8.6130    -1.0050     0.9970 N.am  1 <1>  -0.7300 
 19 C      -10.2960     2.2150    -0.1900 C.3   1 <1>   0.1290 
 20 C       -9.8390     2.3030     2.2200 C.3   1 <1>   0.1290 
 21 C       -9.0570    -2.3810     1.3620 C.3   1 <1>   0.1400 
 22 C       -8.4890    -3.4740     0.4420 C.3   1 <1>   0.2000 
 23 O       -9.1620    -4.6570     0.7020 O.3   1 <1>  -0.6800 
 24 C       -8.6460    -3.1640    -1.0570 C.3   1 <1>   0.1200 
 25 O       -8.3540    -4.2960    -1.8200 O.3   1 <1>  -0.6800 
 26 H       -2.1400    -0.7320     1.6760 H     1 <1>   0.1500 
 27 H       -4.2940     2.2360    -1.5990 H     1 <1>   0.1500 
 28 H       -4.4910    -0.0680     1.9790 H     1 <1>   0.1500 
 29 H       -0.3470     2.0720    -3.4230 H     1 <1>   0.0800 
 30 H       -0.4080     0.4800    -2.6790 H     1 <1>   0.0800 
 31 H        0.0590     1.8970    -1.7200 H     1 <1>   0.0800 
 32 H       -9.3260    -0.2590     1.0350 H     1 <1>   0.3700 
 33 H      -11.3140     1.9020    -0.0370 H     1 <1>   0.0800 
 34 H       -9.9510     1.8220    -1.1320 H     1 <1>   0.0800 
 35 H      -10.2570     3.2910    -0.2320 H     1 <1>   0.0800 
 36 H      -10.8550     2.0310     2.4500 H     1 <1>   0.0800 
 37 H       -9.7600     3.3770     2.1810 H     1 <1>   0.0800 
 38 H       -9.1980     1.9380     3.0040 H     1 <1>   0.0800 
 39 H       -8.7570    -2.5870     2.3750 H     1 <1>   0.0800 
 40 H      -10.1320    -2.4120     1.3110 H     1 <1>   0.0800 
 41 H       -7.4500    -3.6370     0.6720 H     1 <1>   0.0800 
 42 H       -9.1300    -5.1880    -0.1250 H     1 <1>   0.4000 
 43 H       -7.9850    -2.3690    -1.3550 H     1 <1>   0.0800 
 44 H       -9.6600    -2.8710    -1.2700 H     1 <1>   0.0800 
 45 H       -7.3910    -4.4730    -1.8060 H     1 <1>   0.4000 
@<TRIPOS>BOND
  1   1   2  1   
  2   2   3  ar  
  3   2   4  ar  
  4   3   5  1   
  5   3   6  ar  
  6   4   7  ar  
  7   4  26  1   
  8   5   8  1   
  9   6   9  ar  
 10   6  27  1   
 11   7   9  ar  
 12   7  28  1   
 13   8  29  1   
 14   8  30  1   
 15   8  31  1   
 16   9  10  1   
 17  10  11  1   
 18  10  12  2   
 19  11  13  1   
 20  12  14  1   
 21  12  15  1   
 22  13  14  2   
 23  14  16  1   
 24  15  17  2   
 25  15  18  am  
 26  16  19  1   
 27  16  20  1   
 28  18  21  1   
 29  18  32  1   
 30  19  33  1   
 31  19  34  1   
 32  19  35  1   
 33  20  36  1   
 34  20  37  1   
 35  20  38  1   
 36  21  22  1   
 37  21  39  1   
 38  21  40  1   
 39  22  23  1   
 40  22  24  1   
 41  22  41  1   
 42  23  42  1   
 43  24  25  1   
 44  24  43  1   
 45  24  44  1   
 46  25  45  1   
@<TRIPOS>SUBSTRUCTURE
  1 ****  12 GROUP 4 **** **** 0

# MOE 2024.06 (io_trps.svl 2023.06)
