@<TRIPOS>MOLECULE
NONAME
43 45 1 0 0 
SMALL
USER_CHARGES


@<TRIPOS>ATOM
  1 F       -1.2120    -0.5540    -0.2280 F     1 <1>  -0.1900 
  2 C       -1.4710    -1.8350    -0.1410 C.ar  1 <1>   0.1900 
  3 C       -0.5560    -2.8070    -0.5600 C.ar  1 <1>   0.0820 
  4 C       -2.7030    -2.1780     0.3810 C.ar  1 <1>  -0.1500 
  5 O        0.6850    -2.5930    -1.0880 O.3   1 <1>  -0.3630 
  6 C       -0.9280    -4.1350    -0.4330 C.ar  1 <1>  -0.1500 
  7 C       -3.0410    -3.5140     0.4900 C.ar  1 <1>  -0.1500 
  8 C        1.2670    -1.3120    -1.1870 C.3   1 <1>   0.0400 
  9 C       -2.1640    -4.5230     0.0890 C.ar  1 <1>   0.0530 
 10 C       -2.5150    -5.9210     0.1840 C.2   1 <1>   0.0870 
 11 O       -2.0660    -6.7520    -0.7300 O.3   1 <1>  -0.0190 
 12 C       -3.2750    -6.6550     1.0410 C.2   1 <1>  -0.2330 
 13 N       -2.4800    -7.9790    -0.5530 N.2   1 <1>  -0.4100 
 14 C       -3.2060    -7.9400     0.5060 C.2   1 <1>   0.3720 
 15 C       -4.0090    -6.3160     2.2230 C.2   1 <1>   1.0330 
 16 N       -3.8580    -9.0390     1.0460 N.pl3 1 <1>  -0.8520 
 17 O       -3.7980    -5.2590     2.8350 O.co2 1 <1>  -0.9000 
 18 O       -4.8980    -7.0790     2.6580 O.co2 1 <1>  -0.9000 
 19 C       -4.7700    -9.7600     0.1320 C.3   1 <1>   0.2090 
 20 C       -6.2110    -9.2270     0.2340 C.3   1 <1>   0.0000 
 21 C       -7.1100    -9.8100    -0.9000 C.3   1 <1>   0.0000 
 22 C       -6.4240    -7.8380    -0.4570 C.3   1 <1>   0.0000 
 23 C       -6.8440    -9.4500     1.6360 C.3   1 <1>   0.1200 
 24 C       -7.7470    -8.4030    -1.0330 C.3   1 <1>   0.0000 
 25 O       -7.1590    -8.2640     2.2760 O.3   1 <1>  -0.6800 
 26 H       -3.3880    -1.4150     0.7020 H     1 <1>   0.1500 
 27 H       -0.2350    -4.8940    -0.7480 H     1 <1>   0.1500 
 28 H       -4.0000    -3.7820     0.8990 H     1 <1>   0.1500 
 29 H        2.2620    -1.4270    -1.5770 H     1 <1>   0.0800 
 30 H        1.3080    -0.8700    -0.2070 H     1 <1>   0.0800 
 31 H        0.6800    -0.7110    -1.8580 H     1 <1>   0.0800 
 32 H       -4.3980    -8.6650     1.8560 H     1 <1>   0.4000 
 33 H       -4.7540   -10.8040     0.3900 H     1 <1>   0.0800 
 34 H       -4.4140    -9.6700    -0.8800 H     1 <1>   0.0800 
 35 H       -7.8040   -10.5720    -0.5910 H     1 <1>   0.0000 
 36 H       -6.5590   -10.0840    -1.7840 H     1 <1>   0.0000 
 37 H       -5.7050    -7.6430    -1.2350 H     1 <1>   0.0000 
 38 H       -6.5570    -6.9940     0.1940 H     1 <1>   0.0000 
 39 H       -6.1690    -9.9900     2.2780 H     1 <1>   0.0800 
 40 H       -7.7580   -10.0120     1.5620 H     1 <1>   0.0800 
 41 H       -8.5870    -8.2580    -0.3740 H     1 <1>   0.0000 
 42 H       -7.9410    -8.1060    -2.0490 H     1 <1>   0.0000 
 43 H       -6.3150    -7.7370     2.4740 H     1 <1>   0.4000 
@<TRIPOS>BOND
  1   1   2  1   
  2   2   3  ar  
  3   2   4  ar  
  4   3   5  1   
  5   3   6  ar  
  6   4   7  ar  
  7   4  26  1   
  8   5   8  1   
  9   6   9  ar  
 10   6  27  1   
 11   7   9  ar  
 12   7  28  1   
 13   8  29  1   
 14   8  30  1   
 15   8  31  1   
 16   9  10  1   
 17  10  11  1   
 18  10  12  2   
 19  11  13  1   
 20  12  14  1   
 21  12  15  1   
 22  13  14  2   
 23  14  16  1   
 24  15  17  ar  
 25  15  18  ar  
 26  16  19  1   
 27  16  32  1   
 28  19  20  1   
 29  19  33  1   
 30  19  34  1   
 31  20  21  1   
 32  20  22  1   
 33  20  23  1   
 34  21  24  1   
 35  21  35  1   
 36  21  36  1   
 37  22  24  1   
 38  22  37  1   
 39  22  38  1   
 40  23  25  1   
 41  23  39  1   
 42  23  40  1   
 43  24  41  1   
 44  24  42  1   
 45  25  43  1   
@<TRIPOS>SUBSTRUCTURE
  1 ****  10 GROUP 4 **** **** 0

# MOE 2024.06 (io_trps.svl 2023.06)
