@<TRIPOS>MOLECULE
NONAME
18 19 1 0 0 
SMALL
USER_CHARGES


@<TRIPOS>ATOM
  1 O       -5.9600     0.4300    -0.1060 O.2   1 <1>  -0.5700 
  2 C       -5.5680     1.5890    -0.0250 C.2   1 <1>   0.6900 
  3 N       -4.2940     2.0040     0.0500 N.am  1 <1>  -0.4200 
  4 N       -6.3340     2.6970    -0.0030 N.am  1 <1>  -0.3680 
  5 C       -4.3540     3.3810     0.0880 C.2   1 <1>   0.4490 
  6 C       -3.0460     1.2320    -0.1160 C.3   1 <1>   0.1400 
  7 N       -5.5530     3.8330     0.0660 N.2   1 <1>  -0.5120 
  8 C       -3.0560     4.1900     0.1680 C.3   1 <1>   0.1710 
  9 C       -1.8270     2.0690     0.3240 C.3   1 <1>   0.1100 
 10 N       -1.8550     3.4220    -0.2640 N.3   1 <1>  -0.9000 
 11 H       -7.3550     2.6790    -0.0570 H     1 <1>   0.3700 
 12 H       -2.9400     0.9670    -1.1530 H     1 <1>   0.0800 
 13 H       -3.1050     0.3270     0.4620 H     1 <1>   0.0800 
 14 H       -2.9260     4.5060     1.1880 H     1 <1>   0.0800 
 15 H       -3.1560     5.0680    -0.4450 H     1 <1>   0.0800 
 16 H       -0.9270     1.5670     0.0130 H     1 <1>   0.0800 
 17 H       -1.8110     2.1400     1.3990 H     1 <1>   0.0800 
 18 H       -1.0100     3.9410     0.0100 H     1 <1>   0.3600 
@<TRIPOS>BOND
  1   1   2  2   
  2   2   3  am  
  3   2   4  am  
  4   3   5  1   
  5   3   6  1   
  6   4   7  1   
  7   4  11  1   
  8   5   7  2   
  9   5   8  1   
 10   6   9  1   
 11   6  12  1   
 12   6  13  1   
 13   8  10  1   
 14   8  14  1   
 15   8  15  1   
 16   9  10  1   
 17   9  16  1   
 18   9  17  1   
 19  10  18  1   
@<TRIPOS>SUBSTRUCTURE
  1 ****   3 GROUP 4 **** **** 0

# MOE 2024.06 (io_trps.svl 2023.06)
