@<TRIPOS>MOLECULE
NONAME
44 45 1 0 0 
SMALL
USER_CHARGES


@<TRIPOS>ATOM
  1 O        1.0120    -0.4230     1.7490 O.co2 1 <1>  -0.9000 
  2 C        1.6980    -0.3400     0.7340 C.2   1 <1>   0.9060 
  3 O        1.4180    -0.8850    -0.3400 O.co2 1 <1>  -0.9000 
  4 C        2.9810     0.4540     0.8030 C.3   1 <1>  -0.1860 
  5 C        4.1530    -0.4200     0.3460 C.3   1 <1>   0.2000 
  6 C        2.8980     1.7780    -0.0010 C.3   1 <1>  -0.1600 
  7 O        3.9530    -0.7500    -0.9840 O.3   1 <1>  -0.6800 
  8 C        5.4840     0.3490     0.4580 C.3   1 <1>   0.3430 
  9 C        4.2180     2.1560    -0.6790 C.3   1 <1>   0.3430 
 10 N        5.3530     1.8450     0.2440 N.4   1 <1>  -0.9590 
 11 C        6.6390     2.4290    -0.2100 C.3   1 <1>   0.3430 
 12 C        6.6200     3.9420    -0.0230 C.3   1 <1>  -0.1600 
 13 C        7.9660     4.5610    -0.3860 C.3   1 <1>   0.1200 
 14 O        7.8280     5.9200    -0.1780 O.3   1 <1>  -0.5600 
 15 C        8.9710     6.6740    -0.4430 C.3   1 <1>   0.2630 
 16 C        8.6660     8.1320    -0.1460 C.ar  1 <1>  -0.1440 
 17 C        9.1470     8.7330     1.0080 C.ar  1 <1>  -0.1500 
 18 C        7.9040     8.8790    -1.0320 C.ar  1 <1>  -0.1500 
 19 C        8.8750    10.0640     1.2700 C.ar  1 <1>  -0.1500 
 20 C        7.6310    10.2110    -0.7720 C.ar  1 <1>  -0.1500 
 21 C        8.1180    10.8050     0.3800 C.ar  1 <1>  -0.1500 
 22 H        3.1350     0.6930     1.8390 H     1 <1>   0.0800 
 23 H        4.1890    -1.3410     0.9040 H     1 <1>   0.0800 
 24 H        2.5670     2.5720     0.6450 H     1 <1>   0.0800 
 25 H        2.1550     1.6780    -0.7750 H     1 <1>   0.0800 
 26 H        2.9770    -0.9890    -1.0600 H     1 <1>   0.4000 
 27 H        6.1640    -0.0730    -0.2630 H     1 <1>   0.0800 
 28 H        5.8930     0.1770     1.4390 H     1 <1>   0.0800 
 29 H        4.1990     3.2010    -0.9390 H     1 <1>   0.0800 
 30 H        4.3260     1.5800    -1.5850 H     1 <1>   0.0800 
 31 H        5.0930     2.2580     1.1480 H     1 <1>   0.4500 
 32 H        7.4460     2.0170     0.3740 H     1 <1>   0.0800 
 33 H        6.8100     2.1820    -1.2460 H     1 <1>   0.0800 
 34 H        6.4060     4.1770     1.0050 H     1 <1>   0.0800 
 35 H        5.8710     4.3880    -0.6540 H     1 <1>   0.0800 
 36 H        8.2110     4.3920    -1.4220 H     1 <1>   0.0800 
 37 H        8.7530     4.1910     0.2520 H     1 <1>   0.0800 
 38 H        9.7740     6.3210     0.1800 H     1 <1>   0.0800 
 39 H        9.2360     6.5540    -1.4800 H     1 <1>   0.0800 
 40 H        9.7330     8.1670     1.7100 H     1 <1>   0.1500 
 41 H        7.5180     8.4230    -1.9260 H     1 <1>   0.1500 
 42 H        9.2510    10.5240     2.1670 H     1 <1>   0.1500 
 43 H        7.0400    10.7840    -1.4640 H     1 <1>   0.1500 
 44 H        7.9050    11.8390     0.5830 H     1 <1>   0.1500 
@<TRIPOS>BOND
  1   1   2  ar  
  2   2   3  ar  
  3   2   4  1   
  4   4   5  1   
  5   4   6  1   
  6   4  22  1   
  7   5   7  1   
  8   5   8  1   
  9   5  23  1   
 10   6   9  1   
 11   6  24  1   
 12   6  25  1   
 13   7  26  1   
 14   8  10  1   
 15   8  27  1   
 16   8  28  1   
 17   9  10  1   
 18   9  29  1   
 19   9  30  1   
 20  10  11  1   
 21  10  31  1   
 22  11  12  1   
 23  11  32  1   
 24  11  33  1   
 25  12  13  1   
 26  12  34  1   
 27  12  35  1   
 28  13  14  1   
 29  13  36  1   
 30  13  37  1   
 31  14  15  1   
 32  15  16  1   
 33  15  38  1   
 34  15  39  1   
 35  16  17  ar  
 36  16  18  ar  
 37  17  19  ar  
 38  17  40  1   
 39  18  20  ar  
 40  18  41  1   
 41  19  21  ar  
 42  19  42  1   
 43  20  21  ar  
 44  20  43  1   
 45  21  44  1   
@<TRIPOS>SUBSTRUCTURE
  1 ****  12 GROUP 4 **** **** 0

# MOE 2024.06 (io_trps.svl 2023.06)
