@<TRIPOS>MOLECULE
NONAME
56 59 1 0 0 
SMALL
USER_CHARGES


@<TRIPOS>ATOM
  1 O       -0.3060     0.8630     0.1310 O.2   1 <1>  -0.5700 
  2 C       -1.4280     1.2980     0.2350 C.2   1 <1>   0.5690 
  3 N       -2.5140     0.4710     0.1940 N.am  1 <1>  -0.6600 
  4 C       -1.6350     2.7990     0.4100 C.3   1 <1>  -0.0990 
  5 C       -3.9420     0.8730     0.2220 C.3   1 <1>   0.1400 
  6 C       -2.3810    -0.9970     0.0400 C.3   1 <1>   0.1400 
  7 C       -0.3310     3.5980     0.6000 C.3   1 <1>  -0.1600 
  8 C       -4.7100    -0.3990    -0.1390 C.3   1 <1>   0.2000 
  9 C       -3.7900    -1.5540     0.2510 C.3   1 <1>  -0.0800 
 10 C       -0.6000     5.0990     0.7880 C.3   1 <1>   0.0200 
 11 O       -5.9080    -0.4840     0.5500 O.3   1 <1>  -0.6800 
 12 C       -4.0690    -2.8380    -0.5450 C.3   1 <1>   0.0200 
 13 C        0.6880     5.8850     0.9420 C.2   1 <1>   0.2980 
 14 C       -3.0910    -3.9330    -0.1690 C.2   1 <1>  -0.0400 
 15 O        1.4170     5.7000     2.0110 O.3   1 <1>  -0.0190 
 16 N        1.1380     6.7320     0.1130 N.2   1 <1>  -0.5650 
 17 O       -3.0760    -4.4050     1.0490 O.3   1 <1>  -0.0190 
 18 C       -2.1480    -4.5770    -0.8730 C.2   1 <1>  -0.1500 
 19 N        2.4250     6.4970     1.8460 N.2   1 <1>  -0.4100 
 20 C        2.2650     7.1100     0.7270 C.2   1 <1>   0.4620 
 21 N       -2.1710    -5.3280     1.1990 N.2   1 <1>  -0.4100 
 22 C       -1.5960    -5.4530     0.0570 C.2   1 <1>   0.1080 
 23 C        3.1940     8.0750     0.1660 C.ar  1 <1>   0.0540 
 24 C       -0.4710    -6.4230    -0.2270 C.3   1 <1>  -0.0590 
 25 C        2.8090     9.3150    -0.3680 C.ar  1 <1>  -0.1440 
 26 C        4.5550     7.7630     0.1570 C.ar  1 <1>  -0.1500 
 27 C        3.7600    10.1750    -0.8950 C.ar  1 <1>  -0.1500 
 28 C        1.3520     9.7600    -0.3780 C.3   1 <1>  -0.0970 
 29 C        5.4980     8.6250    -0.3670 C.ar  1 <1>  -0.1500 
 30 C        5.1000     9.8360    -0.8980 C.ar  1 <1>  -0.1500 
 31 H       -2.1490     3.1640    -0.4600 H     1 <1>   0.0800 
 32 H       -2.2660     2.9500     1.2660 H     1 <1>   0.0800 
 33 H       -4.1960     1.2040     1.2140 H     1 <1>   0.0800 
 34 H       -4.1350     1.6490    -0.4970 H     1 <1>   0.0800 
 35 H       -2.0210    -1.2110    -0.9520 H     1 <1>   0.0800 
 36 H       -1.6860    -1.3970     0.7610 H     1 <1>   0.0800 
 37 H        0.1970     3.2170     1.4570 H     1 <1>   0.0800 
 38 H        0.3010     3.4580    -0.2620 H     1 <1>   0.0800 
 39 H       -4.9240    -0.4040    -1.1940 H     1 <1>   0.0800 
 40 H       -3.8950    -1.7580     1.3020 H     1 <1>   0.0800 
 41 H       -1.2070     5.2600     1.6610 H     1 <1>   0.0800 
 42 H       -1.1330     5.4800    -0.0660 H     1 <1>   0.0800 
 43 H       -5.7470    -0.6080     1.5060 H     1 <1>   0.4000 
 44 H       -3.9910    -2.6420    -1.6000 H     1 <1>   0.0800 
 45 H       -5.0700    -3.1780    -0.3430 H     1 <1>   0.0800 
 46 H       -1.8580    -4.4690    -1.9010 H     1 <1>   0.1500 
 47 H       -0.7550    -7.0910    -1.0180 H     1 <1>   0.0800 
 48 H       -0.2520    -6.9990     0.6540 H     1 <1>   0.0800 
 49 H        0.4110    -5.8830    -0.5170 H     1 <1>   0.0800 
 50 H        4.8750     6.8220     0.5690 H     1 <1>   0.1500 
 51 H        3.4630    11.1230    -1.3100 H     1 <1>   0.1500 
 52 H        1.2680    10.8080    -0.6040 H     1 <1>   0.0800 
 53 H        0.9030     9.5880     0.5840 H     1 <1>   0.0800 
 54 H        0.8070     9.2070    -1.1210 H     1 <1>   0.0800 
 55 H        6.5400     8.3550    -0.3610 H     1 <1>   0.1500 
 56 H        5.8280    10.5120    -1.3100 H     1 <1>   0.1500 
@<TRIPOS>BOND
  1   1   2  2   
  2   2   3  am  
  3   2   4  1   
  4   3   5  1   
  5   3   6  1   
  6   4   7  1   
  7   4  31  1   
  8   4  32  1   
  9   5   8  1   
 10   5  33  1   
 11   5  34  1   
 12   6   9  1   
 13   6  35  1   
 14   6  36  1   
 15   7  10  1   
 16   7  37  1   
 17   7  38  1   
 18   8   9  1   
 19   8  11  1   
 20   8  39  1   
 21   9  12  1   
 22   9  40  1   
 23  10  13  1   
 24  10  41  1   
 25  10  42  1   
 26  11  43  1   
 27  12  14  1   
 28  12  44  1   
 29  12  45  1   
 30  13  15  1   
 31  13  16  2   
 32  14  17  1   
 33  14  18  2   
 34  15  19  1   
 35  16  20  1   
 36  17  21  1   
 37  18  22  1   
 38  18  46  1   
 39  19  20  2   
 40  20  23  1   
 41  21  22  2   
 42  22  24  1   
 43  23  25  ar  
 44  23  26  ar  
 45  24  47  1   
 46  24  48  1   
 47  24  49  1   
 48  25  27  ar  
 49  25  28  1   
 50  26  29  ar  
 51  26  50  1   
 52  27  30  ar  
 53  27  51  1   
 54  28  52  1   
 55  28  53  1   
 56  28  54  1   
 57  29  30  ar  
 58  29  55  1   
 59  30  56  1   
@<TRIPOS>SUBSTRUCTURE
  1 ****   7 GROUP 4 **** **** 0

# MOE 2024.06 (io_trps.svl 2023.06)
