@<TRIPOS>MOLECULE
NONAME
52 55 1 0 0 
SMALL
USER_CHARGES


@<TRIPOS>ATOM
  1 F       -0.3820    -1.2200    -2.9460 F     1 <1>  -0.3400 
  2 C       -0.3600    -2.5160    -2.6710 C.3   1 <1>   0.8800 
  3 F       -0.6100    -3.1350    -3.8180 F     1 <1>  -0.3400 
  4 O       -1.4090    -2.7880    -1.7730 O.3   1 <1>  -0.3630 
  5 C       -1.4630    -3.9520    -1.0900 C.ar  1 <1>   0.0830 
  6 C       -0.6700    -5.0620    -1.3740 C.ar  1 <1>  -0.1500 
  7 C       -2.3670    -4.0190    -0.0420 C.ar  1 <1>  -0.1500 
  8 C       -0.7910    -6.2080    -0.6100 C.ar  1 <1>  -0.1500 
  9 C       -2.4810    -5.1700     0.7140 C.ar  1 <1>  -0.1500 
 10 C       -1.7010    -6.2950     0.4430 C.ar  1 <1>   0.0860 
 11 C       -1.8200    -7.5120     1.2230 C.2   1 <1>   0.5440 
 12 O       -0.8140    -8.0170     1.6850 O.2   1 <1>  -0.5700 
 13 N       -3.0380    -8.1250     1.4390 N.am  1 <1>  -0.6600 
 14 C       -4.2340    -7.9220     0.5760 C.3   1 <1>   0.1400 
 15 C       -3.1980    -9.2270     2.4280 C.3   1 <1>   0.1400 
 16 C       -4.5150    -9.2150    -0.1930 C.3   1 <1>  -0.1600 
 17 C       -3.4750   -10.5350     1.6840 C.3   1 <1>  -0.1600 
 18 C       -4.6890   -10.4180     0.7510 C.3   1 <1>   0.4240 
 19 O       -5.7840   -10.1510     1.5970 O.3   1 <1>  -0.5600 
 20 C       -4.8840   -11.7280    -0.0450 C.ar  1 <1>  -0.1430 
 21 C       -7.0590   -10.4440     1.1160 C.3   1 <1>   0.1200 
 22 C       -6.0650   -12.4570     0.0450 C.ar  1 <1>  -0.1430 
 23 C       -3.8750   -12.2020    -0.8770 C.ar  1 <1>  -0.1500 
 24 C       -7.1830   -11.9540     0.9360 C.3   1 <1>  -0.0170 
 25 C       -6.2290   -13.6320    -0.6710 C.ar  1 <1>  -0.1500 
 26 C       -4.0380   -13.3720    -1.5940 C.ar  1 <1>  -0.1500 
 27 C       -5.2110   -14.0980    -1.4980 C.ar  1 <1>   0.0830 
 28 O       -5.2900   -15.2360    -2.2310 O.3   1 <1>  -0.3620 
 29 C       -6.4350   -16.0580    -2.1880 C.3   1 <1>   0.0400 
 30 H        0.6070    -2.7960    -2.2920 H     1 <1>   0.0800 
 31 H        0.0370    -5.0630    -2.1820 H     1 <1>   0.1500 
 32 H       -2.9790    -3.1620     0.1780 H     1 <1>   0.1500 
 33 H       -0.1740    -7.0650    -0.8240 H     1 <1>   0.1500 
 34 H       -3.1800    -5.2070     1.5320 H     1 <1>   0.1500 
 35 H       -4.0760    -7.1230    -0.1250 H     1 <1>   0.0800 
 36 H       -5.0780    -7.6690     1.1950 H     1 <1>   0.0800 
 37 H       -4.0190    -8.9960     3.0850 H     1 <1>   0.0800 
 38 H       -2.3120    -9.3310     3.0310 H     1 <1>   0.0800 
 39 H       -3.6890    -9.3960    -0.8540 H     1 <1>   0.0800 
 40 H       -5.3880    -9.0980    -0.8060 H     1 <1>   0.0800 
 41 H       -3.6460   -11.3270     2.3890 H     1 <1>   0.0800 
 42 H       -2.5950   -10.7870     1.1230 H     1 <1>   0.0800 
 43 H       -7.2140    -9.9290     0.1850 H     1 <1>   0.0800 
 44 H       -7.7730   -10.0920     1.8390 H     1 <1>   0.0800 
 45 H       -2.9490   -11.6630    -0.9760 H     1 <1>   0.1500 
 46 H       -8.1390   -12.1800     0.5000 H     1 <1>   0.0800 
 47 H       -7.1250   -12.4350     1.8960 H     1 <1>   0.0800 
 48 H       -7.1490   -14.1740    -0.5770 H     1 <1>   0.1500 
 49 H       -3.2530   -13.7330    -2.2340 H     1 <1>   0.1500 
 50 H       -6.2670   -16.8980    -2.8370 H     1 <1>   0.0800 
 51 H       -7.2830   -15.4940    -2.5330 H     1 <1>   0.0800 
 52 H       -6.5810   -16.3990    -1.1780 H     1 <1>   0.0800 
@<TRIPOS>BOND
  1   1   2  1   
  2   2   3  1   
  3   2   4  1   
  4   2  30  1   
  5   4   5  1   
  6   5   6  ar  
  7   5   7  ar  
  8   6   8  ar  
  9   6  31  1   
 10   7   9  ar  
 11   7  32  1   
 12   8  10  ar  
 13   8  33  1   
 14   9  10  ar  
 15   9  34  1   
 16  10  11  1   
 17  11  12  2   
 18  11  13  am  
 19  13  14  1   
 20  13  15  1   
 21  14  16  1   
 22  14  35  1   
 23  14  36  1   
 24  15  17  1   
 25  15  37  1   
 26  15  38  1   
 27  16  18  1   
 28  16  39  1   
 29  16  40  1   
 30  17  18  1   
 31  17  41  1   
 32  17  42  1   
 33  18  19  1   
 34  18  20  1   
 35  19  21  1   
 36  20  22  ar  
 37  20  23  ar  
 38  21  24  1   
 39  21  43  1   
 40  21  44  1   
 41  22  24  1   
 42  22  25  ar  
 43  23  26  ar  
 44  23  45  1   
 45  24  46  1   
 46  24  47  1   
 47  25  27  ar  
 48  25  48  1   
 49  26  27  ar  
 50  26  49  1   
 51  27  28  1   
 52  28  29  1   
 53  29  50  1   
 54  29  51  1   
 55  29  52  1   
@<TRIPOS>SUBSTRUCTURE
  1 ****  16 GROUP 4 **** **** 0

# MOE 2024.06 (io_trps.svl 2023.06)
