@<TRIPOS>MOLECULE
NONAME
47 48 1 0 0 
SMALL
USER_CHARGES


@<TRIPOS>ATOM
  1 S        0.5350    -0.0240    -0.1150 S.o2  1 <1>   1.3330 
  2 O        1.8030     0.0890     0.5700 O.2   1 <1>  -0.6500 
  3 O        0.5080    -0.1630    -1.5530 O.2   1 <1>  -0.6500 
  4 N       -0.3130    -1.3270     0.5660 N.am  1 <1>  -0.8490 
  5 C       -0.4810     1.3890     0.3060 C.3   1 <1>  -0.0550 
  6 C       -0.0610    -1.5000     2.0000 C.3   1 <1>   0.1160 
  7 C       -0.0530    -2.5850    -0.1410 C.3   1 <1>   0.1160 
  8 C        0.0110     2.7030    -0.3350 C.3   1 <1>  -0.0800 
  9 C       -0.9060     3.9030    -0.0950 C.3   1 <1>   0.2000 
 10 C        1.3870     3.1750     0.1560 C.3   1 <1>   0.1400 
 11 O       -1.2750     3.9320     1.2420 O.3   1 <1>  -0.6800 
 12 C       -0.0060     5.1050    -0.3630 C.3   1 <1>   0.1400 
 13 N        1.3430     4.6600     0.0720 N.am  1 <1>  -0.6600 
 14 C        2.4820     5.4280    -0.0060 C.2   1 <1>   0.7150 
 15 O        3.5620     4.8700     0.0350 O.2   1 <1>  -0.5700 
 16 C        2.4150     6.8540    -0.1560 C.2   1 <1>  -0.2370 
 17 N        3.2320     7.5650    -0.9740 N.pl3 1 <1>   0.3140 
 18 C        1.6080     7.7820     0.4300 C.2   1 <1>  -0.1500 
 19 N        2.9580     8.8780    -0.9520 N.2   1 <1>  -0.7070 
 20 C        4.3150     7.0470    -1.8260 C.3   1 <1>   0.0160 
 21 C        1.9870     9.0000    -0.1010 C.2   1 <1>   0.1080 
 22 C        1.3680    10.3390     0.2500 C.3   1 <1>   0.0210 
 23 C        2.1330    11.0170     1.3910 C.3   1 <1>  -0.2400 
 24 H       -1.4820     1.2020    -0.0290 H     1 <1>   0.0800 
 25 H       -0.5120     1.4970     1.3730 H     1 <1>   0.0800 
 26 H       -0.6860    -2.2840     2.3930 H     1 <1>   0.0800 
 27 H       -0.2850    -0.5900     2.5300 H     1 <1>   0.0800 
 28 H        0.9720    -1.7550     2.1740 H     1 <1>   0.0800 
 29 H       -0.6190    -3.3860     0.3020 H     1 <1>   0.0800 
 30 H        0.9960    -2.8260    -0.1020 H     1 <1>   0.0800 
 31 H       -0.3490    -2.4960    -1.1730 H     1 <1>   0.0800 
 32 H        0.0830     2.5540    -1.4000 H     1 <1>   0.0800 
 33 H       -1.7980     3.8930    -0.6990 H     1 <1>   0.0800 
 34 H        2.1800     2.7740    -0.4550 H     1 <1>   0.0800 
 35 H        1.5550     2.8880     1.1810 H     1 <1>   0.0800 
 36 H       -0.4830     4.1420     1.7790 H     1 <1>   0.4000 
 37 H       -0.3460     5.9710     0.1760 H     1 <1>   0.0800 
 38 H        0.0190     5.3230    -1.4170 H     1 <1>   0.0800 
 39 H        0.8380     7.6290     1.1640 H     1 <1>   0.1500 
 40 H        3.9410     6.2410    -2.4280 H     1 <1>   0.0800 
 41 H        5.1130     6.6940    -1.2000 H     1 <1>   0.0800 
 42 H        4.6760     7.8360    -2.4590 H     1 <1>   0.0800 
 43 H        1.3890    10.9690    -0.6220 H     1 <1>   0.0800 
 44 H        0.3420    10.1950     0.5340 H     1 <1>   0.0800 
 45 H        3.1580    11.1680     1.1010 H     1 <1>   0.0800 
 46 H        2.1120    10.3990     2.2710 H     1 <1>   0.0800 
 47 H        1.6920    11.9700     1.6210 H     1 <1>   0.0800 
@<TRIPOS>BOND
  1   1   2  2   
  2   1   3  2   
  3   1   4  am  
  4   1   5  1   
  5   4   6  1   
  6   4   7  1   
  7   5   8  1   
  8   5  24  1   
  9   5  25  1   
 10   6  26  1   
 11   6  27  1   
 12   6  28  1   
 13   7  29  1   
 14   7  30  1   
 15   7  31  1   
 16   8   9  1   
 17   8  10  1   
 18   8  32  1   
 19   9  11  1   
 20   9  12  1   
 21   9  33  1   
 22  10  13  1   
 23  10  34  1   
 24  10  35  1   
 25  11  36  1   
 26  12  13  1   
 27  12  37  1   
 28  12  38  1   
 29  13  14  am  
 30  14  15  2   
 31  14  16  1   
 32  16  17  1   
 33  16  18  2   
 34  17  19  1   
 35  17  20  1   
 36  18  21  1   
 37  18  39  1   
 38  19  21  2   
 39  20  40  1   
 40  20  41  1   
 41  20  42  1   
 42  21  22  1   
 43  22  23  1   
 44  22  43  1   
 45  22  44  1   
 46  23  45  1   
 47  23  46  1   
 48  23  47  1   
@<TRIPOS>SUBSTRUCTURE
  1 ****  13 GROUP 4 **** **** 0

# MOE 2024.06 (io_trps.svl 2023.06)
