@<TRIPOS>MOLECULE
NONAME
44 46 1 0 0 
SMALL
USER_CHARGES


@<TRIPOS>ATOM
  1 O       -2.4300     0.7700    -0.2180 O.co2 1 <1>  -0.9000 
  2 C       -3.1370     0.0200     0.4560 C.2   1 <1>   0.9060 
  3 O       -3.0810    -0.0480     1.6910 O.co2 1 <1>  -0.9000 
  4 C       -4.0850    -0.9440    -0.2660 C.3   1 <1>   0.2370 
  5 N       -3.6790    -2.4120    -0.3260 N.4   1 <1>  -0.9590 
  6 C       -3.1380    -2.9080     0.9940 C.3   1 <1>   0.4230 
  7 C       -2.8150    -2.7250    -1.4970 C.3   1 <1>   0.3430 
  8 C       -1.5950    -2.7890     1.1960 C.3   1 <1>   0.1200 
  9 C       -3.6390    -4.3630     1.2050 C.3   1 <1>   0.2090 
 10 C       -2.2770    -4.1760    -1.4760 C.3   1 <1>  -0.0800 
 11 O       -0.7810    -3.1690     0.1110 O.3   1 <1>  -0.5600 
 12 N       -4.2230    -4.9830    -0.0460 N.pl3 1 <1>  -0.8380 
 13 C       -1.0680    -4.3580    -0.5410 C.3   1 <1>   0.1200 
 14 C       -3.3470    -5.2590    -1.2230 C.3   1 <1>   0.2090 
 15 C       -5.5810    -5.0550    -0.2070 C.ar  1 <1>   0.7200 
 16 N       -6.2640    -3.9840     0.1830 N.ar  1 <1>  -0.6200 
 17 N       -6.0610    -6.1520    -0.7720 N.ar  1 <1>  -0.6200 
 18 C       -7.5650    -4.0580     0.0250 C.ar  1 <1>   0.1600 
 19 C       -7.3640    -6.1940    -0.9170 C.ar  1 <1>   0.1600 
 20 C       -8.1820    -5.1570    -0.5280 C.ar  1 <1>  -0.1430 
 21 C       -9.6920    -5.2250    -0.6990 C.3   1 <1>  -0.0170 
 22 C      -10.3500    -5.8000     0.5570 C.3   1 <1>  -0.2400 
 23 H       -4.2250    -0.5640    -1.2610 H     1 <1>   0.0800 
 24 H       -5.0250    -0.8690     0.2490 H     1 <1>   0.0800 
 25 H       -4.5360    -2.9900    -0.4290 H     1 <1>   0.4500 
 26 H       -3.5850    -2.3250     1.7830 H     1 <1>   0.0800 
 27 H       -3.3850    -2.5720    -2.3980 H     1 <1>   0.0800 
 28 H       -1.9820    -2.0380    -1.5160 H     1 <1>   0.0800 
 29 H       -1.2940    -3.3690     2.0500 H     1 <1>   0.0800 
 30 H       -1.3460    -1.7660     1.4160 H     1 <1>   0.0800 
 31 H       -4.3960    -4.3410     1.9700 H     1 <1>   0.0800 
 32 H       -2.8530    -4.9880     1.5850 H     1 <1>   0.0800 
 33 H       -1.8980    -4.3660    -2.4630 H     1 <1>   0.0800 
 34 H       -0.1970    -4.6080    -1.1230 H     1 <1>   0.0800 
 35 H       -1.2080    -5.1370     0.1890 H     1 <1>   0.0800 
 36 H       -2.8770    -6.2180    -1.0880 H     1 <1>   0.0800 
 37 H       -3.9650    -5.3350    -2.1040 H     1 <1>   0.0800 
 38 H       -8.1600    -3.2190     0.3460 H     1 <1>   0.1500 
 39 H       -7.7910    -7.0800    -1.3560 H     1 <1>   0.1500 
 40 H      -10.0830    -4.2410    -0.8920 H     1 <1>   0.0800 
 41 H       -9.9360    -5.8430    -1.5470 H     1 <1>   0.0800 
 42 H      -10.1350    -5.1820     1.4110 H     1 <1>   0.0800 
 43 H       -9.9840    -6.7930     0.7500 H     1 <1>   0.0800 
 44 H      -11.4170    -5.8460     0.4270 H     1 <1>   0.0800 
@<TRIPOS>BOND
  1   1   2  ar  
  2   2   3  ar  
  3   2   4  1   
  4   4   5  1   
  5   4  23  1   
  6   4  24  1   
  7   5   6  1   
  8   5   7  1   
  9   5  25  1   
 10   6   8  1   
 11   6   9  1   
 12   6  26  1   
 13   7  10  1   
 14   7  27  1   
 15   7  28  1   
 16   8  11  1   
 17   8  29  1   
 18   8  30  1   
 19   9  12  1   
 20   9  31  1   
 21   9  32  1   
 22  10  13  1   
 23  10  14  1   
 24  10  33  1   
 25  11  13  1   
 26  12  14  1   
 27  12  15  1   
 28  13  34  1   
 29  13  35  1   
 30  14  36  1   
 31  14  37  1   
 32  15  16  ar  
 33  15  17  ar  
 34  16  18  ar  
 35  17  19  ar  
 36  18  20  ar  
 37  18  38  1   
 38  19  20  ar  
 39  19  39  1   
 40  20  21  1   
 41  21  22  1   
 42  21  40  1   
 43  21  41  1   
 44  22  42  1   
 45  22  43  1   
 46  22  44  1   
@<TRIPOS>SUBSTRUCTURE
  1 ****  12 GROUP 4 **** **** 0

# MOE 2024.06 (io_trps.svl 2023.06)
