@<TRIPOS>MOLECULE
NONAME
42 43 1 0 0 
SMALL
USER_CHARGES


@<TRIPOS>ATOM
  1 S       -0.2490     0.0670     0.4960 S.o2  1 <1>   1.3330 
  2 O       -0.8900     1.3620     0.5190 O.2   1 <1>  -0.6500 
  3 O       -0.0880    -0.6710     1.7290 O.2   1 <1>  -0.6500 
  4 N       -1.0880    -0.9260    -0.5960 N.am  1 <1>  -0.8490 
  5 C        1.3460     0.2610    -0.3010 C.3   1 <1>  -0.0550 
  6 C       -0.8320    -2.3570    -0.3990 C.3   1 <1>   0.1160 
  7 C       -2.5320    -0.6710    -0.5860 C.3   1 <1>   0.1160 
  8 C        2.2940     1.2210     0.4440 C.3   1 <1>  -0.0800 
  9 C        3.5410     1.5030    -0.3780 C.3   1 <1>   0.2200 
 10 C        2.8640     0.5990     1.7280 C.3   1 <1>   0.1200 
 11 N        4.0790     2.8260     0.0060 N.am  1 <1>  -0.7300 
 12 C        4.4870     0.4170     0.1130 C.3   1 <1>   0.1200 
 13 O        4.1970     0.2660     1.4670 O.3   1 <1>  -0.5600 
 14 C        4.2770     3.8770    -0.8410 C.2   1 <1>   0.5440 
 15 O        3.9990     3.7340    -2.0140 O.2   1 <1>  -0.5700 
 16 C        4.8260     5.1310    -0.3550 C.ar  1 <1>   0.0860 
 17 C        5.5500     5.9690    -1.2030 C.ar  1 <1>  -0.1500 
 18 C        4.6560     5.5500     0.9660 C.ar  1 <1>  -0.1500 
 19 C        6.0990     7.1690    -0.7730 C.ar  1 <1>   0.0730 
 20 C        5.1940     6.7410     1.4160 C.ar  1 <1>  -0.1500 
 21 C        6.8440     8.0020    -1.6740 C.1   1 <1>   0.4840 
 22 C        5.9130     7.5450     0.5510 C.ar  1 <1>  -0.1500 
 23 N        7.4410     8.6670    -2.3830 N.1   1 <1>  -0.5570 
 24 H        1.8130    -0.6990    -0.4070 H     1 <1>   0.0800 
 25 H        1.1730     0.6510    -1.2860 H     1 <1>   0.0800 
 26 H       -1.3120    -2.9280    -1.1750 H     1 <1>   0.0800 
 27 H       -1.2100    -2.6790     0.5580 H     1 <1>   0.0800 
 28 H        0.2250    -2.5550    -0.4360 H     1 <1>   0.0800 
 29 H       -3.0280    -1.3050    -1.3000 H     1 <1>   0.0800 
 30 H       -2.7270     0.3540    -0.8560 H     1 <1>   0.0800 
 31 H       -2.9370    -0.8530     0.3950 H     1 <1>   0.0800 
 32 H        1.7590     2.1320     0.6570 H     1 <1>   0.0800 
 33 H        3.3770     1.4500    -1.4410 H     1 <1>   0.0800 
 34 H        2.3480    -0.2940     2.0330 H     1 <1>   0.0800 
 35 H        2.8560     1.3070     2.5390 H     1 <1>   0.0800 
 36 H        4.4440     2.8580     0.9600 H     1 <1>   0.3700 
 37 H        5.5230     0.6800    -0.0110 H     1 <1>   0.0800 
 38 H        4.2850    -0.5200    -0.3760 H     1 <1>   0.0800 
 39 H        5.6840     5.6680    -2.2290 H     1 <1>   0.1500 
 40 H        4.0880     4.9430     1.6490 H     1 <1>   0.1500 
 41 H        5.0510     7.0450     2.4400 H     1 <1>   0.1500 
 42 H        6.3310     8.4720     0.9080 H     1 <1>   0.1500 
@<TRIPOS>BOND
  1   1   2  2   
  2   1   3  2   
  3   1   4  am  
  4   1   5  1   
  5   4   6  1   
  6   4   7  1   
  7   5   8  1   
  8   5  24  1   
  9   5  25  1   
 10   6  26  1   
 11   6  27  1   
 12   6  28  1   
 13   7  29  1   
 14   7  30  1   
 15   7  31  1   
 16   8   9  1   
 17   8  10  1   
 18   8  32  1   
 19   9  11  1   
 20   9  12  1   
 21   9  33  1   
 22  10  13  1   
 23  10  34  1   
 24  10  35  1   
 25  11  14  am  
 26  11  36  1   
 27  12  13  1   
 28  12  37  1   
 29  12  38  1   
 30  14  15  2   
 31  14  16  1   
 32  16  17  ar  
 33  16  18  ar  
 34  17  19  ar  
 35  17  39  1   
 36  18  20  ar  
 37  18  40  1   
 38  19  21  1   
 39  19  22  ar  
 40  20  22  ar  
 41  20  41  1   
 42  21  23  3   
 43  22  42  1   
@<TRIPOS>SUBSTRUCTURE
  1 ****  11 GROUP 4 **** **** 0

# MOE 2024.06 (io_trps.svl 2023.06)
