@<TRIPOS>MOLECULE
NONAME
54 57 1 0 0 
SMALL
USER_CHARGES


@<TRIPOS>ATOM
  1 N        0.6090     0.2270    -0.4560 N.ar  1 <1>  -0.6200 
  2 C       -0.6030     0.6040    -0.8750 C.ar  1 <1>   0.7200 
  3 C        1.2830     1.1480     0.1870 C.ar  1 <1>   0.1660 
  4 N       -1.1630     1.8030    -0.6990 N.ar  1 <1>  -0.6200 
  5 N       -1.3380    -0.3380    -1.5580 N.pl3 1 <1>  -0.8380 
  6 C        0.7990     2.3990     0.4200 C.ar  1 <1>  -0.1430 
  7 C        2.6860     0.9770     0.7390 C.3   1 <1>   0.1430 
  8 C       -0.4560     2.6950    -0.0470 C.ar  1 <1>   0.1600 
  9 C       -1.3300    -1.7740    -1.1730 C.3   1 <1>   0.1290 
 10 C       -2.4590     0.0660    -2.4530 C.3   1 <1>   0.1290 
 11 C        1.7870     3.2530     1.1710 C.3   1 <1>  -0.0160 
 12 C        3.5870     0.3580    -0.3590 C.3   1 <1>   0.3430 
 13 C        2.6640     0.1310     2.0320 C.3   1 <1>  -0.1600 
 14 C        3.0910     2.4430     1.0520 C.3   1 <1>  -0.1600 
 15 N        3.9060    -1.1110    -0.1870 N.4   1 <1>  -0.9590 
 16 C        2.3640    -1.3600     1.7700 C.3   1 <1>  -0.1600 
 17 C        2.7450    -1.8630     0.3680 C.3   1 <1>   0.3430 
 18 C        5.1660    -1.3570     0.5630 C.3   1 <1>   0.5240 
 19 C        6.2900    -0.6870    -0.1920 C.2   1 <1>  -0.1810 
 20 C        6.9450     0.4840     0.1850 C.2   1 <1>   0.1080 
 21 C        6.8670    -1.0490    -1.3630 C.2   1 <1>  -0.3320 
 22 N        7.8310     0.8390    -0.6830 N.2   1 <1>  -0.7070 
 23 C        6.7260     1.3150     1.4320 C.3   1 <1>  -0.0590 
 24 N        7.7990    -0.1090    -1.6340 N.pl3 1 <1>   0.3000 
 25 C        6.6210    -2.2400    -2.2760 C.3   1 <1>  -0.0600 
 26 H       -0.8860     3.6700     0.1120 H     1 <1>   0.1500 
 27 H       -0.7440    -1.9280    -0.2850 H     1 <1>   0.0800 
 28 H       -0.9160    -2.3590    -1.9750 H     1 <1>   0.0800 
 29 H       -2.3350    -2.1050    -0.9770 H     1 <1>   0.0800 
 30 H       -2.2480     1.0190    -2.9090 H     1 <1>   0.0800 
 31 H       -3.3670     0.1490    -1.8810 H     1 <1>   0.0800 
 32 H       -2.5920    -0.6630    -3.2330 H     1 <1>   0.0800 
 33 H        1.4800     3.3410     2.1990 H     1 <1>   0.0800 
 34 H        1.8840     4.2320     0.7340 H     1 <1>   0.0800 
 35 H        4.5040     0.9200    -0.4190 H     1 <1>   0.0800 
 36 H        3.0800     0.4940    -1.3010 H     1 <1>   0.0800 
 37 H        1.9320     0.5260     2.7160 H     1 <1>   0.0800 
 38 H        3.6200     0.2110     2.5170 H     1 <1>   0.0800 
 39 H        3.6530     2.8490     0.2280 H     1 <1>   0.0800 
 40 H        3.6870     2.5330     1.9430 H     1 <1>   0.0800 
 41 H        4.0970    -1.4590    -1.1340 H     1 <1>   0.4500 
 42 H        1.3060    -1.5250     1.8870 H     1 <1>   0.0800 
 43 H        2.8510    -1.9620     2.5160 H     1 <1>   0.0800 
 44 H        2.9600    -2.9190     0.4050 H     1 <1>   0.0800 
 45 H        1.9000    -1.7280    -0.2890 H     1 <1>   0.0800 
 46 H        5.3610    -2.4150     0.6210 H     1 <1>   0.0800 
 47 H        5.0990    -0.9660     1.5630 H     1 <1>   0.0800 
 48 H        6.0740     0.8290     2.1300 H     1 <1>   0.0800 
 49 H        6.3140     2.2690     1.1590 H     1 <1>   0.0800 
 50 H        7.6750     1.4840     1.9100 H     1 <1>   0.0800 
 51 H        8.4290    -0.0850    -2.4470 H     1 <1>   0.2700 
 52 H        5.8840    -2.9020    -1.8610 H     1 <1>   0.0800 
 53 H        7.5330    -2.7950    -2.4090 H     1 <1>   0.0800 
 54 H        6.2810    -1.9060    -3.2410 H     1 <1>   0.0800 
@<TRIPOS>BOND
  1   1   2  ar  
  2   1   3  ar  
  3   2   4  ar  
  4   2   5  1   
  5   3   6  ar  
  6   3   7  1   
  7   4   8  ar  
  8   5   9  1   
  9   5  10  1   
 10   6   8  ar  
 11   6  11  1   
 12   7  12  1   
 13   7  13  1   
 14   7  14  1   
 15   8  26  1   
 16   9  27  1   
 17   9  28  1   
 18   9  29  1   
 19  10  30  1   
 20  10  31  1   
 21  10  32  1   
 22  11  14  1   
 23  11  33  1   
 24  11  34  1   
 25  12  15  1   
 26  12  35  1   
 27  12  36  1   
 28  13  16  1   
 29  13  37  1   
 30  13  38  1   
 31  14  39  1   
 32  14  40  1   
 33  15  17  1   
 34  15  18  1   
 35  15  41  1   
 36  16  17  1   
 37  16  42  1   
 38  16  43  1   
 39  17  44  1   
 40  17  45  1   
 41  18  19  1   
 42  18  46  1   
 43  18  47  1   
 44  19  20  1   
 45  19  21  2   
 46  20  22  2   
 47  20  23  1   
 48  21  24  1   
 49  21  25  1   
 50  22  24  1   
 51  23  48  1   
 52  23  49  1   
 53  23  50  1   
 54  24  51  1   
 55  25  52  1   
 56  25  53  1   
 57  25  54  1   
@<TRIPOS>SUBSTRUCTURE
  1 ****  12 GROUP 4 **** **** 0

# MOE 2024.06 (io_trps.svl 2023.06)
