@<TRIPOS>MOLECULE
NONAME
51 54 1 0 0 
SMALL
USER_CHARGES


@<TRIPOS>ATOM
  1 O       -2.7230     1.4390    -1.8330 O.2   1 <1>  -0.5700 
  2 C       -2.2320     1.3670    -0.7340 C.2   1 <1>   0.5690 
  3 N       -2.1000     0.1910    -0.0800 N.am  1 <1>  -0.7300 
  4 C       -1.7400     2.6300    -0.0710 C.3   1 <1>  -0.0990 
  5 C       -2.5070    -1.1280    -0.6140 C.3   1 <1>   0.2200 
  6 C       -0.7430     3.3490    -0.9840 C.3   1 <1>   0.0960 
  7 C       -3.7170    -1.6270     0.1600 C.3   1 <1>  -0.0800 
  8 C       -1.4570    -2.1650    -0.2390 C.3   1 <1>   0.1200 
  9 N       -0.2180     4.5500    -0.3080 N.pl3 1 <1>   0.0480 
 10 C       -3.0790    -2.3070     1.3800 C.3   1 <1>   0.1200 
 11 C       -4.5590    -2.6050    -0.6810 C.3   1 <1>  -0.0170 
 12 O       -1.7240    -2.4940     1.0890 O.3   1 <1>  -0.5600 
 13 C        0.8010     4.5730     0.5930 C.ar  1 <1>  -0.1520 
 14 C       -0.6830     5.8300    -0.3630 C.2   1 <1>   0.0060 
 15 C       -5.7800    -3.0910     0.0860 C.ar  1 <1>  -0.1440 
 16 C        0.8810     5.8830     1.0250 C.ar  1 <1>   0.2270 
 17 C        1.6690     3.5960     1.0900 C.ar  1 <1>  -0.1500 
 18 N       -0.0600     6.6480     0.4090 N.2   1 <1>  -0.5650 
 19 C       -1.8350     6.2580    -1.2500 C.3   1 <1>  -0.0600 
 20 C       -5.8570    -4.3630     0.6170 C.ar  1 <1>  -0.1500 
 21 C       -6.8790    -2.2800     0.2870 C.ar  1 <1>  -0.1500 
 22 C        1.8370     6.2490     1.9710 C.ar  1 <1>  -0.1500 
 23 C        2.6100     3.9650     2.0250 C.ar  1 <1>  -0.1500 
 24 C       -6.9930    -4.7490     1.3090 C.ar  1 <1>   0.1600 
 25 C       -7.9670    -2.7640     0.9940 C.ar  1 <1>   0.1600 
 26 C        2.6960     5.2920     2.4670 C.ar  1 <1>  -0.1500 
 27 N       -8.0500    -3.9790     1.5120 N.ar  1 <1>  -0.6200 
 28 H       -1.6970     0.1450     0.8590 H     1 <1>   0.3700 
 29 H       -2.5860     3.2650     0.1170 H     1 <1>   0.0800 
 30 H       -1.2690     2.3900     0.8650 H     1 <1>   0.0800 
 31 H       -2.6700    -1.0730    -1.6780 H     1 <1>   0.0800 
 32 H       -1.2220     3.6380    -1.9030 H     1 <1>   0.0800 
 33 H        0.0790     2.7000    -1.2240 H     1 <1>   0.0800 
 34 H       -4.3460    -0.8080     0.4630 H     1 <1>   0.0800 
 35 H       -0.4520    -1.7910    -0.3260 H     1 <1>   0.0800 
 36 H       -1.5680    -3.0570    -0.8290 H     1 <1>   0.0800 
 37 H       -3.5180    -3.2630     1.6050 H     1 <1>   0.0800 
 38 H       -3.1420    -1.6750     2.2500 H     1 <1>   0.0800 
 39 H       -3.9630    -3.4490    -0.9810 H     1 <1>   0.0800 
 40 H       -4.8930    -2.1100    -1.5770 H     1 <1>   0.0800 
 41 H        1.6020     2.5800     0.7460 H     1 <1>   0.1500 
 42 H       -2.0350     7.3050    -1.1070 H     1 <1>   0.0800 
 43 H       -2.7210     5.7030    -1.0040 H     1 <1>   0.0800 
 44 H       -1.5860     6.0960    -2.2830 H     1 <1>   0.0800 
 45 H       -5.0460    -5.0590     0.5010 H     1 <1>   0.1500 
 46 H       -6.9010    -1.2780    -0.1000 H     1 <1>   0.1500 
 47 H        1.8770     7.2730     2.2890 H     1 <1>   0.1500 
 48 H        3.2930     3.2370     2.4260 H     1 <1>   0.1500 
 49 H       -7.0350    -5.7440     1.7170 H     1 <1>   0.1500 
 50 H       -8.8150    -2.1170     1.1420 H     1 <1>   0.1500 
 51 H        3.4390     5.5570     3.1980 H     1 <1>   0.1500 
@<TRIPOS>BOND
  1   1   2  2   
  2   2   3  am  
  3   2   4  1   
  4   3   5  1   
  5   3  28  1   
  6   4   6  1   
  7   4  29  1   
  8   4  30  1   
  9   5   7  1   
 10   5   8  1   
 11   5  31  1   
 12   6   9  1   
 13   6  32  1   
 14   6  33  1   
 15   7  10  1   
 16   7  11  1   
 17   7  34  1   
 18   8  12  1   
 19   8  35  1   
 20   8  36  1   
 21   9  13  1   
 22   9  14  1   
 23  10  12  1   
 24  10  37  1   
 25  10  38  1   
 26  11  15  1   
 27  11  39  1   
 28  11  40  1   
 29  13  16  ar  
 30  13  17  ar  
 31  14  18  2   
 32  14  19  1   
 33  15  20  ar  
 34  15  21  ar  
 35  16  18  1   
 36  16  22  ar  
 37  17  23  ar  
 38  17  41  1   
 39  19  42  1   
 40  19  43  1   
 41  19  44  1   
 42  20  24  ar  
 43  20  45  1   
 44  21  25  ar  
 45  21  46  1   
 46  22  26  ar  
 47  22  47  1   
 48  23  26  ar  
 49  23  48  1   
 50  24  27  ar  
 51  24  49  1   
 52  25  27  ar  
 53  25  50  1   
 54  26  51  1   
@<TRIPOS>SUBSTRUCTURE
  1 ****   3 GROUP 4 **** **** 0

# MOE 2024.06 (io_trps.svl 2023.06)
