@<TRIPOS>MOLECULE
NONAME
53 56 1 0 0 
SMALL
USER_CHARGES


@<TRIPOS>ATOM
  1 O       -0.8550     3.1090    -2.1900 O.2   1 <1>  -0.5700 
  2 C       -0.6540     3.2230    -1.0030 C.2   1 <1>   0.5690 
  3 N        0.6140     3.1240    -0.4760 N.am  1 <1>  -0.6600 
  4 C       -1.8780     3.4310    -0.1150 C.3   1 <1>   0.0440 
  5 C        0.9720     3.4750     0.9330 C.3   1 <1>   0.1400 
  6 C        1.7640     2.6870    -1.3230 C.3   1 <1>   0.1400 
  7 C       -1.9870     4.8140     0.5240 C.ar  1 <1>  -0.1440 
  8 C        2.3960     4.0390     1.0360 C.3   1 <1>  -0.1600 
  9 C        2.8180     3.7970    -1.4310 C.3   1 <1>  -0.1600 
 10 C       -1.7150     5.9600    -0.2070 C.ar  1 <1>  -0.1500 
 11 C       -2.3590     4.9340     1.8550 C.ar  1 <1>  -0.1500 
 12 C        2.7920     4.7730    -0.2460 C.3   1 <1>   0.2200 
 13 C       -1.7940     7.2100     0.3860 C.ar  1 <1>   0.0820 
 14 C       -2.4510     6.1800     2.4500 C.ar  1 <1>  -0.1500 
 15 N        4.0860     5.4430    -0.0040 N.am  1 <1>  -0.7300 
 16 O       -1.4940     8.2870    -0.3790 O.3   1 <1>  -0.3620 
 17 C       -2.1710     7.3200     1.7190 C.ar  1 <1>  -0.1500 
 18 C        5.0200     5.8830    -0.8890 C.2   1 <1>   0.5690 
 19 C       -0.7340     9.3670     0.1400 C.3   1 <1>   0.1200 
 20 O        5.0260     5.6100    -2.0630 O.2   1 <1>  -0.5700 
 21 C        6.0930     6.8110    -0.3560 C.3   1 <1>  -0.0990 
 22 C        0.7410     8.9770     0.3050 C.3   1 <1>   0.0960 
 23 C        5.6470     8.2800    -0.4180 C.3   1 <1>   0.0210 
 24 N        2.1840     8.7210     0.4880 N.pl3 1 <1>   0.3140 
 25 C        4.2650     8.4530     0.1850 C.2   1 <1>   0.0460 
 26 N        2.7410     8.3680     1.6550 N.2   1 <1>  -0.4180 
 27 C        3.1320     8.7870    -0.4470 C.2   1 <1>  -0.3020 
 28 N        4.0060     8.2110     1.4750 N.2   1 <1>  -0.2270 
 29 H       -1.8650     2.6730     0.6440 H     1 <1>   0.0800 
 30 H       -2.7580     3.2670    -0.7100 H     1 <1>   0.0800 
 31 H        0.8760     2.6040     1.5580 H     1 <1>   0.0800 
 32 H        0.3000     4.2270     1.3000 H     1 <1>   0.0800 
 33 H        1.4360     2.4010    -2.3080 H     1 <1>   0.0800 
 34 H        2.2070     1.8200    -0.8650 H     1 <1>   0.0800 
 35 H        3.0840     3.2320     1.2140 H     1 <1>   0.0800 
 36 H        2.4390     4.7080     1.8770 H     1 <1>   0.0800 
 37 H        2.6470     4.3510    -2.3360 H     1 <1>   0.0800 
 38 H        3.7830     3.3300    -1.5090 H     1 <1>   0.0800 
 39 H       -1.4350     5.8940    -1.2450 H     1 <1>   0.1500 
 40 H       -2.5830     4.0570     2.4390 H     1 <1>   0.1500 
 41 H        2.0530     5.5320    -0.4430 H     1 <1>   0.0800 
 42 H       -2.7450     6.2620     3.4820 H     1 <1>   0.1500 
 43 H        4.0900     5.9340     0.8980 H     1 <1>   0.3700 
 44 H       -2.2630     8.2780     2.1940 H     1 <1>   0.1500 
 45 H       -1.1650     9.7000     1.0660 H     1 <1>   0.0800 
 46 H       -0.8180    10.1700    -0.5700 H     1 <1>   0.0800 
 47 H        6.9890     6.6790    -0.9350 H     1 <1>   0.0800 
 48 H        6.3130     6.5430     0.6610 H     1 <1>   0.0800 
 49 H        0.7400     8.5140    -0.6650 H     1 <1>   0.0800 
 50 H        0.4740     8.2330     1.0320 H     1 <1>   0.0800 
 51 H        5.6180     8.5940    -1.4460 H     1 <1>   0.0800 
 52 H        6.3490     8.9020     0.1060 H     1 <1>   0.0800 
 53 H        2.9520     9.0360    -1.4760 H     1 <1>   0.1500 
@<TRIPOS>BOND
  1   1   2  2   
  2   2   3  am  
  3   2   4  1   
  4   3   5  1   
  5   3   6  1   
  6   4   7  1   
  7   4  29  1   
  8   4  30  1   
  9   5   8  1   
 10   5  31  1   
 11   5  32  1   
 12   6   9  1   
 13   6  33  1   
 14   6  34  1   
 15   7  10  ar  
 16   7  11  ar  
 17   8  12  1   
 18   8  35  1   
 19   8  36  1   
 20   9  12  1   
 21   9  37  1   
 22   9  38  1   
 23  10  13  ar  
 24  10  39  1   
 25  11  14  ar  
 26  11  40  1   
 27  12  15  1   
 28  12  41  1   
 29  13  16  1   
 30  13  17  ar  
 31  14  17  ar  
 32  14  42  1   
 33  15  18  am  
 34  15  43  1   
 35  16  19  1   
 36  17  44  1   
 37  18  20  2   
 38  18  21  1   
 39  19  22  1   
 40  19  45  1   
 41  19  46  1   
 42  21  23  1   
 43  21  47  1   
 44  21  48  1   
 45  22  24  1   
 46  22  49  1   
 47  22  50  1   
 48  23  25  1   
 49  23  51  1   
 50  23  52  1   
 51  24  26  1   
 52  24  27  1   
 53  25  27  2   
 54  25  28  1   
 55  26  28  2   
 56  27  53  1   
@<TRIPOS>SUBSTRUCTURE
  1 ****  12 GROUP 4 **** **** 0

# MOE 2024.06 (io_trps.svl 2023.06)
