@<TRIPOS>MOLECULE
Untitled Document
51 53 1 0 0 
SMALL
USER_CHARGES


@<TRIPOS>ATOM
  1 S       -0.7850     0.3370    -0.7190 S.o2  1 <1>   1.4470 
  2 O        0.3410    -0.4890    -1.0770 O.2   1 <1>  -0.6500 
  3 O       -1.8970     0.5050    -1.6180 O.2   1 <1>  -0.6500 
  4 N       -1.4480    -0.4860     0.5550 N.am  1 <1>  -0.9780 
  5 C       -0.2340     1.9180    -0.0190 C.ar  1 <1>  -0.0090 
  6 C        0.9750     2.4800    -0.3980 C.ar  1 <1>  -0.1500 
  7 C       -1.0050     2.6150     0.9000 C.ar  1 <1>  -0.1500 
  8 C        1.4540     3.6920     0.1070 C.ar  1 <1>   0.0860 
  9 C       -0.5760     3.8200     1.4220 C.ar  1 <1>  -0.1500 
 10 C        0.6450     4.3680     1.0370 C.ar  1 <1>   0.0830 
 11 C        2.7500     4.1760    -0.3450 C.2   1 <1>   0.5440 
 12 O        1.0740     5.5520     1.5430 O.3   1 <1>  -0.3620 
 13 O        3.2270     3.7910    -1.3960 O.2   1 <1>  -0.5700 
 14 N        3.5130     5.0320     0.4010 N.am  1 <1>  -0.7300 
 15 C        0.2670     6.3750     2.3620 C.3   1 <1>   0.0400 
 16 C        4.7170     5.7590    -0.1100 C.3   1 <1>   0.1400 
 17 C        5.8320     4.8010    -0.6030 C.3   1 <1>   0.4230 
 18 N        5.9900     3.6560     0.3360 N.4   1 <1>  -0.9590 
 19 C        7.2090     5.4690    -0.6810 C.3   1 <1>  -0.1600 
 20 C        7.3080     3.7560     1.0050 C.3   1 <1>   0.3430 
 21 C        5.7840     2.3660    -0.3660 C.3   1 <1>   0.4380 
 22 C        8.1740     4.5080     0.0090 C.3   1 <1>  -0.1600 
 23 C        5.5410     1.2820     0.6830 C.3   1 <1>  -0.1950 
 24 C        4.4770     0.2540     0.4460 C.3   1 <1>  -0.2000 
 25 C        4.3120     1.2650     1.5420 C.3   1 <1>  -0.2000 
 26 H       -0.7950    -1.2520     0.7010 H     1 <1>   0.4200 
 27 H       -2.2830    -0.9040     0.1510 H     1 <1>   0.4200 
 28 H        1.5740     1.9490    -1.1200 H     1 <1>   0.1500 
 29 H       -1.9540     2.2070     1.2100 H     1 <1>   0.1500 
 30 H       -1.2150     4.3130     2.1320 H     1 <1>   0.1500 
 31 H        2.9840     5.5200     1.1400 H     1 <1>   0.3700 
 32 H        0.8080     7.2810     2.5690 H     1 <1>   0.0800 
 33 H        0.0570     5.8580     3.2820 H     1 <1>   0.0800 
 34 H       -0.6430     6.6090     1.8370 H     1 <1>   0.0800 
 35 H        4.4240     6.4040    -0.9210 H     1 <1>   0.0800 
 36 H        5.0990     6.3800     0.6810 H     1 <1>   0.0800 
 37 H        5.5550     4.4320    -1.5780 H     1 <1>   0.0800 
 38 H        5.2100     3.7300     1.0060 H     1 <1>   0.4500 
 39 H        7.4910     5.6510    -1.7030 H     1 <1>   0.0800 
 40 H        7.2030     6.4120    -0.1610 H     1 <1>   0.0800 
 41 H        7.2100     4.3390     1.9070 H     1 <1>   0.0800 
 42 H        7.7160     2.7880     1.2480 H     1 <1>   0.0800 
 43 H        4.9170     2.4310    -1.0020 H     1 <1>   0.0800 
 44 H        6.6350     2.1190    -0.9800 H     1 <1>   0.0800 
 45 H        8.9860     5.0200     0.4960 H     1 <1>   0.0800 
 46 H        8.5820     3.8110    -0.7030 H     1 <1>   0.0800 
 47 H        6.4570     0.9140     1.1120 H     1 <1>   0.1000 
 48 H        3.8310     0.3300    -0.4130 H     1 <1>   0.1000 
 49 H        4.6680    -0.7710     0.7210 H     1 <1>   0.1000 
 50 H        4.3880     0.9220     2.5610 H     1 <1>   0.1000 
 51 H        3.5450     2.0090     1.4210 H     1 <1>   0.1000 
@<TRIPOS>BOND
  1   1   2  2   
  2   1   3  2   
  3   1   4  am  
  4   1   5  1   
  5   4  26  1   
  6   4  27  1   
  7   5   6  ar  
  8   5   7  ar  
  9   6   8  ar  
 10   6  28  1   
 11   7   9  ar  
 12   7  29  1   
 13   8  10  ar  
 14   8  11  1   
 15   9  10  ar  
 16   9  30  1   
 17  10  12  1   
 18  11  13  2   
 19  11  14  am  
 20  12  15  1   
 21  14  16  1   
 22  14  31  1   
 23  15  32  1   
 24  15  33  1   
 25  15  34  1   
 26  16  17  1   
 27  16  35  1   
 28  16  36  1   
 29  17  18  1   
 30  17  19  1   
 31  17  37  1   
 32  18  20  1   
 33  18  21  1   
 34  18  38  1   
 35  19  22  1   
 36  19  39  1   
 37  19  40  1   
 38  20  22  1   
 39  20  41  1   
 40  20  42  1   
 41  21  23  1   
 42  21  43  1   
 43  21  44  1   
 44  22  45  1   
 45  22  46  1   
 46  23  24  1   
 47  23  25  1   
 48  23  47  1   
 49  24  25  1   
 50  24  48  1   
 51  24  49  1   
 52  25  50  1   
 53  25  51  1   
@<TRIPOS>SUBSTRUCTURE
  1 ****  11 GROUP 4 **** **** 0

# MOE 2024.06 (io_trps.svl 2023.06)
