@<TRIPOS>MOLECULE
NONAME
55 58 1 0 0 
SMALL
USER_CHARGES


@<TRIPOS>ATOM
  1 O       -0.0330     1.5050     1.8370 O.2   1 <1>  -0.5700 
  2 C        0.9730     1.6050     1.1650 C.2   1 <1>   0.5440 
  3 N        1.0520     2.6950     0.3470 N.am  1 <1>  -0.5470 
  4 C        2.0510     0.6640     1.3060 C.ar  1 <1>   0.0860 
  5 C        2.1020     3.1620    -0.4640 C.ar  1 <1>   0.1170 
  6 C        2.0490    -0.5670     0.6250 C.ar  1 <1>   0.4100 
  7 C        3.1320     0.9610     2.1230 C.ar  1 <1>  -0.1500 
  8 C        2.4280     4.5230    -0.4580 C.ar  1 <1>   0.0830 
  9 C        2.8140     2.3020    -1.2900 C.ar  1 <1>  -0.1500 
 10 N        3.0310    -1.4660     0.7340 N.ar  1 <1>  -0.6200 
 11 N        1.0070    -0.8900    -0.2270 N.3   1 <1>  -0.5900 
 12 C        4.1420     0.0330     2.2280 C.ar  1 <1>  -0.1500 
 13 O        1.6800     5.3370     0.3460 O.3   1 <1>  -0.3630 
 14 C        3.4740     4.9940    -1.2460 C.ar  1 <1>  -0.1500 
 15 C        3.8530     2.7740    -2.0710 C.ar  1 <1>  -0.1500 
 16 C        4.0400    -1.1510     1.5210 C.ar  1 <1>   0.1600 
 17 C       -0.3030    -1.3660     0.3500 C.3   1 <1>   0.2450 
 18 C        0.9900    -2.0900    -1.1420 C.3   1 <1>   0.2450 
 19 C        1.9330     6.7220     0.4400 C.3   1 <1>   0.0400 
 20 C        4.1920     4.1160    -2.0520 C.ar  1 <1>   0.0830 
 21 C        0.0790    -2.7860    -0.1180 C.3   1 <1>   0.0850 
 22 O        5.2290     4.4890    -2.8470 O.3   1 <1>  -0.3630 
 23 N       -1.0000    -3.5500    -0.7730 N.pl3 1 <1>   0.4850 
 24 C        5.6530     5.8330    -2.9170 C.3   1 <1>   0.0400 
 25 N       -2.2900    -3.1510    -0.7930 N.2   1 <1>  -0.7070 
 26 C       -0.8560    -4.7410    -1.4050 C.2   1 <1>  -0.3320 
 27 C       -2.9230    -4.0790    -1.4350 C.2   1 <1>   0.1080 
 28 C       -2.0800    -5.1040    -1.8440 C.2   1 <1>  -0.1500 
 29 C        0.4550    -5.4960    -1.5610 C.3   1 <1>  -0.0600 
 30 C       -4.4110    -4.0160    -1.6850 C.3   1 <1>  -0.0590 
 31 H        0.3210     3.3820     0.5360 H     1 <1>   0.3700 
 32 H        3.1700     1.8950     2.6560 H     1 <1>   0.1500 
 33 H        2.5550     1.2610    -1.3380 H     1 <1>   0.1500 
 34 H        4.9990     0.2200     2.8500 H     1 <1>   0.1500 
 35 H        3.7290     6.0330    -1.2360 H     1 <1>   0.1500 
 36 H        4.4040     2.1020    -2.7040 H     1 <1>   0.1500 
 37 H        4.8340    -1.8740     1.6100 H     1 <1>   0.1500 
 38 H       -1.1280    -0.9090    -0.1680 H     1 <1>   0.0000 
 39 H       -0.3370    -1.2600     1.4200 H     1 <1>   0.0000 
 40 H        1.9520    -2.5550    -1.2610 H     1 <1>   0.0000 
 41 H        0.5050    -1.8500    -2.0720 H     1 <1>   0.0000 
 42 H        1.2260     7.1440     1.1300 H     1 <1>   0.0800 
 43 H        1.8050     7.1670    -0.5310 H     1 <1>   0.0800 
 44 H        2.9340     6.8700     0.8060 H     1 <1>   0.0800 
 45 H        0.6120    -3.3610     0.6200 H     1 <1>   0.0000 
 46 H        6.4770     5.8870    -3.6050 H     1 <1>   0.0800 
 47 H        5.9720     6.1490    -1.9400 H     1 <1>   0.0800 
 48 H        4.8390     6.4370    -3.2750 H     1 <1>   0.0800 
 49 H       -2.3710    -5.9840    -2.3890 H     1 <1>   0.1500 
 50 H        0.8900    -5.6930    -0.5970 H     1 <1>   0.0800 
 51 H        1.1510    -4.9240    -2.1490 H     1 <1>   0.0800 
 52 H        0.2850    -6.4360    -2.0560 H     1 <1>   0.0800 
 53 H       -4.6430    -3.1260    -2.2400 H     1 <1>   0.0800 
 54 H       -4.9300    -3.9860    -0.7450 H     1 <1>   0.0800 
 55 H       -4.7360    -4.8750    -2.2410 H     1 <1>   0.0800 
@<TRIPOS>BOND
  1   1   2  2   
  2   2   3  am  
  3   2   4  1   
  4   3   5  1   
  5   3  31  1   
  6   4   6  ar  
  7   4   7  ar  
  8   5   8  ar  
  9   5   9  ar  
 10   6  10  ar  
 11   6  11  1   
 12   7  12  ar  
 13   7  32  1   
 14   8  13  1   
 15   8  14  ar  
 16   9  15  ar  
 17   9  33  1   
 18  10  16  ar  
 19  11  17  1   
 20  11  18  1   
 21  12  16  ar  
 22  12  34  1   
 23  13  19  1   
 24  14  20  ar  
 25  14  35  1   
 26  15  20  ar  
 27  15  36  1   
 28  16  37  1   
 29  17  21  1   
 30  17  38  1   
 31  17  39  1   
 32  18  21  1   
 33  18  40  1   
 34  18  41  1   
 35  19  42  1   
 36  19  43  1   
 37  19  44  1   
 38  20  22  1   
 39  21  23  1   
 40  21  45  1   
 41  22  24  1   
 42  23  25  1   
 43  23  26  1   
 44  24  46  1   
 45  24  47  1   
 46  24  48  1   
 47  25  27  2   
 48  26  28  2   
 49  26  29  1   
 50  27  28  1   
 51  27  30  1   
 52  28  49  1   
 53  29  50  1   
 54  29  51  1   
 55  29  52  1   
 56  30  53  1   
 57  30  54  1   
 58  30  55  1   
@<TRIPOS>SUBSTRUCTURE
  1 ****  11 GROUP 4 **** **** 0

# MOE 2024.06 (io_trps.svl 2023.06)
