@<TRIPOS>MOLECULE
NONAME
48 50 1 0 0 
SMALL
USER_CHARGES


@<TRIPOS>ATOM
  1 O       -1.9360     1.2450    -1.1500 O.co2 1 <1>  -0.9000 
  2 C       -0.8470     1.6450    -1.5890 C.2   1 <1>   0.9060 
  3 O       -0.2330     1.0900    -2.5010 O.co2 1 <1>  -0.9000 
  4 C       -0.2470     2.8830    -0.9050 C.3   1 <1>   0.3170 
  5 N       -0.7560     3.0380     0.5330 N.4   1 <1>  -0.9590 
  6 C       -0.6020     4.0960    -1.7900 C.3   1 <1>   0.1100 
  7 C       -0.5100     4.3970     1.1060 C.3   1 <1>   0.3430 
  8 C       -0.2320     1.9310     1.3780 C.3   1 <1>   0.2630 
  9 N       -0.2640     5.3890    -1.1540 N.3   1 <1>  -0.8100 
 10 C       -0.9500     5.5160     0.1480 C.3   1 <1>   0.1100 
 11 C       -0.5450     6.5200    -2.0590 C.3   1 <1>   0.2530 
 12 C       -0.1020     7.8390    -1.4380 C.ar  1 <1>  -0.1430 
 13 C        1.1490     7.9510    -0.8520 C.ar  1 <1>  -0.1500 
 14 C       -0.9500     8.9370    -1.4340 C.ar  1 <1>  -0.1500 
 15 C        1.5600     9.1310    -0.2450 C.ar  1 <1>  -0.0230 
 16 C       -0.5540    10.1220    -0.8390 C.ar  1 <1>  -0.1500 
 17 N        2.8390     9.2090     0.3710 N.pl3 1 <1>   0.5930 
 18 C        0.6910    10.2170    -0.2430 C.ar  1 <1>  -0.1500 
 19 N        3.2020     8.3930     1.3960 N.2   1 <1>  -0.7070 
 20 C        3.8730    10.0370     0.0490 C.2   1 <1>  -0.3320 
 21 C        4.4140     8.7290     1.6940 C.2   1 <1>   0.1080 
 22 C        4.8920     9.7530     0.8850 C.2   1 <1>  -0.1500 
 23 C        3.8390    11.0640    -1.0720 C.3   1 <1>  -0.0600 
 24 C        5.1940     8.0600     2.8010 C.3   1 <1>  -0.0590 
 25 H        0.8200     2.7670    -0.9040 H     1 <1>   0.0800 
 26 H       -1.7690     2.8490     0.4060 H     1 <1>   0.4500 
 27 H       -1.6550     4.0650    -2.0190 H     1 <1>   0.0800 
 28 H       -0.0650     3.9990    -2.7190 H     1 <1>   0.0800 
 29 H        0.5430     4.5200     1.2990 H     1 <1>   0.0800 
 30 H       -1.0350     4.5000     2.0400 H     1 <1>   0.0800 
 31 H        0.8420     1.9910     1.4470 H     1 <1>   0.0800 
 32 H       -0.5000     0.9800     0.9420 H     1 <1>   0.0800 
 33 H       -0.6540     1.9830     2.3680 H     1 <1>   0.0800 
 34 H       -0.7000     6.4570     0.6060 H     1 <1>   0.0800 
 35 H       -2.0180     5.4850     0.0120 H     1 <1>   0.0800 
 36 H       -1.5980     6.5510    -2.2840 H     1 <1>   0.0800 
 37 H       -0.0080     6.3780    -2.9810 H     1 <1>   0.0800 
 38 H        1.8150     7.1030    -0.8500 H     1 <1>   0.1500 
 39 H       -1.9230     8.8740    -1.8890 H     1 <1>   0.1500 
 40 H       -1.2180    10.9690    -0.8350 H     1 <1>   0.1500 
 41 H        0.9870    11.1350     0.2320 H     1 <1>   0.1500 
 42 H        5.8700    10.1960     0.9370 H     1 <1>   0.1500 
 43 H        3.5760    10.5900    -2.0010 H     1 <1>   0.0800 
 44 H        4.8050    11.5230    -1.1830 H     1 <1>   0.0800 
 45 H        3.1200    11.8330    -0.8550 H     1 <1>   0.0800 
 46 H        4.6500     8.1440     3.7240 H     1 <1>   0.0800 
 47 H        6.1560     8.5230     2.9160 H     1 <1>   0.0800 
 48 H        5.3280     7.0200     2.5680 H     1 <1>   0.0800 
@<TRIPOS>BOND
  1   1   2  ar  
  2   2   3  ar  
  3   2   4  1   
  4   4   5  1   
  5   4   6  1   
  6   4  25  1   
  7   5   7  1   
  8   5   8  1   
  9   5  26  1   
 10   6   9  1   
 11   6  27  1   
 12   6  28  1   
 13   7  10  1   
 14   7  29  1   
 15   7  30  1   
 16   8  31  1   
 17   8  32  1   
 18   8  33  1   
 19   9  10  1   
 20   9  11  1   
 21  10  34  1   
 22  10  35  1   
 23  11  12  1   
 24  11  36  1   
 25  11  37  1   
 26  12  13  ar  
 27  12  14  ar  
 28  13  15  ar  
 29  13  38  1   
 30  14  16  ar  
 31  14  39  1   
 32  15  17  1   
 33  15  18  ar  
 34  16  18  ar  
 35  16  40  1   
 36  17  19  1   
 37  17  20  1   
 38  18  41  1   
 39  19  21  2   
 40  20  22  2   
 41  20  23  1   
 42  21  22  1   
 43  21  24  1   
 44  22  42  1   
 45  23  43  1   
 46  23  44  1   
 47  23  45  1   
 48  24  46  1   
 49  24  47  1   
 50  24  48  1   
@<TRIPOS>SUBSTRUCTURE
  1 ****  13 GROUP 4 **** **** 0

# MOE 2024.06 (io_trps.svl 2023.06)
