@<TRIPOS>MOLECULE
NONAME
57 58 1 0 0 
SMALL
USER_CHARGES


@<TRIPOS>ATOM
  1 O       -2.2010    -0.0730     2.1480 O.2   1 <1>  -0.5700 
  2 C       -2.2950     0.4090     1.0450 C.2   1 <1>   0.5690 
  3 N       -2.4440    -0.3630    -0.0750 N.am  1 <1>  -0.6600 
  4 C       -2.2280     1.9260     0.9450 C.3   1 <1>  -0.0990 
  5 C       -2.4580    -1.8630     0.0400 C.3   1 <1>   0.3640 
  6 C       -2.6370     0.1890    -1.4540 C.3   1 <1>   0.1400 
  7 C       -0.7930     2.4100     0.6470 C.3   1 <1>  -0.1600 
  8 C       -1.0710    -2.4760    -0.2310 C.ar  1 <1>  -0.1440 
  9 C       -3.5520    -2.4920    -0.8820 C.3   1 <1>   0.2000 
 10 C       -2.8070    -0.9150    -2.5090 C.3   1 <1>   0.1200 
 11 C       -0.6260     3.9310     0.4280 C.3   1 <1>   0.0000 
 12 C       -0.9040    -3.8390    -0.0120 C.ar  1 <1>  -0.1500 
 13 C        0.0280    -1.7410    -0.6690 C.ar  1 <1>  -0.1500 
 14 O       -3.7950    -1.8050    -2.0930 O.3   1 <1>  -0.5600 
 15 C       -4.9000    -2.5820    -0.1560 C.3   1 <1>   0.1200 
 16 C       -1.1040     4.7260     1.6520 C.3   1 <1>  -0.2400 
 17 C       -1.3980     4.4020    -0.8150 C.3   1 <1>  -0.2400 
 18 C        0.8650     4.2240     0.2100 C.3   1 <1>  -0.2400 
 19 C        0.3080    -4.4650    -0.2490 C.ar  1 <1>   0.0830 
 20 C        1.2510    -2.3520    -0.8900 C.ar  1 <1>  -0.1500 
 21 O       -4.8560    -3.5740     0.8200 O.3   1 <1>  -0.6800 
 22 O        0.3620    -5.8070    -0.0570 O.3   1 <1>  -0.3630 
 23 C        1.4050    -3.7090    -0.6710 C.ar  1 <1>   0.0830 
 24 C        0.6440    -6.5980    -1.1910 C.3   1 <1>   0.0400 
 25 O        2.6360    -4.2400    -0.8690 O.3   1 <1>  -0.3630 
 26 C        3.3050    -4.6960     0.2870 C.3   1 <1>   0.0400 
 27 H       -2.9190     2.2670     0.2020 H     1 <1>   0.0800 
 28 H       -2.5510     2.3260     1.8890 H     1 <1>   0.0800 
 29 H       -2.7020    -2.1320     1.0540 H     1 <1>   0.0800 
 30 H       -3.5200     0.8040    -1.4660 H     1 <1>   0.0800 
 31 H       -1.7960     0.8030    -1.7210 H     1 <1>   0.0800 
 32 H       -0.4260     1.8950    -0.2220 H     1 <1>   0.0800 
 33 H       -0.1690     2.1060     1.4710 H     1 <1>   0.0800 
 34 H       -3.2600    -3.4870    -1.1610 H     1 <1>   0.0800 
 35 H       -1.8910    -1.4570    -2.6680 H     1 <1>   0.0800 
 36 H       -3.1200    -0.4890    -3.4460 H     1 <1>   0.0800 
 37 H       -1.7200    -4.4390     0.3480 H     1 <1>   0.1500 
 38 H       -0.0440    -0.6830    -0.8320 H     1 <1>   0.1500 
 39 H       -5.6880    -2.8280    -0.8460 H     1 <1>   0.0800 
 40 H       -5.1230    -1.6470     0.3290 H     1 <1>   0.0800 
 41 H       -0.8910     5.7730     1.5270 H     1 <1>   0.0800 
 42 H       -0.6050     4.3830     2.5410 H     1 <1>   0.0800 
 43 H       -2.1640     4.6210     1.7940 H     1 <1>   0.0800 
 44 H       -1.1900     5.4390    -1.0120 H     1 <1>   0.0800 
 45 H       -2.4580     4.3020    -0.6760 H     1 <1>   0.0800 
 46 H       -1.1080     3.8300    -1.6790 H     1 <1>   0.0800 
 47 H        1.0270     5.2760     0.0530 H     1 <1>   0.0800 
 48 H        1.2350     3.6940    -0.6500 H     1 <1>   0.0800 
 49 H        1.4390     3.9200     1.0680 H     1 <1>   0.0800 
 50 H        2.0940    -1.7760    -1.2230 H     1 <1>   0.1500 
 51 H       -4.9430    -4.4610     0.4190 H     1 <1>   0.4000 
 52 H        0.4990    -7.6290    -0.9250 H     1 <1>   0.0800 
 53 H        1.6620    -6.4390    -1.4940 H     1 <1>   0.0800 
 54 H       -0.0290    -6.3230    -1.9830 H     1 <1>   0.0800 
 55 H        4.2900    -5.0160     0.0020 H     1 <1>   0.0800 
 56 H        2.7590    -5.5180     0.7130 H     1 <1>   0.0800 
 57 H        3.3680    -3.8860     0.9930 H     1 <1>   0.0800 
@<TRIPOS>BOND
  1   1   2  2   
  2   2   3  am  
  3   2   4  1   
  4   3   5  1   
  5   3   6  1   
  6   4   7  1   
  7   4  27  1   
  8   4  28  1   
  9   5   8  1   
 10   5   9  1   
 11   5  29  1   
 12   6  10  1   
 13   6  30  1   
 14   6  31  1   
 15   7  11  1   
 16   7  32  1   
 17   7  33  1   
 18   8  12  ar  
 19   8  13  ar  
 20   9  14  1   
 21   9  15  1   
 22   9  34  1   
 23  10  14  1   
 24  10  35  1   
 25  10  36  1   
 26  11  16  1   
 27  11  17  1   
 28  11  18  1   
 29  12  19  ar  
 30  12  37  1   
 31  13  20  ar  
 32  13  38  1   
 33  15  21  1   
 34  15  39  1   
 35  15  40  1   
 36  16  41  1   
 37  16  42  1   
 38  16  43  1   
 39  17  44  1   
 40  17  45  1   
 41  17  46  1   
 42  18  47  1   
 43  18  48  1   
 44  18  49  1   
 45  19  22  1   
 46  19  23  ar  
 47  20  23  ar  
 48  20  50  1   
 49  21  51  1   
 50  22  24  1   
 51  23  25  1   
 52  24  52  1   
 53  24  53  1   
 54  24  54  1   
 55  25  26  1   
 56  26  55  1   
 57  26  56  1   
 58  26  57  1   
@<TRIPOS>SUBSTRUCTURE
  1 ****   8 GROUP 4 **** **** 0

# MOE 2024.06 (io_trps.svl 2023.06)
