@<TRIPOS>MOLECULE
NONAME
43 44 1 0 0 
SMALL
USER_CHARGES


@<TRIPOS>ATOM
  1 O        1.9120    -0.3940     1.0300 O.2   1 <1>  -0.5700 
  2 C        1.8750    -0.6360    -0.1540 C.2   1 <1>   0.5690 
  3 N        2.0270     0.3460    -1.0860 N.am  1 <1>  -0.7300 
  4 C        1.6330    -2.0990    -0.5700 C.3   1 <1>   0.4040 
  5 C        2.1760     1.7880    -0.7530 C.3   1 <1>   0.1400 
  6 N        0.8470    -2.8840     0.4590 N.4   1 <1>  -0.9590 
  7 C        3.6460     2.1390    -0.5260 C.3   1 <1>   0.0200 
  8 C        1.0480    -4.3590     0.3170 C.3   1 <1>   0.4230 
  9 C       -0.5760    -2.4160     0.5220 C.3   1 <1>   0.2630 
 10 C        3.7630     3.6000    -0.1360 C.2   1 <1>   0.0070 
 11 C        0.3160    -4.9460    -0.8920 C.3   1 <1>  -0.1600 
 12 C        0.4670    -5.1120     1.5120 C.3   1 <1>  -0.1600 
 13 N        3.8480     4.5530    -0.9910 N.2   1 <1>  -0.5650 
 14 N        3.7790     4.0690     1.1210 N.pl3 1 <1>   0.3140 
 15 C       -1.0470    -5.4450    -0.4010 C.3   1 <1>  -0.1600 
 16 C       -0.9400    -5.5840     1.1220 C.3   1 <1>  -0.1600 
 17 C        3.9220     5.6240    -0.1900 C.2   1 <1>   0.3660 
 18 N        3.8820     5.3870     1.0790 N.2   1 <1>  -0.7070 
 19 C        3.6990     3.3410     2.3970 C.3   1 <1>   0.0160 
 20 H        2.0500     0.1480    -2.0920 H     1 <1>   0.3700 
 21 H        2.5970    -2.5580    -0.7060 H     1 <1>   0.0800 
 22 H        1.1170    -2.1160    -1.5130 H     1 <1>   0.0800 
 23 H        1.6130     2.0130     0.1380 H     1 <1>   0.0800 
 24 H        1.7810     2.3900    -1.5550 H     1 <1>   0.0800 
 25 H        1.2700    -2.6050     1.3610 H     1 <1>   0.4500 
 26 H        4.1990     1.9820    -1.4350 H     1 <1>   0.0800 
 27 H        4.0650     1.5180     0.2440 H     1 <1>   0.0800 
 28 H        2.1050    -4.5640     0.2440 H     1 <1>   0.0800 
 29 H       -1.0850    -2.6290    -0.4030 H     1 <1>   0.0800 
 30 H       -0.6120    -1.3530     0.7030 H     1 <1>   0.0800 
 31 H       -1.0970    -2.9120     1.3240 H     1 <1>   0.0800 
 32 H        0.8770    -5.8020    -1.2280 H     1 <1>   0.0800 
 33 H        0.2280    -4.2640    -1.7180 H     1 <1>   0.0800 
 34 H        0.4700    -4.5320     2.4180 H     1 <1>   0.0800 
 35 H        1.0750    -5.9860     1.6760 H     1 <1>   0.0800 
 36 H       -1.2940    -6.3900    -0.8570 H     1 <1>   0.0800 
 37 H       -1.8230    -4.7420    -0.6520 H     1 <1>   0.0800 
 38 H       -1.6920    -4.9820     1.6030 H     1 <1>   0.0800 
 39 H       -1.0900    -6.6080     1.4230 H     1 <1>   0.0800 
 40 H        4.0070     6.6160    -0.6040 H     1 <1>   0.1500 
 41 H        2.9930     2.5360     2.3120 H     1 <1>   0.0800 
 42 H        3.3780     4.0180     3.1670 H     1 <1>   0.0800 
 43 H        4.6700     2.9560     2.6430 H     1 <1>   0.0800 
@<TRIPOS>BOND
  1   1   2  2   
  2   2   3  am  
  3   2   4  1   
  4   3   5  1   
  5   3  20  1   
  6   4   6  1   
  7   4  21  1   
  8   4  22  1   
  9   5   7  1   
 10   5  23  1   
 11   5  24  1   
 12   6   8  1   
 13   6   9  1   
 14   6  25  1   
 15   7  10  1   
 16   7  26  1   
 17   7  27  1   
 18   8  11  1   
 19   8  12  1   
 20   8  28  1   
 21   9  29  1   
 22   9  30  1   
 23   9  31  1   
 24  10  13  2   
 25  10  14  1   
 26  11  15  1   
 27  11  32  1   
 28  11  33  1   
 29  12  16  1   
 30  12  34  1   
 31  12  35  1   
 32  13  17  1   
 33  14  18  1   
 34  14  19  1   
 35  15  16  1   
 36  15  36  1   
 37  15  37  1   
 38  16  38  1   
 39  16  39  1   
 40  17  18  2   
 41  17  40  1   
 42  19  41  1   
 43  19  42  1   
 44  19  43  1   
@<TRIPOS>SUBSTRUCTURE
  1 ****   2 GROUP 4 **** **** 0

# MOE 2024.06 (io_trps.svl 2023.06)
