@<TRIPOS>MOLECULE
NONAME
52 54 1 0 0 
SMALL
USER_CHARGES


@<TRIPOS>ATOM
  1 O       -0.6130     0.0550    -0.8170 O.2   1 <1>  -0.5700 
  2 C       -1.4060     0.8480    -0.3390 C.2   1 <1>   0.6900 
  3 N       -0.9690     2.0910     0.0360 N.am  1 <1>  -0.6600 
  4 N       -2.7250     0.5010    -0.1880 N.am  1 <1>  -0.6600 
  5 C        0.2130     2.7040    -0.6170 C.3   1 <1>   0.1400 
  6 C       -1.3380     2.6940     1.3390 C.3   1 <1>   0.1400 
  7 C       -3.8150     1.4720    -0.4390 C.3   1 <1>   0.1400 
  8 C       -3.2000    -0.8810    -0.4390 C.3   1 <1>   0.1400 
  9 C       -0.0600     4.1920    -0.8420 C.3   1 <1>  -0.1600 
 10 C       -1.6430     4.1780     1.1330 C.3   1 <1>  -0.1600 
 11 C       -5.0600     0.6290    -0.6930 C.3   1 <1>  -0.1600 
 12 C       -4.5250    -0.7160    -1.1710 C.3   1 <1>  -0.1600 
 13 C       -0.4570     4.8780     0.4670 C.3   1 <1>   0.2890 
 14 N       -0.8470     6.2690     0.1740 N.pl3 1 <1>  -0.8690 
 15 C        0.0460     7.3090     0.0160 C.ar  1 <1>   0.4100 
 16 N        1.2760     7.0880     0.4720 N.ar  1 <1>  -0.6200 
 17 C       -0.3440     8.5060    -0.6110 C.ar  1 <1>   0.0860 
 18 C        2.1720     8.0350     0.2890 C.ar  1 <1>   0.1660 
 19 C       -1.7000     8.7430    -1.0440 C.2   1 <1>   0.5440 
 20 C        0.6270     9.4750    -0.8060 C.ar  1 <1>  -0.1500 
 21 C        1.9070     9.2420    -0.3510 C.ar  1 <1>  -0.1430 
 22 C        3.5580     7.7250     0.8240 C.3   1 <1>  -0.0970 
 23 O       -1.9440     9.2730    -2.1070 O.2   1 <1>  -0.5700 
 24 N       -2.7750     8.4240    -0.2830 N.am  1 <1>  -0.8000 
 25 C        2.9760    10.3070    -0.5620 C.3   1 <1>  -0.0970 
 26 H        0.4060     2.2220    -1.5620 H     1 <1>   0.0800 
 27 H        1.0760     2.5710     0.0130 H     1 <1>   0.0800 
 28 H       -0.5120     2.5800     2.0210 H     1 <1>   0.0800 
 29 H       -2.1880     2.1880     1.7640 H     1 <1>   0.0800 
 30 H       -3.5700     2.0580    -1.3100 H     1 <1>   0.0800 
 31 H       -3.9560     2.1220     0.4050 H     1 <1>   0.0800 
 32 H       -3.3490    -1.3720     0.5070 H     1 <1>   0.0800 
 33 H       -2.4980    -1.4470    -1.0280 H     1 <1>   0.0800 
 34 H       -0.8470     4.2920    -1.5670 H     1 <1>   0.0800 
 35 H        0.8270     4.6570    -1.2320 H     1 <1>   0.0800 
 36 H       -1.8370     4.6350     2.0850 H     1 <1>   0.0800 
 37 H       -2.5200     4.2700     0.5190 H     1 <1>   0.0800 
 38 H       -5.7150     1.0890    -1.4120 H     1 <1>   0.0800 
 39 H       -5.5900     0.5020     0.2340 H     1 <1>   0.0800 
 40 H       -5.2010    -1.5270    -0.9630 H     1 <1>   0.0800 
 41 H       -4.3340    -0.6790    -2.2290 H     1 <1>   0.0800 
 42 H        0.3800     4.8640     1.1470 H     1 <1>   0.0800 
 43 H       -1.6960     6.3310    -0.3930 H     1 <1>   0.4000 
 44 H        0.3660    10.3920    -1.3060 H     1 <1>   0.1500 
 45 H        3.5430     6.8170     1.4000 H     1 <1>   0.0800 
 46 H        3.8980     8.5210     1.4600 H     1 <1>   0.0800 
 47 H        4.2440     7.6000     0.0070 H     1 <1>   0.0800 
 48 H       -3.7030     8.7200    -0.5880 H     1 <1>   0.3700 
 49 H       -2.6800     8.0750     0.6730 H     1 <1>   0.3700 
 50 H        3.8200     9.8880    -1.0800 H     1 <1>   0.0800 
 51 H        3.3030    10.6950     0.3860 H     1 <1>   0.0800 
 52 H        2.5960    11.1240    -1.1490 H     1 <1>   0.0800 
@<TRIPOS>BOND
  1   1   2  2   
  2   2   3  am  
  3   2   4  am  
  4   3   5  1   
  5   3   6  1   
  6   4   7  1   
  7   4   8  1   
  8   5   9  1   
  9   5  26  1   
 10   5  27  1   
 11   6  10  1   
 12   6  28  1   
 13   6  29  1   
 14   7  11  1   
 15   7  30  1   
 16   7  31  1   
 17   8  12  1   
 18   8  32  1   
 19   8  33  1   
 20   9  13  1   
 21   9  34  1   
 22   9  35  1   
 23  10  13  1   
 24  10  36  1   
 25  10  37  1   
 26  11  12  1   
 27  11  38  1   
 28  11  39  1   
 29  12  40  1   
 30  12  41  1   
 31  13  14  1   
 32  13  42  1   
 33  14  15  1   
 34  14  43  1   
 35  15  16  ar  
 36  15  17  ar  
 37  16  18  ar  
 38  17  19  1   
 39  17  20  ar  
 40  18  21  ar  
 41  18  22  1   
 42  19  23  2   
 43  19  24  am  
 44  20  21  ar  
 45  20  44  1   
 46  21  25  1   
 47  22  45  1   
 48  22  46  1   
 49  22  47  1   
 50  24  48  1   
 51  24  49  1   
 52  25  50  1   
 53  25  51  1   
 54  25  52  1   
@<TRIPOS>SUBSTRUCTURE
  1 ****  13 GROUP 4 **** **** 0

# MOE 2024.06 (io_trps.svl 2023.06)
