@<TRIPOS>MOLECULE
NONAME
47 50 1 0 0 
SMALL
USER_CHARGES


@<TRIPOS>ATOM
  1 O       -0.9950     1.0270    -1.5670 O.2   1 <1>  -0.5700 
  2 C       -0.8290     2.2110    -1.3820 C.2   1 <1>   0.5690 
  3 N       -1.5930     2.9470    -0.5120 N.am  1 <1>  -0.5090 
  4 C        0.2730     2.9060    -2.1810 C.3   1 <1>   0.1810 
  5 C       -1.4810     4.4380    -0.4420 C.3   1 <1>   0.3640 
  6 C       -2.6100     2.3330     0.3770 C.3   1 <1>   0.0490 
  7 O        0.6640     4.1260    -1.6050 O.3   1 <1>  -0.5600 
  8 C       -2.8390     5.0800    -0.7150 C.ar  1 <1>  -0.1440 
  9 C       -0.4110     5.0220    -1.3940 C.3   1 <1>   0.2610 
 10 C       -2.4880     2.5380     1.8560 C.3   1 <1>  -0.2000 
 11 C       -2.2250     1.1910     1.2630 C.3   1 <1>  -0.2000 
 12 C       -3.3200     6.0630     0.1390 C.ar  1 <1>   0.1600 
 13 C       -3.6150     4.7090    -1.7980 C.ar  1 <1>  -0.1500 
 14 C        0.0540     6.3820    -0.8560 C.2   1 <1>   0.5690 
 15 N       -4.4840     6.6790     0.0100 N.ar  1 <1>  -0.6200 
 16 C       -4.8260     5.3470    -1.9520 C.ar  1 <1>  -0.1500 
 17 O       -0.3360     7.3520    -1.4650 O.2   1 <1>  -0.5700 
 18 N        0.8320     6.5200     0.2770 N.am  1 <1>  -0.6600 
 19 C       -5.2070     6.3090    -1.0330 C.ar  1 <1>   0.1600 
 20 C        1.4620     5.4060     1.0450 C.3   1 <1>   0.1400 
 21 C        1.2930     7.8650     0.7270 C.3   1 <1>   0.1400 
 22 C        2.9810     5.4640     0.8630 C.3   1 <1>  -0.1600 
 23 C        2.8120     7.9660     0.5540 C.3   1 <1>  -0.1600 
 24 C        3.5450     6.8300     1.2830 C.3   1 <1>  -0.1600 
 25 H       -0.0660     3.0920    -3.1840 H     1 <1>   0.0800 
 26 H        1.1380     2.2710    -2.2190 H     1 <1>   0.0800 
 27 H       -1.1940     4.6830     0.5640 H     1 <1>   0.0800 
 28 H       -3.5940     2.3220    -0.0640 H     1 <1>   0.1000 
 29 H       -0.8600     5.1990    -2.3550 H     1 <1>   0.0800 
 30 H       -1.6490     3.0710     2.2650 H     1 <1>   0.1000 
 31 H       -3.3860     2.6700     2.4340 H     1 <1>   0.1000 
 32 H       -2.9430     0.4070     1.4250 H     1 <1>   0.1000 
 33 H       -1.2160     0.8210     1.2110 H     1 <1>   0.1000 
 34 H       -2.7190     6.3650     0.9800 H     1 <1>   0.1500 
 35 H       -3.2990     3.9510    -2.4950 H     1 <1>   0.1500 
 36 H       -5.4740     5.1030    -2.7740 H     1 <1>   0.1500 
 37 H       -6.1570     6.8010    -1.1630 H     1 <1>   0.1500 
 38 H        1.2200     5.5220     2.0880 H     1 <1>   0.0800 
 39 H        1.1000     4.4460     0.7310 H     1 <1>   0.0800 
 40 H        0.8130     8.6470     0.1620 H     1 <1>   0.0800 
 41 H        1.0310     7.9990     1.7620 H     1 <1>   0.0800 
 42 H        3.4410     4.6880     1.4490 H     1 <1>   0.0800 
 43 H        3.2130     5.2750    -0.1710 H     1 <1>   0.0800 
 44 H        3.0400     7.9300    -0.4980 H     1 <1>   0.0800 
 45 H        3.1510     8.9150     0.9290 H     1 <1>   0.0800 
 46 H        4.5970     6.8730     1.0590 H     1 <1>   0.0800 
 47 H        3.4260     6.9540     2.3450 H     1 <1>   0.0800 
@<TRIPOS>BOND
  1   1   2  2   
  2   2   3  am  
  3   2   4  1   
  4   3   5  1   
  5   3   6  1   
  6   4   7  1   
  7   4  25  1   
  8   4  26  1   
  9   5   8  1   
 10   5   9  1   
 11   5  27  1   
 12   6  10  1   
 13   6  11  1   
 14   6  28  1   
 15   7   9  1   
 16   8  12  ar  
 17   8  13  ar  
 18   9  14  1   
 19   9  29  1   
 20  10  11  1   
 21  10  30  1   
 22  10  31  1   
 23  11  32  1   
 24  11  33  1   
 25  12  15  ar  
 26  12  34  1   
 27  13  16  ar  
 28  13  35  1   
 29  14  17  2   
 30  14  18  am  
 31  15  19  ar  
 32  16  19  ar  
 33  16  36  1   
 34  18  20  1   
 35  18  21  1   
 36  19  37  1   
 37  20  22  1   
 38  20  38  1   
 39  20  39  1   
 40  21  23  1   
 41  21  40  1   
 42  21  41  1   
 43  22  24  1   
 44  22  42  1   
 45  22  43  1   
 46  23  24  1   
 47  23  44  1   
 48  23  45  1   
 49  24  46  1   
 50  24  47  1   
@<TRIPOS>SUBSTRUCTURE
  1 ****   5 GROUP 4 **** **** 0

# MOE 2024.06 (io_trps.svl 2023.06)
