@<TRIPOS>MOLECULE
NONAME
60 64 1 0 0 
SMALL
USER_CHARGES


@<TRIPOS>ATOM
  1 O       -0.5650     0.4290     0.2520 O.2   1 <1>  -0.5700 
  2 C       -1.7030     0.3480    -0.1720 C.2   1 <1>   0.5440 
  3 N       -2.3520    -0.8580    -0.0830 N.am  1 <1>  -0.6600 
  4 C       -2.3470     1.5100    -0.7500 C.ar  1 <1>   0.0860 
  5 C       -1.8360    -2.0940     0.5020 C.3   1 <1>   0.2200 
  6 C       -3.7720    -1.1360     0.0000 C.3   1 <1>   0.2200 
  7 C       -3.1300     1.4160    -1.8920 C.ar  1 <1>  -0.1500 
  8 C       -2.1870     2.7810    -0.1580 C.ar  1 <1>  -0.1500 
  9 C       -2.4660    -3.1610    -0.4440 C.3   1 <1>   0.0610 
 10 C       -2.5510    -2.0080     1.8670 C.3   1 <1>  -0.1600 
 11 C       -3.8380    -2.4750    -0.7460 C.3   1 <1>  -0.1600 
 12 C       -3.9140    -1.3920     1.5040 C.3   1 <1>  -0.1600 
 13 C       -3.7580     2.5400    -2.4100 C.ar  1 <1>   0.2270 
 14 C       -2.7960     3.9060    -0.6650 C.ar  1 <1>  -0.1500 
 15 C       -2.5720    -4.5400     0.2540 C.2   1 <1>   0.5690 
 16 C       -1.5970    -3.3840    -1.7240 C.3   1 <1>  -0.1600 
 17 N       -4.5740     2.6490    -3.4950 N.2   1 <1>  -0.5650 
 18 C       -3.5930     3.7700    -1.8030 C.ar  1 <1>  -0.1520 
 19 O       -1.7080    -4.8150     1.0580 O.2   1 <1>  -0.5700 
 20 N       -3.5520    -5.4700    -0.0330 N.am  1 <1>  -0.6600 
 21 C       -1.2310    -2.1690    -2.5930 C.3   1 <1>  -0.2400 
 22 C       -4.8800     3.8990    -3.5360 C.2   1 <1>   0.0360 
 23 N       -4.3220     4.6380    -2.5440 N.pl3 1 <1>   0.0330 
 24 C       -3.7320    -6.6580     0.8500 C.3   1 <1>   0.1400 
 25 C       -4.3030    -5.5870    -1.3150 C.3   1 <1>   0.1400 
 26 C       -5.2190    -6.8470     1.1640 C.3   1 <1>  -0.1600 
 27 C       -5.7990    -5.7660    -1.0350 C.3   1 <1>  -0.1600 
 28 C       -6.0640    -6.9750    -0.1150 C.3   1 <1>  -0.0800 
 29 C       -7.5480    -7.1240     0.2530 C.3   1 <1>   0.1200 
 30 O       -8.3000    -7.3060    -0.8940 O.3   1 <1>  -0.6800 
 31 H       -0.7610    -2.1330     0.5690 H     1 <1>   0.0800 
 32 H       -4.4170    -0.3650    -0.3840 H     1 <1>   0.0800 
 33 H       -3.2640     0.4800    -2.3980 H     1 <1>   0.1500 
 34 H       -1.5630     2.8510     0.7170 H     1 <1>   0.1500 
 35 H       -2.6490    -2.9490     2.3740 H     1 <1>   0.0800 
 36 H       -1.9980    -1.3400     2.5050 H     1 <1>   0.0800 
 37 H       -4.6750    -3.0390    -0.3830 H     1 <1>   0.0800 
 38 H       -3.9760    -2.3010    -1.7960 H     1 <1>   0.0800 
 39 H       -4.0590    -0.4620     2.0250 H     1 <1>   0.0800 
 40 H       -4.7330    -2.0530     1.7250 H     1 <1>   0.0800 
 41 H       -2.6650     4.8690    -0.2020 H     1 <1>   0.1500 
 42 H       -0.6720    -3.8410    -1.4130 H     1 <1>   0.0800 
 43 H       -2.0870    -4.0990    -2.3580 H     1 <1>   0.0800 
 44 H       -0.6000    -1.4890    -2.0480 H     1 <1>   0.0800 
 45 H       -2.1060    -1.6420    -2.9250 H     1 <1>   0.0800 
 46 H       -0.6860    -2.4940    -3.4610 H     1 <1>   0.0800 
 47 H       -5.5190     4.3430    -4.2800 H     1 <1>   0.1500 
 48 H       -4.4250     5.6440    -2.3860 H     1 <1>   0.2700 
 49 H       -3.3430    -7.5300     0.3520 H     1 <1>   0.0800 
 50 H       -3.1910    -6.5330     1.7730 H     1 <1>   0.0800 
 51 H       -4.1530    -4.7290    -1.9420 H     1 <1>   0.0800 
 52 H       -3.9350    -6.4460    -1.8500 H     1 <1>   0.0800 
 53 H       -5.3350    -7.7320     1.7640 H     1 <1>   0.0800 
 54 H       -5.5540    -6.0080     1.7480 H     1 <1>   0.0800 
 55 H       -6.1840    -4.8700    -0.5830 H     1 <1>   0.0800 
 56 H       -6.3030    -5.9050    -1.9750 H     1 <1>   0.0800 
 57 H       -5.7580    -7.8740    -0.6250 H     1 <1>   0.0800 
 58 H       -7.9140    -6.2500     0.7640 H     1 <1>   0.0800 
 59 H       -7.6970    -7.9860     0.8810 H     1 <1>   0.0800 
 60 H       -8.2440    -6.5190    -1.4670 H     1 <1>   0.4000 
@<TRIPOS>BOND
  1   1   2  2   
  2   2   3  am  
  3   2   4  1   
  4   3   5  1   
  5   3   6  1   
  6   4   7  ar  
  7   4   8  ar  
  8   5   9  1   
  9   5  10  1   
 10   5  31  1   
 11   6  11  1   
 12   6  12  1   
 13   6  32  1   
 14   7  13  ar  
 15   7  33  1   
 16   8  14  ar  
 17   8  34  1   
 18   9  11  1   
 19   9  15  1   
 20   9  16  1   
 21  10  12  1   
 22  10  35  1   
 23  10  36  1   
 24  11  37  1   
 25  11  38  1   
 26  12  39  1   
 27  12  40  1   
 28  13  17  1   
 29  13  18  ar  
 30  14  18  ar  
 31  14  41  1   
 32  15  19  2   
 33  15  20  am  
 34  16  21  1   
 35  16  42  1   
 36  16  43  1   
 37  17  22  2   
 38  18  23  1   
 39  20  24  1   
 40  20  25  1   
 41  21  44  1   
 42  21  45  1   
 43  21  46  1   
 44  22  23  1   
 45  22  47  1   
 46  23  48  1   
 47  24  26  1   
 48  24  49  1   
 49  24  50  1   
 50  25  27  1   
 51  25  51  1   
 52  25  52  1   
 53  26  28  1   
 54  26  53  1   
 55  26  54  1   
 56  27  28  1   
 57  27  55  1   
 58  27  56  1   
 59  28  29  1   
 60  28  57  1   
 61  29  30  1   
 62  29  58  1   
 63  29  59  1   
 64  30  60  1   
@<TRIPOS>SUBSTRUCTURE
  1 ****  11 GROUP 4 **** **** 0

# MOE 2024.06 (io_trps.svl 2023.06)
