@<TRIPOS>MOLECULE
NONAME
47 49 1 0 0 
SMALL
USER_CHARGES


@<TRIPOS>ATOM
  1 O        1.3760    -2.0420     3.1710 O.2   1 <1>  -0.5700 
  2 C        0.7920    -2.5650     2.2420 C.2   1 <1>   0.5440 
  3 N       -0.4810    -2.9320     2.5000 N.am  1 <1>  -0.8000 
  4 C        1.4330    -2.7690     0.9560 C.ar  1 <1>   0.0860 
  5 C        0.8930    -3.5630    -0.0810 C.ar  1 <1>   0.4100 
  6 C        2.6550    -2.1580     0.7020 C.ar  1 <1>  -0.1500 
  7 N        1.4880    -3.7430    -1.2590 N.ar  1 <1>  -0.6200 
  8 N       -0.3040    -4.2530     0.0420 N.pl3 1 <1>  -0.8380 
  9 C        3.2710    -2.3420    -0.5160 C.ar  1 <1>  -0.1430 
 10 C        2.6400    -3.1420    -1.4610 C.ar  1 <1>   0.1670 
 11 C       -1.3440    -4.0220    -1.0060 C.3   1 <1>   0.2090 
 12 C       -0.1830    -5.7200     0.2830 C.3   1 <1>   0.2090 
 13 C        4.6120    -1.6680    -0.7790 C.3   1 <1>  -0.0970 
 14 C        3.2650    -3.3830    -2.8230 C.3   1 <1>  -0.0970 
 15 C       -1.6070    -5.3920    -1.6260 C.3   1 <1>   0.2000 
 16 C       -1.3100    -6.3810    -0.5080 C.3   1 <1>  -0.0800 
 17 O       -2.9210    -5.5320    -2.0550 O.3   1 <1>  -0.6800 
 18 C       -0.9550    -7.7860    -1.0190 C.3   1 <1>   0.0210 
 19 C       -0.5150    -8.6940     0.1150 C.2   1 <1>   0.1080 
 20 N       -1.1760    -8.8150     1.2260 N.2   1 <1>  -0.7070 
 21 C        0.6310    -9.4810     0.0990 C.2   1 <1>  -0.1500 
 22 N       -0.4630    -9.6970     1.9520 N.pl3 1 <1>   0.3000 
 23 C        0.6380   -10.1120     1.2910 C.2   1 <1>  -0.3320 
 24 C        1.6430   -11.1040     1.8480 C.3   1 <1>  -0.0600 
 25 H       -0.8590    -2.8640     3.4420 H     1 <1>   0.3700 
 26 H       -0.9720    -3.5100     1.8060 H     1 <1>   0.3700 
 27 H        3.1090    -1.5450     1.4610 H     1 <1>   0.1500 
 28 H       -2.2330    -3.6420    -0.5360 H     1 <1>   0.0800 
 29 H       -1.0050    -3.3250    -1.7540 H     1 <1>   0.0800 
 30 H        0.7760    -6.0670    -0.0680 H     1 <1>   0.0800 
 31 H       -0.2690    -5.9440     1.3330 H     1 <1>   0.0800 
 32 H        4.9820    -1.1870     0.1090 H     1 <1>   0.0800 
 33 H        4.5060    -0.9230    -1.5470 H     1 <1>   0.0800 
 34 H        5.3400    -2.3960    -1.0920 H     1 <1>   0.0800 
 35 H        3.5690    -2.4540    -3.2670 H     1 <1>   0.0800 
 36 H        2.5560    -3.8540    -3.4810 H     1 <1>   0.0800 
 37 H        4.1170    -4.0290    -2.7210 H     1 <1>   0.0800 
 38 H       -0.9510    -5.5350    -2.4680 H     1 <1>   0.0800 
 39 H       -2.1580    -6.4490     0.1510 H     1 <1>   0.0800 
 40 H       -3.5270    -5.5470    -1.2900 H     1 <1>   0.4000 
 41 H       -0.1660    -7.7220    -1.7460 H     1 <1>   0.0800 
 42 H       -1.8140    -8.2210    -1.4960 H     1 <1>   0.0800 
 43 H        1.3420    -9.5510    -0.7050 H     1 <1>   0.1500 
 44 H       -0.7530    -9.9930     2.8910 H     1 <1>   0.2700 
 45 H        2.4270   -11.2770     1.1320 H     1 <1>   0.0800 
 46 H        1.1620   -12.0420     2.0620 H     1 <1>   0.0800 
 47 H        2.0830   -10.7210     2.7520 H     1 <1>   0.0800 
@<TRIPOS>BOND
  1   1   2  2   
  2   2   3  am  
  3   2   4  1   
  4   3  25  1   
  5   3  26  1   
  6   4   5  ar  
  7   4   6  ar  
  8   5   7  ar  
  9   5   8  1   
 10   6   9  ar  
 11   6  27  1   
 12   7  10  ar  
 13   8  11  1   
 14   8  12  1   
 15   9  10  ar  
 16   9  13  1   
 17  10  14  1   
 18  11  15  1   
 19  11  28  1   
 20  11  29  1   
 21  12  16  1   
 22  12  30  1   
 23  12  31  1   
 24  13  32  1   
 25  13  33  1   
 26  13  34  1   
 27  14  35  1   
 28  14  36  1   
 29  14  37  1   
 30  15  16  1   
 31  15  17  1   
 32  15  38  1   
 33  16  18  1   
 34  16  39  1   
 35  17  40  1   
 36  18  19  1   
 37  18  41  1   
 38  18  42  1   
 39  19  20  2   
 40  19  21  1   
 41  20  22  1   
 42  21  23  2   
 43  21  43  1   
 44  22  23  1   
 45  22  44  1   
 46  23  24  1   
 47  24  45  1   
 48  24  46  1   
 49  24  47  1   
@<TRIPOS>SUBSTRUCTURE
  1 ****  12 GROUP 4 **** **** 0

# MOE 2024.06 (io_trps.svl 2023.06)
