@<TRIPOS>MOLECULE
NONAME
47 49 1 0 0 
SMALL
USER_CHARGES


@<TRIPOS>ATOM
  1 S       -0.5890     0.3930    -1.3200 S.o2  1 <1>   1.4470 
  2 O        0.1260     0.9840    -2.4280 O.2   1 <1>  -0.6500 
  3 O       -1.8790    -0.2250    -1.5580 O.2   1 <1>  -0.6500 
  4 N       -0.8410     1.6200    -0.1750 N.am  1 <1>  -0.8490 
  5 C        0.5160    -0.7560    -0.4510 C.ar  1 <1>  -0.0090 
  6 C       -1.4870     1.1560     1.0690 C.3   1 <1>   0.1960 
  7 C       -1.4150     2.8460    -0.7480 C.3   1 <1>   0.1960 
  8 C        1.7810    -0.3500    -0.0450 C.ar  1 <1>  -0.1500 
  9 C        0.1250    -2.0570    -0.1590 C.ar  1 <1>  -0.1500 
 10 C       -2.6240     2.0700     1.5420 C.3   1 <1>  -0.1600 
 11 C       -2.9290     2.7010    -0.9090 C.3   1 <1>  -0.1600 
 12 C        2.6480    -1.1990     0.6330 C.ar  1 <1>   0.0730 
 13 C        0.9700    -2.9220     0.5130 C.ar  1 <1>  -0.1500 
 14 C       -3.6430     2.3820     0.4260 C.3   1 <1>   0.2800 
 15 C        3.9480    -0.7490     1.0440 C.1   1 <1>   0.4840 
 16 C        2.2240    -2.4930     0.9070 C.ar  1 <1>  -0.1500 
 17 O       -4.2450     3.5940     0.8270 O.3   1 <1>  -0.5600 
 18 C       -4.7090     1.2450     0.3080 C.3   1 <1>   0.2000 
 19 N        4.9770    -0.3890     1.3770 N.1   1 <1>  -0.5570 
 20 C       -5.6430     3.7320     0.8010 C.3   1 <1>   0.1200 
 21 O       -4.1740    -0.0080    -0.0340 O.3   1 <1>  -0.6800 
 22 C       -5.9310     1.6320    -0.5770 C.3   1 <1>   0.2800 
 23 C       -6.2120     3.1400    -0.4910 C.3   1 <1>  -0.1600 
 24 O       -7.0240     0.9840    -0.0410 O.3   1 <1>  -0.6800 
 25 C       -5.8820     1.1760    -2.0430 C.3   1 <1>  -0.2400 
 26 H       -1.8760     0.1600     0.9420 H     1 <1>   0.0800 
 27 H       -0.7390     1.1010     1.8420 H     1 <1>   0.0800 
 28 H       -1.2030     3.6760    -0.0940 H     1 <1>   0.0800 
 29 H       -0.9590     3.0680    -1.6990 H     1 <1>   0.0800 
 30 H        2.0960     0.6580    -0.2660 H     1 <1>   0.1500 
 31 H       -0.8510    -2.4000    -0.4630 H     1 <1>   0.1500 
 32 H       -2.1870     2.9850     1.9010 H     1 <1>   0.0800 
 33 H       -3.1200     1.6080     2.3750 H     1 <1>   0.0800 
 34 H       -3.1090     1.9330    -1.6320 H     1 <1>   0.0800 
 35 H       -3.3170     3.6120    -1.3280 H     1 <1>   0.0800 
 36 H        0.6510    -3.9280     0.7290 H     1 <1>   0.1500 
 37 H        2.8780    -3.1710     1.4300 H     1 <1>   0.1500 
 38 H       -5.0900     1.1120     1.3070 H     1 <1>   0.0800 
 39 H       -6.0530     3.2360     1.6650 H     1 <1>   0.0800 
 40 H       -5.8670     4.7820     0.8680 H     1 <1>   0.0800 
 41 H       -3.5350     0.0530    -0.7870 H     1 <1>   0.4000 
 42 H       -5.7550     3.6560    -1.3160 H     1 <1>   0.0800 
 43 H       -7.2710     3.3250    -0.5480 H     1 <1>   0.0800 
 44 H       -6.8280     0.0250    -0.0270 H     1 <1>   0.4000 
 45 H       -5.0920     1.6690    -2.5740 H     1 <1>   0.0800 
 46 H       -6.8070     1.4210    -2.5340 H     1 <1>   0.0800 
 47 H       -5.7250     0.1150    -2.1130 H     1 <1>   0.0800 
@<TRIPOS>BOND
  1   1   2  2   
  2   1   3  2   
  3   1   4  am  
  4   1   5  1   
  5   4   6  1   
  6   4   7  1   
  7   5   8  ar  
  8   5   9  ar  
  9   6  10  1   
 10   6  26  1   
 11   6  27  1   
 12   7  11  1   
 13   7  28  1   
 14   7  29  1   
 15   8  12  ar  
 16   8  30  1   
 17   9  13  ar  
 18   9  31  1   
 19  10  14  1   
 20  10  32  1   
 21  10  33  1   
 22  11  14  1   
 23  11  34  1   
 24  11  35  1   
 25  12  15  1   
 26  12  16  ar  
 27  13  16  ar  
 28  13  36  1   
 29  14  17  1   
 30  14  18  1   
 31  15  19  3   
 32  16  37  1   
 33  17  20  1   
 34  18  21  1   
 35  18  22  1   
 36  18  38  1   
 37  20  23  1   
 38  20  39  1   
 39  20  40  1   
 40  21  41  1   
 41  22  23  1   
 42  22  24  1   
 43  22  25  1   
 44  23  42  1   
 45  23  43  1   
 46  24  44  1   
 47  25  45  1   
 48  25  46  1   
 49  25  47  1   
@<TRIPOS>SUBSTRUCTURE
  1 ****   4 GROUP 4 **** **** 0

# MOE 2024.06 (io_trps.svl 2023.06)
