@<TRIPOS>MOLECULE
NONAME
58 61 1 0 0 
SMALL
USER_CHARGES


@<TRIPOS>ATOM
  1 O       -0.4040     0.3880    -0.8150 O.2   1 <1>  -0.5700 
  2 C       -1.4480     0.9050    -0.4940 C.2   1 <1>   0.5690 
  3 N       -2.5180     0.1750    -0.0750 N.am  1 <1>  -0.7300 
  4 C       -1.5200     2.4420    -0.5590 C.3   1 <1>   0.4040 
  5 C       -2.5240    -1.3060     0.0590 C.3   1 <1>   0.1400 
  6 N       -0.1660     3.1140    -0.4710 N.4   1 <1>  -0.9590 
  7 C       -3.3450    -1.9330    -1.0670 C.3   1 <1>  -0.0170 
  8 C        0.4790     2.8870     0.8550 C.3   1 <1>   0.3430 
  9 C       -0.2060     4.5480    -0.8670 C.3   1 <1>   0.3430 
 10 C       -3.4510    -3.4380    -0.8580 C.ar  1 <1>  -0.1440 
 11 C        1.9080     3.4230     0.8270 C.3   1 <1>  -0.1600 
 12 C        1.2140     5.1040    -0.9190 C.3   1 <1>  -0.1600 
 13 C       -4.3440    -3.9710     0.0710 C.ar  1 <1>   0.0820 
 14 C       -2.6440    -4.2870    -1.5980 C.ar  1 <1>  -0.1500 
 15 C        1.9660     4.8990     0.4060 C.3   1 <1>   0.1000 
 16 O       -5.1110    -3.1010     0.7830 O.3   1 <1>  -0.3630 
 17 C       -4.4150    -5.3520     0.2400 C.ar  1 <1>  -0.1500 
 18 C       -2.7200    -5.6580    -1.4250 C.ar  1 <1>  -0.1500 
 19 C        3.4160     5.3360     0.2560 C.2   1 <1>   0.0060 
 20 C       -6.0910    -3.5550     1.6910 C.3   1 <1>   0.0400 
 21 C       -3.6060    -6.1890    -0.5060 C.ar  1 <1>  -0.1500 
 22 N        4.2090     4.8630    -0.6430 N.2   1 <1>  -0.5650 
 23 N        3.9980     6.2630     1.0630 N.pl3 1 <1>   0.0330 
 24 C        5.3910     5.5070    -0.4300 C.ar  1 <1>   0.2270 
 25 C        5.2770     6.3850     0.6310 C.ar  1 <1>  -0.1520 
 26 C        6.6030     5.3890    -1.1080 C.ar  1 <1>  -0.1500 
 27 C        6.3570     7.1650     1.0470 C.ar  1 <1>  -0.1500 
 28 C        7.6760     6.1550    -0.7050 C.ar  1 <1>  -0.1500 
 29 C        7.5520     7.0430     0.3720 C.ar  1 <1>  -0.1500 
 30 H       -3.4160     0.6060     0.1610 H     1 <1>   0.3700 
 31 H       -2.1520     2.7920     0.2380 H     1 <1>   0.0800 
 32 H       -1.9850     2.7020    -1.4940 H     1 <1>   0.0800 
 33 H       -2.9480    -1.5750     1.0120 H     1 <1>   0.0800 
 34 H       -1.5180    -1.6910     0.0230 H     1 <1>   0.0800 
 35 H        0.4300     2.6020    -1.1470 H     1 <1>   0.4500 
 36 H       -2.8740    -1.7270    -2.0110 H     1 <1>   0.0800 
 37 H       -4.3330    -1.5100    -1.0840 H     1 <1>   0.0800 
 38 H        0.5040     1.8310     1.0780 H     1 <1>   0.0800 
 39 H       -0.0820     3.3870     1.6280 H     1 <1>   0.0800 
 40 H       -0.7880     5.1090    -0.1540 H     1 <1>   0.0800 
 41 H       -0.6630     4.6520    -1.8390 H     1 <1>   0.0800 
 42 H        2.4920     2.8260     0.1460 H     1 <1>   0.0800 
 43 H        2.3490     3.3110     1.8020 H     1 <1>   0.0800 
 44 H        1.1780     6.1540    -1.1480 H     1 <1>   0.0800 
 45 H        1.7470     4.6230    -1.7210 H     1 <1>   0.0800 
 46 H       -1.9480    -3.8890    -2.3160 H     1 <1>   0.1500 
 47 H        1.4950     5.4980     1.1680 H     1 <1>   0.0800 
 48 H       -5.0910    -5.7950     0.9450 H     1 <1>   0.1500 
 49 H       -2.0890    -6.3090    -2.0050 H     1 <1>   0.1500 
 50 H       -6.5870    -2.6960     2.1060 H     1 <1>   0.0800 
 51 H       -5.6100    -4.1130     2.4740 H     1 <1>   0.0800 
 52 H       -6.8010    -4.1660     1.1620 H     1 <1>   0.0800 
 53 H       -3.6640    -7.2560    -0.3730 H     1 <1>   0.1500 
 54 H        3.5820     6.7770     1.8430 H     1 <1>   0.2700 
 55 H        6.6700     4.7010    -1.9290 H     1 <1>   0.1500 
 56 H        6.2540     7.8450     1.8750 H     1 <1>   0.1500 
 57 H        8.6190     6.0780    -1.2170 H     1 <1>   0.1500 
 58 H        8.4040     7.6300     0.6660 H     1 <1>   0.1500 
@<TRIPOS>BOND
  1   1   2  2   
  2   2   3  am  
  3   2   4  1   
  4   3   5  1   
  5   3  30  1   
  6   4   6  1   
  7   4  31  1   
  8   4  32  1   
  9   5   7  1   
 10   5  33  1   
 11   5  34  1   
 12   6   8  1   
 13   6   9  1   
 14   6  35  1   
 15   7  10  1   
 16   7  36  1   
 17   7  37  1   
 18   8  11  1   
 19   8  38  1   
 20   8  39  1   
 21   9  12  1   
 22   9  40  1   
 23   9  41  1   
 24  10  13  ar  
 25  10  14  ar  
 26  11  15  1   
 27  11  42  1   
 28  11  43  1   
 29  12  15  1   
 30  12  44  1   
 31  12  45  1   
 32  13  16  1   
 33  13  17  ar  
 34  14  18  ar  
 35  14  46  1   
 36  15  19  1   
 37  15  47  1   
 38  16  20  1   
 39  17  21  ar  
 40  17  48  1   
 41  18  21  ar  
 42  18  49  1   
 43  19  22  2   
 44  19  23  1   
 45  20  50  1   
 46  20  51  1   
 47  20  52  1   
 48  21  53  1   
 49  22  24  1   
 50  23  25  1   
 51  23  54  1   
 52  24  25  ar  
 53  24  26  ar  
 54  25  27  ar  
 55  26  28  ar  
 56  26  55  1   
 57  27  29  ar  
 58  27  56  1   
 59  28  29  ar  
 60  28  57  1   
 61  29  58  1   
@<TRIPOS>SUBSTRUCTURE
  1 ****   1 GROUP 4 **** **** 0

# MOE 2024.06 (io_trps.svl 2023.06)
