@<TRIPOS>MOLECULE
NONAME
46 49 1 0 0 
SMALL
USER_CHARGES


@<TRIPOS>ATOM
  1 S       -0.0520    -0.7910     1.9610 S.o2  1 <1>   1.5000 
  2 O       -0.5830    -2.0190     2.5190 O.2   1 <1>  -0.6500 
  3 O        0.2470     0.2970     2.8680 O.2   1 <1>  -0.6500 
  4 N       -1.2040    -0.2160     0.8510 N.am  1 <1>  -0.8490 
  5 C        1.4040    -1.2250     0.9470 C.2   1 <1>   0.0780 
  6 C       -0.8670     1.1260     0.3570 C.3   1 <1>   0.1960 
  7 C       -2.5490    -0.2110     1.4390 C.3   1 <1>   0.1960 
  8 O        2.0980    -0.2990     0.2960 O.3   1 <1>  -0.2800 
  9 C        1.9610    -2.4340     0.7020 C.2   1 <1>  -0.1500 
 10 C       -1.8350     1.5270    -0.7550 C.3   1 <1>  -0.1600 
 11 C       -3.5840     0.1490     0.3730 C.3   1 <1>  -0.1600 
 12 C        3.0920    -0.8700    -0.3730 C.2   1 <1>   0.1410 
 13 C        3.0490    -2.2080    -0.1450 C.2   1 <1>  -0.1500 
 14 C       -3.2820     1.5080    -0.2560 C.3   1 <1>   0.4180 
 15 C        3.9980    -0.0760    -1.1760 C.2   1 <1>   0.2880 
 16 O       -3.4370     2.4560     0.7730 O.3   1 <1>  -0.5600 
 17 C       -4.2660     1.7880    -1.3890 C.2   1 <1>  -0.2880 
 18 N        3.8820     1.2130    -1.3960 N.2   1 <1>  -0.7070 
 19 C        5.1260    -0.5820    -1.8310 C.2   1 <1>  -0.1500 
 20 C       -3.6290     3.7910     0.3960 C.3   1 <1>   0.1200 
 21 C       -5.0350     2.8770    -1.4620 C.2   1 <1>  -0.2760 
 22 N        4.9240     1.5370    -2.1800 N.pl3 1 <1>   0.3000 
 23 C        5.6910     0.4680    -2.4580 C.2   1 <1>  -0.3020 
 24 C       -4.9380     3.9460    -0.3890 C.3   1 <1>  -0.0220 
 25 C       -6.0460     3.1470    -2.5630 C.3   1 <1>  -0.1020 
 26 H        0.1330     1.1380    -0.0400 H     1 <1>   0.0800 
 27 H       -0.9140     1.8430     1.1630 H     1 <1>   0.0800 
 28 H       -2.5920     0.4930     2.2550 H     1 <1>   0.0800 
 29 H       -2.7850    -1.1880     1.8250 H     1 <1>   0.0800 
 30 H        1.6410    -3.3910     1.0770 H     1 <1>   0.1500 
 31 H       -1.7290     0.8310    -1.5670 H     1 <1>   0.0800 
 32 H       -1.5820     2.4980    -1.1340 H     1 <1>   0.0800 
 33 H       -4.5670     0.1710     0.8070 H     1 <1>   0.0800 
 34 H       -3.5760    -0.6120    -0.3850 H     1 <1>   0.0800 
 35 H        3.7050    -2.9680    -0.5290 H     1 <1>   0.1500 
 36 H       -4.2830     1.0070    -2.1270 H     1 <1>   0.1500 
 37 H        5.4510    -1.6070    -1.8160 H     1 <1>   0.1500 
 38 H       -2.7920     4.1050    -0.2010 H     1 <1>   0.0800 
 39 H       -3.6560     4.3850     1.2920 H     1 <1>   0.0800 
 40 H        5.0850     2.4980    -2.5070 H     1 <1>   0.2700 
 41 H        6.5730     0.5170    -3.0710 H     1 <1>   0.1500 
 42 H       -4.9550     4.9250    -0.8340 H     1 <1>   0.0800 
 43 H       -5.7750     3.8670     0.2810 H     1 <1>   0.0800 
 44 H       -7.0300     3.2510    -2.1430 H     1 <1>   0.0800 
 45 H       -6.0600     2.3360    -3.2690 H     1 <1>   0.0800 
 46 H       -5.7930     4.0510    -3.0870 H     1 <1>   0.0800 
@<TRIPOS>BOND
  1   1   2  2   
  2   1   3  2   
  3   1   4  am  
  4   1   5  1   
  5   4   6  1   
  6   4   7  1   
  7   5   8  1   
  8   5   9  2   
  9   6  10  1   
 10   6  26  1   
 11   6  27  1   
 12   7  11  1   
 13   7  28  1   
 14   7  29  1   
 15   8  12  1   
 16   9  13  1   
 17   9  30  1   
 18  10  14  1   
 19  10  31  1   
 20  10  32  1   
 21  11  14  1   
 22  11  33  1   
 23  11  34  1   
 24  12  13  2   
 25  12  15  1   
 26  13  35  1   
 27  14  16  1   
 28  14  17  1   
 29  15  18  2   
 30  15  19  1   
 31  16  20  1   
 32  17  21  2   
 33  17  36  1   
 34  18  22  1   
 35  19  23  2   
 36  19  37  1   
 37  20  24  1   
 38  20  38  1   
 39  20  39  1   
 40  21  24  1   
 41  21  25  1   
 42  22  23  1   
 43  22  40  1   
 44  23  41  1   
 45  24  42  1   
 46  24  43  1   
 47  25  44  1   
 48  25  45  1   
 49  25  46  1   
@<TRIPOS>SUBSTRUCTURE
  1 ****   6 GROUP 4 **** **** 0

# MOE 2024.06 (io_trps.svl 2023.06)
