@<TRIPOS>MOLECULE
NONAME
55 57 1 0 0 
SMALL
USER_CHARGES


@<TRIPOS>ATOM
  1 F       -0.6660     0.0590    -0.1560 F     1 <1>  -0.1900 
  2 C       -1.9430     0.3440    -0.1200 C.ar  1 <1>   0.1900 
  3 C       -2.5360     0.9530     0.9910 C.ar  1 <1>   0.0830 
  4 C       -2.6780     0.0140    -1.2420 C.ar  1 <1>  -0.1500 
  5 O       -1.9210     1.3250     2.1510 O.3   1 <1>  -0.3630 
  6 C       -3.8950     1.2160     0.9300 C.ar  1 <1>  -0.1500 
  7 C       -4.0320     0.2920    -1.2700 C.ar  1 <1>  -0.1500 
  8 C       -0.5540     1.0890     2.4070 C.3   1 <1>   0.0400 
  9 C       -4.6710     0.8940    -0.1850 C.ar  1 <1>   0.0530 
 10 C       -6.0810     1.1950    -0.2050 C.2   1 <1>   0.0870 
 11 O       -6.5040     2.3190     0.3170 O.3   1 <1>  -0.0190 
 12 C       -7.1780     0.5440    -0.6840 C.2   1 <1>  -0.0860 
 13 N       -7.7960     2.4760     0.2190 N.2   1 <1>  -0.4100 
 14 C       -8.2270     1.4220    -0.3790 C.2   1 <1>   0.3720 
 15 C       -7.3110    -0.7290    -1.3260 C.2   1 <1>   0.7160 
 16 N       -9.5860     1.2000    -0.6580 N.pl3 1 <1>  -0.8210 
 17 O       -6.4310    -1.5670    -1.2770 O.2   1 <1>  -0.5700 
 18 N       -8.4510    -1.0360    -1.9960 N.am  1 <1>  -0.7300 
 19 C      -10.3440     2.4200    -1.0550 C.3   1 <1>   0.1290 
 20 C      -10.2900     0.4570     0.4260 C.3   1 <1>   0.1290 
 21 C       -8.8980    -2.4020    -2.3160 C.3   1 <1>   0.3200 
 22 C       -9.8930    -2.8380    -1.2620 C.2   1 <1>  -0.0400 
 23 O      -11.0580    -2.2510    -1.1830 O.3   1 <1>  -0.0190 
 24 C       -9.8330    -3.7670    -0.2960 C.2   1 <1>  -0.1500 
 25 N      -11.7760    -2.7300    -0.2100 N.2   1 <1>  -0.4100 
 26 C      -11.0670    -3.6510     0.3400 C.2   1 <1>   0.1080 
 27 C      -11.5180    -4.4880     1.5250 C.3   1 <1>   0.0210 
 28 C      -11.7000    -5.9760     1.1680 C.3   1 <1>  -0.0800 
 29 C      -12.7860    -6.1730     0.1010 C.3   1 <1>  -0.2400 
 30 C      -12.0570    -6.7860     2.4220 C.3   1 <1>  -0.2400 
 31 H       -2.1950    -0.4540    -2.0810 H     1 <1>   0.1500 
 32 H       -4.3630     1.6850     1.7770 H     1 <1>   0.1500 
 33 H       -4.6020     0.0370    -2.1460 H     1 <1>   0.1500 
 34 H       -0.3320     1.4510     3.3940 H     1 <1>   0.0800 
 35 H        0.0350     1.6220     1.6820 H     1 <1>   0.0800 
 36 H       -0.3660     0.0310     2.3550 H     1 <1>   0.0800 
 37 H       -9.2140    -0.3570    -1.8440 H     1 <1>   0.3700 
 38 H       -9.7890     2.9710    -1.7960 H     1 <1>   0.0800 
 39 H      -10.5030     3.0550    -0.2000 H     1 <1>   0.0800 
 40 H      -11.2960     2.1420    -1.4730 H     1 <1>   0.0800 
 41 H       -9.7530    -0.4460     0.6670 H     1 <1>   0.0800 
 42 H      -11.2820     0.1870     0.1070 H     1 <1>   0.0800 
 43 H      -10.3560     1.0670     1.3110 H     1 <1>   0.0800 
 44 H       -8.0590    -3.0760    -2.3300 H     1 <1>   0.0800 
 45 H       -9.3630    -2.4120    -3.2860 H     1 <1>   0.0800 
 46 H       -9.0400    -4.4460    -0.0410 H     1 <1>   0.1500 
 47 H      -12.4440    -4.0900     1.9000 H     1 <1>   0.0800 
 48 H      -10.7830    -4.3910     2.3040 H     1 <1>   0.0800 
 49 H      -10.7690    -6.3530     0.7790 H     1 <1>   0.0800 
 50 H      -13.7310    -5.7890     0.4450 H     1 <1>   0.0800 
 51 H      -12.9030    -7.2180    -0.1270 H     1 <1>   0.0800 
 52 H      -12.5230    -5.6620    -0.8080 H     1 <1>   0.0800 
 53 H      -12.9880    -6.4460     2.8410 H     1 <1>   0.0800 
 54 H      -11.2870    -6.6860     3.1660 H     1 <1>   0.0800 
 55 H      -12.1530    -7.8290     2.1760 H     1 <1>   0.0800 
@<TRIPOS>BOND
  1   1   2  1   
  2   2   3  ar  
  3   2   4  ar  
  4   3   5  1   
  5   3   6  ar  
  6   4   7  ar  
  7   4  31  1   
  8   5   8  1   
  9   6   9  ar  
 10   6  32  1   
 11   7   9  ar  
 12   7  33  1   
 13   8  34  1   
 14   8  35  1   
 15   8  36  1   
 16   9  10  1   
 17  10  11  1   
 18  10  12  2   
 19  11  13  1   
 20  12  14  1   
 21  12  15  1   
 22  13  14  2   
 23  14  16  1   
 24  15  17  2   
 25  15  18  am  
 26  16  19  1   
 27  16  20  1   
 28  18  21  1   
 29  18  37  1   
 30  19  38  1   
 31  19  39  1   
 32  19  40  1   
 33  20  41  1   
 34  20  42  1   
 35  20  43  1   
 36  21  22  1   
 37  21  44  1   
 38  21  45  1   
 39  22  23  1   
 40  22  24  2   
 41  23  25  1   
 42  24  26  1   
 43  24  46  1   
 44  25  26  2   
 45  26  27  1   
 46  27  28  1   
 47  27  47  1   
 48  27  48  1   
 49  28  29  1   
 50  28  30  1   
 51  28  49  1   
 52  29  50  1   
 53  29  51  1   
 54  29  52  1   
 55  30  53  1   
 56  30  54  1   
 57  30  55  1   
@<TRIPOS>SUBSTRUCTURE
  1 ****  15 GROUP 4 **** **** 0

# MOE 2024.06 (io_trps.svl 2023.06)
