@<TRIPOS>MOLECULE
NONAME
56 58 1 0 0 
SMALL
USER_CHARGES


@<TRIPOS>ATOM
  1 O       -0.6050     0.3090     1.3770 O.2   1 <1>  -0.5700 
  2 C       -1.2920     0.7640     0.4950 C.2   1 <1>   0.5690 
  3 N       -2.2240     0.0140    -0.1490 N.am  1 <1>  -0.7300 
  4 C       -1.0910     2.2240     0.0920 C.3   1 <1>  -0.0190 
  5 C       -2.4390    -1.4450     0.0540 C.3   1 <1>   0.1400 
  6 C       -2.3940     3.0430     0.1550 C.3   1 <1>  -0.1600 
  7 C       -0.4230     2.3450    -1.2990 C.3   1 <1>  -0.1600 
  8 C       -3.9050    -1.8730     0.3480 C.3   1 <1>   0.1430 
  9 C       -2.1450     4.5460    -0.0840 C.3   1 <1>   0.2000 
 10 C       -0.6560     3.7070    -1.9840 C.3   1 <1>  -0.1600 
 11 C       -3.8170    -3.3980     0.6260 C.ar  1 <1>  -0.1440 
 12 C       -4.4690    -1.1560     1.6170 C.3   1 <1>  -0.1600 
 13 C       -4.8140    -1.5730    -0.8800 C.3   1 <1>  -0.1600 
 14 O       -3.2830     5.0730    -0.7220 O.3   1 <1>  -0.5600 
 15 C       -0.8930     4.8200    -0.9590 C.3   1 <1>   0.2000 
 16 C       -3.1620    -3.8400     1.7740 C.ar  1 <1>  -0.1500 
 17 C       -4.3370    -4.3710    -0.2280 C.ar  1 <1>  -0.1500 
 18 C       -5.7010    -0.2630     1.3870 C.3   1 <1>  -0.1600 
 19 C       -5.2090    -0.0990    -1.1060 C.3   1 <1>  -0.1600 
 20 C       -4.3430     5.3910     0.1250 C.3   1 <1>   0.0400 
 21 O       -1.0680     6.0030    -1.6460 O.3   1 <1>  -0.6800 
 22 C       -3.0410    -5.1870     2.0670 C.ar  1 <1>  -0.1500 
 23 C       -4.2180    -5.7200     0.0620 C.ar  1 <1>  -0.1500 
 24 C       -5.4860     0.6710     0.1960 C.3   1 <1>  -0.1600 
 25 C       -3.5710    -6.1310     1.2110 C.ar  1 <1>  -0.1500 
 26 H       -2.8320     0.4490    -0.8420 H     1 <1>   0.3700 
 27 H       -0.4160     2.6480     0.8160 H     1 <1>   0.0800 
 28 H       -2.1010    -1.9630    -0.8270 H     1 <1>   0.0800 
 29 H       -1.8100    -1.7700     0.8630 H     1 <1>   0.0800 
 30 H       -2.8550     2.9080     1.1170 H     1 <1>   0.0800 
 31 H       -3.0630     2.6770    -0.6040 H     1 <1>   0.0800 
 32 H        0.6350     2.1830    -1.1770 H     1 <1>   0.0800 
 33 H       -0.7860     1.5730    -1.9550 H     1 <1>   0.0800 
 34 H       -2.0050     5.0540     0.8560 H     1 <1>   0.0800 
 35 H       -1.5240     3.6370    -2.6160 H     1 <1>   0.0800 
 36 H        0.1920     3.9510    -2.6000 H     1 <1>   0.0800 
 37 H       -4.7570    -1.8800     2.3570 H     1 <1>   0.0800 
 38 H       -3.6930    -0.5590     2.0650 H     1 <1>   0.0800 
 39 H       -4.3590    -1.9530    -1.7780 H     1 <1>   0.0800 
 40 H       -5.7360    -2.1100    -0.7380 H     1 <1>   0.0800 
 41 H       -0.0190     4.9250    -0.3390 H     1 <1>   0.0800 
 42 H       -2.7320    -3.1320     2.4610 H     1 <1>   0.1500 
 43 H       -4.8420    -4.1150    -1.1390 H     1 <1>   0.1500 
 44 H       -6.5660    -0.8790     1.2090 H     1 <1>   0.0800 
 45 H       -5.8930     0.3170     2.2730 H     1 <1>   0.0800 
 46 H       -4.4520     0.4120    -1.6720 H     1 <1>   0.0800 
 47 H       -6.1010    -0.0870    -1.7090 H     1 <1>   0.0800 
 48 H       -5.1430     5.7880    -0.4750 H     1 <1>   0.0800 
 49 H       -4.0220     6.1340     0.8340 H     1 <1>   0.0800 
 50 H       -4.6790     4.5030     0.6320 H     1 <1>   0.0800 
 51 H       -2.0390     6.0880    -1.7880 H     1 <1>   0.4000 
 52 H       -2.5320    -5.4980     2.9630 H     1 <1>   0.1500 
 53 H       -4.6310    -6.4510    -0.6110 H     1 <1>   0.1500 
 54 H       -4.6540     1.3100     0.4210 H     1 <1>   0.0800 
 55 H       -6.3500     1.3010     0.0660 H     1 <1>   0.0800 
 56 H       -3.4800    -7.1790     1.4360 H     1 <1>   0.1500 
@<TRIPOS>BOND
  1   1   2  2   
  2   2   3  am  
  3   2   4  1   
  4   3   5  1   
  5   3  26  1   
  6   4   6  1   
  7   4   7  1   
  8   4  27  1   
  9   5   8  1   
 10   5  28  1   
 11   5  29  1   
 12   6   9  1   
 13   6  30  1   
 14   6  31  1   
 15   7  10  1   
 16   7  32  1   
 17   7  33  1   
 18   8  11  1   
 19   8  12  1   
 20   8  13  1   
 21   9  14  1   
 22   9  15  1   
 23   9  34  1   
 24  10  15  1   
 25  10  35  1   
 26  10  36  1   
 27  11  16  ar  
 28  11  17  ar  
 29  12  18  1   
 30  12  37  1   
 31  12  38  1   
 32  13  19  1   
 33  13  39  1   
 34  13  40  1   
 35  14  20  1   
 36  15  21  1   
 37  15  41  1   
 38  16  22  ar  
 39  16  42  1   
 40  17  23  ar  
 41  17  43  1   
 42  18  24  1   
 43  18  44  1   
 44  18  45  1   
 45  19  24  1   
 46  19  46  1   
 47  19  47  1   
 48  20  48  1   
 49  20  49  1   
 50  20  50  1   
 51  21  51  1   
 52  22  25  ar  
 53  22  52  1   
 54  23  25  ar  
 55  23  53  1   
 56  24  54  1   
 57  24  55  1   
 58  25  56  1   
@<TRIPOS>SUBSTRUCTURE
  1 ****   3 GROUP 4 **** **** 0

# MOE 2024.06 (io_trps.svl 2023.06)
