@<TRIPOS>MOLECULE
NONAME
45 46 1 0 0 
SMALL
USER_CHARGES


@<TRIPOS>ATOM
  1 S       -0.4320     0.2420     1.5800 S.o2  1 <1>   1.4470 
  2 O       -0.2320    -0.8590     2.4970 O.2   1 <1>  -0.6500 
  3 O       -0.8380     1.5070     2.1580 O.2   1 <1>  -0.6500 
  4 N       -1.6580    -0.1740     0.4780 N.am  1 <1>  -0.8490 
  5 C        1.0760     0.5130     0.5880 C.ar  1 <1>  -0.0090 
  6 C       -1.3810    -1.1190    -0.6330 C.3   1 <1>   0.1960 
  7 C       -3.0030    -0.2580     1.0430 C.3   1 <1>   0.1960 
  8 C        1.1650     1.4460    -0.4510 C.ar  1 <1>  -0.1440 
  9 C        2.2090    -0.2450     0.8730 C.ar  1 <1>  -0.1500 
 10 C       -1.7960    -2.5940    -0.4020 C.3   1 <1>  -0.1060 
 11 C       -3.3800    -1.6940     1.3980 C.3   1 <1>  -0.1600 
 12 C        2.3450     1.5860    -1.1680 C.ar  1 <1>  -0.1500 
 13 C       -0.0110     2.3360    -0.8370 C.3   1 <1>  -0.0970 
 14 C        3.3840    -0.1040     0.1590 C.ar  1 <1>  -0.1500 
 15 C       -1.8670    -3.2850    -1.7690 C.2   1 <1>   0.9060 
 16 C       -3.2340    -2.5720     0.1590 C.3   1 <1>   0.2000 
 17 C       -0.8070    -3.3820     0.5150 C.3   1 <1>  -0.1600 
 18 C        3.4520     0.8150    -0.8680 C.ar  1 <1>  -0.1500 
 19 O       -1.3360    -2.7580    -2.7540 O.co2 1 <1>  -0.9000 
 20 O       -2.4770    -4.3610    -1.8620 O.co2 1 <1>  -0.9000 
 21 O       -3.6590    -3.8480     0.4670 O.3   1 <1>  -0.6800 
 22 C        0.6370    -3.4670    -0.0110 C.3   1 <1>  -0.1600 
 23 C        1.5330    -4.2200     0.9750 C.3   1 <1>  -0.2400 
 24 H       -1.9480    -0.7610    -1.4760 H     1 <1>   0.0800 
 25 H       -0.3520    -1.0610    -0.9390 H     1 <1>   0.0800 
 26 H       -3.0850     0.3700     1.9150 H     1 <1>   0.0800 
 27 H       -3.7010     0.1130     0.3110 H     1 <1>   0.0800 
 28 H        2.1700    -0.9690     1.6690 H     1 <1>   0.1500 
 29 H       -4.4010    -1.7160     1.7300 H     1 <1>   0.0800 
 30 H       -2.7560    -2.0490     2.1980 H     1 <1>   0.0800 
 31 H        2.4110     2.2980    -1.9720 H     1 <1>   0.1500 
 32 H        0.2770     3.0570    -1.5800 H     1 <1>   0.0800 
 33 H       -0.3740     2.8750     0.0190 H     1 <1>   0.0800 
 34 H       -0.8110     1.7440    -1.2430 H     1 <1>   0.0800 
 35 H        4.2390    -0.7100     0.4010 H     1 <1>   0.1500 
 36 H       -3.8970    -2.2070    -0.6080 H     1 <1>   0.0800 
 37 H       -0.8050    -2.9700     1.5020 H     1 <1>   0.0800 
 38 H       -1.1690    -4.3920     0.6120 H     1 <1>   0.0800 
 39 H        4.3600     0.9300    -1.4330 H     1 <1>   0.1500 
 40 H       -3.3910    -4.4030    -0.3220 H     1 <1>   0.4000 
 41 H        0.6460    -3.9780    -0.9600 H     1 <1>   0.0800 
 42 H        1.0430    -2.4870    -0.1650 H     1 <1>   0.0800 
 43 H        1.1660    -5.2210     1.1190 H     1 <1>   0.0800 
 44 H        1.5480    -3.7150     1.9250 H     1 <1>   0.0800 
 45 H        2.5360    -4.2720     0.5930 H     1 <1>   0.0800 
@<TRIPOS>BOND
  1   1   2  2   
  2   1   3  2   
  3   1   4  am  
  4   1   5  1   
  5   4   6  1   
  6   4   7  1   
  7   5   8  ar  
  8   5   9  ar  
  9   6  10  1   
 10   6  24  1   
 11   6  25  1   
 12   7  11  1   
 13   7  26  1   
 14   7  27  1   
 15   8  12  ar  
 16   8  13  1   
 17   9  14  ar  
 18   9  28  1   
 19  10  15  1   
 20  10  16  1   
 21  10  17  1   
 22  11  16  1   
 23  11  29  1   
 24  11  30  1   
 25  12  18  ar  
 26  12  31  1   
 27  13  32  1   
 28  13  33  1   
 29  13  34  1   
 30  14  18  ar  
 31  14  35  1   
 32  15  19  ar  
 33  15  20  ar  
 34  16  21  1   
 35  16  36  1   
 36  17  22  1   
 37  17  37  1   
 38  17  38  1   
 39  18  39  1   
 40  21  40  1   
 41  22  23  1   
 42  22  41  1   
 43  22  42  1   
 44  23  43  1   
 45  23  44  1   
 46  23  45  1   
@<TRIPOS>SUBSTRUCTURE
  1 ****   6 GROUP 4 **** **** 0

# MOE 2024.06 (io_trps.svl 2023.06)
