@<TRIPOS>MOLECULE
NONAME
55 57 1 0 0 
SMALL
USER_CHARGES


@<TRIPOS>ATOM
  1 O       -0.8840     0.2180    -0.9790 O.2   1 <1>  -0.5700 
  2 C       -1.2190     1.2320    -0.3960 C.2   1 <1>   0.5440 
  3 N       -2.2840     1.1710     0.4810 N.am  1 <1>  -0.6600 
  4 C       -0.5000     2.4580    -0.6640 C.ar  1 <1>   0.0860 
  5 C       -2.8200    -0.1580     0.9050 C.3   1 <1>   0.1400 
  6 C       -3.0330     2.3750     0.9470 C.3   1 <1>   0.1400 
  7 C       -0.2470     2.8430    -1.9800 C.ar  1 <1>   0.1600 
  8 C       -0.0320     3.2910     0.3430 C.ar  1 <1>  -0.1500 
  9 C       -3.8120    -0.7200    -0.1240 C.3   1 <1>   0.1400 
 10 C       -4.5570     2.2380     0.8270 C.3   1 <1>  -0.1600 
 11 N        0.3760     3.9490    -2.3620 N.ar  1 <1>  -0.6200 
 12 C        0.6240     4.4440    -0.0260 C.ar  1 <1>   0.0830 
 13 N       -5.1110     0.0260    -0.1380 N.am  1 <1>  -0.6600 
 14 C       -5.0290     1.4860    -0.4220 C.3   1 <1>   0.1400 
 15 C        0.8000     4.7260    -1.3770 C.ar  1 <1>   0.1600 
 16 O        1.0770     5.2680     0.9370 O.3   1 <1>  -0.5320 
 17 C       -6.3180    -0.5580     0.1940 C.2   1 <1>   0.5440 
 18 O       -7.2360     0.1580     0.5480 O.2   1 <1>  -0.5700 
 19 C       -6.5190    -1.9950     0.1480 C.ar  1 <1>   0.0860 
 20 C       -6.1870    -2.7450    -0.9800 C.ar  1 <1>  -0.1500 
 21 C       -7.0590    -2.6780     1.2360 C.ar  1 <1>  -0.1500 
 22 C       -6.3650    -4.1160    -1.0120 C.ar  1 <1>  -0.1500 
 23 C       -7.2390    -4.0490     1.2090 C.ar  1 <1>  -0.1500 
 24 C       -6.8890    -4.7790     0.0850 C.ar  1 <1>  -0.1430 
 25 C       -7.0860    -6.2860     0.0530 C.3   1 <1>  -0.0170 
 26 C       -8.4760    -6.6350    -0.4910 C.3   1 <1>  -0.1600 
 27 C       -8.7010    -8.1520    -0.5320 C.3   1 <1>  -0.1600 
 28 C      -10.0920    -8.4860    -1.0760 C.3   1 <1>  -0.2400 
 29 H       -3.2910    -0.0840     1.8690 H     1 <1>   0.0800 
 30 H       -1.9980    -0.8470     0.9980 H     1 <1>   0.0800 
 31 H       -2.7370     3.2260     0.3590 H     1 <1>   0.0800 
 32 H       -2.7720     2.5790     1.9720 H     1 <1>   0.0800 
 33 H       -0.5890     2.1850    -2.7620 H     1 <1>   0.1500 
 34 H       -0.1710     3.0460     1.3810 H     1 <1>   0.1500 
 35 H       -3.9820    -1.7510     0.1250 H     1 <1>   0.0800 
 36 H       -3.3690    -0.6920    -1.1040 H     1 <1>   0.0800 
 37 H       -4.9690     3.2300     0.7980 H     1 <1>   0.0800 
 38 H       -4.9610     1.7660     1.7050 H     1 <1>   0.0800 
 39 H       -4.3660     1.6640    -1.2520 H     1 <1>   0.0800 
 40 H       -6.0050     1.8450    -0.7020 H     1 <1>   0.0800 
 41 H        1.3110     5.6280    -1.6590 H     1 <1>   0.1500 
 42 H        1.5640     6.0460     0.6080 H     1 <1>   0.4500 
 43 H       -5.7870    -2.2390    -1.8410 H     1 <1>   0.1500 
 44 H       -7.3410    -2.1160     2.1100 H     1 <1>   0.1500 
 45 H       -6.0970    -4.6670    -1.8970 H     1 <1>   0.1500 
 46 H       -7.6580    -4.5460     2.0670 H     1 <1>   0.1500 
 47 H       -6.9740    -6.6850     1.0460 H     1 <1>   0.0800 
 48 H       -6.3290    -6.7350    -0.5660 H     1 <1>   0.0800 
 49 H       -8.5790    -6.2280    -1.4820 H     1 <1>   0.0800 
 50 H       -9.2240    -6.1760     0.1340 H     1 <1>   0.0800 
 51 H       -8.6030    -8.5600     0.4600 H     1 <1>   0.0800 
 52 H       -7.9560    -8.6130    -1.1590 H     1 <1>   0.0800 
 53 H      -10.8550    -8.0530    -0.4530 H     1 <1>   0.0800 
 54 H      -10.2330    -9.5520    -1.0980 H     1 <1>   0.0800 
 55 H      -10.2060    -8.1070    -2.0770 H     1 <1>   0.0800 
@<TRIPOS>BOND
  1   1   2  2   
  2   2   3  am  
  3   2   4  1   
  4   3   5  1   
  5   3   6  1   
  6   4   7  ar  
  7   4   8  ar  
  8   5   9  1   
  9   5  29  1   
 10   5  30  1   
 11   6  10  1   
 12   6  31  1   
 13   6  32  1   
 14   7  11  ar  
 15   7  33  1   
 16   8  12  ar  
 17   8  34  1   
 18   9  13  1   
 19   9  35  1   
 20   9  36  1   
 21  10  14  1   
 22  10  37  1   
 23  10  38  1   
 24  11  15  ar  
 25  12  15  ar  
 26  12  16  1   
 27  13  14  1   
 28  13  17  am  
 29  14  39  1   
 30  14  40  1   
 31  15  41  1   
 32  16  42  1   
 33  17  18  2   
 34  17  19  1   
 35  19  20  ar  
 36  19  21  ar  
 37  20  22  ar  
 38  20  43  1   
 39  21  23  ar  
 40  21  44  1   
 41  22  24  ar  
 42  22  45  1   
 43  23  24  ar  
 44  23  46  1   
 45  24  25  1   
 46  25  26  1   
 47  25  47  1   
 48  25  48  1   
 49  26  27  1   
 50  26  49  1   
 51  26  50  1   
 52  27  28  1   
 53  27  51  1   
 54  27  52  1   
 55  28  53  1   
 56  28  54  1   
 57  28  55  1   
@<TRIPOS>SUBSTRUCTURE
  1 ****   9 GROUP 4 **** **** 0

# MOE 2024.06 (io_trps.svl 2023.06)
