@<TRIPOS>MOLECULE
NONAME
21 21 1 0 0 
SMALL
USER_CHARGES


@<TRIPOS>ATOM
  1 N        0.1810    -0.2100     0.1420 N.ar  1 <1>  -0.6200 
  2 C        1.3850     0.3340     0.1770 C.ar  1 <1>   0.4760 
  3 C        0.1370    -1.4990    -0.1140 C.ar  1 <1>   0.1600 
  4 N        2.5410    -0.2730    -0.0180 N.ar  1 <1>  -0.6200 
  5 C        1.4330     1.8140     0.4740 C.3   1 <1>  -0.0960 
  6 C        1.2740    -2.2320    -0.3290 C.ar  1 <1>  -0.1430 
  7 C        2.4760    -1.5460    -0.2820 C.ar  1 <1>   0.4100 
  8 C        1.2310    -3.7160    -0.5920 C.3   1 <1>   0.4870 
  9 N        3.6810    -2.1350    -0.4780 N.pl3 1 <1>  -0.9000 
 10 N        2.1220    -4.3770     0.3830 N.4   1 <1>  -0.8530 
 11 H       -0.8410    -1.9540    -0.1430 H     1 <1>   0.1500 
 12 H        0.8590     2.3460    -0.2610 H     1 <1>   0.0800 
 13 H        2.4460     2.1730     0.4530 H     1 <1>   0.0800 
 14 H        1.0160     1.9980     1.4460 H     1 <1>   0.0800 
 15 H        1.5770    -3.9070    -1.5960 H     1 <1>   0.0800 
 16 H        0.2240    -4.0880    -0.4950 H     1 <1>   0.0800 
 17 H        3.9860    -2.0950    -1.4590 H     1 <1>   0.4000 
 18 H        4.4030    -1.5990     0.0250 H     1 <1>   0.4000 
 19 H        3.0230    -3.8660     0.3270 H     1 <1>   0.4500 
 20 H        2.2800    -5.3670     0.1770 H     1 <1>   0.4500 
 21 H        1.7740    -4.2620     1.3390 H     1 <1>   0.4500 
@<TRIPOS>BOND
  1   1   2  ar  
  2   1   3  ar  
  3   2   4  ar  
  4   2   5  1   
  5   3   6  ar  
  6   3  11  1   
  7   4   7  ar  
  8   5  12  1   
  9   5  13  1   
 10   5  14  1   
 11   6   7  ar  
 12   6   8  1   
 13   7   9  1   
 14   8  10  1   
 15   8  15  1   
 16   8  16  1   
 17   9  17  1   
 18   9  18  1   
 19  10  19  1   
 20  10  20  1   
 21  10  21  1   
@<TRIPOS>SUBSTRUCTURE
  1 ****   7 GROUP 4 **** **** 0

# MOE 2024.06 (io_trps.svl 2023.06)
