@<TRIPOS>MOLECULE
NONAME
46 49 1 0 0 
SMALL
USER_CHARGES


@<TRIPOS>ATOM
  1 N        1.0690     0.4850     1.1460 N.ar  1 <1>  -0.6200 
  2 C        0.2370     1.4100     1.6100 C.ar  1 <1>   0.4760 
  3 C        1.5590     0.7570    -0.0400 C.ar  1 <1>   0.1660 
  4 N       -0.1280     2.5430     1.0260 N.ar  1 <1>  -0.6200 
  5 C       -0.3620     1.1370     2.9690 C.3   1 <1>  -0.0960 
  6 C        1.2670     1.8890    -0.7360 C.ar  1 <1>  -0.1440 
  7 C        2.5240    -0.1310    -0.7870 C.3   1 <1>   0.1430 
  8 C        0.3970     2.7810    -0.1590 C.ar  1 <1>   0.1600 
  9 C        1.9940     1.9360    -2.0560 C.3   1 <1>  -0.0160 
 10 C        3.6350    -0.5540     0.1880 C.3   1 <1>   0.3430 
 11 C        1.7890    -1.3710    -1.3370 C.3   1 <1>  -0.1600 
 12 C        3.0320     0.8020    -1.9190 C.3   1 <1>  -0.1600 
 13 N        4.5750    -1.5650    -0.4220 N.4   1 <1>  -0.9590 
 14 C        2.7670    -2.4360    -1.8660 C.3   1 <1>  -0.1600 
 15 C        3.8390    -2.7960    -0.8330 C.3   1 <1>   0.3430 
 16 C        5.7090    -1.8830     0.4930 C.3   1 <1>   0.4860 
 17 C        6.5340    -0.6350     0.7010 C.ar  1 <1>  -0.1440 
 18 C        7.4110    -0.1820    -0.2610 C.ar  1 <1>   0.1600 
 19 C        6.4350     0.1120     1.8550 C.ar  1 <1>   0.1600 
 20 N        8.0920     0.9250    -0.1160 N.ar  1 <1>  -0.6200 
 21 N        7.1070     1.2220     2.0230 N.ar  1 <1>  -0.6200 
 22 C        7.8910     1.5730     1.0180 C.ar  1 <1>   0.7200 
 23 N        8.5670     2.7100     1.1710 N.pl3 1 <1>  -0.9000 
 24 H       -0.8420     0.1770     2.9650 H     1 <1>   0.0800 
 25 H       -1.0880     1.8880     3.2190 H     1 <1>   0.0800 
 26 H        0.4150     1.1420     3.7100 H     1 <1>   0.0800 
 27 H        0.1280     3.6930    -0.6640 H     1 <1>   0.1500 
 28 H        2.4650     2.8910    -2.2180 H     1 <1>   0.0800 
 29 H        1.3030     1.7300    -2.8560 H     1 <1>   0.0800 
 30 H        3.1710    -0.9760     1.0650 H     1 <1>   0.0800 
 31 H        4.1740     0.3280     0.4930 H     1 <1>   0.0800 
 32 H        1.1010    -1.0800    -2.1130 H     1 <1>   0.0800 
 33 H        1.2030    -1.8060    -0.5440 H     1 <1>   0.0800 
 34 H        3.1700     0.2940    -2.8570 H     1 <1>   0.0800 
 35 H        3.9680     1.2490    -1.6310 H     1 <1>   0.0800 
 36 H        4.9650    -1.1340    -1.2700 H     1 <1>   0.4500 
 37 H        3.2390    -2.0960    -2.7710 H     1 <1>   0.0800 
 38 H        2.2120    -3.3250    -2.1150 H     1 <1>   0.0800 
 39 H        3.3670    -3.2460     0.0270 H     1 <1>   0.0800 
 40 H        4.5200    -3.5140    -1.2610 H     1 <1>   0.0800 
 41 H        6.3290    -2.6520     0.0620 H     1 <1>   0.0800 
 42 H        5.3340    -2.2400     1.4390 H     1 <1>   0.0800 
 43 H        7.5610    -0.7300    -1.1770 H     1 <1>   0.1500 
 44 H        5.7870    -0.1940     2.6610 H     1 <1>   0.1500 
 45 H        8.6530     3.0540     2.1240 H     1 <1>   0.4000 
 46 H        9.3730     2.8360     0.5650 H     1 <1>   0.4000 
@<TRIPOS>BOND
  1   1   2  ar  
  2   1   3  ar  
  3   2   4  ar  
  4   2   5  1   
  5   3   6  ar  
  6   3   7  1   
  7   4   8  ar  
  8   5  24  1   
  9   5  25  1   
 10   5  26  1   
 11   6   8  ar  
 12   6   9  1   
 13   7  10  1   
 14   7  11  1   
 15   7  12  1   
 16   8  27  1   
 17   9  12  1   
 18   9  28  1   
 19   9  29  1   
 20  10  13  1   
 21  10  30  1   
 22  10  31  1   
 23  11  14  1   
 24  11  32  1   
 25  11  33  1   
 26  12  34  1   
 27  12  35  1   
 28  13  15  1   
 29  13  16  1   
 30  13  36  1   
 31  14  15  1   
 32  14  37  1   
 33  14  38  1   
 34  15  39  1   
 35  15  40  1   
 36  16  17  1   
 37  16  41  1   
 38  16  42  1   
 39  17  18  ar  
 40  17  19  ar  
 41  18  20  ar  
 42  18  43  1   
 43  19  21  ar  
 44  19  44  1   
 45  20  22  ar  
 46  21  22  ar  
 47  22  23  1   
 48  23  45  1   
 49  23  46  1   
@<TRIPOS>SUBSTRUCTURE
  1 ****  10 GROUP 4 **** **** 0

# MOE 2024.06 (io_trps.svl 2023.06)
