@<TRIPOS>MOLECULE
NONAME
50 52 1 0 0 
SMALL
USER_CHARGES


@<TRIPOS>ATOM
  1 F       -0.9490    -0.8960     2.1410 F     1 <1>  -0.1900 
  2 C       -1.6140    -1.2610     1.0740 C.ar  1 <1>   0.1900 
  3 C       -1.9280    -0.3480     0.0620 C.ar  1 <1>   0.0830 
  4 C       -1.9840    -2.5920     1.0150 C.ar  1 <1>  -0.1500 
  5 O       -1.6150     0.9790     0.0280 O.3   1 <1>  -0.3630 
  6 C       -2.6360    -0.8750    -1.0140 C.ar  1 <1>   0.1900 
  7 C       -2.7040    -3.0940    -0.0700 C.ar  1 <1>   0.0860 
  8 C       -0.8620     1.6320     1.0270 C.3   1 <1>   0.0400 
  9 F       -2.9700    -0.0920    -2.0090 F     1 <1>  -0.1900 
 10 C       -3.0170    -2.2000    -1.0960 C.ar  1 <1>  -0.1500 
 11 C       -3.1000    -4.4890    -0.1230 C.2   1 <1>   0.5440 
 12 O       -2.4100    -5.3450     0.4000 O.2   1 <1>  -0.5700 
 13 N       -4.2720    -4.9020    -0.7190 N.am  1 <1>  -0.6600 
 14 C       -4.4310    -6.3370    -1.0730 C.3   1 <1>   0.1400 
 15 C       -5.5600    -4.2220    -0.4130 C.3   1 <1>   0.1400 
 16 C       -5.0400    -7.0790     0.1380 C.3   1 <1>   0.4230 
 17 C       -6.2020    -4.9340     0.7870 C.3   1 <1>  -0.1600 
 18 N       -5.0540    -8.5940    -0.0060 N.4   1 <1>  -0.9590 
 19 C       -6.4060    -6.4650     0.5720 C.3   1 <1>   0.0000 
 20 C       -5.9850    -9.2880     0.9420 C.3   1 <1>   0.3430 
 21 C       -5.2580    -9.1130    -1.3980 C.3   1 <1>   0.2630 
 22 C       -6.8490    -7.1030     1.9230 C.3   1 <1>  -0.1600 
 23 C       -7.4800    -6.7170    -0.5250 C.3   1 <1>   0.1200 
 24 C       -6.1900    -8.4650     2.2130 C.3   1 <1>  -0.1600 
 25 O       -8.6440    -6.0100    -0.2740 O.3   1 <1>  -0.6800 
 26 H       -1.7090    -3.2510     1.8200 H     1 <1>   0.1500 
 27 H       -0.7440     2.6600     0.7370 H     1 <1>   0.0800 
 28 H        0.1030     1.1620     1.1020 H     1 <1>   0.0800 
 29 H       -1.3930     1.5760     1.9600 H     1 <1>   0.0800 
 30 H       -3.5550    -2.5380    -1.9640 H     1 <1>   0.1500 
 31 H       -5.0540    -6.4130    -1.9450 H     1 <1>   0.0800 
 32 H       -3.4660    -6.7520    -1.3080 H     1 <1>   0.0800 
 33 H       -5.3950    -3.1860    -0.1680 H     1 <1>   0.0800 
 34 H       -6.2090    -4.2590    -1.2720 H     1 <1>   0.0800 
 35 H       -4.3660    -6.8650     0.9520 H     1 <1>   0.0800 
 36 H       -5.5610    -4.7680     1.6360 H     1 <1>   0.0800 
 37 H       -7.1370    -4.4530     1.0140 H     1 <1>   0.0800 
 38 H       -4.1030    -8.8760     0.2790 H     1 <1>   0.4500 
 39 H       -6.9440    -9.4320     0.4720 H     1 <1>   0.0800 
 40 H       -5.5910   -10.2600     1.1960 H     1 <1>   0.0800 
 41 H       -6.2220    -8.8140    -1.7760 H     1 <1>   0.0800 
 42 H       -5.2060   -10.1900    -1.4050 H     1 <1>   0.0800 
 43 H       -4.4940    -8.7360    -2.0590 H     1 <1>   0.0800 
 44 H       -6.6110    -6.4510     2.7470 H     1 <1>   0.0800 
 45 H       -7.9180    -7.2230     1.9410 H     1 <1>   0.0800 
 46 H       -7.7430    -7.7570    -0.5890 H     1 <1>   0.0800 
 47 H       -7.1370    -6.3940    -1.4910 H     1 <1>   0.0800 
 48 H       -6.8100    -9.0170     2.8980 H     1 <1>   0.0800 
 49 H       -5.2380    -8.3220     2.6970 H     1 <1>   0.0800 
 50 H       -9.0870    -6.3030     0.5470 H     1 <1>   0.4000 
@<TRIPOS>BOND
  1   1   2  1   
  2   2   3  ar  
  3   2   4  ar  
  4   3   5  1   
  5   3   6  ar  
  6   4   7  ar  
  7   4  26  1   
  8   5   8  1   
  9   6   9  1   
 10   6  10  ar  
 11   7  10  ar  
 12   7  11  1   
 13   8  27  1   
 14   8  28  1   
 15   8  29  1   
 16  10  30  1   
 17  11  12  2   
 18  11  13  am  
 19  13  14  1   
 20  13  15  1   
 21  14  16  1   
 22  14  31  1   
 23  14  32  1   
 24  15  17  1   
 25  15  33  1   
 26  15  34  1   
 27  16  18  1   
 28  16  19  1   
 29  16  35  1   
 30  17  19  1   
 31  17  36  1   
 32  17  37  1   
 33  18  20  1   
 34  18  21  1   
 35  18  38  1   
 36  19  22  1   
 37  19  23  1   
 38  20  24  1   
 39  20  39  1   
 40  20  40  1   
 41  21  41  1   
 42  21  42  1   
 43  21  43  1   
 44  22  24  1   
 45  22  44  1   
 46  22  45  1   
 47  23  25  1   
 48  23  46  1   
 49  23  47  1   
 50  24  48  1   
 51  24  49  1   
 52  25  50  1   
@<TRIPOS>SUBSTRUCTURE
  1 ****  13 GROUP 4 **** **** 0

# MOE 2024.06 (io_trps.svl 2023.06)
