@<TRIPOS>MOLECULE
NONAME
53 57 1 0 0 
SMALL
USER_CHARGES


@<TRIPOS>ATOM
  1 O        1.4410     0.0320     1.4770 O.3   1 <1>  -0.6800 
  2 C        1.5850    -0.0490     0.0970 C.3   1 <1>   0.2000 
  3 C        2.2920    -1.3480    -0.2940 C.3   1 <1>  -0.0800 
  4 C        2.5700     1.0370    -0.3480 C.3   1 <1>   0.2090 
  5 C        3.7790    -1.0480    -0.0870 C.3   1 <1>   0.2090 
  6 C        1.8190    -2.6260     0.4250 C.3   1 <1>  -0.0170 
  7 N        3.9380     0.4300    -0.2420 N.pl3 1 <1>  -0.8380 
  8 C        2.6480    -3.8250    -0.0080 C.ar  1 <1>  -0.1440 
  9 C        5.1220     1.0690    -0.1590 C.ar  1 <1>   0.4610 
 10 C        3.5900    -4.4000     0.8220 C.ar  1 <1>  -0.1500 
 11 C        2.5060    -4.3980    -1.2570 C.ar  1 <1>  -0.1500 
 12 N        5.1610     2.4020    -0.1860 N.ar  1 <1>  -0.1790 
 13 C        6.3660     0.3970    -0.0410 C.ar  1 <1>  -0.1500 
 14 C        4.3300    -5.4810     0.3730 C.ar  1 <1>   0.1600 
 15 C        3.2980    -5.4780    -1.6080 C.ar  1 <1>   0.1600 
 16 C        6.3150     3.1580    -0.1110 C.ar  1 <1>   0.3610 
 17 C        7.5490     1.0670     0.0380 C.ar  1 <1>  -0.1440 
 18 N        4.2100    -6.0290    -0.8240 N.ar  1 <1>  -0.6200 
 19 C        7.5560     2.4960     0.0030 C.ar  1 <1>   0.0000 
 20 C        6.2540     4.5560    -0.1480 C.ar  1 <1>  -0.1500 
 21 C        8.8590     0.2980     0.1620 C.3   1 <1>  -0.0970 
 22 C        8.7200     3.2820     0.0750 C.ar  1 <1>  -0.1500 
 23 C        7.4130     5.2850    -0.0750 C.ar  1 <1>  -0.1440 
 24 C        8.6330     4.6500     0.0360 C.ar  1 <1>  -0.1440 
 25 C        7.5840     6.7860    -0.0990 C.3   1 <1>  -0.0170 
 26 C        9.7610     5.6520     0.0970 C.3   1 <1>  -0.0170 
 27 C        9.0930     6.9690    -0.3270 C.3   1 <1>  -0.1600 
 28 H        0.7550    -0.5880     1.7960 H     1 <1>   0.4000 
 29 H        0.6150     0.0660    -0.3580 H     1 <1>   0.0800 
 30 H        2.1480    -1.4880    -1.3510 H     1 <1>   0.0800 
 31 H        2.4600     1.9130     0.2680 H     1 <1>   0.0800 
 32 H        2.3770     1.2870    -1.3770 H     1 <1>   0.0800 
 33 H        4.3780    -1.5860    -0.8030 H     1 <1>   0.0800 
 34 H        4.0740    -1.3280     0.9110 H     1 <1>   0.0800 
 35 H        0.7840    -2.8100     0.1980 H     1 <1>   0.0800 
 36 H        1.9050    -2.5100     1.4920 H     1 <1>   0.0800 
 37 H        3.7570    -4.0230     1.8150 H     1 <1>   0.1500 
 38 H        1.7890    -4.0190    -1.9610 H     1 <1>   0.1500 
 39 H        4.2740     2.8830    -0.2510 H     1 <1>   0.4570 
 40 H        6.3550    -0.6760    -0.0160 H     1 <1>   0.1500 
 41 H        5.0580    -5.9190     1.0340 H     1 <1>   0.1500 
 42 H        3.1760    -5.9120    -2.5860 H     1 <1>   0.1500 
 43 H        5.3120     5.0660    -0.2340 H     1 <1>   0.1500 
 44 H        8.6870    -0.7640     0.1760 H     1 <1>   0.0800 
 45 H        9.3630     0.5660     1.0740 H     1 <1>   0.0800 
 46 H        9.5010     0.5210    -0.6720 H     1 <1>   0.0800 
 47 H        9.6870     2.8190     0.1620 H     1 <1>   0.1500 
 48 H        7.0090     7.2460    -0.8840 H     1 <1>   0.0800 
 49 H        7.2970     7.1980     0.8530 H     1 <1>   0.0800 
 50 H       10.1250     5.7220     1.1070 H     1 <1>   0.0800 
 51 H       10.5680     5.3870    -0.5640 H     1 <1>   0.0800 
 52 H        9.2690     7.1230    -1.3780 H     1 <1>   0.0800 
 53 H        9.4830     7.8110     0.2180 H     1 <1>   0.0800 
@<TRIPOS>BOND
  1   1   2  1   
  2   1  28  1   
  3   2   3  1   
  4   2   4  1   
  5   2  29  1   
  6   3   5  1   
  7   3   6  1   
  8   3  30  1   
  9   4   7  1   
 10   4  31  1   
 11   4  32  1   
 12   5   7  1   
 13   5  33  1   
 14   5  34  1   
 15   6   8  1   
 16   6  35  1   
 17   6  36  1   
 18   7   9  1   
 19   8  10  ar  
 20   8  11  ar  
 21   9  12  ar  
 22   9  13  ar  
 23  10  14  ar  
 24  10  37  1   
 25  11  15  ar  
 26  11  38  1   
 27  12  16  ar  
 28  12  39  1   
 29  13  17  ar  
 30  13  40  1   
 31  14  18  ar  
 32  14  41  1   
 33  15  18  ar  
 34  15  42  1   
 35  16  19  ar  
 36  16  20  ar  
 37  17  19  ar  
 38  17  21  1   
 39  19  22  ar  
 40  20  23  ar  
 41  20  43  1   
 42  21  44  1   
 43  21  45  1   
 44  21  46  1   
 45  22  24  ar  
 46  22  47  1   
 47  23  24  ar  
 48  23  25  1   
 49  24  26  1   
 50  25  27  1   
 51  25  48  1   
 52  25  49  1   
 53  26  27  1   
 54  26  50  1   
 55  26  51  1   
 56  27  52  1   
 57  27  53  1   
@<TRIPOS>SUBSTRUCTURE
  1 ****   9 GROUP 4 **** **** 0

# MOE 2024.06 (io_trps.svl 2023.06)
