@<TRIPOS>MOLECULE
NONAME
46 48 1 0 0 
SMALL
USER_CHARGES


@<TRIPOS>ATOM
  1 O       -0.3830     0.2520    -0.1920 O.2   1 <1>  -0.5700 
  2 C       -1.4340     0.8350    -0.0050 C.2   1 <1>   0.5440 
  3 N       -2.5970     0.0970     0.0350 N.am  1 <1>  -0.6600 
  4 C       -1.4320     2.2700     0.1470 C.ar  1 <1>   0.0860 
  5 C       -3.9530     0.6410    -0.2350 C.3   1 <1>   0.1400 
  6 C       -2.5960    -1.3820    -0.1100 C.3   1 <1>   0.1400 
  7 C       -0.6660     3.0650    -0.7010 C.ar  1 <1>   0.1600 
  8 C       -2.1660     2.9320     1.1270 C.ar  1 <1>  -0.1500 
  9 C       -4.7780    -0.5590    -0.6980 C.3   1 <1>   0.2000 
 10 C       -4.0710    -1.7850    -0.1250 C.3   1 <1>  -0.0800 
 11 N       -0.5990     4.3850    -0.6840 N.ar  1 <1>  -0.6200 
 12 C       -2.1040     4.3030     1.1650 C.ar  1 <1>  -0.1500 
 13 O       -6.0800    -0.4960    -0.2250 O.3   1 <1>  -0.6800 
 14 C       -4.3670    -3.0670    -0.9220 C.3   1 <1>  -0.0170 
 15 C       -1.3240     5.0020     0.2450 C.ar  1 <1>   0.4100 
 16 C       -3.7030    -4.2830    -0.2970 C.ar  1 <1>   0.1670 
 17 N       -1.2770     6.3820     0.2740 N.pl3 1 <1>  -0.8380 
 18 N       -2.4360    -4.4900    -0.6160 N.ar  1 <1>  -0.6200 
 19 C       -4.4310    -5.0970     0.5590 C.ar  1 <1>  -0.1500 
 20 C       -2.5240     7.1880     0.3280 C.3   1 <1>   0.1290 
 21 C       -0.0850     7.1000    -0.2570 C.3   1 <1>   0.1290 
 22 C       -1.8690    -5.5490    -0.0600 C.ar  1 <1>   0.1600 
 23 C       -3.8280    -6.1970     1.1310 C.ar  1 <1>  -0.1500 
 24 C       -2.5080    -6.4210     0.8050 C.ar  1 <1>  -0.1500 
 25 H       -4.3570     1.0510     0.6740 H     1 <1>   0.0800 
 26 H       -3.9140     1.3960    -1.0010 H     1 <1>   0.0800 
 27 H       -2.1140    -1.6460    -1.0370 H     1 <1>   0.0800 
 28 H       -2.0640    -1.8470     0.7040 H     1 <1>   0.0800 
 29 H       -0.0720     2.5620    -1.4450 H     1 <1>   0.1500 
 30 H       -2.7530     2.3770     1.8370 H     1 <1>   0.1500 
 31 H       -4.8060    -0.5890    -1.7740 H     1 <1>   0.0800 
 32 H       -4.3700    -1.9260     0.8990 H     1 <1>   0.0800 
 33 H       -2.6430     4.8570     1.9090 H     1 <1>   0.1500 
 34 H       -6.0880    -0.5120     0.7510 H     1 <1>   0.4000 
 35 H       -4.0190    -2.9610    -1.9350 H     1 <1>   0.0800 
 36 H       -5.4300    -3.2230    -0.9610 H     1 <1>   0.0800 
 37 H       -5.4590    -4.8750     0.7780 H     1 <1>   0.1500 
 38 H       -2.5050     7.8250     1.1950 H     1 <1>   0.0800 
 39 H       -3.3880     6.5480     0.3790 H     1 <1>   0.0800 
 40 H       -2.6040     7.7960    -0.5560 H     1 <1>   0.0800 
 41 H        0.0250     8.0490     0.2380 H     1 <1>   0.0800 
 42 H       -0.1980     7.2560    -1.3160 H     1 <1>   0.0800 
 43 H        0.8030     6.5170    -0.0850 H     1 <1>   0.0800 
 44 H       -0.8380    -5.7330    -0.3090 H     1 <1>   0.1500 
 45 H       -4.3630    -6.8510     1.7990 H     1 <1>   0.1500 
 46 H       -1.9770    -7.2600     1.2150 H     1 <1>   0.1500 
@<TRIPOS>BOND
  1   1   2  2   
  2   2   3  am  
  3   2   4  1   
  4   3   5  1   
  5   3   6  1   
  6   4   7  ar  
  7   4   8  ar  
  8   5   9  1   
  9   5  25  1   
 10   5  26  1   
 11   6  10  1   
 12   6  27  1   
 13   6  28  1   
 14   7  11  ar  
 15   7  29  1   
 16   8  12  ar  
 17   8  30  1   
 18   9  10  1   
 19   9  13  1   
 20   9  31  1   
 21  10  14  1   
 22  10  32  1   
 23  11  15  ar  
 24  12  15  ar  
 25  12  33  1   
 26  13  34  1   
 27  14  16  1   
 28  14  35  1   
 29  14  36  1   
 30  15  17  1   
 31  16  18  ar  
 32  16  19  ar  
 33  17  20  1   
 34  17  21  1   
 35  18  22  ar  
 36  19  23  ar  
 37  19  37  1   
 38  20  38  1   
 39  20  39  1   
 40  20  40  1   
 41  21  41  1   
 42  21  42  1   
 43  21  43  1   
 44  22  24  ar  
 45  22  44  1   
 46  23  24  ar  
 47  23  45  1   
 48  24  46  1   
@<TRIPOS>SUBSTRUCTURE
  1 ****   3 GROUP 4 **** **** 0

# MOE 2024.06 (io_trps.svl 2023.06)
