@<TRIPOS>MOLECULE
NONAME
45 47 1 0 0 
SMALL
USER_CHARGES


@<TRIPOS>ATOM
  1 O       -0.3000     0.4000     0.6400 O.2   1 <1>  -0.5700 
  2 C       -1.3760     0.9560     0.5200 C.2   1 <1>   0.5440 
  3 N       -2.4950     0.1850     0.3000 N.am  1 <1>  -0.6600 
  4 C       -1.4490     2.4030     0.5890 C.ar  1 <1>   0.0860 
  5 C       -3.7740     0.6890    -0.2610 C.3   1 <1>   0.1400 
  6 C       -2.4300    -1.2940     0.2070 C.3   1 <1>   0.1400 
  7 C       -0.5920     3.1920    -0.1730 C.ar  1 <1>  -0.1500 
  8 C       -2.3670     3.0540     1.4120 C.ar  1 <1>  -0.1500 
  9 C       -4.4660    -0.5480    -0.8340 C.3   1 <1>   0.2000 
 10 C       -3.8630    -1.7380    -0.0910 C.3   1 <1>  -0.0800 
 11 C       -0.6570     4.5800    -0.1390 C.ar  1 <1>   0.0830 
 12 C       -2.4440     4.4330     1.4530 C.ar  1 <1>  -0.1500 
 13 O       -5.8370    -0.5090    -0.6300 O.3   1 <1>  -0.6800 
 14 C       -3.9660    -3.0490    -0.8900 C.3   1 <1>  -0.0170 
 15 O        0.1660     5.3730    -0.8740 O.3   1 <1>  -0.3630 
 16 C       -1.5950     5.2050     0.6780 C.ar  1 <1>  -0.1430 
 17 C       -3.4070    -4.2280    -0.1100 C.ar  1 <1>   0.1670 
 18 C        1.2290     4.8370    -1.6310 C.3   1 <1>   0.0400 
 19 C       -1.6890     6.7230     0.7300 C.3   1 <1>  -0.0970 
 20 N       -2.0980    -4.4070    -0.1660 N.ar  1 <1>  -0.6200 
 21 C       -4.2650    -5.0510     0.6180 C.ar  1 <1>   0.1600 
 22 C       -1.7070    -5.4490     0.5480 C.ar  1 <1>   0.1600 
 23 N       -3.8770    -6.0930     1.3340 N.ar  1 <1>  -0.6200 
 24 C       -2.5670    -6.2640     1.2730 C.ar  1 <1>   0.1600 
 25 H       -4.3610     1.1230     0.5290 H     1 <1>   0.0800 
 26 H       -3.5890     1.4160    -1.0320 H     1 <1>   0.0800 
 27 H       -1.7640    -1.5670    -0.5950 H     1 <1>   0.0800 
 28 H       -2.0630    -1.7200     1.1260 H     1 <1>   0.0800 
 29 H        0.1240     2.6830    -0.7900 H     1 <1>   0.1500 
 30 H       -3.0230     2.4660     2.0300 H     1 <1>   0.1500 
 31 H       -4.2800    -0.6110    -1.8930 H     1 <1>   0.0800 
 32 H       -4.3600    -1.8570     0.8560 H     1 <1>   0.0800 
 33 H       -3.1660     4.9050     2.0960 H     1 <1>   0.1500 
 34 H       -6.0380    -0.4460     0.3240 H     1 <1>   0.4000 
 35 H       -3.4290    -2.9570    -1.8180 H     1 <1>   0.0800 
 36 H       -4.9970    -3.2350    -1.1310 H     1 <1>   0.0800 
 37 H        1.7680     5.6540    -2.0760 H     1 <1>   0.0800 
 38 H        0.8260     4.2030    -2.4000 H     1 <1>   0.0800 
 39 H        1.8800     4.2840    -0.9750 H     1 <1>   0.0800 
 40 H       -2.4680     7.0440     1.3980 H     1 <1>   0.0800 
 41 H       -1.8980     7.1090    -0.2520 H     1 <1>   0.0800 
 42 H       -0.7550     7.1330     1.0690 H     1 <1>   0.0800 
 43 H       -5.3190    -4.8370     0.6100 H     1 <1>   0.1500 
 44 H       -0.6540    -5.6690     0.5600 H     1 <1>   0.1500 
 45 H       -2.1530    -7.0900     1.8250 H     1 <1>   0.1500 
@<TRIPOS>BOND
  1   1   2  2   
  2   2   3  am  
  3   2   4  1   
  4   3   5  1   
  5   3   6  1   
  6   4   7  ar  
  7   4   8  ar  
  8   5   9  1   
  9   5  25  1   
 10   5  26  1   
 11   6  10  1   
 12   6  27  1   
 13   6  28  1   
 14   7  11  ar  
 15   7  29  1   
 16   8  12  ar  
 17   8  30  1   
 18   9  10  1   
 19   9  13  1   
 20   9  31  1   
 21  10  14  1   
 22  10  32  1   
 23  11  15  1   
 24  11  16  ar  
 25  12  16  ar  
 26  12  33  1   
 27  13  34  1   
 28  14  17  1   
 29  14  35  1   
 30  14  36  1   
 31  15  18  1   
 32  16  19  1   
 33  17  20  ar  
 34  17  21  ar  
 35  18  37  1   
 36  18  38  1   
 37  18  39  1   
 38  19  40  1   
 39  19  41  1   
 40  19  42  1   
 41  20  22  ar  
 42  21  23  ar  
 43  21  43  1   
 44  22  24  ar  
 45  22  44  1   
 46  23  24  ar  
 47  24  45  1   
@<TRIPOS>SUBSTRUCTURE
  1 ****   3 GROUP 4 **** **** 0

# MOE 2024.06 (io_trps.svl 2023.06)
