@<TRIPOS>MOLECULE
NONAME
58 61 1 0 0 
SMALL
USER_CHARGES


@<TRIPOS>ATOM
  1 S       -1.0090    -1.0550     0.1470 S.o2  1 <1>   1.2040 
  2 O       -0.3990    -2.3590     0.2650 O.2   1 <1>  -0.6500 
  3 O       -2.1600    -0.9340    -0.7280 O.2   1 <1>  -0.6500 
  4 C        0.2220     0.2170    -0.2160 C.ar  1 <1>  -0.0090 
  5 C       -1.5680    -0.6390     1.8030 C.3   1 <1>   0.0890 
  6 C        1.5550     0.0410     0.1340 C.ar  1 <1>  -0.1500 
  7 C       -0.1420     1.4150    -0.8190 C.ar  1 <1>  -0.1500 
  8 C       -2.5930     0.4930     1.8500 C.ar  1 <1>  -0.1440 
  9 C        2.4940     1.0300    -0.1030 C.ar  1 <1>  -0.1500 
 10 C        0.7900     2.4090    -1.0600 C.ar  1 <1>  -0.1500 
 11 C       -3.9780     0.2900     1.8470 C.ar  1 <1>  -0.1440 
 12 C       -2.0910     1.7850     1.9110 C.ar  1 <1>  -0.1500 
 13 C        2.1110     2.2170    -0.7000 C.ar  1 <1>  -0.1500 
 14 C       -4.8150     1.3970     1.9350 C.ar  1 <1>  -0.1500 
 15 C       -4.6490    -1.0820     1.7980 C.3   1 <1>   0.4860 
 16 C       -2.9370     2.8740     1.9740 C.ar  1 <1>  -0.1500 
 17 C       -4.3030     2.6790     1.9900 C.ar  1 <1>  -0.1500 
 18 N       -4.5100    -1.7230     0.4530 N.4   1 <1>  -0.9590 
 19 C       -5.6810    -1.6960    -0.4690 C.3   1 <1>   0.4230 
 20 C       -3.9930    -3.1230     0.5630 C.3   1 <1>   0.2630 
 21 C       -6.9610    -2.3080     0.0980 C.3   1 <1>  -0.1600 
 22 C       -6.0960    -0.3030    -0.9190 C.3   1 <1>  -0.1600 
 23 C       -8.0620    -1.8020    -0.8460 C.3   1 <1>  -0.0800 
 24 C       -7.5210    -0.4870    -1.4630 C.3   1 <1>  -0.0800 
 25 C       -9.4500    -1.7110    -0.1730 C.3   1 <1>   0.1400 
 26 C       -8.4240     0.7420    -1.2340 C.3   1 <1>  -0.0990 
 27 N      -10.3120    -0.7880    -0.9350 N.am  1 <1>  -0.7300 
 28 C       -9.8790     0.3820    -1.4480 C.2   1 <1>   0.5690 
 29 O      -10.6170     1.1210    -2.0450 O.2   1 <1>  -0.5700 
 30 H       -1.9940    -1.5100     2.2570 H     1 <1>   0.0800 
 31 H       -0.7200    -0.3730     2.4060 H     1 <1>   0.0800 
 32 H        1.8720    -0.8810     0.5930 H     1 <1>   0.1500 
 33 H       -1.1670     1.5810    -1.1080 H     1 <1>   0.1500 
 34 H        3.5240     0.8760     0.1730 H     1 <1>   0.1500 
 35 H        0.4910     3.3310    -1.5300 H     1 <1>   0.1500 
 36 H       -1.0280     1.9680     1.9150 H     1 <1>   0.1500 
 37 H        2.8390     2.9880    -0.8870 H     1 <1>   0.1500 
 38 H       -5.8850     1.2820     1.9700 H     1 <1>   0.1500 
 39 H       -5.6890    -0.9760     2.0530 H     1 <1>   0.0800 
 40 H       -4.1970    -1.7080     2.5490 H     1 <1>   0.0800 
 41 H       -2.5340     3.8720     2.0190 H     1 <1>   0.1500 
 42 H       -4.9640     3.5270     2.0510 H     1 <1>   0.1500 
 43 H       -3.7750    -1.1800    -0.0490 H     1 <1>   0.4500 
 44 H       -5.4260    -2.2470    -1.3620 H     1 <1>   0.0800 
 45 H       -4.7140    -3.7550     1.0550 H     1 <1>   0.0800 
 46 H       -3.0720    -3.1450     1.1220 H     1 <1>   0.0800 
 47 H       -3.7950    -3.5220    -0.4190 H     1 <1>   0.0800 
 48 H       -6.9240    -3.3830     0.1020 H     1 <1>   0.0800 
 49 H       -7.1530    -1.9460     1.0900 H     1 <1>   0.0800 
 50 H       -6.1210     0.3720    -0.0910 H     1 <1>   0.0800 
 51 H       -5.4340     0.0810    -1.6760 H     1 <1>   0.0800 
 52 H       -8.1550    -2.5120    -1.6520 H     1 <1>   0.0800 
 53 H       -7.4600    -0.6410    -2.5290 H     1 <1>   0.0800 
 54 H       -9.3620    -1.3350     0.8320 H     1 <1>   0.0800 
 55 H       -9.9070    -2.6860    -0.1330 H     1 <1>   0.0800 
 56 H       -8.1520     1.5350    -1.9080 H     1 <1>   0.0800 
 57 H       -8.3290     1.1070    -0.2290 H     1 <1>   0.0800 
 58 H      -11.3050    -1.0110    -1.0480 H     1 <1>   0.3700 
@<TRIPOS>BOND
  1   1   2  2   
  2   1   3  2   
  3   1   4  1   
  4   1   5  1   
  5   4   6  ar  
  6   4   7  ar  
  7   5   8  1   
  8   5  30  1   
  9   5  31  1   
 10   6   9  ar  
 11   6  32  1   
 12   7  10  ar  
 13   7  33  1   
 14   8  11  ar  
 15   8  12  ar  
 16   9  13  ar  
 17   9  34  1   
 18  10  13  ar  
 19  10  35  1   
 20  11  14  ar  
 21  11  15  1   
 22  12  16  ar  
 23  12  36  1   
 24  13  37  1   
 25  14  17  ar  
 26  14  38  1   
 27  15  18  1   
 28  15  39  1   
 29  15  40  1   
 30  16  17  ar  
 31  16  41  1   
 32  17  42  1   
 33  18  19  1   
 34  18  20  1   
 35  18  43  1   
 36  19  21  1   
 37  19  22  1   
 38  19  44  1   
 39  20  45  1   
 40  20  46  1   
 41  20  47  1   
 42  21  23  1   
 43  21  48  1   
 44  21  49  1   
 45  22  24  1   
 46  22  50  1   
 47  22  51  1   
 48  23  24  1   
 49  23  25  1   
 50  23  52  1   
 51  24  26  1   
 52  24  53  1   
 53  25  27  1   
 54  25  54  1   
 55  25  55  1   
 56  26  28  1   
 57  26  56  1   
 58  26  57  1   
 59  27  28  am  
 60  27  58  1   
 61  28  29  2   
@<TRIPOS>SUBSTRUCTURE
  1 ****  11 GROUP 4 **** **** 0

# MOE 2024.06 (io_trps.svl 2023.06)
