@<TRIPOS>MOLECULE
NONAME
61 64 1 0 0 
SMALL
USER_CHARGES


@<TRIPOS>ATOM
  1 O        0.8200    -1.8870    -1.7780 O.3   1 <1>  -0.6800 
  2 C        0.2500    -2.1380    -0.5380 C.3   1 <1>   0.1200 
  3 C        1.2530    -1.8700     0.6230 C.3   1 <1>   0.0000 
  4 C        2.6500    -2.5240     0.4110 C.3   1 <1>   0.4230 
  5 C        1.4370    -0.3380     0.8000 C.3   1 <1>  -0.1600 
  6 C        0.6390    -2.4380     1.9340 C.3   1 <1>  -0.1600 
  7 N        2.5900    -4.0450     0.2630 N.4   1 <1>  -0.9590 
  8 C        3.5040    -1.7730    -0.6630 C.3   1 <1>   0.3430 
  9 C        2.2160     0.3350    -0.3340 C.3   1 <1>   0.3430 
 10 C        1.1490    -3.8480     2.3020 C.3   1 <1>  -0.1600 
 11 C        1.5020    -4.6930     1.0770 C.3   1 <1>   0.3430 
 12 C        2.4930    -4.5470    -1.1510 C.3   1 <1>   0.2630 
 13 N        3.5790    -0.2780    -0.4520 N.4   1 <1>  -0.9590 
 14 C        4.3610     0.3890    -1.5420 C.3   1 <1>   0.4860 
 15 C        4.6060     1.8270    -1.1580 C.ar  1 <1>  -0.1440 
 16 C        3.8820     2.8560    -1.7140 C.ar  1 <1>   0.1600 
 17 C        5.5540     2.1730    -0.2240 C.ar  1 <1>   0.1600 
 18 N        4.0460     4.0980    -1.3450 N.ar  1 <1>  -0.6200 
 19 N        5.7330     3.4070     0.1590 N.ar  1 <1>  -0.6200 
 20 C        4.9670     4.3380    -0.4110 C.ar  1 <1>   0.7200 
 21 N        5.1390     5.6440    -0.0030 N.pl3 1 <1>  -0.8380 
 22 C        4.2500     6.7570    -0.4490 C.3   1 <1>   0.2090 
 23 C        6.3250     6.0980     0.7820 C.3   1 <1>   0.2090 
 24 C        3.7760     7.5590     0.7680 C.3   1 <1>  -0.1600 
 25 C        5.8600     6.8870     2.0090 C.3   1 <1>  -0.1600 
 26 C        4.9510     8.0600     1.6190 C.3   1 <1>  -0.1600 
 27 H        0.1270    -1.9180    -2.4800 H     1 <1>   0.4000 
 28 H       -0.6180    -1.5050    -0.4370 H     1 <1>   0.0800 
 29 H       -0.0890    -3.1590    -0.5380 H     1 <1>   0.0800 
 30 H        3.1700    -2.3480     1.3380 H     1 <1>   0.0800 
 31 H        1.9490    -0.1210     1.7220 H     1 <1>   0.0800 
 32 H        0.4710     0.1340     0.8700 H     1 <1>   0.0800 
 33 H        0.8540    -1.7960     2.7730 H     1 <1>   0.0800 
 34 H       -0.4360    -2.4610     1.8530 H     1 <1>   0.0800 
 35 H        3.4690    -4.4200     0.6530 H     1 <1>   0.4500 
 36 H        3.0770    -1.9610    -1.6340 H     1 <1>   0.0800 
 37 H        4.5010    -2.1800    -0.6540 H     1 <1>   0.0800 
 38 H        2.3010     1.3910    -0.1230 H     1 <1>   0.0800 
 39 H        1.6770     0.2250    -1.2620 H     1 <1>   0.0800 
 40 H        0.3900    -4.3570     2.8720 H     1 <1>   0.0800 
 41 H        2.0150    -3.7750     2.9380 H     1 <1>   0.0800 
 42 H        0.6150    -4.8090     0.4760 H     1 <1>   0.0800 
 43 H        1.8140    -5.6770     1.3910 H     1 <1>   0.0800 
 44 H        1.5920    -4.1870    -1.6210 H     1 <1>   0.0800 
 45 H        2.4720    -5.6260    -1.1630 H     1 <1>   0.0800 
 46 H        3.3390    -4.2230    -1.7330 H     1 <1>   0.0800 
 47 H        4.0730    -0.0640     0.4270 H     1 <1>   0.4500 
 48 H        5.3110    -0.1050    -1.6770 H     1 <1>   0.0800 
 49 H        3.8200     0.3430    -2.4740 H     1 <1>   0.0800 
 50 H        3.1420     2.6700    -2.4750 H     1 <1>   0.1500 
 51 H        6.1840     1.4290     0.2340 H     1 <1>   0.1500 
 52 H        4.8020     7.3970    -1.1160 H     1 <1>   0.0800 
 53 H        3.3890     6.3910    -0.9780 H     1 <1>   0.0800 
 54 H        6.9330     5.2710     1.1030 H     1 <1>   0.0800 
 55 H        6.9340     6.7280     0.1560 H     1 <1>   0.0800 
 56 H        3.1890     8.3950     0.4340 H     1 <1>   0.0800 
 57 H        3.1400     6.9290     1.3650 H     1 <1>   0.0800 
 58 H        5.3310     6.2180     2.6650 H     1 <1>   0.0800 
 59 H        6.7200     7.2560     2.5390 H     1 <1>   0.0800 
 60 H        4.5790     8.5450     2.5060 H     1 <1>   0.0800 
 61 H        5.5180     8.7810     1.0560 H     1 <1>   0.0800 
@<TRIPOS>BOND
  1   1   2  1   
  2   1  27  1   
  3   2   3  1   
  4   2  28  1   
  5   2  29  1   
  6   3   4  1   
  7   3   5  1   
  8   3   6  1   
  9   4   7  1   
 10   4   8  1   
 11   4  30  1   
 12   5   9  1   
 13   5  31  1   
 14   5  32  1   
 15   6  10  1   
 16   6  33  1   
 17   6  34  1   
 18   7  11  1   
 19   7  12  1   
 20   7  35  1   
 21   8  13  1   
 22   8  36  1   
 23   8  37  1   
 24   9  13  1   
 25   9  38  1   
 26   9  39  1   
 27  10  11  1   
 28  10  40  1   
 29  10  41  1   
 30  11  42  1   
 31  11  43  1   
 32  12  44  1   
 33  12  45  1   
 34  12  46  1   
 35  13  14  1   
 36  13  47  1   
 37  14  15  1   
 38  14  48  1   
 39  14  49  1   
 40  15  16  ar  
 41  15  17  ar  
 42  16  18  ar  
 43  16  50  1   
 44  17  19  ar  
 45  17  51  1   
 46  18  20  ar  
 47  19  20  ar  
 48  20  21  1   
 49  21  22  1   
 50  21  23  1   
 51  22  24  1   
 52  22  52  1   
 53  22  53  1   
 54  23  25  1   
 55  23  54  1   
 56  23  55  1   
 57  24  26  1   
 58  24  56  1   
 59  24  57  1   
 60  25  26  1   
 61  25  58  1   
 62  25  59  1   
 63  26  60  1   
 64  26  61  1   
@<TRIPOS>SUBSTRUCTURE
  1 ****   9 GROUP 4 **** **** 0

# MOE 2024.06 (io_trps.svl 2023.06)
