@<TRIPOS>MOLECULE
NONAME
49 51 1 0 0 
SMALL
USER_CHARGES


@<TRIPOS>ATOM
  1 S       -1.4850    -1.4950     1.5900 S.3   1 <1>  -0.3320 
  2 C       -1.9760     0.1600     1.1220 C.ar  1 <1>   0.4120 
  3 C       -0.0360    -1.9420     0.4990 C.3   1 <1>   0.1310 
  4 N       -1.6980     0.5280    -0.1180 N.ar  1 <1>  -0.6200 
  5 C       -2.6370     0.9220     2.0700 C.ar  1 <1>  -0.1500 
  6 C       -0.3370    -3.2720    -0.1760 C.2   1 <1>   0.5690 
  7 C       -2.0830     1.7620    -0.4170 C.ar  1 <1>   0.1600 
  8 C       -3.0410     2.1940     1.7310 C.ar  1 <1>  -0.1500 
  9 O        0.1510    -4.2640     0.3070 O.2   1 <1>  -0.5700 
 10 N       -1.2140    -3.3640    -1.2310 N.am  1 <1>  -0.6600 
 11 C       -2.7460     2.6160     0.4500 C.ar  1 <1>  -0.1500 
 12 C       -1.8620    -2.2040    -1.9180 C.3   1 <1>   0.1400 
 13 C       -1.9720    -4.6330    -1.4560 C.3   1 <1>   0.1400 
 14 C       -3.3140    -1.9910    -1.4090 C.3   1 <1>   0.4230 
 15 C       -3.4470    -4.4720    -1.0120 C.3   1 <1>   0.3430 
 16 N       -3.7490    -3.0930    -0.4610 N.4   1 <1>  -0.9590 
 17 C       -4.3090    -1.8480    -2.5820 C.3   1 <1>   0.1200 
 18 C       -5.1660    -2.8610    -0.0340 C.3   1 <1>   0.4230 
 19 O       -5.6140    -1.6750    -2.1050 O.3   1 <1>  -0.5600 
 20 C       -6.0920    -2.6900    -1.2640 C.3   1 <1>   0.1200 
 21 C       -5.6300    -3.9720     0.9220 C.3   1 <1>  -0.1600 
 22 C       -6.9240    -3.6040     1.6640 C.3   1 <1>  -0.1600 
 23 C       -7.3040    -4.6950     2.6680 C.3   1 <1>  -0.2400 
 24 H        0.1470    -1.1570    -0.2080 H     1 <1>   0.0800 
 25 H        0.8170    -2.0410     1.1450 H     1 <1>   0.0800 
 26 H       -2.8210     0.5240     3.0510 H     1 <1>   0.1500 
 27 H       -1.8600     2.1200    -1.4090 H     1 <1>   0.1500 
 28 H       -3.5550     2.8320     2.4320 H     1 <1>   0.1500 
 29 H       -3.0270     3.6030     0.1270 H     1 <1>   0.1500 
 30 H       -1.2880    -1.3070    -1.7900 H     1 <1>   0.0800 
 31 H       -1.8730    -2.4000    -2.9770 H     1 <1>   0.0800 
 32 H       -1.9310    -4.8930    -2.5000 H     1 <1>   0.0800 
 33 H       -1.5260    -5.4490    -0.9120 H     1 <1>   0.0800 
 34 H       -3.3330    -1.0550    -0.8770 H     1 <1>   0.0800 
 35 H       -3.6550    -5.2160    -0.2620 H     1 <1>   0.0800 
 36 H       -4.0860    -4.6770    -1.8550 H     1 <1>   0.0800 
 37 H       -3.1410    -2.9810     0.3650 H     1 <1>   0.4500 
 38 H       -4.2890    -2.7120    -3.2220 H     1 <1>   0.0800 
 39 H       -4.0640    -0.9800    -3.1700 H     1 <1>   0.0800 
 40 H       -5.2020    -1.9330     0.5140 H     1 <1>   0.0800 
 41 H       -7.0790    -2.4010    -0.9500 H     1 <1>   0.0800 
 42 H       -6.1680    -3.6020    -1.8280 H     1 <1>   0.0800 
 43 H       -5.7930    -4.8870     0.3800 H     1 <1>   0.0800 
 44 H       -4.8620    -4.1400     1.6580 H     1 <1>   0.0800 
 45 H       -6.7930    -2.6740     2.1950 H     1 <1>   0.0800 
 46 H       -7.7380    -3.4800     0.9700 H     1 <1>   0.0800 
 47 H       -6.5300    -4.8250     3.4040 H     1 <1>   0.0800 
 48 H       -7.4690    -5.6340     2.1690 H     1 <1>   0.0800 
 49 H       -8.2120    -4.4220     3.1800 H     1 <1>   0.0800 
@<TRIPOS>BOND
  1   1   2  1   
  2   1   3  1   
  3   2   4  ar  
  4   2   5  ar  
  5   3   6  1   
  6   3  24  1   
  7   3  25  1   
  8   4   7  ar  
  9   5   8  ar  
 10   5  26  1   
 11   6   9  2   
 12   6  10  am  
 13   7  11  ar  
 14   7  27  1   
 15   8  11  ar  
 16   8  28  1   
 17  10  12  1   
 18  10  13  1   
 19  11  29  1   
 20  12  14  1   
 21  12  30  1   
 22  12  31  1   
 23  13  15  1   
 24  13  32  1   
 25  13  33  1   
 26  14  16  1   
 27  14  17  1   
 28  14  34  1   
 29  15  16  1   
 30  15  35  1   
 31  15  36  1   
 32  16  18  1   
 33  16  37  1   
 34  17  19  1   
 35  17  38  1   
 36  17  39  1   
 37  18  20  1   
 38  18  21  1   
 39  18  40  1   
 40  19  20  1   
 41  20  41  1   
 42  20  42  1   
 43  21  22  1   
 44  21  43  1   
 45  21  44  1   
 46  22  23  1   
 47  22  45  1   
 48  22  46  1   
 49  23  47  1   
 50  23  48  1   
 51  23  49  1   
@<TRIPOS>SUBSTRUCTURE
  1 ****  14 GROUP 4 **** **** 0

# MOE 2024.06 (io_trps.svl 2023.06)
