@<TRIPOS>MOLECULE
NONAME
58 60 1 0 0 
SMALL
USER_CHARGES


@<TRIPOS>ATOM
  1 O        1.3770     1.6930     1.4800 O.2   1 <1>  -0.5700 
  2 C        2.0130     0.7770     1.0210 C.2   1 <1>   0.5690 
  3 N        2.1680     0.6770    -0.3470 N.am  1 <1>  -0.6600 
  4 C        2.6550    -0.1790     2.0210 C.3   1 <1>   0.1570 
  5 C        3.2300    -0.1460    -1.0290 C.3   1 <1>   0.1400 
  6 C        1.1900     1.3490    -1.2620 C.3   1 <1>   0.1400 
  7 N        2.5280    -1.5920     1.6010 N.pl3 1 <1>   0.0480 
  8 C        4.0270     0.6930    -2.0450 C.3   1 <1>   0.3430 
  9 C        1.6340     2.7800    -1.6200 C.3   1 <1>  -0.1600 
 10 C        3.5050    -2.5260     1.4950 C.2   1 <1>   0.0060 
 11 C        1.4210    -2.2030     1.1380 C.2   1 <1>  -0.3020 
 12 N        3.9850     2.1270    -1.6240 N.4   1 <1>  -0.9590 
 13 C        2.9710     2.9060    -2.3610 C.3   1 <1>   0.3430 
 14 N        3.1020    -3.6410     0.9840 N.2   1 <1>  -0.5650 
 15 C        4.9400    -2.3040     1.9260 C.3   1 <1>  -0.0600 
 16 C        1.7890    -3.4470     0.7690 C.2   1 <1>   0.0770 
 17 C        5.3140     2.7460    -1.4330 C.3   1 <1>   0.5240 
 18 C        5.9350     1.9940    -0.2770 C.2   1 <1>  -0.1810 
 19 C        5.5590     2.1090     1.0590 C.2   1 <1>   0.1080 
 20 C        6.9190     1.0640    -0.2830 C.2   1 <1>  -0.3320 
 21 N        6.2150     1.2920     1.8130 N.2   1 <1>  -0.7070 
 22 C        4.5390     3.0620     1.6540 C.3   1 <1>  -0.0590 
 23 N        7.0820     0.6640     1.0000 N.pl3 1 <1>   0.3140 
 24 C        7.7460     0.5270    -1.4450 C.3   1 <1>  -0.0600 
 25 C        8.0800    -0.2760     1.5430 C.3   1 <1>   0.0960 
 26 C        9.3280     0.4960     1.9650 C.3   1 <1>   0.1200 
 27 O       10.2880    -0.4050     2.3990 O.3   1 <1>  -0.6800 
 28 H        2.1710    -0.0670     2.9730 H     1 <1>   0.0800 
 29 H        3.6900     0.0750     2.1370 H     1 <1>   0.0800 
 30 H        2.7860    -1.0000    -1.5120 H     1 <1>   0.0800 
 31 H        3.9330    -0.5140    -0.3050 H     1 <1>   0.0800 
 32 H        0.2300     1.3960    -0.7710 H     1 <1>   0.0800 
 33 H        1.0600     0.7600    -2.1550 H     1 <1>   0.0800 
 34 H        3.5950     0.5790    -3.0250 H     1 <1>   0.0800 
 35 H        5.0420     0.3300    -2.0830 H     1 <1>   0.0800 
 36 H        1.6680     3.3670    -0.7180 H     1 <1>   0.0800 
 37 H        0.8710     3.2210    -2.2360 H     1 <1>   0.0800 
 38 H        0.4530    -1.7360     1.0960 H     1 <1>   0.1500 
 39 H        3.5930     2.0550    -0.6700 H     1 <1>   0.4500 
 40 H        3.2520     3.9460    -2.4040 H     1 <1>   0.0800 
 41 H        2.8770     2.5360    -3.3700 H     1 <1>   0.0800 
 42 H        4.9750    -1.9570     2.9420 H     1 <1>   0.0800 
 43 H        5.4090    -1.5850     1.2840 H     1 <1>   0.0800 
 44 H        5.4850    -3.2300     1.8630 H     1 <1>   0.0800 
 45 H        1.1700    -4.2270     0.3560 H     1 <1>   0.1500 
 46 H        5.2190     3.7890    -1.1790 H     1 <1>   0.0800 
 47 H        5.9150     2.6480    -2.3220 H     1 <1>   0.0800 
 48 H        3.7660     3.3140     0.9550 H     1 <1>   0.0800 
 49 H        5.0350     3.9620     1.9660 H     1 <1>   0.0800 
 50 H        4.0850     2.6160     2.5200 H     1 <1>   0.0800 
 51 H        7.4770     1.0040    -2.3690 H     1 <1>   0.0800 
 52 H        7.5990    -0.5340    -1.5510 H     1 <1>   0.0800 
 53 H        8.7930     0.7100    -1.2690 H     1 <1>   0.0800 
 54 H        8.3280    -1.0010     0.7920 H     1 <1>   0.0800 
 55 H        7.6510    -0.7710     2.3940 H     1 <1>   0.0800 
 56 H        9.1110     1.1830     2.7660 H     1 <1>   0.0800 
 57 H        9.7400     1.0330     1.1280 H     1 <1>   0.0800 
 58 H       10.1220    -0.6840     3.3220 H     1 <1>   0.4000 
@<TRIPOS>BOND
  1   1   2  2   
  2   2   3  am  
  3   2   4  1   
  4   3   5  1   
  5   3   6  1   
  6   4   7  1   
  7   4  28  1   
  8   4  29  1   
  9   5   8  1   
 10   5  30  1   
 11   5  31  1   
 12   6   9  1   
 13   6  32  1   
 14   6  33  1   
 15   7  10  1   
 16   7  11  1   
 17   8  12  1   
 18   8  34  1   
 19   8  35  1   
 20   9  13  1   
 21   9  36  1   
 22   9  37  1   
 23  10  14  2   
 24  10  15  1   
 25  11  16  2   
 26  11  38  1   
 27  12  13  1   
 28  12  17  1   
 29  12  39  1   
 30  13  40  1   
 31  13  41  1   
 32  14  16  1   
 33  15  42  1   
 34  15  43  1   
 35  15  44  1   
 36  16  45  1   
 37  17  18  1   
 38  17  46  1   
 39  17  47  1   
 40  18  19  1   
 41  18  20  2   
 42  19  21  2   
 43  19  22  1   
 44  20  23  1   
 45  20  24  1   
 46  21  23  1   
 47  22  48  1   
 48  22  49  1   
 49  22  50  1   
 50  23  25  1   
 51  24  51  1   
 52  24  52  1   
 53  24  53  1   
 54  25  26  1   
 55  25  54  1   
 56  25  55  1   
 57  26  27  1   
 58  26  56  1   
 59  26  57  1   
 60  27  58  1   
@<TRIPOS>SUBSTRUCTURE
  1 ****   5 GROUP 4 **** **** 0

# MOE 2024.06 (io_trps.svl 2023.06)
