@<TRIPOS>MOLECULE
NONAME
40 42 1 0 0 
SMALL
USER_CHARGES


@<TRIPOS>ATOM
  1 S       -0.9170    -0.0290    -0.4380 S.3   1 <1>  -0.0800 
  2 C       -1.2800    -0.4880     1.2320 C.2   1 <1>  -0.0450 
  3 C       -0.1730     1.4770     0.0560 C.2   1 <1>  -0.1400 
  4 C       -1.9310    -1.7440     1.5210 C.2   1 <1>   0.7150 
  5 C       -0.8170     0.4880     2.0530 C.2   1 <1>  -0.1500 
  6 C       -0.2020     1.5930     1.3960 C.2   1 <1>  -0.1500 
  7 C        0.3680     2.3780    -1.0340 C.3   1 <1>  -0.0600 
  8 O       -1.6840    -2.3030     2.5750 O.2   1 <1>  -0.5700 
  9 N       -2.8230    -2.3580     0.6620 N.am  1 <1>  -0.6600 
 10 C       -3.8110    -1.6090    -0.1750 C.3   1 <1>   0.2200 
 11 C       -2.7780    -3.8450     0.5310 C.3   1 <1>   0.0600 
 12 C       -5.0710    -2.4170    -0.4950 C.3   1 <1>  -0.1600 
 13 C       -4.3810    -0.3780     0.5350 C.3   1 <1>  -0.1600 
 14 C       -6.1270    -1.3780    -0.8870 C.3   1 <1>  -0.0800 
 15 C       -5.7020    -0.0690    -0.1830 C.3   1 <1>  -0.0800 
 16 C       -7.5670    -1.8530    -0.6040 C.3   1 <1>   0.1400 
 17 C       -6.7720     0.5310     0.7500 C.3   1 <1>  -0.0990 
 18 N       -8.4710    -0.6880    -0.5250 N.am  1 <1>  -0.7300 
 19 C       -8.1410     0.4570     0.1080 C.2   1 <1>   0.5690 
 20 O       -8.9060     1.3850     0.1710 O.2   1 <1>  -0.5700 
 21 H       -0.8920     0.4530     3.1260 H     1 <1>   0.1500 
 22 H        0.1930     2.4210     1.9580 H     1 <1>   0.1500 
 23 H        0.7990     3.2630    -0.6030 H     1 <1>   0.0800 
 24 H       -0.4260     2.6660    -1.6990 H     1 <1>   0.0800 
 25 H        1.1240     1.8600    -1.5950 H     1 <1>   0.0800 
 26 H       -3.3470    -1.3110    -1.1010 H     1 <1>   0.0800 
 27 H       -2.8040    -4.1270    -0.5070 H     1 <1>   0.0800 
 28 H       -3.6120    -4.2850     1.0490 H     1 <1>   0.0800 
 29 H       -1.8700    -4.2310     0.9640 H     1 <1>   0.0800 
 30 H       -4.9040    -3.1220    -1.2900 H     1 <1>   0.0800 
 31 H       -5.3930    -2.9330     0.3930 H     1 <1>   0.0800 
 32 H       -4.5710    -0.6240     1.5650 H     1 <1>   0.0800 
 33 H       -3.7190     0.4670     0.4830 H     1 <1>   0.0800 
 34 H       -6.0460    -1.2110    -1.9490 H     1 <1>   0.0800 
 35 H       -5.5040     0.6550    -0.9560 H     1 <1>   0.0800 
 36 H       -7.6100    -2.3770     0.3360 H     1 <1>   0.0800 
 37 H       -7.8950    -2.5200    -1.3830 H     1 <1>   0.0800 
 38 H       -6.5350     1.5540     0.9780 H     1 <1>   0.0800 
 39 H       -6.8190    -0.0180     1.6730 H     1 <1>   0.0800 
 40 H       -9.4080    -0.7550    -0.9260 H     1 <1>   0.3700 
@<TRIPOS>BOND
  1   1   2  1   
  2   1   3  1   
  3   2   4  1   
  4   2   5  2   
  5   3   6  2   
  6   3   7  1   
  7   4   8  2   
  8   4   9  am  
  9   5   6  1   
 10   5  21  1   
 11   6  22  1   
 12   7  23  1   
 13   7  24  1   
 14   7  25  1   
 15   9  10  1   
 16   9  11  1   
 17  10  12  1   
 18  10  13  1   
 19  10  26  1   
 20  11  27  1   
 21  11  28  1   
 22  11  29  1   
 23  12  14  1   
 24  12  30  1   
 25  12  31  1   
 26  13  15  1   
 27  13  32  1   
 28  13  33  1   
 29  14  15  1   
 30  14  16  1   
 31  14  34  1   
 32  15  17  1   
 33  15  35  1   
 34  16  18  1   
 35  16  36  1   
 36  16  37  1   
 37  17  19  1   
 38  17  38  1   
 39  17  39  1   
 40  18  19  am  
 41  18  40  1   
 42  19  20  2   
@<TRIPOS>SUBSTRUCTURE
  1 ****  13 GROUP 4 **** **** 0

# MOE 2024.06 (io_trps.svl 2023.06)
