@<TRIPOS>MOLECULE
Untitled Document
40 41 1 0 0 
SMALL
USER_CHARGES


@<TRIPOS>ATOM
  1 N       -4.4990     6.3570    -0.2730 N.ar  1 <1>  -0.6200 
  2 C       -4.4310     5.0230    -0.0920 C.ar  1 <1>   0.4100 
  3 C       -3.4620     7.0800    -0.0190 C.ar  1 <1>   0.5280 
  4 N       -5.5670     4.2790    -0.3150 N.pl3 1 <1>  -0.5690 
  5 C       -3.2420     4.4530     0.2990 C.ar  1 <1>  -0.1500 
  6 N       -2.2600     6.5750     0.4220 N.ar  1 <1>  -0.2100 
  7 C       -3.6410     8.5750    -0.2390 C.3   1 <1>  -0.0970 
  8 C       -5.6190     2.8910    -0.1250 C.ar  1 <1>   0.1000 
  9 C       -6.8320     4.8930    -0.8080 C.3   1 <1>   0.2090 
 10 C       -2.1180     5.2220     0.5230 C.ar  1 <1>   0.4610 
 11 C       -1.1780     7.4900     0.8830 C.3   1 <1>   0.2480 
 12 C       -5.4270     2.0270    -1.1940 C.ar  1 <1>  -0.1500 
 13 C       -5.8460     2.3610     1.1390 C.ar  1 <1>  -0.1500 
 14 C       -7.6760     5.3680     0.3730 C.3   1 <1>  -0.2400 
 15 N       -0.9520     4.5840     0.8240 N.pl3 1 <1>  -0.8690 
 16 C       -5.4570     0.6570    -1.0050 C.ar  1 <1>  -0.1500 
 17 C       -5.8770     0.9910     1.3310 C.ar  1 <1>  -0.1500 
 18 C        0.4740     4.9370     0.5620 C.3   1 <1>   0.1290 
 19 C       -5.6810     0.1380     0.2590 C.ar  1 <1>  -0.1500 
 20 H       -3.1750     3.3890     0.4190 H     1 <1>   0.1500 
 21 H       -4.5680     8.7640    -0.7520 H     1 <1>   0.0800 
 22 H       -2.8460     8.9700    -0.8460 H     1 <1>   0.0800 
 23 H       -3.6770     9.0920     0.7020 H     1 <1>   0.0800 
 24 H       -7.3850     4.1630    -1.3740 H     1 <1>   0.0800 
 25 H       -6.6140     5.7170    -1.4660 H     1 <1>   0.0800 
 26 H       -1.5790     8.4130     1.2600 H     1 <1>   0.0800 
 27 H       -0.5080     7.7030     0.0680 H     1 <1>   0.0800 
 28 H       -0.6310     7.0380     1.6910 H     1 <1>   0.0800 
 29 H       -5.2530     2.4320    -2.1750 H     1 <1>   0.1500 
 30 H       -6.0010     3.0260     1.9680 H     1 <1>   0.1500 
 31 H       -7.9370     4.5360     1.0010 H     1 <1>   0.0800 
 32 H       -8.5820     5.8180     0.0110 H     1 <1>   0.0800 
 33 H       -7.1360     6.0980     0.9480 H     1 <1>   0.0800 
 34 H       -1.0380     3.5840     1.0600 H     1 <1>   0.4000 
 35 H       -5.3070    -0.0070    -1.8400 H     1 <1>   0.1500 
 36 H       -6.0560     0.5880     2.3130 H     1 <1>   0.1500 
 37 H        0.5510     5.6810    -0.2110 H     1 <1>   0.0800 
 38 H        1.0050     4.0590     0.2320 H     1 <1>   0.0800 
 39 H        0.9410     5.2950     1.4650 H     1 <1>   0.0800 
 40 H       -5.7060    -0.9280     0.4070 H     1 <1>   0.1500 
@<TRIPOS>BOND
  1   1   2  ar  
  2   1   3  ar  
  3   2   4  1   
  4   2   5  ar  
  5   3   6  ar  
  6   3   7  1   
  7   4   8  1   
  8   4   9  1   
  9   5  10  ar  
 10   5  20  1   
 11   6  10  ar  
 12   6  11  1   
 13   7  21  1   
 14   7  22  1   
 15   7  23  1   
 16   8  12  ar  
 17   8  13  ar  
 18   9  14  1   
 19   9  24  1   
 20   9  25  1   
 21  10  15  1   
 22  11  26  1   
 23  11  27  1   
 24  11  28  1   
 25  12  16  ar  
 26  12  29  1   
 27  13  17  ar  
 28  13  30  1   
 29  14  31  1   
 30  14  32  1   
 31  14  33  1   
 32  15  18  1   
 33  15  34  1   
 34  16  19  ar  
 35  16  35  1   
 36  17  19  ar  
 37  17  36  1   
 38  18  37  1   
 39  18  38  1   
 40  18  39  1   
 41  19  40  1   
@<TRIPOS>SUBSTRUCTURE
  1 ****   2 GROUP 4 **** **** 0

# MOE 2024.06 (io_trps.svl 2023.06)
