@<TRIPOS>MOLECULE
NONAME
50 53 1 0 0 
SMALL
USER_CHARGES


@<TRIPOS>ATOM
  1 O        0.9230    -0.3630     1.7510 O.3   1 <1>  -0.0190 
  2 N        1.1880     0.8450     1.3540 N.2   1 <1>  -0.4100 
  3 C        1.2190    -1.1080     0.7160 C.2   1 <1>   0.2980 
  4 C        1.6070     0.7650     0.1530 C.2   1 <1>   0.3350 
  5 N        1.6480    -0.4790    -0.3070 N.2   1 <1>  -0.5650 
  6 C        1.0340    -2.6180     0.8220 C.3   1 <1>   0.2900 
  7 C        2.0430     1.9370    -0.7290 C.3   1 <1>   0.1010 
  8 N       -0.3850    -3.0260     0.9400 N.3   1 <1>  -0.8100 
  9 C        3.5680     2.1060    -0.6860 C.3   1 <1>  -0.2400 
 10 C        1.3570     3.2560    -0.3380 C.3   1 <1>  -0.2400 
 11 C       -1.1990    -2.5800    -0.2000 C.3   1 <1>   0.1100 
 12 C       -0.5470    -4.4870     1.0220 C.3   1 <1>   0.1100 
 13 C       -2.4120    -3.5000    -0.1710 C.3   1 <1>   0.2000 
 14 C       -1.8120    -4.8490     0.2190 C.3   1 <1>  -0.0800 
 15 O       -3.2260    -3.0850     0.8650 O.3   1 <1>  -0.6800 
 16 C       -1.4840    -5.6860    -1.0330 C.3   1 <1>  -0.0170 
 17 C       -0.8750    -7.0320    -0.6740 C.ar  1 <1>   0.1670 
 18 N        0.4100    -7.1660    -0.8090 N.ar  1 <1>  -0.6200 
 19 C       -1.7200    -8.0550    -0.2160 C.ar  1 <1>  -0.1500 
 20 C        0.9570    -8.3660    -0.4860 C.ar  1 <1>   0.3100 
 21 C       -1.1970    -9.2670     0.1180 C.ar  1 <1>  -0.1500 
 22 C        0.1890    -9.4520    -0.0130 C.ar  1 <1>   0.0000 
 23 C        2.3440    -8.5390    -0.6250 C.ar  1 <1>  -0.1500 
 24 C        0.8370   -10.6630     0.3060 C.ar  1 <1>  -0.1500 
 25 C        2.9550    -9.7240    -0.3100 C.ar  1 <1>  -0.1500 
 26 C        2.1910   -10.7970     0.1600 C.ar  1 <1>  -0.1500 
 27 H        1.5720    -2.9640     1.6870 H     1 <1>   0.0800 
 28 H        1.4700    -3.0770    -0.0480 H     1 <1>   0.0800 
 29 H        1.7570     1.7020    -1.7390 H     1 <1>   0.0800 
 30 H        3.8890     2.3330     0.3160 H     1 <1>   0.0800 
 31 H        3.8790     2.8990    -1.3410 H     1 <1>   0.0800 
 32 H        4.0460     1.1940    -0.9990 H     1 <1>   0.0800 
 33 H        1.6340     3.5420     0.6620 H     1 <1>   0.0800 
 34 H        0.2880     3.1370    -0.3750 H     1 <1>   0.0800 
 35 H        1.6390     4.0420    -1.0150 H     1 <1>   0.0800 
 36 H       -1.4780    -1.5440    -0.1090 H     1 <1>   0.0800 
 37 H       -0.6590    -2.7250    -1.1200 H     1 <1>   0.0800 
 38 H        0.3190    -4.9900     0.6250 H     1 <1>   0.0800 
 39 H       -0.6630    -4.7740     2.0540 H     1 <1>   0.0800 
 40 H       -2.9840    -3.5070    -1.0830 H     1 <1>   0.0800 
 41 H       -2.4990    -5.4070     0.8310 H     1 <1>   0.0800 
 42 H       -2.6280    -2.8620     1.6120 H     1 <1>   0.4000 
 43 H       -0.8000    -5.1490    -1.6670 H     1 <1>   0.0800 
 44 H       -2.3830    -5.8550    -1.5980 H     1 <1>   0.0800 
 45 H       -2.7750    -7.8680    -0.1330 H     1 <1>   0.1500 
 46 H       -1.8120   -10.0750     0.4730 H     1 <1>   0.1500 
 47 H        2.9120    -7.7040    -0.9890 H     1 <1>   0.1500 
 48 H        0.2450   -11.4840     0.6660 H     1 <1>   0.1500 
 49 H        4.0190    -9.8430    -0.4210 H     1 <1>   0.1500 
 50 H        2.6840   -11.7230     0.4040 H     1 <1>   0.1500 
@<TRIPOS>BOND
  1   1   2  1   
  2   1   3  1   
  3   2   4  2   
  4   3   5  2   
  5   3   6  1   
  6   4   5  1   
  7   4   7  1   
  8   6   8  1   
  9   6  27  1   
 10   6  28  1   
 11   7   9  1   
 12   7  10  1   
 13   7  29  1   
 14   8  11  1   
 15   8  12  1   
 16   9  30  1   
 17   9  31  1   
 18   9  32  1   
 19  10  33  1   
 20  10  34  1   
 21  10  35  1   
 22  11  13  1   
 23  11  36  1   
 24  11  37  1   
 25  12  14  1   
 26  12  38  1   
 27  12  39  1   
 28  13  14  1   
 29  13  15  1   
 30  13  40  1   
 31  14  16  1   
 32  14  41  1   
 33  15  42  1   
 34  16  17  1   
 35  16  43  1   
 36  16  44  1   
 37  17  18  ar  
 38  17  19  ar  
 39  18  20  ar  
 40  19  21  ar  
 41  19  45  1   
 42  20  22  ar  
 43  20  23  ar  
 44  21  22  ar  
 45  21  46  1   
 46  22  24  ar  
 47  23  25  ar  
 48  23  47  1   
 49  24  26  ar  
 50  24  48  1   
 51  25  26  ar  
 52  25  49  1   
 53  26  50  1   
@<TRIPOS>SUBSTRUCTURE
  1 ****  12 GROUP 4 **** **** 0

# MOE 2024.06 (io_trps.svl 2023.06)
