@<TRIPOS>MOLECULE
NONAME
41 42 1 0 0 
SMALL
USER_CHARGES


@<TRIPOS>ATOM
  1 O        0.1000    -0.3340     0.7990 O.2   1 <1>  -0.5700 
  2 C        1.1850    -0.7380     0.4280 C.2   1 <1>   0.7160 
  3 N        2.2130     0.1440     0.2080 N.am  1 <1>  -0.4940 
  4 C        1.4320    -2.1450     0.2210 C.2   1 <1>  -0.0860 
  5 C        2.2910     1.5560     0.3000 C.2   1 <1>  -0.0880 
  6 C        0.7910    -3.2380     0.7260 C.2   1 <1>  -0.0400 
  7 C        2.4460    -2.6950    -0.5970 C.2   1 <1>  -0.1500 
  8 N        1.3260     2.4680    -0.0100 N.pl3 1 <1>   0.3140 
  9 C        3.3760     2.2680     0.6890 C.2   1 <1>  -0.1810 
 10 O        1.3350    -4.3480     0.2890 O.3   1 <1>  -0.2800 
 11 C       -0.3870    -3.3650     1.6710 C.3   1 <1>  -0.0600 
 12 C        2.3300    -4.0340    -0.5070 C.2   1 <1>  -0.0400 
 13 N        1.7720     3.7300     0.1640 N.2   1 <1>  -0.7070 
 14 C       -0.0160     2.2440    -0.5610 C.3   1 <1>   0.0160 
 15 C        2.9920     3.6040     0.5800 C.2   1 <1>   0.1080 
 16 C        4.7190     1.7230     1.1520 C.3   1 <1>   0.0210 
 17 C        3.1200    -5.1520    -1.1510 C.3   1 <1>  -0.0600 
 18 C        3.8450     4.8230     0.8930 C.3   1 <1>   0.0210 
 19 C        5.7190     1.6920    -0.0040 C.3   1 <1>  -0.2400 
 20 C        4.3190     5.5160    -0.3890 C.3   1 <1>  -0.2400 
 21 H        3.1130    -0.3150     0.0910 H     1 <1>   0.3700 
 22 H        3.1570    -2.1380    -1.1790 H     1 <1>   0.1500 
 23 H       -0.7270    -2.4020     2.0030 H     1 <1>   0.0800 
 24 H       -0.0990    -3.9440     2.5300 H     1 <1>   0.0800 
 25 H       -1.1970    -3.8650     1.1720 H     1 <1>   0.0800 
 26 H        0.0050     1.4020    -1.2260 H     1 <1>   0.0800 
 27 H       -0.3270     3.1200    -1.0980 H     1 <1>   0.0800 
 28 H       -0.6980     2.0570     0.2470 H     1 <1>   0.0800 
 29 H        4.5870     0.7280     1.5390 H     1 <1>   0.0800 
 30 H        5.1010     2.3270     1.9550 H     1 <1>   0.0800 
 31 H        3.8970    -4.7510    -1.7750 H     1 <1>   0.0800 
 32 H        2.4650    -5.7580    -1.7510 H     1 <1>   0.0800 
 33 H        3.5630    -5.7680    -0.3890 H     1 <1>   0.0800 
 34 H        4.6930     4.5430     1.4870 H     1 <1>   0.0800 
 35 H        3.2520     5.5110     1.4700 H     1 <1>   0.0800 
 36 H        5.3370     1.0920    -0.8100 H     1 <1>   0.0800 
 37 H        6.6550     1.2780     0.3260 H     1 <1>   0.0800 
 38 H        5.8920     2.6870    -0.3710 H     1 <1>   0.0800 
 39 H        4.9040     4.8390    -0.9840 H     1 <1>   0.0800 
 40 H        4.9140     6.3780    -0.1490 H     1 <1>   0.0800 
 41 H        3.4670     5.8300    -0.9670 H     1 <1>   0.0800 
@<TRIPOS>BOND
  1   1   2  2   
  2   2   3  am  
  3   2   4  1   
  4   3   5  1   
  5   3  21  1   
  6   4   6  2   
  7   4   7  1   
  8   5   8  1   
  9   5   9  2   
 10   6  10  1   
 11   6  11  1   
 12   7  12  2   
 13   7  22  1   
 14   8  13  1   
 15   8  14  1   
 16   9  15  1   
 17   9  16  1   
 18  10  12  1   
 19  11  23  1   
 20  11  24  1   
 21  11  25  1   
 22  12  17  1   
 23  13  15  2   
 24  14  26  1   
 25  14  27  1   
 26  14  28  1   
 27  15  18  1   
 28  16  19  1   
 29  16  29  1   
 30  16  30  1   
 31  17  31  1   
 32  17  32  1   
 33  17  33  1   
 34  18  20  1   
 35  18  34  1   
 36  18  35  1   
 37  19  36  1   
 38  19  37  1   
 39  19  38  1   
 40  20  39  1   
 41  20  40  1   
 42  20  41  1   
@<TRIPOS>SUBSTRUCTURE
  1 ****   3 GROUP 4 **** **** 0

# MOE 2024.06 (io_trps.svl 2023.06)
