@<TRIPOS>MOLECULE
NONAME
49 51 1 0 0 
SMALL
USER_CHARGES


@<TRIPOS>ATOM
  1 O       -2.2110    -1.0620    -0.7720 O.2   1 <1>  -0.5700 
  2 C       -2.4660    -0.0420    -0.1360 C.2   1 <1>   0.6160 
  3 N       -1.9350     1.1760    -0.5650 N.am  1 <1>  -0.4690 
  4 C       -3.3240    -0.0690     1.0080 C.2   1 <1>   0.0290 
  5 C       -2.2850     2.3490     0.0760 C.2   1 <1>  -0.0290 
  6 C       -0.9900     1.1950    -1.7260 C.3   1 <1>   0.0600 
  7 C       -3.6480     1.1100     1.6400 C.2   1 <1>  -0.1380 
  8 C       -3.7940    -1.3570     1.4330 C.2   1 <1>   0.6160 
  9 C       -3.1200     2.3200     1.1510 C.2   1 <1>  -0.1500 
 10 C       -1.7340     3.6770    -0.4260 C.3   1 <1>  -0.1020 
 11 C       -4.5540     1.1940     2.8640 C.3   1 <1>  -0.1020 
 12 O       -3.3300    -1.8700     2.4360 O.2   1 <1>  -0.5700 
 13 N       -4.8090    -2.0140     0.7730 N.am  1 <1>  -0.6600 
 14 C       -5.4340    -1.5560    -0.4960 C.3   1 <1>   0.1400 
 15 C       -5.1140    -3.4490     1.0080 C.3   1 <1>   0.1400 
 16 C       -6.3710    -2.6940    -0.9030 C.3   1 <1>   0.2000 
 17 C       -5.7240    -3.9460    -0.3090 C.3   1 <1>  -0.0800 
 18 O       -7.5930    -2.4960    -0.2800 O.3   1 <1>  -0.6800 
 19 C       -4.6380    -4.5040    -1.2500 C.3   1 <1>   0.0210 
 20 C       -4.0160    -5.7680    -0.6900 C.2   1 <1>   0.1080 
 21 N       -4.6420    -6.9030    -0.6430 N.2   1 <1>  -0.7070 
 22 C       -2.7300    -5.8540    -0.1680 C.2   1 <1>  -0.1500 
 23 N       -3.7610    -7.7530    -0.0850 N.pl3 1 <1>   0.3000 
 24 C       -2.5950    -7.1420     0.2140 C.2   1 <1>  -0.3320 
 25 C       -1.4060    -7.8310     0.8560 C.3   1 <1>  -0.0600 
 26 H       -0.1230     1.7810    -1.4840 H     1 <1>   0.0800 
 27 H       -1.4830     1.6180    -2.5830 H     1 <1>   0.0800 
 28 H       -0.6540     0.2040    -1.9770 H     1 <1>   0.0800 
 29 H       -3.3930     3.2300     1.6570 H     1 <1>   0.1500 
 30 H       -1.9960     3.8220    -1.4590 H     1 <1>   0.0800 
 31 H       -0.6650     3.6990    -0.3230 H     1 <1>   0.0800 
 32 H       -2.1400     4.4960     0.1390 H     1 <1>   0.0800 
 33 H       -5.3710     1.8660     2.6700 H     1 <1>   0.0800 
 34 H       -3.9930     1.5640     3.7040 H     1 <1>   0.0800 
 35 H       -4.9630     0.2370     3.1320 H     1 <1>   0.0800 
 36 H       -5.9640    -0.6280    -0.3670 H     1 <1>   0.0800 
 37 H       -4.6730    -1.4360    -1.2470 H     1 <1>   0.0800 
 38 H       -4.2270    -3.9940     1.2850 H     1 <1>   0.0800 
 39 H       -5.8310    -3.5280     1.8060 H     1 <1>   0.0800 
 40 H       -6.5380    -2.7490    -1.9650 H     1 <1>   0.0800 
 41 H       -6.4520    -4.7200    -0.1350 H     1 <1>   0.0800 
 42 H       -7.4410    -2.3760     0.6790 H     1 <1>   0.4000 
 43 H       -3.8650    -3.7740    -1.4120 H     1 <1>   0.0800 
 44 H       -5.0760    -4.7440    -2.2020 H     1 <1>   0.0800 
 45 H       -2.0220    -5.0460    -0.0950 H     1 <1>   0.1500 
 46 H       -3.9850    -8.7420     0.0790 H     1 <1>   0.2700 
 47 H       -0.6040    -7.1280     0.9950 H     1 <1>   0.0800 
 48 H       -1.0550    -8.6310     0.2290 H     1 <1>   0.0800 
 49 H       -1.6810    -8.2300     1.8160 H     1 <1>   0.0800 
@<TRIPOS>BOND
  1   1   2  2   
  2   2   3  am  
  3   2   4  1   
  4   3   5  1   
  5   3   6  1   
  6   4   7  2   
  7   4   8  1   
  8   5   9  2   
  9   5  10  1   
 10   6  26  1   
 11   6  27  1   
 12   6  28  1   
 13   7   9  1   
 14   7  11  1   
 15   8  12  2   
 16   8  13  am  
 17   9  29  1   
 18  10  30  1   
 19  10  31  1   
 20  10  32  1   
 21  11  33  1   
 22  11  34  1   
 23  11  35  1   
 24  13  14  1   
 25  13  15  1   
 26  14  16  1   
 27  14  36  1   
 28  14  37  1   
 29  15  17  1   
 30  15  38  1   
 31  15  39  1   
 32  16  17  1   
 33  16  18  1   
 34  16  40  1   
 35  17  19  1   
 36  17  41  1   
 37  18  42  1   
 38  19  20  1   
 39  19  43  1   
 40  19  44  1   
 41  20  21  2   
 42  20  22  1   
 43  21  23  1   
 44  22  24  2   
 45  22  45  1   
 46  23  24  1   
 47  23  46  1   
 48  24  25  1   
 49  25  47  1   
 50  25  48  1   
 51  25  49  1   
@<TRIPOS>SUBSTRUCTURE
  1 ****  13 GROUP 4 **** **** 0

# MOE 2024.06 (io_trps.svl 2023.06)
