@<TRIPOS>MOLECULE
NONAME
48 50 1 0 0 
SMALL
USER_CHARGES


@<TRIPOS>ATOM
  1 O       -0.6760     0.1370    -1.8180 O.2   1 <1>  -0.5700 
  2 C       -0.7890     0.3790    -0.6430 C.2   1 <1>   0.5690 
  3 N       -1.2920    -0.5220     0.2330 N.am  1 <1>  -0.7300 
  4 C       -0.3800     1.7380    -0.1380 C.3   1 <1>  -0.0990 
  5 C       -1.7320    -1.8890    -0.1210 C.3   1 <1>   0.2200 
  6 C       -1.3150     2.8030    -0.7140 C.3   1 <1>   0.0960 
  7 C       -3.2490    -1.9520    -0.0810 C.3   1 <1>  -0.0800 
  8 C       -1.3510    -2.8550     0.9950 C.3   1 <1>   0.1200 
  9 N       -0.9730     4.1250    -0.1640 N.pl3 1 <1>   0.3140 
 10 C       -3.5210    -2.1910     1.4080 C.3   1 <1>   0.1200 
 11 C       -3.7900    -3.0910    -0.9660 C.3   1 <1>  -0.0170 
 12 O       -2.3670    -2.7690     1.9490 O.3   1 <1>  -0.5600 
 13 N       -1.4080     4.4930     1.0550 N.2   1 <1>  -0.7070 
 14 C       -0.2080     5.0890    -0.7260 C.2   1 <1>  -0.3320 
 15 C       -5.3110    -3.1380    -0.9460 C.ar  1 <1>  -0.1440 
 16 C       -0.9200     5.6780     1.2390 C.2   1 <1>   0.1080 
 17 C       -0.1580     6.1060     0.1590 C.2   1 <1>  -0.1500 
 18 C        0.4520     4.9980    -2.0920 C.3   1 <1>  -0.0600 
 19 C       -6.0740    -2.2240    -1.6440 C.ar  1 <1>  -0.1500 
 20 C       -6.0060    -4.0950    -0.2350 C.ar  1 <1>  -0.1500 
 21 C       -1.1720     6.4700     2.4990 C.3   1 <1>  -0.0590 
 22 C       -7.4560    -2.3050    -1.5940 C.ar  1 <1>   0.1600 
 23 C       -7.3910    -4.0880    -0.2500 C.ar  1 <1>   0.1600 
 24 N       -8.1330    -3.2140    -0.9110 N.ar  1 <1>  -0.6200 
 25 H       -1.3970    -0.2880     1.2240 H     1 <1>   0.3700 
 26 H       -0.4230     1.7590     0.9360 H     1 <1>   0.0800 
 27 H        0.6300     1.9310    -0.4490 H     1 <1>   0.0800 
 28 H       -1.3180    -2.1820    -1.0720 H     1 <1>   0.0800 
 29 H       -2.3320     2.5850    -0.4470 H     1 <1>   0.0800 
 30 H       -1.2390     2.8320    -1.7850 H     1 <1>   0.0800 
 31 H       -3.6850    -1.0240    -0.4090 H     1 <1>   0.0800 
 32 H       -0.4060    -2.6140     1.4490 H     1 <1>   0.0800 
 33 H       -1.3310    -3.8680     0.6320 H     1 <1>   0.0800 
 34 H       -4.3570    -2.8440     1.5880 H     1 <1>   0.0800 
 35 H       -3.6840    -1.2580     1.9180 H     1 <1>   0.0800 
 36 H       -3.3970    -4.0380    -0.6390 H     1 <1>   0.0800 
 37 H       -3.4660    -2.9380    -1.9810 H     1 <1>   0.0800 
 38 H        0.3500     7.0500     0.0760 H     1 <1>   0.1500 
 39 H        1.0240     5.8880    -2.2860 H     1 <1>   0.0800 
 40 H       -0.2950     4.8990    -2.8600 H     1 <1>   0.0800 
 41 H        1.1130     4.1510    -2.1320 H     1 <1>   0.0800 
 42 H       -5.6080    -1.4500    -2.2260 H     1 <1>   0.1500 
 43 H       -5.4870    -4.8460     0.3320 H     1 <1>   0.1500 
 44 H       -0.6640     7.4150     2.4570 H     1 <1>   0.0800 
 45 H       -0.8180     5.9150     3.3480 H     1 <1>   0.0800 
 46 H       -2.2270     6.6400     2.6090 H     1 <1>   0.0800 
 47 H       -8.0350    -1.5840    -2.1440 H     1 <1>   0.1500 
 48 H       -7.9170    -4.8410     0.3120 H     1 <1>   0.1500 
@<TRIPOS>BOND
  1   1   2  2   
  2   2   3  am  
  3   2   4  1   
  4   3   5  1   
  5   3  25  1   
  6   4   6  1   
  7   4  26  1   
  8   4  27  1   
  9   5   7  1   
 10   5   8  1   
 11   5  28  1   
 12   6   9  1   
 13   6  29  1   
 14   6  30  1   
 15   7  10  1   
 16   7  11  1   
 17   7  31  1   
 18   8  12  1   
 19   8  32  1   
 20   8  33  1   
 21   9  13  1   
 22   9  14  1   
 23  10  12  1   
 24  10  34  1   
 25  10  35  1   
 26  11  15  1   
 27  11  36  1   
 28  11  37  1   
 29  13  16  2   
 30  14  17  2   
 31  14  18  1   
 32  15  19  ar  
 33  15  20  ar  
 34  16  17  1   
 35  16  21  1   
 36  17  38  1   
 37  18  39  1   
 38  18  40  1   
 39  18  41  1   
 40  19  22  ar  
 41  19  42  1   
 42  20  23  ar  
 43  20  43  1   
 44  21  44  1   
 45  21  45  1   
 46  21  46  1   
 47  22  24  ar  
 48  22  47  1   
 49  23  24  ar  
 50  23  48  1   
@<TRIPOS>SUBSTRUCTURE
  1 ****   3 GROUP 4 **** **** 0

# MOE 2024.06 (io_trps.svl 2023.06)
