@<TRIPOS>MOLECULE
NONAME
53 55 1 0 0 
SMALL
USER_CHARGES


@<TRIPOS>ATOM
  1 F       -2.1740    -0.7080    -2.3290 F     1 <1>  -0.1900 
  2 C       -2.2770     0.2490    -1.4460 C.ar  1 <1>   0.1900 
  3 C       -2.8160    -0.0110    -0.1800 C.ar  1 <1>   0.0860 
  4 C       -1.8340     1.4970    -1.8430 C.ar  1 <1>  -0.1500 
  5 C       -3.2870    -1.3140     0.2640 C.2   1 <1>   0.5440 
  6 C       -2.8870     1.0910     0.6790 C.ar  1 <1>  -0.1500 
  7 C       -1.9210     2.5570    -0.9600 C.ar  1 <1>  -0.1500 
  8 O       -4.0020    -1.4030     1.2440 O.2   1 <1>  -0.5700 
  9 N       -2.9530    -2.4730    -0.3810 N.am  1 <1>  -0.7300 
 10 C       -2.4500     2.3490     0.3020 C.ar  1 <1>  -0.1500 
 11 C       -3.3210    -3.8410     0.0550 C.3   1 <1>   0.1400 
 12 C       -4.7480    -4.1540    -0.3950 C.3   1 <1>  -0.0990 
 13 C       -5.1900    -5.5490     0.0200 C.2   1 <1>   0.5690 
 14 O       -4.3290    -6.3860     0.1690 O.2   1 <1>  -0.5700 
 15 N       -6.5200    -5.8500     0.2030 N.am  1 <1>  -0.6600 
 16 C       -7.6260    -4.9070    -0.1500 C.3   1 <1>   0.2200 
 17 C       -6.8940    -7.1730     0.7940 C.3   1 <1>   0.0600 
 18 C       -8.8430    -5.5550    -0.8100 C.3   1 <1>  -0.1600 
 19 C       -8.1950    -4.2030     1.0760 C.3   1 <1>  -0.1600 
 20 C       -9.9680    -4.5300    -0.6150 C.3   1 <1>  -0.0800 
 21 C       -9.5730    -3.6980     0.6280 C.3   1 <1>  -0.0800 
 22 C      -11.3640    -5.1800    -0.5520 C.3   1 <1>   0.1400 
 23 C      -10.6230    -3.7310     1.7520 C.3   1 <1>  -0.0990 
 24 N      -12.3420    -4.2460     0.0580 N.am  1 <1>  -0.6600 
 25 C      -12.0150    -3.5400     1.1840 C.2   1 <1>   0.5690 
 26 C      -13.6870    -4.1730    -0.5720 C.3   1 <1>   0.0600 
 27 O      -12.7770    -2.7870     1.7410 O.2   1 <1>  -0.5700 
 28 H       -1.4280     1.6370    -2.8290 H     1 <1>   0.1500 
 29 H       -3.2950     0.9540     1.6670 H     1 <1>   0.1500 
 30 H       -1.5810     3.5370    -1.2510 H     1 <1>   0.1500 
 31 H       -2.4130    -2.4110    -1.2480 H     1 <1>   0.3700 
 32 H       -2.5210     3.1720     0.9940 H     1 <1>   0.1500 
 33 H       -2.6290    -4.5500    -0.3660 H     1 <1>   0.0800 
 34 H       -3.2590    -3.9050     1.1300 H     1 <1>   0.0800 
 35 H       -4.8140    -4.0810    -1.4640 H     1 <1>   0.0800 
 36 H       -5.3940    -3.4260     0.0560 H     1 <1>   0.0800 
 37 H       -7.2680    -4.1580    -0.8340 H     1 <1>   0.0800 
 38 H       -7.7040    -7.0610     1.4910 H     1 <1>   0.0800 
 39 H       -6.0590    -7.6040     1.3210 H     1 <1>   0.0800 
 40 H       -7.1860    -7.8490     0.0100 H     1 <1>   0.0800 
 41 H       -8.6640    -5.7570    -1.8510 H     1 <1>   0.0800 
 42 H       -9.1120    -6.4660    -0.3090 H     1 <1>   0.0800 
 43 H       -8.3010    -4.9050     1.8840 H     1 <1>   0.0800 
 44 H       -7.5620    -3.3920     1.3930 H     1 <1>   0.0800 
 45 H       -9.9600    -3.8650    -1.4630 H     1 <1>   0.0800 
 46 H       -9.4710    -2.6740     0.3080 H     1 <1>   0.0800 
 47 H      -11.3330    -6.0710     0.0510 H     1 <1>   0.0800 
 48 H      -11.6800    -5.4550    -1.5440 H     1 <1>   0.0800 
 49 H      -10.4190    -2.9580     2.4710 H     1 <1>   0.0800 
 50 H      -10.6060    -4.6770     2.2610 H     1 <1>   0.0800 
 51 H      -13.5950    -3.8270    -1.5870 H     1 <1>   0.0800 
 52 H      -14.3200    -3.4890    -0.0330 H     1 <1>   0.0800 
 53 H      -14.1460    -5.1450    -0.5650 H     1 <1>   0.0800 
@<TRIPOS>BOND
  1   1   2  1   
  2   2   3  ar  
  3   2   4  ar  
  4   3   5  1   
  5   3   6  ar  
  6   4   7  ar  
  7   4  28  1   
  8   5   8  2   
  9   5   9  am  
 10   6  10  ar  
 11   6  29  1   
 12   7  10  ar  
 13   7  30  1   
 14   9  11  1   
 15   9  31  1   
 16  10  32  1   
 17  11  12  1   
 18  11  33  1   
 19  11  34  1   
 20  12  13  1   
 21  12  35  1   
 22  12  36  1   
 23  13  14  2   
 24  13  15  am  
 25  15  16  1   
 26  15  17  1   
 27  16  18  1   
 28  16  19  1   
 29  16  37  1   
 30  17  38  1   
 31  17  39  1   
 32  17  40  1   
 33  18  20  1   
 34  18  41  1   
 35  18  42  1   
 36  19  21  1   
 37  19  43  1   
 38  19  44  1   
 39  20  21  1   
 40  20  22  1   
 41  20  45  1   
 42  21  23  1   
 43  21  46  1   
 44  22  24  1   
 45  22  47  1   
 46  22  48  1   
 47  23  25  1   
 48  23  49  1   
 49  23  50  1   
 50  24  25  am  
 51  24  26  1   
 52  25  27  2   
 53  26  51  1   
 54  26  52  1   
 55  26  53  1   
@<TRIPOS>SUBSTRUCTURE
  1 ****  12 GROUP 4 **** **** 0

# MOE 2024.06 (io_trps.svl 2023.06)
