@<TRIPOS>MOLECULE
NONAME
42 43 1 0 0 
SMALL
USER_CHARGES


@<TRIPOS>ATOM
  1 O       -1.5160    -0.3060     0.0110 O.2   1 <1>  -0.5700 
  2 C       -2.3110     0.4880     0.4660 C.2   1 <1>   0.5690 
  3 N       -3.4390     0.0390     1.1100 N.am  1 <1>  -0.6600 
  4 C       -2.0260     1.9870     0.2790 C.3   1 <1>  -0.0190 
  5 C       -3.5620    -1.4120     1.4510 C.3   1 <1>   0.3200 
  6 C       -4.6530     0.8600     1.4170 C.3   1 <1>   0.1400 
  7 C       -2.6940     2.5280    -1.0010 C.3   1 <1>  -0.1600 
  8 C       -0.5150     2.3030     0.2550 C.3   1 <1>  -0.1600 
  9 C       -4.0920    -2.2020     0.2670 C.2   1 <1>   0.0060 
 10 C       -5.7690     0.6050     0.3950 C.3   1 <1>   0.1200 
 11 C       -2.4300     4.0290    -1.1870 C.3   1 <1>  -0.1600 
 12 C       -0.2540     3.8050     0.0780 C.3   1 <1>  -0.1600 
 13 N       -5.2020    -2.8700     0.2490 N.2   1 <1>  -0.5650 
 14 N       -3.4080    -2.2560    -0.8950 N.pl3 1 <1>   0.0330 
 15 O       -6.7940     1.5160     0.6110 O.3   1 <1>  -0.6800 
 16 C       -0.9260     4.3400    -1.1950 C.3   1 <1>  -0.0800 
 17 C       -5.2420    -3.3870    -0.9950 C.2   1 <1>   0.0770 
 18 C       -4.1550    -3.0220    -1.7090 C.2   1 <1>  -0.3020 
 19 C       -0.6910     5.8480    -1.3320 C.3   1 <1>  -0.2400 
 20 H       -2.4280     2.5120     1.1250 H     1 <1>   0.0800 
 21 H       -4.2230    -1.5390     2.2900 H     1 <1>   0.0800 
 22 H       -2.5980    -1.8010     1.7320 H     1 <1>   0.0800 
 23 H       -4.4160     1.9070     1.4030 H     1 <1>   0.0800 
 24 H       -5.0060     0.6140     2.4030 H     1 <1>   0.0800 
 25 H       -3.7560     2.3640    -0.9620 H     1 <1>   0.0800 
 26 H       -2.3110     1.9910    -1.8530 H     1 <1>   0.0800 
 27 H       -0.0480     1.7680    -0.5550 H     1 <1>   0.0800 
 28 H       -0.0640     1.9650     1.1720 H     1 <1>   0.0800 
 29 H       -6.1740    -0.3880     0.4870 H     1 <1>   0.0800 
 30 H       -5.4040     0.7530    -0.6060 H     1 <1>   0.0800 
 31 H       -2.9070     4.5740    -0.3900 H     1 <1>   0.0800 
 32 H       -2.8710     4.3540    -2.1150 H     1 <1>   0.0800 
 33 H        0.8080     3.9760     0.0260 H     1 <1>   0.0800 
 34 H       -0.6310     4.3350     0.9360 H     1 <1>   0.0800 
 35 H       -2.5150    -1.7730    -1.0690 H     1 <1>   0.2700 
 36 H       -7.3780     1.2140     1.3340 H     1 <1>   0.4000 
 37 H       -0.4810     3.8500    -2.0460 H     1 <1>   0.0800 
 38 H       -6.0650    -4.0050    -1.3170 H     1 <1>   0.1500 
 39 H       -3.8780    -3.2570    -2.7200 H     1 <1>   0.1500 
 40 H       -1.1210     6.3770    -0.5000 H     1 <1>   0.0800 
 41 H       -1.1380     6.2140    -2.2390 H     1 <1>   0.0800 
 42 H        0.3630     6.0590    -1.3660 H     1 <1>   0.0800 
@<TRIPOS>BOND
  1   1   2  2   
  2   2   3  am  
  3   2   4  1   
  4   3   5  1   
  5   3   6  1   
  6   4   7  1   
  7   4   8  1   
  8   4  20  1   
  9   5   9  1   
 10   5  21  1   
 11   5  22  1   
 12   6  10  1   
 13   6  23  1   
 14   6  24  1   
 15   7  11  1   
 16   7  25  1   
 17   7  26  1   
 18   8  12  1   
 19   8  27  1   
 20   8  28  1   
 21   9  13  2   
 22   9  14  1   
 23  10  15  1   
 24  10  29  1   
 25  10  30  1   
 26  11  16  1   
 27  11  31  1   
 28  11  32  1   
 29  12  16  1   
 30  12  33  1   
 31  12  34  1   
 32  13  17  1   
 33  14  18  1   
 34  14  35  1   
 35  15  36  1   
 36  16  19  1   
 37  16  37  1   
 38  17  18  2   
 39  17  38  1   
 40  18  39  1   
 41  19  40  1   
 42  19  41  1   
 43  19  42  1   
@<TRIPOS>SUBSTRUCTURE
  1 ****   2 GROUP 4 **** **** 0

# MOE 2024.06 (io_trps.svl 2023.06)
