@<TRIPOS>MOLECULE
NONAME
56 59 1 0 0 
SMALL
USER_CHARGES


@<TRIPOS>ATOM
  1 O       -0.2980     0.3030     1.5380 O.2   1 <1>  -0.5700 
  2 C       -0.2620     1.3550     0.9280 C.2   1 <1>   0.6900 
  3 N       -1.4070     2.0870     0.7450 N.am  1 <1>  -0.6600 
  4 N        0.9140     1.8520     0.4400 N.am  1 <1>  -0.5470 
  5 C       -1.5630     3.0970    -0.3420 C.3   1 <1>   0.1400 
  6 C       -2.6290     1.7450     1.5300 C.3   1 <1>   0.1400 
  7 C        2.1860     1.2840     0.3170 C.ar  1 <1>   0.1170 
  8 C       -3.0050     3.0940    -0.8500 C.3   1 <1>  -0.1600 
  9 C       -3.5590     2.9570     1.6330 C.3   1 <1>  -0.1600 
 10 C        3.2880     2.1220     0.1890 C.ar  1 <1>  -0.1500 
 11 C        2.4060    -0.0900     0.2950 C.ar  1 <1>  -0.1500 
 12 C       -3.9920     3.5220     0.2570 C.3   1 <1>   0.2800 
 13 C        4.5620     1.6070     0.0470 C.ar  1 <1>  -0.1500 
 14 C        3.6810    -0.6030     0.1550 C.ar  1 <1>  -0.1500 
 15 O       -3.9110     4.9210     0.3990 O.3   1 <1>  -0.5600 
 16 C       -5.4410     3.0990    -0.0980 C.3   1 <1>  -0.1600 
 17 C        4.7860     0.2340     0.0280 C.ar  1 <1>   0.0000 
 18 C       -4.6400     5.7220    -0.4890 C.3   1 <1>   0.1200 
 19 C       -6.4830     4.1410     0.3200 C.3   1 <1>   0.2800 
 20 C        6.1180    -0.3030    -0.1210 C.ar  1 <1>   0.0000 
 21 C       -6.1510     5.4870    -0.3310 C.3   1 <1>  -0.1600 
 22 O       -6.3890     4.3180     1.6750 O.3   1 <1>  -0.6800 
 23 C       -7.9130     3.6920     0.0330 C.3   1 <1>  -0.2400 
 24 C        6.4340    -1.1550    -1.1750 C.ar  1 <1>  -0.1500 
 25 C        7.1250     0.0160     0.7850 C.ar  1 <1>  -0.1500 
 26 C        7.7090    -1.6700    -1.3220 C.ar  1 <1>  -0.1500 
 27 C        8.4030    -0.4940     0.6430 C.ar  1 <1>  -0.1500 
 28 C        8.6980    -1.3390    -0.4120 C.ar  1 <1>  -0.1500 
 29 H        0.8500     2.8400     0.2250 H     1 <1>   0.3700 
 30 H       -0.9020     2.8620    -1.1590 H     1 <1>   0.0800 
 31 H       -1.3160     4.0730     0.0390 H     1 <1>   0.0800 
 32 H       -2.3430     1.4260     2.5190 H     1 <1>   0.0800 
 33 H       -3.1370     0.9260     1.0500 H     1 <1>   0.0800 
 34 H       -3.2360     2.0960    -1.1800 H     1 <1>   0.0800 
 35 H       -3.0890     3.7330    -1.7070 H     1 <1>   0.0800 
 36 H       -3.0350     3.7130     2.1920 H     1 <1>   0.0800 
 37 H       -4.4160     2.6720     2.2150 H     1 <1>   0.0800 
 38 H        3.1490     3.1870     0.2030 H     1 <1>   0.1500 
 39 H        1.5750    -0.7650     0.3880 H     1 <1>   0.1500 
 40 H        5.4010     2.2730    -0.0530 H     1 <1>   0.1500 
 41 H        3.8270    -1.6690     0.1490 H     1 <1>   0.1500 
 42 H       -5.6740     2.1430     0.3350 H     1 <1>   0.0800 
 43 H       -5.5190     2.9690    -1.1620 H     1 <1>   0.0800 
 44 H       -4.3250     5.4990    -1.4930 H     1 <1>   0.0800 
 45 H       -4.3990     6.7490    -0.2780 H     1 <1>   0.0800 
 46 H       -6.5860     5.5270    -1.3130 H     1 <1>   0.0800 
 47 H       -6.5940     6.2890     0.2340 H     1 <1>   0.0800 
 48 H       -5.4970     4.6860     1.8480 H     1 <1>   0.4000 
 49 H       -8.0490     3.5280    -1.0200 H     1 <1>   0.0800 
 50 H       -8.6090     4.4460     0.3550 H     1 <1>   0.0800 
 51 H       -8.1250     2.7750     0.5520 H     1 <1>   0.0800 
 52 H        5.6690    -1.4120    -1.8870 H     1 <1>   0.1500 
 53 H        6.8990     0.6690     1.6100 H     1 <1>   0.1500 
 54 H        7.9340    -2.3260    -2.1450 H     1 <1>   0.1500 
 55 H        9.1680    -0.2350     1.3540 H     1 <1>   0.1500 
 56 H        9.6910    -1.7370    -0.5240 H     1 <1>   0.1500 
@<TRIPOS>BOND
  1   1   2  2   
  2   2   3  am  
  3   2   4  am  
  4   3   5  1   
  5   3   6  1   
  6   4   7  1   
  7   4  29  1   
  8   5   8  1   
  9   5  30  1   
 10   5  31  1   
 11   6   9  1   
 12   6  32  1   
 13   6  33  1   
 14   7  10  ar  
 15   7  11  ar  
 16   8  12  1   
 17   8  34  1   
 18   8  35  1   
 19   9  12  1   
 20   9  36  1   
 21   9  37  1   
 22  10  13  ar  
 23  10  38  1   
 24  11  14  ar  
 25  11  39  1   
 26  12  15  1   
 27  12  16  1   
 28  13  17  ar  
 29  13  40  1   
 30  14  17  ar  
 31  14  41  1   
 32  15  18  1   
 33  16  19  1   
 34  16  42  1   
 35  16  43  1   
 36  17  20  1   
 37  18  21  1   
 38  18  44  1   
 39  18  45  1   
 40  19  21  1   
 41  19  22  1   
 42  19  23  1   
 43  20  24  ar  
 44  20  25  ar  
 45  21  46  1   
 46  21  47  1   
 47  22  48  1   
 48  23  49  1   
 49  23  50  1   
 50  23  51  1   
 51  24  26  ar  
 52  24  52  1   
 53  25  27  ar  
 54  25  53  1   
 55  26  28  ar  
 56  26  54  1   
 57  27  28  ar  
 58  27  55  1   
 59  28  56  1   
@<TRIPOS>SUBSTRUCTURE
  1 ****   4 GROUP 4 **** **** 0

# MOE 2024.06 (io_trps.svl 2023.06)
