@<TRIPOS>MOLECULE
NONAME
45 46 1 0 0 
SMALL
USER_CHARGES


@<TRIPOS>ATOM
  1 S        0.7190    -0.7980     1.8280 S.o2  1 <1>   1.4470 
  2 O        0.3410    -0.1470     3.0590 O.2   1 <1>  -0.6500 
  3 O        2.0030    -1.4570     1.7400 O.2   1 <1>  -0.6500 
  4 N       -0.4310    -1.9980     1.6100 N.am  1 <1>  -0.9140 
  5 C        0.4580     0.2830     0.3840 C.ar  1 <1>  -0.0090 
  6 C       -0.0510    -3.0430     0.6680 C.3   1 <1>   0.2760 
  7 C       -0.7010     1.0490     0.1870 C.ar  1 <1>  -0.1430 
  8 C        1.4450     0.3360    -0.5960 C.ar  1 <1>  -0.1500 
  9 C       -1.3010    -3.7510     0.1640 C.3   1 <1>  -0.0800 
 10 C        0.6330    -4.1910     1.4070 C.3   1 <1>   0.1200 
 11 C       -0.8540     1.8300    -0.9530 C.ar  1 <1>  -0.1500 
 12 C       -1.8310     1.0650     1.2100 C.3   1 <1>  -0.0970 
 13 C        1.2690     1.1170    -1.7180 C.ar  1 <1>   0.1900 
 14 C       -1.5590    -4.8170     1.2390 C.3   1 <1>   0.1200 
 15 C       -2.5050    -2.8260    -0.1090 C.3   1 <1>  -0.0550 
 16 O       -0.4090    -4.8710     2.0320 O.3   1 <1>  -0.5600 
 17 C        0.1330     1.8690    -1.9200 C.ar  1 <1>  -0.1500 
 18 F        2.2110     1.1410    -2.6210 F     1 <1>  -0.1900 
 19 S       -3.8660    -3.6670    -0.9110 S.o2  1 <1>   1.3330 
 20 O       -3.3980    -4.1000    -2.2080 O.2   1 <1>  -0.6500 
 21 O       -4.4330    -4.6310     0.0050 O.2   1 <1>  -0.6500 
 22 N       -5.0010    -2.4240    -1.1360 N.am  1 <1>  -0.8490 
 23 C       -5.8630    -2.6660    -2.2970 C.3   1 <1>   0.1160 
 24 C       -5.8250    -2.1690     0.0510 C.3   1 <1>   0.1160 
 25 H       -0.4940    -2.4610     2.5190 H     1 <1>   0.4200 
 26 H        0.5440    -2.6510    -0.1420 H     1 <1>   0.0800 
 27 H        2.3550    -0.2290    -0.4920 H     1 <1>   0.1500 
 28 H       -1.0480    -4.2630    -0.7490 H     1 <1>   0.0800 
 29 H        1.3480    -3.8680     2.1420 H     1 <1>   0.0800 
 30 H        1.1040    -4.8670     0.7140 H     1 <1>   0.0800 
 31 H       -1.7450     2.4180    -1.0970 H     1 <1>   0.1500 
 32 H       -2.6670     1.6420     0.8580 H     1 <1>   0.0800 
 33 H       -1.4910     1.5050     2.1310 H     1 <1>   0.0800 
 34 H       -2.1800     0.0690     1.4100 H     1 <1>   0.0800 
 35 H       -1.7310    -5.7880     0.8060 H     1 <1>   0.0800 
 36 H       -2.3850    -4.5570     1.8800 H     1 <1>   0.0800 
 37 H       -2.1840    -2.0190    -0.7390 H     1 <1>   0.0800 
 38 H       -2.8490    -2.4020     0.8140 H     1 <1>   0.0800 
 39 H        0.0280     2.4690    -2.8070 H     1 <1>   0.1500 
 40 H       -6.5600    -1.8560    -2.4210 H     1 <1>   0.0800 
 41 H       -6.4080    -3.5880    -2.1740 H     1 <1>   0.0800 
 42 H       -5.2660    -2.7350    -3.1910 H     1 <1>   0.0800 
 43 H       -6.4640    -1.3190    -0.1190 H     1 <1>   0.0800 
 44 H       -5.1990    -1.9590     0.9010 H     1 <1>   0.0800 
 45 H       -6.4360    -3.0280     0.2770 H     1 <1>   0.0800 
@<TRIPOS>BOND
  1   1   2  2   
  2   1   3  2   
  3   1   4  am  
  4   1   5  1   
  5   4   6  1   
  6   4  25  1   
  7   5   7  ar  
  8   5   8  ar  
  9   6   9  1   
 10   6  10  1   
 11   6  26  1   
 12   7  11  ar  
 13   7  12  1   
 14   8  13  ar  
 15   8  27  1   
 16   9  14  1   
 17   9  15  1   
 18   9  28  1   
 19  10  16  1   
 20  10  29  1   
 21  10  30  1   
 22  11  17  ar  
 23  11  31  1   
 24  12  32  1   
 25  12  33  1   
 26  12  34  1   
 27  13  17  ar  
 28  13  18  1   
 29  14  16  1   
 30  14  35  1   
 31  14  36  1   
 32  15  19  1   
 33  15  37  1   
 34  15  38  1   
 35  17  39  1   
 36  19  20  2   
 37  19  21  2   
 38  19  22  am  
 39  22  23  1   
 40  22  24  1   
 41  23  40  1   
 42  23  41  1   
 43  23  42  1   
 44  24  43  1   
 45  24  44  1   
 46  24  45  1   
@<TRIPOS>SUBSTRUCTURE
  1 ****   4 GROUP 4 **** **** 0

# MOE 2024.06 (io_trps.svl 2023.06)
