@<TRIPOS>MOLECULE
NONAME
50 52 1 0 0 
SMALL
USER_CHARGES


@<TRIPOS>ATOM
  1 O        2.8070     0.3440    -1.9190 O.2   1 <1>  -0.5700 
  2 C        3.1490    -0.5800    -1.2210 C.2   1 <1>   0.5690 
  3 N        2.7660    -0.7130     0.0850 N.am  1 <1>  -0.6600 
  4 C        4.0690    -1.6360    -1.7990 C.3   1 <1>  -0.0990 
  5 C        3.2430    -1.8640     0.8890 C.3   1 <1>   0.1400 
  6 C        1.8920     0.2730     0.7730 C.3   1 <1>   0.0600 
  7 C        3.6580    -3.0620    -1.3700 C.3   1 <1>  -0.0800 
  8 C        3.1200    -3.1620     0.0740 C.3   1 <1>  -0.0800 
  9 C        4.8030    -4.0730    -1.5060 C.3   1 <1>  -0.1600 
 10 C        3.8350    -4.3410     0.7510 C.3   1 <1>  -0.1600 
 11 C        4.6960    -5.0200    -0.3130 C.3   1 <1>   0.2200 
 12 N        6.0320    -5.4820     0.1820 N.am  1 <1>  -0.6600 
 13 C        7.0890    -4.6900     0.6210 C.2   1 <1>   0.5440 
 14 C        6.2580    -6.9410    -0.0460 C.3   1 <1>   0.0600 
 15 O        8.2130    -5.1540     0.5890 O.2   1 <1>  -0.5700 
 16 C        6.9350    -3.3460     1.1480 C.ar  1 <1>   0.0860 
 17 C        7.0750    -2.2190     0.3440 C.ar  1 <1>  -0.1500 
 18 C        6.6640    -3.1390     2.5010 C.ar  1 <1>  -0.1500 
 19 C        6.8640    -0.9460     0.8380 C.ar  1 <1>   0.0820 
 20 C        6.4900    -1.8670     3.0180 C.ar  1 <1>  -0.1500 
 21 O        6.9260     0.0750    -0.0470 O.3   1 <1>  -0.3620 
 22 C        6.5820    -0.7650     2.1870 C.ar  1 <1>  -0.1500 
 23 C        6.1290     1.2220     0.1490 C.3   1 <1>   0.1200 
 24 C        6.0630     1.9820    -1.1710 C.3   1 <1>  -0.2400 
 25 H        4.0710    -1.5620    -2.8700 H     1 <1>   0.0800 
 26 H        5.0580    -1.4070    -1.4530 H     1 <1>   0.0800 
 27 H        4.2690    -1.6930     1.1530 H     1 <1>   0.0800 
 28 H        2.6680    -1.9490     1.7960 H     1 <1>   0.0800 
 29 H        2.4040     0.6800     1.6270 H     1 <1>   0.0800 
 30 H        0.9860    -0.2090     1.0960 H     1 <1>   0.0800 
 31 H        1.6340     1.0790     0.1080 H     1 <1>   0.0800 
 32 H        2.8580    -3.3760    -2.0210 H     1 <1>   0.0800 
 33 H        2.0700    -3.3980     0.0170 H     1 <1>   0.0800 
 34 H        5.7520    -3.5800    -1.5140 H     1 <1>   0.0800 
 35 H        4.7120    -4.6220    -2.4260 H     1 <1>   0.0800 
 36 H        3.1120    -5.0420     1.1270 H     1 <1>   0.0800 
 37 H        4.4230    -4.0080     1.5800 H     1 <1>   0.0800 
 38 H        4.1380    -5.8760    -0.6550 H     1 <1>   0.0800 
 39 H        5.4150    -7.5050     0.3120 H     1 <1>   0.0800 
 40 H        7.1340    -7.2820     0.4780 H     1 <1>   0.0800 
 41 H        6.3920    -7.1250    -1.0980 H     1 <1>   0.0800 
 42 H        7.3490    -2.3330    -0.6880 H     1 <1>   0.1500 
 43 H        6.5940    -3.9960     3.1490 H     1 <1>   0.1500 
 44 H        6.2850    -1.7350     4.0660 H     1 <1>   0.1500 
 45 H        6.4420     0.2190     2.5940 H     1 <1>   0.1500 
 46 H        5.1430     0.9110     0.4510 H     1 <1>   0.0800 
 47 H        6.5820     1.8240     0.9170 H     1 <1>   0.0800 
 48 H        5.6100     1.3670    -1.9290 H     1 <1>   0.0800 
 49 H        7.0500     2.2730    -1.4840 H     1 <1>   0.0800 
 50 H        5.4630     2.8660    -1.0520 H     1 <1>   0.0800 
@<TRIPOS>BOND
  1   1   2  2   
  2   2   3  am  
  3   2   4  1   
  4   3   5  1   
  5   3   6  1   
  6   4   7  1   
  7   4  25  1   
  8   4  26  1   
  9   5   8  1   
 10   5  27  1   
 11   5  28  1   
 12   6  29  1   
 13   6  30  1   
 14   6  31  1   
 15   7   8  1   
 16   7   9  1   
 17   7  32  1   
 18   8  10  1   
 19   8  33  1   
 20   9  11  1   
 21   9  34  1   
 22   9  35  1   
 23  10  11  1   
 24  10  36  1   
 25  10  37  1   
 26  11  12  1   
 27  11  38  1   
 28  12  13  am  
 29  12  14  1   
 30  13  15  2   
 31  13  16  1   
 32  14  39  1   
 33  14  40  1   
 34  14  41  1   
 35  16  17  ar  
 36  16  18  ar  
 37  17  19  ar  
 38  17  42  1   
 39  18  20  ar  
 40  18  43  1   
 41  19  21  1   
 42  19  22  ar  
 43  20  22  ar  
 44  20  44  1   
 45  21  23  1   
 46  22  45  1   
 47  23  24  1   
 48  23  46  1   
 49  23  47  1   
 50  24  48  1   
 51  24  49  1   
 52  24  50  1   
@<TRIPOS>SUBSTRUCTURE
  1 ****  17 GROUP 4 **** **** 0

# MOE 2024.06 (io_trps.svl 2023.06)
