@<TRIPOS>MOLECULE
NONAME
47 49 1 0 0 
SMALL
USER_CHARGES


@<TRIPOS>ATOM
  1 S       -0.2640     0.0700     0.1670 S.o2  1 <1>   1.3330 
  2 O       -0.3450    -0.3670     1.5430 O.2   1 <1>  -0.6500 
  3 O       -0.9290     1.2890    -0.2330 O.2   1 <1>  -0.6500 
  4 N       -0.8440    -1.1930    -0.8080 N.am  1 <1>  -0.8490 
  5 C        1.4510     0.1930    -0.3400 C.3   1 <1>  -0.0550 
  6 C       -2.2750    -1.0590    -1.0990 C.3   1 <1>   0.1160 
  7 C       -0.5710    -2.5260    -0.2570 C.3   1 <1>   0.1160 
  8 C        2.2180     1.3460     0.3380 C.3   1 <1>  -0.0800 
  9 C        3.5820     1.5420    -0.3000 C.3   1 <1>   0.2200 
 10 C        2.6050     1.0070     1.7780 C.3   1 <1>   0.1200 
 11 N        4.0370     2.9290    -0.0590 N.am  1 <1>  -0.7300 
 12 C        4.4570     0.5590     0.4770 C.3   1 <1>   0.1200 
 13 O        3.8140     0.3160     1.6960 O.3   1 <1>  -0.5600 
 14 C        4.1550     3.9130    -0.9960 C.2   1 <1>   0.7160 
 15 O        3.8930     3.6410    -2.1530 O.2   1 <1>  -0.5700 
 16 C        4.5830     5.2360    -0.5810 C.2   1 <1>   0.1410 
 17 N        4.9110     5.5520     0.7060 N.2   1 <1>  -0.5650 
 18 C        4.7330     6.3590    -1.3370 C.2   1 <1>  -0.0150 
 19 C        5.2380     6.8270     0.6670 C.2   1 <1>   0.1420 
 20 F        4.5230     6.5020    -2.6210 F     1 <1>  -0.1370 
 21 N        5.1450     7.3840    -0.5890 N.pl3 1 <1>   0.3340 
 22 C        5.6610     7.6580     1.7370 C.2   1 <1>  -0.1050 
 23 C        5.4500     8.7210    -0.8210 C.2   1 <1>  -0.1810 
 24 C        5.9610     8.9680     1.5140 C.2   1 <1>  -0.1500 
 25 C        5.8540     9.5160     0.2050 C.2   1 <1>  -0.1380 
 26 C        6.1990    10.9800     0.0060 C.3   1 <1>  -0.1020 
 27 H        1.9510    -0.7350    -0.1440 H     1 <1>   0.0800 
 28 H        1.4660     0.3550    -1.4010 H     1 <1>   0.0800 
 29 H       -2.6060    -1.8660    -1.7300 H     1 <1>   0.0800 
 30 H       -2.4610    -0.1320    -1.6160 H     1 <1>   0.0800 
 31 H       -2.8450    -1.0650    -0.1840 H     1 <1>   0.0800 
 32 H       -0.8750    -3.2850    -0.9580 H     1 <1>   0.0800 
 33 H       -1.1060    -2.6680     0.6680 H     1 <1>   0.0800 
 34 H        0.4820    -2.6420    -0.0670 H     1 <1>   0.0800 
 35 H        1.6260     2.2450     0.2860 H     1 <1>   0.0800 
 36 H        3.5880     1.3300    -1.3560 H     1 <1>   0.0800 
 37 H        1.8860     0.3960     2.2940 H     1 <1>   0.0800 
 38 H        2.7810     1.9040     2.3460 H     1 <1>   0.0800 
 39 H        4.2690     3.1830     0.9050 H     1 <1>   0.3700 
 40 H        5.4440     0.9450     0.6630 H     1 <1>   0.0800 
 41 H        4.5260    -0.3800    -0.0430 H     1 <1>   0.0800 
 42 H        5.7310     7.2110     2.7120 H     1 <1>   0.1500 
 43 H        5.3450     9.0610    -1.8350 H     1 <1>   0.1500 
 44 H        6.2830     9.6100     2.3160 H     1 <1>   0.1500 
 45 H        5.5560    11.5950     0.6090 H     1 <1>   0.0800 
 46 H        6.0770    11.2650    -1.0240 H     1 <1>   0.0800 
 47 H        7.2200    11.1600     0.2910 H     1 <1>   0.0800 
@<TRIPOS>BOND
  1   1   2  2   
  2   1   3  2   
  3   1   4  am  
  4   1   5  1   
  5   4   6  1   
  6   4   7  1   
  7   5   8  1   
  8   5  27  1   
  9   5  28  1   
 10   6  29  1   
 11   6  30  1   
 12   6  31  1   
 13   7  32  1   
 14   7  33  1   
 15   7  34  1   
 16   8   9  1   
 17   8  10  1   
 18   8  35  1   
 19   9  11  1   
 20   9  12  1   
 21   9  36  1   
 22  10  13  1   
 23  10  37  1   
 24  10  38  1   
 25  11  14  am  
 26  11  39  1   
 27  12  13  1   
 28  12  40  1   
 29  12  41  1   
 30  14  15  2   
 31  14  16  1   
 32  16  17  1   
 33  16  18  2   
 34  17  19  2   
 35  18  20  1   
 36  18  21  1   
 37  19  21  1   
 38  19  22  1   
 39  21  23  1   
 40  22  24  2   
 41  22  42  1   
 42  23  25  2   
 43  23  43  1   
 44  24  25  1   
 45  24  44  1   
 46  25  26  1   
 47  26  45  1   
 48  26  46  1   
 49  26  47  1   
@<TRIPOS>SUBSTRUCTURE
  1 ****  11 GROUP 4 **** **** 0

# MOE 2024.06 (io_trps.svl 2023.06)
