@<TRIPOS>MOLECULE
NONAME
53 55 1 0 0 
SMALL
USER_CHARGES


@<TRIPOS>ATOM
  1 O       -0.5560     0.3620    -1.3380 O.2   1 <1>  -0.5700 
  2 C       -1.6110     0.9340    -1.0720 C.2   1 <1>   0.5440 
  3 N       -2.7760     0.2040    -1.2810 N.am  1 <1>  -0.6600 
  4 C       -1.5680     2.3250    -0.6880 C.ar  1 <1>   0.0860 
  5 C       -4.1420     0.7950    -1.1530 C.3   1 <1>   0.1400 
  6 C       -2.7790    -1.2870    -1.2740 C.3   1 <1>   0.1400 
  7 C       -2.2500     2.8960     0.4240 C.ar  1 <1>  -0.1710 
  8 C       -0.7870     3.2020    -1.4500 C.ar  1 <1>  -0.1500 
  9 C       -4.9350     0.1270    -0.0070 C.3   1 <1>   0.2000 
 10 C       -3.6530    -1.8280    -0.1230 C.3   1 <1>   0.2000 
 11 O       -2.9530     2.2290     1.2150 O.3   1 <1>  -0.8290 
 12 C       -2.1470     4.2650     0.6870 C.ar  1 <1>  -0.1500 
 13 C       -0.6850     4.5480    -1.1720 C.ar  1 <1>  -0.1500 
 14 O       -4.9320    -1.2680    -0.1940 O.3   1 <1>  -0.5600 
 15 C       -6.4040     0.6060     0.0810 C.3   1 <1>  -0.0800 
 16 C       -3.8360    -3.3510    -0.1620 C.3   1 <1>  -0.1600 
 17 C       -1.3730     5.1020    -0.0850 C.ar  1 <1>  -0.0230 
 18 C       -6.4920     2.1220     0.3300 C.3   1 <1>  -0.2400 
 19 C       -7.1660    -0.1210     1.2030 C.3   1 <1>  -0.2400 
 20 C       -2.5230    -4.1210     0.0570 C.3   1 <1>  -0.1600 
 21 N       -1.2650     6.4880     0.2200 N.pl3 1 <1>   0.5930 
 22 C       -2.7720    -5.6330     0.1060 C.3   1 <1>  -0.1600 
 23 N       -0.9140     7.4460    -0.6320 N.2   1 <1>  -0.4180 
 24 C       -1.4650     7.0960     1.3820 C.2   1 <1>   0.0360 
 25 C       -1.4650    -6.4000     0.3210 C.3   1 <1>  -0.2400 
 26 N       -0.9190     8.5530     0.0180 N.2   1 <1>   0.0000 
 27 N       -1.2620     8.3540     1.2850 N.2   1 <1>  -0.3380 
 28 H       -4.0790     1.8510    -0.9800 H     1 <1>   0.0800 
 29 H       -4.6720     0.6500    -2.0760 H     1 <1>   0.0800 
 30 H       -3.1610    -1.6420    -2.2130 H     1 <1>   0.0800 
 31 H       -1.7770    -1.6580    -1.1590 H     1 <1>   0.0800 
 32 H       -0.2480     2.7910    -2.2840 H     1 <1>   0.1500 
 33 H       -4.4470     0.3410     0.9280 H     1 <1>   0.0800 
 34 H       -3.2160    -1.5430     0.8200 H     1 <1>   0.0800 
 35 H       -2.7100     4.6140     1.5320 H     1 <1>   0.1500 
 36 H       -0.0700     5.1770    -1.7930 H     1 <1>   0.1500 
 37 H       -6.8860     0.3890    -0.8560 H     1 <1>   0.0800 
 38 H       -4.5290    -3.6200     0.6150 H     1 <1>   0.0800 
 39 H       -4.2640    -3.6280    -1.1090 H     1 <1>   0.0800 
 40 H       -5.9110     2.3870     1.1990 H     1 <1>   0.0800 
 41 H       -7.5110     2.4250     0.4870 H     1 <1>   0.0800 
 42 H       -6.1060     2.6720    -0.5080 H     1 <1>   0.0800 
 43 H       -6.6880     0.0560     2.1500 H     1 <1>   0.0800 
 44 H       -7.1790    -1.1800     1.0200 H     1 <1>   0.0800 
 45 H       -8.1830     0.2250     1.2550 H     1 <1>   0.0800 
 46 H       -1.8330    -3.9040    -0.7400 H     1 <1>   0.0800 
 47 H       -2.0740    -3.8010     0.9830 H     1 <1>   0.0800 
 48 H       -3.4530    -5.8600     0.9090 H     1 <1>   0.0800 
 49 H       -3.2250    -5.9540    -0.8160 H     1 <1>   0.0800 
 50 H       -1.7550     6.5700     2.2710 H     1 <1>   0.1500 
 51 H       -1.0060    -6.1060     1.2490 H     1 <1>   0.0800 
 52 H       -0.7780    -6.2040    -0.4830 H     1 <1>   0.0800 
 53 H       -1.6600    -7.4570     0.3550 H     1 <1>   0.0800 
@<TRIPOS>BOND
  1   1   2  2   
  2   2   3  am  
  3   2   4  1   
  4   3   5  1   
  5   3   6  1   
  6   4   7  ar  
  7   4   8  ar  
  8   5   9  1   
  9   5  28  1   
 10   5  29  1   
 11   6  10  1   
 12   6  30  1   
 13   6  31  1   
 14   7  11  1   
 15   7  12  ar  
 16   8  13  ar  
 17   8  32  1   
 18   9  14  1   
 19   9  15  1   
 20   9  33  1   
 21  10  14  1   
 22  10  16  1   
 23  10  34  1   
 24  12  17  ar  
 25  12  35  1   
 26  13  17  ar  
 27  13  36  1   
 28  15  18  1   
 29  15  19  1   
 30  15  37  1   
 31  16  20  1   
 32  16  38  1   
 33  16  39  1   
 34  17  21  1   
 35  18  40  1   
 36  18  41  1   
 37  18  42  1   
 38  19  43  1   
 39  19  44  1   
 40  19  45  1   
 41  20  22  1   
 42  20  46  1   
 43  20  47  1   
 44  21  23  1   
 45  21  24  1   
 46  22  25  1   
 47  22  48  1   
 48  22  49  1   
 49  23  26  2   
 50  24  27  2   
 51  24  50  1   
 52  25  51  1   
 53  25  52  1   
 54  25  53  1   
 55  26  27  1   
@<TRIPOS>SUBSTRUCTURE
  1 ****   7 GROUP 4 **** **** 0

# MOE 2024.06 (io_trps.svl 2023.06)
