@<TRIPOS>MOLECULE
NONAME
45 47 1 0 0 
SMALL
USER_CHARGES


@<TRIPOS>ATOM
  1 S        1.8180     0.5220     1.8520 S.3   1 <1>  -0.0800 
  2 C        2.3620     1.7390     0.7130 C.2   1 <1>  -0.1100 
  3 C        2.5110    -0.7580     0.8750 C.2   1 <1>  -0.1100 
  4 C        3.0310     1.1770    -0.3130 C.2   1 <1>  -0.1810 
  5 C        3.1060    -0.2520    -0.2210 C.2   1 <1>  -0.1500 
  6 C        3.6720     1.9100    -1.4870 C.3   1 <1>   0.0820 
  7 C        3.9280     3.3930    -1.2350 C.2   1 <1>   0.5690 
  8 O        3.4320     4.1800    -2.0040 O.2   1 <1>  -0.5700 
  9 N        4.7270     3.8400    -0.2030 N.am  1 <1>  -0.6600 
 10 C        5.5610     2.9780     0.6930 C.3   1 <1>   0.1400 
 11 C        4.7250     5.2840     0.1550 C.3   1 <1>   0.1400 
 12 C        7.0740     3.1080     0.4070 C.3   1 <1>   0.3430 
 13 C        5.8150     6.0270    -0.6200 C.3   1 <1>  -0.1600 
 14 N        7.5800     4.5220     0.3140 N.4   1 <1>  -0.9590 
 15 C        7.0750     5.2130    -0.9140 C.3   1 <1>   0.3430 
 16 C        9.0720     4.5430     0.3350 C.3   1 <1>   0.5230 
 17 C        9.5950     5.9530     0.5330 C.2   1 <1>  -0.0400 
 18 O       10.8330     6.1860     0.1500 O.3   1 <1>  -0.2800 
 19 C        9.0430     7.0800     1.0410 C.2   1 <1>  -0.1500 
 20 C       11.1040     7.4500     0.3970 C.2   1 <1>  -0.0400 
 21 C       10.0370     8.0620     0.9490 C.2   1 <1>  -0.1500 
 22 C       12.4770     7.9830     0.0490 C.3   1 <1>  -0.0600 
 23 H        2.1180     2.7630     0.9390 H     1 <1>   0.1500 
 24 H        2.3930    -1.7680     1.2280 H     1 <1>   0.1500 
 25 H        3.5950    -0.8400    -0.9790 H     1 <1>   0.1500 
 26 H        3.0280     1.8100    -2.3420 H     1 <1>   0.0800 
 27 H        4.6080     1.4460    -1.7350 H     1 <1>   0.0800 
 28 H        5.2900     1.9440     0.5880 H     1 <1>   0.0800 
 29 H        5.3650     3.2410     1.7190 H     1 <1>   0.0800 
 30 H        4.8800     5.3930     1.2150 H     1 <1>   0.0800 
 31 H        3.7640     5.7180    -0.0710 H     1 <1>   0.0800 
 32 H        7.2870     2.5930    -0.5150 H     1 <1>   0.0800 
 33 H        7.6010     2.5890     1.1910 H     1 <1>   0.0800 
 34 H        6.0710     6.9320    -0.0990 H     1 <1>   0.0800 
 35 H        5.3980     6.3300    -1.5650 H     1 <1>   0.0800 
 36 H        7.2660     5.0570     1.1310 H     1 <1>   0.4500 
 37 H        7.8280     5.8800    -1.3070 H     1 <1>   0.0800 
 38 H        6.8530     4.4830    -1.6760 H     1 <1>   0.0800 
 39 H        9.4540     4.1590    -0.5970 H     1 <1>   0.0800 
 40 H        9.4480     3.9240     1.1330 H     1 <1>   0.0800 
 41 H        8.0650     7.2590     1.4500 H     1 <1>   0.1500 
 42 H        9.9400     9.0870     1.2650 H     1 <1>   0.1500 
 43 H       12.6560     7.8710    -1.0050 H     1 <1>   0.0800 
 44 H       13.2290     7.4360     0.5890 H     1 <1>   0.0800 
 45 H       12.5500     9.0240     0.3070 H     1 <1>   0.0800 
@<TRIPOS>BOND
  1   1   2  1   
  2   1   3  1   
  3   2   4  2   
  4   2  23  1   
  5   3   5  2   
  6   3  24  1   
  7   4   5  1   
  8   4   6  1   
  9   5  25  1   
 10   6   7  1   
 11   6  26  1   
 12   6  27  1   
 13   7   8  2   
 14   7   9  am  
 15   9  10  1   
 16   9  11  1   
 17  10  12  1   
 18  10  28  1   
 19  10  29  1   
 20  11  13  1   
 21  11  30  1   
 22  11  31  1   
 23  12  14  1   
 24  12  32  1   
 25  12  33  1   
 26  13  15  1   
 27  13  34  1   
 28  13  35  1   
 29  14  15  1   
 30  14  16  1   
 31  14  36  1   
 32  15  37  1   
 33  15  38  1   
 34  16  17  1   
 35  16  39  1   
 36  16  40  1   
 37  17  18  1   
 38  17  19  2   
 39  18  20  1   
 40  19  21  1   
 41  19  41  1   
 42  20  21  2   
 43  20  22  1   
 44  21  42  1   
 45  22  43  1   
 46  22  44  1   
 47  22  45  1   
@<TRIPOS>SUBSTRUCTURE
  1 ****  12 GROUP 4 **** **** 0

# MOE 2024.06 (io_trps.svl 2023.06)
