@<TRIPOS>MOLECULE
NONAME
51 53 1 0 0 
SMALL
USER_CHARGES


@<TRIPOS>ATOM
  1 O        0.1160    -0.4660    -0.1130 O.3   1 <1>  -0.5600 
  2 C       -1.1900     0.0340    -0.2970 C.3   1 <1>   0.5600 
  3 C        1.0810     0.2930    -0.7980 C.3   1 <1>   0.2000 
  4 O       -1.5290    -0.2800    -1.6370 O.3   1 <1>  -0.5600 
  5 C       -1.2720     1.6290    -0.0620 C.3   1 <1>   0.5600 
  6 C       -2.1060    -0.7490     0.6580 C.3   1 <1>  -0.2400 
  7 C        2.5150    -0.2650    -0.7050 C.3   1 <1>   0.4800 
  8 C        1.0590     1.7240    -0.2530 C.3   1 <1>   0.2000 
  9 C       -1.5310    -1.6200    -2.0470 C.3   1 <1>   0.0400 
 10 O       -0.1630     2.3050    -0.6190 O.3   1 <1>  -0.5600 
 11 O       -1.2530     1.9200     1.3240 O.3   1 <1>  -0.5600 
 12 C       -2.5320     2.2510    -0.6850 C.3   1 <1>  -0.2400 
 13 O        3.4190     0.4970    -1.4740 O.3   1 <1>  -0.5600 
 14 O        2.9990    -0.1830     0.6020 O.3   1 <1>  -0.5600 
 15 C        2.2660     2.5450    -0.7540 C.3   1 <1>   0.2000 
 16 C       -1.2510     3.2550     1.7490 C.3   1 <1>   0.0400 
 17 C        3.0310     1.8010    -1.8660 C.3   1 <1>   0.1200 
 18 C        4.0510    -1.0570     0.8730 C.3   1 <1>   0.2630 
 19 O        3.1520     2.7170     0.3030 O.3   1 <1>  -0.6800 
 20 C        3.5700    -2.5050     0.8440 C.ar  1 <1>  -0.1440 
 21 C        2.3530    -2.8590     1.4110 C.ar  1 <1>  -0.1500 
 22 C        4.3470    -3.4840     0.2440 C.ar  1 <1>  -0.1500 
 23 C        1.9200    -4.1730     1.3790 C.ar  1 <1>  -0.1500 
 24 C        3.9150    -4.7990     0.2110 C.ar  1 <1>  -0.1500 
 25 C        2.7010    -5.1440     0.7790 C.ar  1 <1>  -0.1500 
 26 H        0.8150     0.2900    -1.8400 H     1 <1>   0.0800 
 27 H       -3.1340    -0.5190     0.4540 H     1 <1>   0.0800 
 28 H       -1.8940    -0.4690     1.6730 H     1 <1>   0.0800 
 29 H       -1.9430    -1.8060     0.5750 H     1 <1>   0.0800 
 30 H        2.5380    -1.2830    -1.0550 H     1 <1>   0.0800 
 31 H        1.1060     1.6920     0.8230 H     1 <1>   0.0800 
 32 H       -1.6150    -1.6380    -3.1190 H     1 <1>   0.0800 
 33 H       -2.3780    -2.1250    -1.6180 H     1 <1>   0.0800 
 34 H       -0.6140    -2.0990    -1.7510 H     1 <1>   0.0800 
 35 H       -3.4080     1.8800    -0.1890 H     1 <1>   0.0800 
 36 H       -2.5950     1.9830    -1.7230 H     1 <1>   0.0800 
 37 H       -2.5060     3.3220    -0.6270 H     1 <1>   0.0800 
 38 H        1.9530     3.5220    -1.0780 H     1 <1>   0.0800 
 39 H       -1.0770     3.2630     2.8100 H     1 <1>   0.0800 
 40 H       -2.2070     3.7020     1.5440 H     1 <1>   0.0800 
 41 H       -0.4630     3.7990     1.2570 H     1 <1>   0.0800 
 42 H        3.9190     2.3470    -2.1350 H     1 <1>   0.0800 
 43 H        2.4130     1.7150    -2.7430 H     1 <1>   0.0800 
 44 H        4.8370    -0.8880     0.1560 H     1 <1>   0.0800 
 45 H        4.4230    -0.8210     1.8550 H     1 <1>   0.0800 
 46 H        3.4540     1.8220     0.5870 H     1 <1>   0.4000 
 47 H        1.7370    -2.1060     1.8750 H     1 <1>   0.1500 
 48 H        5.2920    -3.2290    -0.2020 H     1 <1>   0.1500 
 49 H        0.9750    -4.4350     1.8210 H     1 <1>   0.1500 
 50 H        4.5230    -5.5540    -0.2560 H     1 <1>   0.1500 
 51 H        2.3650    -6.1660     0.7550 H     1 <1>   0.1500 
@<TRIPOS>BOND
  1   1   2  1   
  2   1   3  1   
  3   2   4  1   
  4   2   5  1   
  5   2   6  1   
  6   3   7  1   
  7   3   8  1   
  8   3  26  1   
  9   4   9  1   
 10   5  10  1   
 11   5  11  1   
 12   5  12  1   
 13   6  27  1   
 14   6  28  1   
 15   6  29  1   
 16   7  13  1   
 17   7  14  1   
 18   7  30  1   
 19   8  10  1   
 20   8  15  1   
 21   8  31  1   
 22   9  32  1   
 23   9  33  1   
 24   9  34  1   
 25  11  16  1   
 26  12  35  1   
 27  12  36  1   
 28  12  37  1   
 29  13  17  1   
 30  14  18  1   
 31  15  17  1   
 32  15  19  1   
 33  15  38  1   
 34  16  39  1   
 35  16  40  1   
 36  16  41  1   
 37  17  42  1   
 38  17  43  1   
 39  18  20  1   
 40  18  44  1   
 41  18  45  1   
 42  19  46  1   
 43  20  21  ar  
 44  20  22  ar  
 45  21  23  ar  
 46  21  47  1   
 47  22  24  ar  
 48  22  48  1   
 49  23  25  ar  
 50  23  49  1   
 51  24  25  ar  
 52  24  50  1   
 53  25  51  1   
@<TRIPOS>SUBSTRUCTURE
  1 ****   3 GROUP 4 **** **** 0

# MOE 2024.06 (io_trps.svl 2023.06)
