@<TRIPOS>MOLECULE
NONAME
56 60 1 0 0 
SMALL
USER_CHARGES


@<TRIPOS>ATOM
  1 O        0.3910    -0.3330    -0.0240 O.2   1 <1>  -0.5700 
  2 C        0.4980    -1.1980     0.8080 C.2   1 <1>   0.6590 
  3 O        0.8570    -0.9260     2.0600 O.3   1 <1>  -0.4300 
  4 C        0.2630    -2.6790     0.4760 C.3   1 <1>   0.2410 
  5 C        1.1380     0.3960     2.4810 C.3   1 <1>   0.0400 
  6 C        1.6300    -3.4080     0.3170 C.2   1 <1>  -0.3320 
  7 C       -0.4700    -2.8100    -0.8770 C.3   1 <1>   0.4230 
  8 C       -0.6290    -3.4410     1.5320 C.3   1 <1>  -0.1600 
  9 N        2.5180    -3.4410     1.3610 N.pl3 1 <1>   0.0330 
 10 C        2.1740    -4.0750    -0.7530 C.2   1 <1>  -0.1810 
 11 N       -0.4910    -4.3080    -1.0460 N.4   1 <1>  -0.9590 
 12 C       -1.9190    -2.2380    -0.8590 C.3   1 <1>  -0.0800 
 13 C       -1.9230    -4.0470     0.8890 C.3   1 <1>  -0.0800 
 14 C        3.6210    -4.1480     0.9680 C.ar  1 <1>  -0.1520 
 15 C        3.4420    -4.5550    -0.3480 C.ar  1 <1>   0.0000 
 16 C        1.6360    -4.3180    -2.1850 C.3   1 <1>   0.0210 
 17 C        0.1710    -4.8110    -2.2570 C.3   1 <1>   0.3430 
 18 C       -1.5920    -4.9820    -0.3050 C.3   1 <1>   0.3430 
 19 C       -2.7290    -2.8810     0.2960 C.3   1 <1>  -0.1600 
 20 C       -2.5990    -2.3980    -2.2360 C.3   1 <1>  -0.1600 
 21 C        4.7830    -4.4660     1.6750 C.ar  1 <1>  -0.1500 
 22 C        4.4530    -5.2960    -0.9720 C.ar  1 <1>  -0.1500 
 23 C       -3.8930    -1.5820    -2.3550 C.3   1 <1>  -0.2400 
 24 C        5.7650    -5.1980     1.0500 C.ar  1 <1>  -0.1500 
 25 C        5.6000    -5.6180    -0.2840 C.ar  1 <1>   0.0830 
 26 O        6.5320    -6.3460    -0.9590 O.3   1 <1>  -0.3630 
 27 C        7.7510    -6.7100    -0.3480 C.3   1 <1>   0.0400 
 28 H        1.3970     0.3760     3.5250 H     1 <1>   0.0800 
 29 H        0.2640     1.0060     2.3300 H     1 <1>   0.0800 
 30 H        1.9610     0.7800     1.9030 H     1 <1>   0.0800 
 31 H        0.1120    -2.3320    -1.6480 H     1 <1>   0.0800 
 32 H       -0.0660    -4.2340     1.9920 H     1 <1>   0.0800 
 33 H       -0.9200    -2.7710     2.3230 H     1 <1>   0.0800 
 34 H        2.4220    -2.9830     2.2770 H     1 <1>   0.2700 
 35 H        0.2820    -4.5330    -0.3960 H     1 <1>   0.4500 
 36 H       -1.8630    -1.1790    -0.6720 H     1 <1>   0.0800 
 37 H       -2.5150    -4.5680     1.6240 H     1 <1>   0.0800 
 38 H        2.2490    -5.0380    -2.6960 H     1 <1>   0.0800 
 39 H        1.7260    -3.4010    -2.7400 H     1 <1>   0.0800 
 40 H        0.1580    -5.8890    -2.2530 H     1 <1>   0.0800 
 41 H       -0.3190    -4.4540    -3.1480 H     1 <1>   0.0800 
 42 H       -2.4580    -5.1080    -0.9340 H     1 <1>   0.0800 
 43 H       -1.2660    -5.9470     0.0490 H     1 <1>   0.0800 
 44 H       -2.9300    -2.1460     1.0580 H     1 <1>   0.0800 
 45 H       -3.6810    -3.2440    -0.0520 H     1 <1>   0.0800 
 46 H       -1.9240    -2.0530    -3.0020 H     1 <1>   0.0800 
 47 H       -2.8160    -3.4330    -2.4360 H     1 <1>   0.0800 
 48 H        4.9030    -4.1390     2.6930 H     1 <1>   0.1500 
 49 H        4.3460    -5.6180    -1.9890 H     1 <1>   0.1500 
 50 H       -3.6990    -0.5370    -2.1820 H     1 <1>   0.0800 
 51 H       -4.6370    -1.9130    -1.6530 H     1 <1>   0.0800 
 52 H       -4.3010    -1.6860    -3.3450 H     1 <1>   0.0800 
 53 H        6.6560    -5.4420     1.5950 H     1 <1>   0.1500 
 54 H        8.3290    -7.2680    -1.0630 H     1 <1>   0.0800 
 55 H        7.5420    -7.3230     0.5110 H     1 <1>   0.0800 
 56 H        8.2810    -5.8170    -0.0680 H     1 <1>   0.0800 
@<TRIPOS>BOND
  1   1   2  2   
  2   2   3  1   
  3   2   4  1   
  4   3   5  1   
  5   4   6  1   
  6   4   7  1   
  7   4   8  1   
  8   5  28  1   
  9   5  29  1   
 10   5  30  1   
 11   6   9  1   
 12   6  10  2   
 13   7  11  1   
 14   7  12  1   
 15   7  31  1   
 16   8  13  1   
 17   8  32  1   
 18   8  33  1   
 19   9  14  1   
 20   9  34  1   
 21  10  15  1   
 22  10  16  1   
 23  11  17  1   
 24  11  18  1   
 25  11  35  1   
 26  12  19  1   
 27  12  20  1   
 28  12  36  1   
 29  13  18  1   
 30  13  19  1   
 31  13  37  1   
 32  14  15  ar  
 33  14  21  ar  
 34  15  22  ar  
 35  16  17  1   
 36  16  38  1   
 37  16  39  1   
 38  17  40  1   
 39  17  41  1   
 40  18  42  1   
 41  18  43  1   
 42  19  44  1   
 43  19  45  1   
 44  20  23  1   
 45  20  46  1   
 46  20  47  1   
 47  21  24  ar  
 48  21  48  1   
 49  22  25  ar  
 50  22  49  1   
 51  23  50  1   
 52  23  51  1   
 53  23  52  1   
 54  24  25  ar  
 55  24  53  1   
 56  25  26  1   
 57  26  27  1   
 58  27  54  1   
 59  27  55  1   
 60  27  56  1   
@<TRIPOS>SUBSTRUCTURE
  1 ****   6 GROUP 4 **** **** 0

# MOE 2024.06 (io_trps.svl 2023.06)
