@<TRIPOS>MOLECULE
NONAME
47 49 1 0 0 
SMALL
USER_CHARGES


@<TRIPOS>ATOM
  1 F       -0.0220     0.8050    -0.3850 F     1 <1>  -0.1900 
  2 C        0.7020     1.8880    -0.2590 C.ar  1 <1>   0.1900 
  3 C        1.0560     2.5890    -1.3960 C.ar  1 <1>  -0.1500 
  4 C        1.0860     2.2900     1.0060 C.ar  1 <1>  -0.1500 
  5 C        1.8220     3.7330    -1.2550 C.ar  1 <1>  -0.1500 
  6 C        1.8520     3.4360     1.1320 C.ar  1 <1>  -0.1500 
  7 C        2.2280     4.1650     0.0040 C.ar  1 <1>   0.1000 
  8 N        2.9990     5.3170     0.1170 N.pl3 1 <1>  -0.8380 
  9 C        4.3780     5.1390     0.6640 C.3   1 <1>   0.2090 
 10 C        2.2890     6.5260     0.6050 C.3   1 <1>   0.2090 
 11 C        5.4110     6.0290    -0.0630 C.3   1 <1>   0.3430 
 12 C        2.5260     7.6810    -0.3700 C.3   1 <1>  -0.1600 
 13 N        5.0110     7.4800    -0.1850 N.4   1 <1>  -0.9590 
 14 C        3.8550     7.6170    -1.1260 C.3   1 <1>   0.3430 
 15 C        6.1720     8.3190    -0.6040 C.3   1 <1>   0.3430 
 16 C        5.9060     9.8120    -0.3660 C.3   1 <1>  -0.0800 
 17 C        7.1230    10.6250    -0.8330 C.3   1 <1>   0.1200 
 18 C        5.5980    10.1390     1.1100 C.3   1 <1>  -0.1600 
 19 O        6.8590    11.9770    -0.6450 O.3   1 <1>  -0.5600 
 20 C        5.5070    11.6600     1.2980 C.3   1 <1>  -0.1600 
 21 C        6.7190    12.3710     0.6860 C.3   1 <1>   0.1200 
 22 H        0.7360     2.2440    -2.3630 H     1 <1>   0.1500 
 23 H        0.7880     1.7170     1.8650 H     1 <1>   0.1500 
 24 H        2.1100     4.2990    -2.1200 H     1 <1>   0.1500 
 25 H        2.1570     3.7680     2.1060 H     1 <1>   0.1500 
 26 H        4.6730     4.1090     0.5500 H     1 <1>   0.0800 
 27 H        4.3840     5.3590     1.7180 H     1 <1>   0.0800 
 28 H        2.6450     6.7860     1.5880 H     1 <1>   0.0800 
 29 H        1.2310     6.3290     0.6830 H     1 <1>   0.0800 
 30 H        5.5690     5.6200    -1.0470 H     1 <1>   0.0800 
 31 H        6.3450     5.9560     0.4700 H     1 <1>   0.0800 
 32 H        2.4360     8.6180     0.1490 H     1 <1>   0.0800 
 33 H        1.7380     7.6560    -1.1010 H     1 <1>   0.0800 
 34 H        4.6970     7.8060     0.7350 H     1 <1>   0.4500 
 35 H        3.9570     8.5100    -1.7220 H     1 <1>   0.0800 
 36 H        3.8350     6.7740    -1.7980 H     1 <1>   0.0800 
 37 H        6.3870     8.1500    -1.6470 H     1 <1>   0.0800 
 38 H        7.0430     8.0350    -0.0350 H     1 <1>   0.0800 
 39 H        5.0780    10.1230    -0.9790 H     1 <1>   0.0800 
 40 H        7.3040    10.4800    -1.8840 H     1 <1>   0.0800 
 41 H        8.0150    10.3720    -0.2840 H     1 <1>   0.0800 
 42 H        6.3860     9.7600     1.7400 H     1 <1>   0.0800 
 43 H        4.6690     9.6960     1.4220 H     1 <1>   0.0800 
 44 H        5.4430    11.9000     2.3450 H     1 <1>   0.0800 
 45 H        4.6170    12.0370     0.8230 H     1 <1>   0.0800 
 46 H        6.5790    13.4390     0.7000 H     1 <1>   0.0800 
 47 H        7.6270    12.1320     1.2150 H     1 <1>   0.0800 
@<TRIPOS>BOND
  1   1   2  1   
  2   2   3  ar  
  3   2   4  ar  
  4   3   5  ar  
  5   3  22  1   
  6   4   6  ar  
  7   4  23  1   
  8   5   7  ar  
  9   5  24  1   
 10   6   7  ar  
 11   6  25  1   
 12   7   8  1   
 13   8   9  1   
 14   8  10  1   
 15   9  11  1   
 16   9  26  1   
 17   9  27  1   
 18  10  12  1   
 19  10  28  1   
 20  10  29  1   
 21  11  13  1   
 22  11  30  1   
 23  11  31  1   
 24  12  14  1   
 25  12  32  1   
 26  12  33  1   
 27  13  14  1   
 28  13  15  1   
 29  13  34  1   
 30  14  35  1   
 31  14  36  1   
 32  15  16  1   
 33  15  37  1   
 34  15  38  1   
 35  16  17  1   
 36  16  18  1   
 37  16  39  1   
 38  17  19  1   
 39  17  40  1   
 40  17  41  1   
 41  18  20  1   
 42  18  42  1   
 43  18  43  1   
 44  19  21  1   
 45  20  21  1   
 46  20  44  1   
 47  20  45  1   
 48  21  46  1   
 49  21  47  1   
@<TRIPOS>SUBSTRUCTURE
  1 ****  14 GROUP 4 **** **** 0

# MOE 2024.06 (io_trps.svl 2023.06)
