@<TRIPOS>MOLECULE
NONAME
50 53 1 0 0 
SMALL
USER_CHARGES


@<TRIPOS>ATOM
  1 O       -0.4830    -0.5810    -0.5310 O.2   1 <1>  -0.5700 
  2 C       -1.6130    -0.2220    -0.3130 C.2   1 <1>   0.5690 
  3 N       -2.6780    -1.0090     0.0330 N.am  1 <1>  -0.4770 
  4 C       -2.0060     1.2290    -0.4000 C.3   1 <1>  -0.0990 
  5 C       -2.7230    -2.4090     0.1620 C.ar  1 <1>   0.1170 
  6 C       -3.8860    -0.1820     0.2400 C.3   1 <1>   0.1400 
  7 C       -3.5370     1.1910    -0.3440 C.3   1 <1>  -0.1600 
  8 C       -3.5590    -3.0200     1.0940 C.ar  1 <1>  -0.1500 
  9 C       -1.9410    -3.2370    -0.6390 C.ar  1 <1>  -0.1500 
 10 C       -3.6190    -4.3960     1.2070 C.ar  1 <1>  -0.1500 
 11 C       -2.0010    -4.6130    -0.5230 C.ar  1 <1>  -0.1500 
 12 C       -2.8510    -5.2290     0.3930 C.ar  1 <1>   0.0860 
 13 C       -2.9210    -6.6730     0.4910 C.2   1 <1>   0.5440 
 14 O       -1.9130    -7.3160     0.7130 O.2   1 <1>  -0.5700 
 15 N       -4.1060    -7.3540     0.3240 N.am  1 <1>  -0.6600 
 16 C       -5.3580    -6.7840    -0.2360 C.3   1 <1>   0.1400 
 17 C       -4.1820    -8.8370     0.3380 C.3   1 <1>   0.1400 
 18 C       -6.3760    -7.9160    -0.1110 C.3   1 <1>   0.2000 
 19 C       -5.5330    -9.1810    -0.3020 C.3   1 <1>  -0.0800 
 20 O       -6.8870    -7.8890     1.1780 O.3   1 <1>  -0.6800 
 21 C       -6.1640   -10.4810     0.2310 C.3   1 <1>  -0.0160 
 22 C       -5.2910   -11.6830    -0.0970 C.ar  1 <1>  -0.1440 
 23 C       -4.3870   -12.2020     0.8080 C.ar  1 <1>  -0.1500 
 24 C       -5.3580   -12.3150    -1.3220 C.ar  1 <1>  -0.1500 
 25 C       -3.6130   -13.2940     0.4520 C.ar  1 <1>   0.1600 
 26 C       -4.5400   -13.4030    -1.5770 C.ar  1 <1>   0.1600 
 27 N       -3.6670   -13.9070    -0.7190 N.ar  1 <1>  -0.6200 
 28 H       -1.5970     1.7490     0.4470 H     1 <1>   0.0800 
 29 H       -1.6460     1.6690    -1.3120 H     1 <1>   0.0800 
 30 H       -4.7350    -0.6180    -0.2600 H     1 <1>   0.0800 
 31 H       -4.0830    -0.1020     1.2950 H     1 <1>   0.0800 
 32 H       -3.9360     1.2560    -1.3410 H     1 <1>   0.0800 
 33 H       -3.9440     1.9920     0.2470 H     1 <1>   0.0800 
 34 H       -4.1610    -2.4170     1.7470 H     1 <1>   0.1500 
 35 H       -1.2750    -2.8000    -1.3610 H     1 <1>   0.1500 
 36 H       -4.2650    -4.8430     1.9430 H     1 <1>   0.1500 
 37 H       -1.3790    -5.2300    -1.1470 H     1 <1>   0.1500 
 38 H       -5.6820    -5.9050     0.2920 H     1 <1>   0.0800 
 39 H       -5.2000    -6.5440    -1.2740 H     1 <1>   0.0800 
 40 H       -3.3650    -9.2710    -0.2150 H     1 <1>   0.0800 
 41 H       -4.1370    -9.1770     1.3580 H     1 <1>   0.0800 
 42 H       -7.1930    -7.8320    -0.8070 H     1 <1>   0.0800 
 43 H       -5.3620    -9.2990    -1.3580 H     1 <1>   0.0800 
 44 H       -6.1390    -7.8430     1.8070 H     1 <1>   0.4000 
 45 H       -7.1350   -10.6140    -0.2140 H     1 <1>   0.0800 
 46 H       -6.3050   -10.4220     1.2960 H     1 <1>   0.0800 
 47 H       -4.2750   -11.7690     1.7850 H     1 <1>   0.1500 
 48 H       -6.0390   -11.9740    -2.0800 H     1 <1>   0.1500 
 49 H       -2.9120   -13.6840     1.1700 H     1 <1>   0.1500 
 50 H       -4.6060   -13.8840    -2.5380 H     1 <1>   0.1500 
@<TRIPOS>BOND
  1   1   2  2   
  2   2   3  am  
  3   2   4  1   
  4   3   5  1   
  5   3   6  1   
  6   4   7  1   
  7   4  28  1   
  8   4  29  1   
  9   5   8  ar  
 10   5   9  ar  
 11   6   7  1   
 12   6  30  1   
 13   6  31  1   
 14   7  32  1   
 15   7  33  1   
 16   8  10  ar  
 17   8  34  1   
 18   9  11  ar  
 19   9  35  1   
 20  10  12  ar  
 21  10  36  1   
 22  11  12  ar  
 23  11  37  1   
 24  12  13  1   
 25  13  14  2   
 26  13  15  am  
 27  15  16  1   
 28  15  17  1   
 29  16  18  1   
 30  16  38  1   
 31  16  39  1   
 32  17  19  1   
 33  17  40  1   
 34  17  41  1   
 35  18  19  1   
 36  18  20  1   
 37  18  42  1   
 38  19  21  1   
 39  19  43  1   
 40  20  44  1   
 41  21  22  1   
 42  21  45  1   
 43  21  46  1   
 44  22  23  ar  
 45  22  24  ar  
 46  23  25  ar  
 47  23  47  1   
 48  24  26  ar  
 49  24  48  1   
 50  25  27  ar  
 51  25  49  1   
 52  26  27  ar  
 53  26  50  1   
@<TRIPOS>SUBSTRUCTURE
  1 ****  13 GROUP 4 **** **** 0

# MOE 2024.06 (io_trps.svl 2023.06)
