@<TRIPOS>MOLECULE
NONAME
51 53 1 0 0 
SMALL
USER_CHARGES


@<TRIPOS>ATOM
  1 CL       0.5930     1.5340    -0.9200 Cl    1 <1>  -0.1770 
  2 C        1.0080     2.9490     0.0210 C.ar  1 <1>   0.1770 
  3 C        2.2600     3.0910     0.6140 C.ar  1 <1>  -0.1440 
  4 C        0.0330     3.9210     0.1540 C.ar  1 <1>  -0.1500 
  5 C        2.5050     4.2410     1.3550 C.ar  1 <1>  -0.1500 
  6 C        3.3730     2.0540     0.4860 C.3   1 <1>   0.3640 
  7 C        0.2950     5.0610     0.8930 C.ar  1 <1>  -0.1500 
  8 C        1.5320     5.2170     1.4940 C.ar  1 <1>  -0.1500 
  9 N        2.9300     0.7620     1.0600 N.am  1 <1>  -0.7300 
 10 C        3.9090     1.8950    -0.9580 C.3   1 <1>   0.2610 
 11 C        3.2270    -0.4340     0.5020 C.2   1 <1>   0.5690 
 12 O        4.7050     0.7250    -1.0800 O.3   1 <1>  -0.5600 
 13 C        4.6400     3.1710    -1.4040 C.2   1 <1>   0.5690 
 14 O        2.8820    -1.4600     1.0320 O.2   1 <1>  -0.5700 
 15 C        3.9990    -0.4710    -0.8230 C.3   1 <1>   0.1810 
 16 O        4.1370     3.7620    -2.3330 O.2   1 <1>  -0.5700 
 17 N        5.7730     3.6670    -0.7810 N.am  1 <1>  -0.6600 
 18 C        6.3660     4.9640    -1.2450 C.3   1 <1>   0.1400 
 19 C        6.6790     2.8470     0.0800 C.3   1 <1>   0.1400 
 20 C        5.8040     6.1730    -0.4700 C.3   1 <1>  -0.0800 
 21 C        6.8890     3.5010     1.4450 C.3   1 <1>  -0.2400 
 22 C        4.3770     6.5470    -0.9040 C.3   1 <1>  -0.1600 
 23 C        6.7090     7.4000    -0.6620 C.3   1 <1>  -0.1600 
 24 C        3.9100     7.8420    -0.2300 C.3   1 <1>   0.1200 
 25 C        6.1080     8.6360     0.0160 C.3   1 <1>   0.1200 
 26 O        4.8270     8.8620    -0.4820 O.3   1 <1>  -0.5600 
 27 H       -0.9230     3.7830    -0.3180 H     1 <1>   0.1500 
 28 H        3.4590     4.3940     1.8300 H     1 <1>   0.1500 
 29 H        4.1930     2.3870     1.0940 H     1 <1>   0.0800 
 30 H       -0.4590     5.8210     1.0000 H     1 <1>   0.1500 
 31 H        1.7370     6.1030     2.0700 H     1 <1>   0.1500 
 32 H        2.3720     0.7800     1.9150 H     1 <1>   0.3700 
 33 H        3.0820     1.7710    -1.6300 H     1 <1>   0.0800 
 34 H        3.3110    -0.6410    -1.6320 H     1 <1>   0.0800 
 35 H        4.7110    -1.2750    -0.7980 H     1 <1>   0.0800 
 36 H        7.4340     4.9240    -1.1190 H     1 <1>   0.0800 
 37 H        6.1810     5.0960    -2.2990 H     1 <1>   0.0800 
 38 H        6.2850     1.8610     0.2320 H     1 <1>   0.0800 
 39 H        7.6280     2.7320    -0.4170 H     1 <1>   0.0800 
 40 H        5.7910     5.9400     0.5790 H     1 <1>   0.0800 
 41 H        5.9470     3.7040     1.9200 H     1 <1>   0.0800 
 42 H        7.4480     4.4130     1.3470 H     1 <1>   0.0800 
 43 H        7.4510     2.8360     2.0750 H     1 <1>   0.0800 
 44 H        3.6930     5.7590    -0.6550 H     1 <1>   0.0800 
 45 H        4.3380     6.6810    -1.9710 H     1 <1>   0.0800 
 46 H        6.8300     7.6110    -1.7100 H     1 <1>   0.0800 
 47 H        7.6830     7.2090    -0.2470 H     1 <1>   0.0800 
 48 H        3.8210     7.7160     0.8350 H     1 <1>   0.0800 
 49 H        2.9590     8.1490    -0.6280 H     1 <1>   0.0800 
 50 H        6.7000     9.5100    -0.1970 H     1 <1>   0.0800 
 51 H        6.0440     8.5070     1.0830 H     1 <1>   0.0800 
@<TRIPOS>BOND
  1   1   2  1   
  2   2   3  ar  
  3   2   4  ar  
  4   3   5  ar  
  5   3   6  1   
  6   4   7  ar  
  7   4  27  1   
  8   5   8  ar  
  9   5  28  1   
 10   6   9  1   
 11   6  10  1   
 12   6  29  1   
 13   7   8  ar  
 14   7  30  1   
 15   8  31  1   
 16   9  11  am  
 17   9  32  1   
 18  10  12  1   
 19  10  13  1   
 20  10  33  1   
 21  11  14  2   
 22  11  15  1   
 23  12  15  1   
 24  13  16  2   
 25  13  17  am  
 26  15  34  1   
 27  15  35  1   
 28  17  18  1   
 29  17  19  1   
 30  18  20  1   
 31  18  36  1   
 32  18  37  1   
 33  19  21  1   
 34  19  38  1   
 35  19  39  1   
 36  20  22  1   
 37  20  23  1   
 38  20  40  1   
 39  21  41  1   
 40  21  42  1   
 41  21  43  1   
 42  22  24  1   
 43  22  44  1   
 44  22  45  1   
 45  23  25  1   
 46  23  46  1   
 47  23  47  1   
 48  24  26  1   
 49  24  48  1   
 50  24  49  1   
 51  25  26  1   
 52  25  50  1   
 53  25  51  1   
@<TRIPOS>SUBSTRUCTURE
  1 ****  13 GROUP 4 **** **** 0

# MOE 2024.06 (io_trps.svl 2023.06)
