@<TRIPOS>MOLECULE
NONAME
44 46 1 0 0 
SMALL
USER_CHARGES


@<TRIPOS>ATOM
  1 S        0.7350    -0.8230     1.8840 S.o2  1 <1>   1.4470 
  2 O        0.2360    -0.2150     3.0980 O.2   1 <1>  -0.6500 
  3 O        1.4770    -2.0620     2.0010 O.2   1 <1>  -0.6500 
  4 N        1.8100     0.3090     1.2040 N.am  1 <1>  -0.8490 
  5 C       -0.6060    -0.9360     0.6470 C.ar  1 <1>  -0.0090 
  6 C        1.2140     1.6550     1.0430 C.3   1 <1>   0.1960 
  7 C        2.4870    -0.1820    -0.0030 C.3   1 <1>   0.1960 
  8 C       -0.7650    -1.9630    -0.2910 C.ar  1 <1>  -0.1440 
  9 C       -1.5060     0.1200     0.5950 C.ar  1 <1>  -0.1500 
 10 C        2.2200     2.7940     0.7900 C.3   1 <1>   0.2200 
 11 C        3.7480     0.6140    -0.3690 C.3   1 <1>  -0.0190 
 12 C       -1.7750    -1.8790    -1.2400 C.ar  1 <1>  -0.1500 
 13 C        0.1270    -3.1970    -0.3250 C.3   1 <1>  -0.0960 
 14 C       -2.4880     0.2570    -0.3800 C.ar  1 <1>  -0.1790 
 15 N        2.6300     2.8290    -0.6490 N.am  1 <1>  -0.6600 
 16 C        3.4180     2.7490     1.7720 C.3   1 <1>   0.1200 
 17 C        3.3790     1.8260    -1.2010 C.2   1 <1>   0.5690 
 18 C        4.6520     0.9350     0.8390 C.3   1 <1>   0.1200 
 19 C       -2.6170    -0.7860    -1.2890 C.ar  1 <1>  -0.1500 
 20 C       -3.3020     1.4620    -0.4470 C.2   1 <1>   0.9790 
 21 C        2.1430     3.9910    -1.4420 C.3   1 <1>   0.0600 
 22 O        4.6120     2.2820     1.2040 O.3   1 <1>  -0.5600 
 23 O        3.7220     1.8370    -2.3620 O.2   1 <1>  -0.5700 
 24 O       -4.3450     1.4920    -1.1200 O.co2 1 <1>  -0.9000 
 25 O       -2.9310     2.4900     0.1500 O.co2 1 <1>  -0.9000 
 26 H        0.4990     1.6590     0.2390 H     1 <1>   0.0800 
 27 H        0.6850     1.9060     1.9470 H     1 <1>   0.0800 
 28 H        2.8020    -1.1970     0.1670 H     1 <1>   0.0800 
 29 H        1.8010    -0.1910    -0.8350 H     1 <1>   0.0800 
 30 H       -1.4440     0.9020     1.3340 H     1 <1>   0.1500 
 31 H        1.6830     3.7030     0.9990 H     1 <1>   0.0800 
 32 H        4.3170    -0.0320    -1.0120 H     1 <1>   0.0800 
 33 H       -1.9150    -2.6640    -1.9620 H     1 <1>   0.1500 
 34 H       -0.1640    -3.8660    -1.1150 H     1 <1>   0.0800 
 35 H        0.0500    -3.7330     0.6050 H     1 <1>   0.0800 
 36 H        1.1510    -2.9190    -0.4870 H     1 <1>   0.0800 
 37 H        3.1890     2.1500     2.6370 H     1 <1>   0.0800 
 38 H        3.6160     3.7480     2.1130 H     1 <1>   0.0800 
 39 H        5.6730     0.7280     0.5740 H     1 <1>   0.0800 
 40 H        4.4020     0.3340     1.6970 H     1 <1>   0.0800 
 41 H       -3.3880    -0.7200    -2.0400 H     1 <1>   0.1500 
 42 H        2.5320     4.9030    -1.0240 H     1 <1>   0.0800 
 43 H        1.0670     4.0190    -1.4250 H     1 <1>   0.0800 
 44 H        2.4680     3.9170    -2.4660 H     1 <1>   0.0800 
@<TRIPOS>BOND
  1   1   2  2   
  2   1   3  2   
  3   1   4  am  
  4   1   5  1   
  5   4   6  1   
  6   4   7  1   
  7   5   8  ar  
  8   5   9  ar  
  9   6  10  1   
 10   6  26  1   
 11   6  27  1   
 12   7  11  1   
 13   7  28  1   
 14   7  29  1   
 15   8  12  ar  
 16   8  13  1   
 17   9  14  ar  
 18   9  30  1   
 19  10  15  1   
 20  10  16  1   
 21  10  31  1   
 22  11  17  1   
 23  11  18  1   
 24  11  32  1   
 25  12  19  ar  
 26  12  33  1   
 27  13  34  1   
 28  13  35  1   
 29  13  36  1   
 30  14  19  ar  
 31  14  20  1   
 32  15  17  am  
 33  15  21  1   
 34  16  22  1   
 35  16  37  1   
 36  16  38  1   
 37  17  23  2   
 38  18  22  1   
 39  18  39  1   
 40  18  40  1   
 41  19  41  1   
 42  20  24  ar  
 43  20  25  ar  
 44  21  42  1   
 45  21  43  1   
 46  21  44  1   
@<TRIPOS>SUBSTRUCTURE
  1 ****   6 GROUP 4 **** **** 0

# MOE 2024.06 (io_trps.svl 2023.06)
