@<TRIPOS>MOLECULE
NONAME
49 51 1 0 0 
SMALL
USER_CHARGES


@<TRIPOS>ATOM
  1 O       -0.6310    -1.6530     0.3910 O.2   1 <1>  -0.5700 
  2 C       -1.7240    -1.1140     0.3580 C.2   1 <1>   0.7150 
  3 N       -1.7900     0.2120    -0.0400 N.am  1 <1>  -0.6600 
  4 C       -2.9050    -1.8650     0.7410 C.2   1 <1>   0.0550 
  5 C       -0.5620     1.0530    -0.1230 C.3   1 <1>   0.0600 
  6 C       -3.0060     0.8460    -0.6180 C.3   1 <1>   0.0600 
  7 O       -2.9490    -3.1860     0.5860 O.3   1 <1>  -0.2800 
  8 C       -4.0860    -1.4720     1.2970 C.2   1 <1>  -0.1500 
  9 C       -4.1000    -3.6440     1.0180 C.2   1 <1>  -0.0400 
 10 C       -4.8590    -2.6200     1.4730 C.2   1 <1>  -0.1500 
 11 C       -4.3340    -5.1430     0.9300 C.3   1 <1>   0.5230 
 12 N       -5.7950    -5.4430     0.9890 N.4   1 <1>  -0.9590 
 13 C       -6.5250    -4.9390    -0.2220 C.3   1 <1>   0.3430 
 14 C       -6.0490    -6.9110     1.0660 C.3   1 <1>   0.3430 
 15 C       -7.3650    -6.1140    -0.7410 C.3   1 <1>   0.2000 
 16 C       -6.5600    -7.3370    -0.3150 C.3   1 <1>  -0.0800 
 17 O       -8.5670    -6.1240    -0.0470 O.3   1 <1>  -0.6800 
 18 C       -5.4260    -7.6380    -1.3200 C.3   1 <1>   0.0210 
 19 C       -4.3160    -8.4710    -0.7120 C.2   1 <1>   0.1080 
 20 N       -3.3790    -7.9500     0.0210 N.2   1 <1>  -0.7070 
 21 C       -4.1670    -9.8430    -0.8660 C.2   1 <1>  -0.1500 
 22 N       -2.5810    -8.9940     0.3380 N.pl3 1 <1>   0.3000 
 23 C       -3.0470   -10.1490    -0.1800 C.2   1 <1>  -0.3320 
 24 C       -2.3740   -11.4980     0.0060 C.3   1 <1>  -0.0600 
 25 H       -0.7710     2.0470     0.2310 H     1 <1>   0.0800 
 26 H       -0.2240     1.1020    -1.1440 H     1 <1>   0.0800 
 27 H        0.2260     0.6350     0.4810 H     1 <1>   0.0800 
 28 H       -2.7420     1.4040    -1.5000 H     1 <1>   0.0800 
 29 H       -3.4430     1.5160     0.1010 H     1 <1>   0.0800 
 30 H       -3.7290     0.1000    -0.8990 H     1 <1>   0.0800 
 31 H       -4.3800    -0.4740     1.5710 H     1 <1>   0.1500 
 32 H       -5.8470    -2.6270     1.8990 H     1 <1>   0.1500 
 33 H       -3.8150    -5.6320     1.7380 H     1 <1>   0.0800 
 34 H       -3.9210    -5.5120     0.0050 H     1 <1>   0.0800 
 35 H       -6.1840    -5.0000     1.8290 H     1 <1>   0.4500 
 36 H       -7.1540    -4.0960     0.0120 H     1 <1>   0.0800 
 37 H       -5.8150    -4.6490    -0.9780 H     1 <1>   0.0800 
 38 H       -5.1770    -7.4610     1.3770 H     1 <1>   0.0800 
 39 H       -6.8340    -7.0890     1.7830 H     1 <1>   0.0800 
 40 H       -7.5700    -6.0520    -1.7970 H     1 <1>   0.0800 
 41 H       -7.1760    -8.2150    -0.2230 H     1 <1>   0.0800 
 42 H       -9.2080    -6.7510    -0.4450 H     1 <1>   0.4000 
 43 H       -4.9790    -6.7310    -1.6860 H     1 <1>   0.0800 
 44 H       -5.8290    -8.1580    -2.1720 H     1 <1>   0.0800 
 45 H       -4.8120   -10.5020    -1.4220 H     1 <1>   0.1500 
 46 H       -1.7230    -8.8920     0.8970 H     1 <1>   0.2700 
 47 H       -2.9310   -12.2640    -0.5040 H     1 <1>   0.0800 
 48 H       -2.3250   -11.7510     1.0510 H     1 <1>   0.0800 
 49 H       -1.3770   -11.4770    -0.3970 H     1 <1>   0.0800 
@<TRIPOS>BOND
  1   1   2  2   
  2   2   3  am  
  3   2   4  1   
  4   3   5  1   
  5   3   6  1   
  6   4   7  1   
  7   4   8  2   
  8   5  25  1   
  9   5  26  1   
 10   5  27  1   
 11   6  28  1   
 12   6  29  1   
 13   6  30  1   
 14   7   9  1   
 15   8  10  1   
 16   8  31  1   
 17   9  10  2   
 18   9  11  1   
 19  10  32  1   
 20  11  12  1   
 21  11  33  1   
 22  11  34  1   
 23  12  13  1   
 24  12  14  1   
 25  12  35  1   
 26  13  15  1   
 27  13  36  1   
 28  13  37  1   
 29  14  16  1   
 30  14  38  1   
 31  14  39  1   
 32  15  16  1   
 33  15  17  1   
 34  15  40  1   
 35  16  18  1   
 36  16  41  1   
 37  17  42  1   
 38  18  19  1   
 39  18  43  1   
 40  18  44  1   
 41  19  20  2   
 42  19  21  1   
 43  20  22  1   
 44  21  23  2   
 45  21  45  1   
 46  22  23  1   
 47  22  46  1   
 48  23  24  1   
 49  24  47  1   
 50  24  48  1   
 51  24  49  1   
@<TRIPOS>SUBSTRUCTURE
  1 ****  11 GROUP 4 **** **** 0

# MOE 2024.06 (io_trps.svl 2023.06)
