@<TRIPOS>MOLECULE
NONAME
48 50 1 0 0 
SMALL
USER_CHARGES


@<TRIPOS>ATOM
  1 O       -2.7390     1.5340    -1.8330 O.2   1 <1>  -0.5700 
  2 C       -2.3400     1.3550    -0.7090 C.2   1 <1>   0.5690 
  3 N       -2.2890     0.1200    -0.1550 N.am  1 <1>  -0.7300 
  4 C       -1.8850     2.5430     0.1150 C.3   1 <1>  -0.0990 
  5 C       -2.6330    -1.1370    -0.8540 C.3   1 <1>   0.2200 
  6 C       -0.4270     2.9540    -0.1700 C.3   1 <1>  -0.0800 
  7 C       -3.8590    -1.7520    -0.2020 C.3   1 <1>  -0.0800 
  8 C       -1.5660    -2.1860    -0.5650 C.3   1 <1>   0.1200 
  9 C        0.5710     1.8370     0.1950 C.3   1 <1>  -0.1600 
 10 C       -0.0880     4.2470     0.5940 C.3   1 <1>  -0.1600 
 11 C       -3.2480    -2.5210     0.9760 C.3   1 <1>   0.1200 
 12 C       -4.6120    -2.6780    -1.1770 C.3   1 <1>  -0.0160 
 13 O       -1.9010    -2.7440     0.6710 O.3   1 <1>  -0.5600 
 14 C        2.0220     2.2750    -0.0410 C.3   1 <1>  -0.1600 
 15 C        1.3630     4.6830     0.3510 C.3   1 <1>  -0.1600 
 16 C       -5.8510    -3.2780    -0.5310 C.ar  1 <1>  -0.1440 
 17 C        2.3460     3.5650     0.7220 C.3   1 <1>  -0.1600 
 18 C       -5.9010    -4.5960    -0.1210 C.ar  1 <1>  -0.1500 
 19 C       -6.9940    -2.5330    -0.3230 C.ar  1 <1>  -0.1500 
 20 C       -7.0550    -5.0880     0.4650 C.ar  1 <1>   0.1600 
 21 C       -8.0970    -3.1220     0.2720 C.ar  1 <1>   0.1600 
 22 N       -8.1550    -4.3820     0.6730 N.ar  1 <1>  -0.6200 
 23 H       -1.9140    -0.0100     0.7860 H     1 <1>   0.3700 
 24 H       -2.5350     3.3660    -0.1200 H     1 <1>   0.0800 
 25 H       -2.0070     2.3200     1.1590 H     1 <1>   0.0800 
 26 H       -2.7550    -0.9600    -1.9100 H     1 <1>   0.0800 
 27 H       -0.3390     3.1540    -1.2250 H     1 <1>   0.0800 
 28 H       -4.5370    -0.9920     0.1440 H     1 <1>   0.0800 
 29 H       -0.5760    -1.7690    -0.5190 H     1 <1>   0.0800 
 30 H       -1.5970    -2.9720    -1.2980 H     1 <1>   0.0800 
 31 H        0.4500     1.5680     1.2300 H     1 <1>   0.0800 
 32 H        0.3790     0.9620    -0.4010 H     1 <1>   0.0800 
 33 H       -0.7470     5.0370     0.2800 H     1 <1>   0.0800 
 34 H       -0.2350     4.0930     1.6490 H     1 <1>   0.0800 
 35 H       -3.7260    -3.4680     1.1580 H     1 <1>   0.0800 
 36 H       -3.2820    -1.9290     1.8740 H     1 <1>   0.0800 
 37 H       -3.9650    -3.4670    -1.5180 H     1 <1>   0.0800 
 38 H       -4.9160    -2.1120    -2.0410 H     1 <1>   0.0800 
 39 H        2.6910     1.4940     0.2740 H     1 <1>   0.0800 
 40 H        2.1770     2.4370    -1.0940 H     1 <1>   0.0800 
 41 H        1.4900     4.9380    -0.6870 H     1 <1>   0.0800 
 42 H        1.5790     5.5610     0.9360 H     1 <1>   0.0800 
 43 H        3.3500     3.8770     0.4930 H     1 <1>   0.0800 
 44 H        2.2910     3.3780     1.7800 H     1 <1>   0.0800 
 45 H       -5.0540    -5.2450    -0.2500 H     1 <1>   0.1500 
 46 H       -7.0370    -1.5010    -0.6190 H     1 <1>   0.1500 
 47 H       -7.0750    -6.1170     0.7790 H     1 <1>   0.1500 
 48 H       -8.9800    -2.5250     0.4260 H     1 <1>   0.1500 
@<TRIPOS>BOND
  1   1   2  2   
  2   2   3  am  
  3   2   4  1   
  4   3   5  1   
  5   3  23  1   
  6   4   6  1   
  7   4  24  1   
  8   4  25  1   
  9   5   7  1   
 10   5   8  1   
 11   5  26  1   
 12   6   9  1   
 13   6  10  1   
 14   6  27  1   
 15   7  11  1   
 16   7  12  1   
 17   7  28  1   
 18   8  13  1   
 19   8  29  1   
 20   8  30  1   
 21   9  14  1   
 22   9  31  1   
 23   9  32  1   
 24  10  15  1   
 25  10  33  1   
 26  10  34  1   
 27  11  13  1   
 28  11  35  1   
 29  11  36  1   
 30  12  16  1   
 31  12  37  1   
 32  12  38  1   
 33  14  17  1   
 34  14  39  1   
 35  14  40  1   
 36  15  17  1   
 37  15  41  1   
 38  15  42  1   
 39  16  18  ar  
 40  16  19  ar  
 41  17  43  1   
 42  17  44  1   
 43  18  20  ar  
 44  18  45  1   
 45  19  21  ar  
 46  19  46  1   
 47  20  22  ar  
 48  20  47  1   
 49  21  22  ar  
 50  21  48  1   
@<TRIPOS>SUBSTRUCTURE
  1 ****   3 GROUP 4 **** **** 0

# MOE 2024.06 (io_trps.svl 2023.06)
