@<TRIPOS>MOLECULE
NONAME
44 46 1 0 0 
SMALL
USER_CHARGES


@<TRIPOS>ATOM
  1 O        0.3150    -0.5330     0.5540 O.co2 1 <1>  -0.9000 
  2 C       -0.2150     0.3820     1.1930 C.2   1 <1>   0.9060 
  3 O        0.3330     0.9370     2.1540 O.co2 1 <1>  -0.9000 
  4 C       -1.5920     0.9410     0.7550 C.3   1 <1>   0.3170 
  5 N       -1.5800     2.3560     0.2420 N.4   1 <1>  -0.9590 
  6 C       -2.3050     0.1830    -0.3620 C.3   1 <1>  -0.1600 
  7 C       -2.7850     2.5500    -0.6050 C.3   1 <1>   0.3430 
  8 C       -1.3150     3.3390     1.3150 C.3   1 <1>   0.4860 
  9 C       -3.3930     1.1520    -0.8030 C.3   1 <1>   0.2000 
 10 C       -1.2690     4.7400     0.7100 C.ar  1 <1>  -0.1430 
 11 O       -4.4610     1.0130     0.0720 O.3   1 <1>  -0.6800 
 12 C       -0.2240     5.1230    -0.1380 C.ar  1 <1>  -0.0230 
 13 C       -2.2810     5.6410     1.0040 C.ar  1 <1>  -0.1500 
 14 N        0.8280     4.2200    -0.4500 N.pl3 1 <1>   0.5930 
 15 C       -0.2230     6.4040    -0.6780 C.ar  1 <1>  -0.1500 
 16 C       -2.2660     6.9140     0.4610 C.ar  1 <1>  -0.1500 
 17 N        0.6470     3.1940    -1.3250 N.2   1 <1>  -0.7070 
 18 C        1.9410     4.0050     0.2970 C.2   1 <1>  -0.3320 
 19 C       -1.2370     7.2950    -0.3800 C.ar  1 <1>  -0.1500 
 20 C        1.6260     2.3760    -1.1000 C.2   1 <1>   0.1080 
 21 C        2.4710     2.8310    -0.0990 C.2   1 <1>  -0.1500 
 22 C        2.4330     4.9320     1.3970 C.3   1 <1>  -0.0600 
 23 C        1.8010     1.0610    -1.8260 C.3   1 <1>  -0.0590 
 24 H       -2.2210     0.9050     1.6260 H     1 <1>   0.0800 
 25 H       -0.7450     2.4090    -0.3790 H     1 <1>   0.4500 
 26 H       -2.6810    -0.7670    -0.0260 H     1 <1>   0.0800 
 27 H       -1.6110     0.0120    -1.1660 H     1 <1>   0.0800 
 28 H       -3.5000     3.1990    -0.1290 H     1 <1>   0.0800 
 29 H       -2.4880     2.9700    -1.5520 H     1 <1>   0.0800 
 30 H       -2.0880     3.2820     2.0620 H     1 <1>   0.0800 
 31 H       -0.3710     3.1140     1.7870 H     1 <1>   0.0800 
 32 H       -3.7430     0.9870    -1.8080 H     1 <1>   0.0800 
 33 H       -4.8540     0.1200    -0.0040 H     1 <1>   0.4000 
 34 H       -3.0910     5.3620     1.6580 H     1 <1>   0.1500 
 35 H        0.5750     6.7040    -1.3360 H     1 <1>   0.1500 
 36 H       -3.0540     7.6100     0.6940 H     1 <1>   0.1500 
 37 H       -1.2270     8.2860    -0.8030 H     1 <1>   0.1500 
 38 H        3.3400     2.3160     0.2720 H     1 <1>   0.1500 
 39 H        3.3330     4.5390     1.8350 H     1 <1>   0.0800 
 40 H        1.6900     5.0200     2.1700 H     1 <1>   0.0800 
 41 H        2.6410     5.9080     0.9980 H     1 <1>   0.0800 
 42 H        2.2870     0.3510    -1.1810 H     1 <1>   0.0800 
 43 H        2.3930     1.2060    -2.7090 H     1 <1>   0.0800 
 44 H        0.8430     0.6620    -2.1010 H     1 <1>   0.0800 
@<TRIPOS>BOND
  1   1   2  ar  
  2   2   3  ar  
  3   2   4  1   
  4   4   5  1   
  5   4   6  1   
  6   4  24  1   
  7   5   7  1   
  8   5   8  1   
  9   5  25  1   
 10   6   9  1   
 11   6  26  1   
 12   6  27  1   
 13   7   9  1   
 14   7  28  1   
 15   7  29  1   
 16   8  10  1   
 17   8  30  1   
 18   8  31  1   
 19   9  11  1   
 20   9  32  1   
 21  10  12  ar  
 22  10  13  ar  
 23  11  33  1   
 24  12  14  1   
 25  12  15  ar  
 26  13  16  ar  
 27  13  34  1   
 28  14  17  1   
 29  14  18  1   
 30  15  19  ar  
 31  15  35  1   
 32  16  19  ar  
 33  16  36  1   
 34  17  20  2   
 35  18  21  2   
 36  18  22  1   
 37  19  37  1   
 38  20  21  1   
 39  20  23  1   
 40  21  38  1   
 41  22  39  1   
 42  22  40  1   
 43  22  41  1   
 44  23  42  1   
 45  23  43  1   
 46  23  44  1   
@<TRIPOS>SUBSTRUCTURE
  1 ****   5 GROUP 4 **** **** 0

# MOE 2024.06 (io_trps.svl 2023.06)
