@<TRIPOS>MOLECULE
NONAME
51 53 1 0 0 
SMALL
USER_CHARGES


@<TRIPOS>ATOM
  1 O       -2.2140    -1.3800    -0.8950 O.3   1 <1>  -0.3630 
  2 C       -2.3920    -0.1390    -0.3780 C.ar  1 <1>   0.0820 
  3 C       -0.8980    -1.8970    -0.8720 C.3   1 <1>   0.0400 
  4 C       -2.9730    -0.0270     0.8830 C.ar  1 <1>  -0.1440 
  5 C       -2.0320     0.9960    -1.1030 C.ar  1 <1>  -0.1440 
  6 C       -3.1450     1.2280     1.4430 C.ar  1 <1>  -0.1500 
  7 C       -3.4340    -1.2560     1.6440 C.3   1 <1>   0.4870 
  8 C       -2.2000     2.2500    -0.5220 C.ar  1 <1>   0.0820 
  9 C       -1.4760     0.8990    -2.5250 C.3   1 <1>  -0.0970 
 10 C       -2.7540     2.3580     0.7510 C.ar  1 <1>  -0.1500 
 11 N       -4.3390    -2.0360     0.7670 N.4   1 <1>  -0.9590 
 12 O       -1.8080     3.3390    -1.2370 O.3   1 <1>  -0.3630 
 13 C       -5.5650    -1.3130     0.3050 C.3   1 <1>   0.3430 
 14 C       -4.7610    -3.3620     1.2650 C.3   1 <1>   0.3430 
 15 C       -1.8850     4.6490    -0.7200 C.3   1 <1>   0.0400 
 16 C       -6.6800    -2.3720     0.2510 C.3   1 <1>   0.2000 
 17 C       -5.9620    -3.7180     0.3860 C.3   1 <1>  -0.0800 
 18 O       -7.5340    -2.2110     1.3350 O.3   1 <1>  -0.6800 
 19 C       -5.5510    -4.2510    -1.0070 C.3   1 <1>  -0.0170 
 20 C       -4.5670    -5.4070    -0.9340 C.ar  1 <1>   0.1670 
 21 N       -3.2940    -5.0820    -0.7540 N.ar  1 <1>  -0.6200 
 22 C       -5.0180    -6.7200    -1.0610 C.ar  1 <1>   0.1600 
 23 C       -2.5110    -6.1510    -0.7260 C.ar  1 <1>   0.1600 
 24 N       -4.2360    -7.7840    -1.0150 N.ar  1 <1>  -0.6200 
 25 C       -2.9670    -7.4570    -0.8510 C.ar  1 <1>   0.1600 
 26 H       -0.9190    -2.8910    -1.2820 H     1 <1>   0.0800 
 27 H       -0.5470    -1.9220     0.1440 H     1 <1>   0.0800 
 28 H       -0.2560    -1.2720    -1.4660 H     1 <1>   0.0800 
 29 H       -3.5800     1.3450     2.4220 H     1 <1>   0.1500 
 30 H       -3.9450    -0.9650     2.5460 H     1 <1>   0.0800 
 31 H       -2.5740    -1.8510     1.9070 H     1 <1>   0.0800 
 32 H       -1.9000     1.6690    -3.1450 H     1 <1>   0.0800 
 33 H       -1.7090    -0.0440    -2.9810 H     1 <1>   0.0800 
 34 H       -0.4090     1.0280    -2.5070 H     1 <1>   0.0800 
 35 H       -2.8930     3.3160     1.2160 H     1 <1>   0.1500 
 36 H       -3.7580    -2.1990    -0.0800 H     1 <1>   0.4500 
 37 H       -5.8380    -0.5210     0.9820 H     1 <1>   0.0800 
 38 H       -5.3900    -0.8980    -0.6740 H     1 <1>   0.0800 
 39 H       -3.9670    -4.0880     1.2040 H     1 <1>   0.0800 
 40 H       -5.0800    -3.2820     2.2910 H     1 <1>   0.0800 
 41 H       -1.4980     5.3240    -1.4620 H     1 <1>   0.0800 
 42 H       -1.2880     4.7090     0.1730 H     1 <1>   0.0800 
 43 H       -2.9150     4.8850    -0.5160 H     1 <1>   0.0800 
 44 H       -7.2740    -2.2900    -0.6450 H     1 <1>   0.0800 
 45 H       -6.5820    -4.4550     0.8680 H     1 <1>   0.0800 
 46 H       -7.0990    -2.3460     2.1980 H     1 <1>   0.4000 
 47 H       -5.0980    -3.4710    -1.5950 H     1 <1>   0.0800 
 48 H       -6.4340    -4.5670    -1.5360 H     1 <1>   0.0800 
 49 H       -6.0680    -6.9030    -1.2080 H     1 <1>   0.1500 
 50 H       -1.4550    -5.9900    -0.5990 H     1 <1>   0.1500 
 51 H       -2.2540    -8.2630    -0.8140 H     1 <1>   0.1500 
@<TRIPOS>BOND
  1   1   2  1   
  2   1   3  1   
  3   2   4  ar  
  4   2   5  ar  
  5   3  26  1   
  6   3  27  1   
  7   3  28  1   
  8   4   6  ar  
  9   4   7  1   
 10   5   8  ar  
 11   5   9  1   
 12   6  10  ar  
 13   6  29  1   
 14   7  11  1   
 15   7  30  1   
 16   7  31  1   
 17   8  10  ar  
 18   8  12  1   
 19   9  32  1   
 20   9  33  1   
 21   9  34  1   
 22  10  35  1   
 23  11  13  1   
 24  11  14  1   
 25  11  36  1   
 26  12  15  1   
 27  13  16  1   
 28  13  37  1   
 29  13  38  1   
 30  14  17  1   
 31  14  39  1   
 32  14  40  1   
 33  15  41  1   
 34  15  42  1   
 35  15  43  1   
 36  16  17  1   
 37  16  18  1   
 38  16  44  1   
 39  17  19  1   
 40  17  45  1   
 41  18  46  1   
 42  19  20  1   
 43  19  47  1   
 44  19  48  1   
 45  20  21  ar  
 46  20  22  ar  
 47  21  23  ar  
 48  22  24  ar  
 49  22  49  1   
 50  23  25  ar  
 51  23  50  1   
 52  24  25  ar  
 53  25  51  1   
@<TRIPOS>SUBSTRUCTURE
  1 ****  11 GROUP 4 **** **** 0

# MOE 2024.06 (io_trps.svl 2023.06)
