@<TRIPOS>MOLECULE
NONAME
47 48 1 0 0 
SMALL
USER_CHARGES


@<TRIPOS>ATOM
  1 O       -2.5470     0.5610    -2.4360 O.2   1 <1>  -0.5700 
  2 C       -2.3260     0.7160    -1.2610 C.2   1 <1>   0.5690 
  3 N       -2.1650    -0.3320    -0.4190 N.am  1 <1>  -0.7300 
  4 C       -2.2360     2.1190    -0.6960 C.3   1 <1>  -0.0990 
  5 C       -2.1660    -1.7560    -0.8290 C.3   1 <1>   0.2200 
  6 C       -0.7890     2.5160    -0.3590 C.3   1 <1>  -0.1600 
  7 C       -3.4530    -2.4530    -0.4090 C.3   1 <1>  -0.0800 
  8 C       -1.1510    -2.5100     0.0180 C.3   1 <1>   0.1200 
  9 C       -0.7190     3.9480     0.1950 C.3   1 <1>  -0.1600 
 10 C       -3.1710    -2.8540     1.0440 C.3   1 <1>   0.1200 
 11 C       -4.7500    -1.6470    -0.6060 C.3   1 <1>  -0.0160 
 12 O       -1.7910    -2.7300     1.2380 O.3   1 <1>  -0.5600 
 13 C        0.6910     4.3520     0.6640 C.3   1 <1>  -0.0800 
 14 C       -5.9680    -2.4850    -0.2480 C.ar  1 <1>  -0.1440 
 15 C        0.6370     5.7290     1.3360 C.3   1 <1>  -0.2400 
 16 C        1.6990     4.3900    -0.4930 C.3   1 <1>  -0.2400 
 17 C       -6.5930    -2.3880     0.9790 C.ar  1 <1>  -0.1500 
 18 C       -6.5110    -3.3900    -1.1370 C.ar  1 <1>  -0.1500 
 19 C       -7.6940    -3.1830     1.2520 C.ar  1 <1>   0.1600 
 20 C       -7.6160    -4.1380    -0.7650 C.ar  1 <1>   0.1600 
 21 N       -8.2190    -4.0570     0.4100 N.ar  1 <1>  -0.6200 
 22 H       -1.9870    -0.1850     0.5760 H     1 <1>   0.3700 
 23 H       -2.6360     2.8030    -1.4230 H     1 <1>   0.0800 
 24 H       -2.8500     2.1770     0.1840 H     1 <1>   0.0800 
 25 H       -1.9680    -1.8480    -1.8840 H     1 <1>   0.0800 
 26 H       -0.3870     1.8300     0.3660 H     1 <1>   0.0800 
 27 H       -0.1990     2.4380    -1.2560 H     1 <1>   0.0800 
 28 H       -3.5340    -3.3610    -0.9810 H     1 <1>   0.0800 
 29 H       -0.2430    -1.9570     0.1750 H     1 <1>   0.0800 
 30 H       -0.9280    -3.4690    -0.4160 H     1 <1>   0.0800 
 31 H       -1.3920     4.0250     1.0320 H     1 <1>   0.0800 
 32 H       -1.0570     4.6390    -0.5590 H     1 <1>   0.0800 
 33 H       -3.4630    -3.8720     1.2400 H     1 <1>   0.0800 
 34 H       -3.6580    -2.1960     1.7420 H     1 <1>   0.0800 
 35 H       -4.8220    -1.3330    -1.6330 H     1 <1>   0.0800 
 36 H       -4.7380    -0.7590     0.0010 H     1 <1>   0.0800 
 37 H        1.0340     3.6370     1.3940 H     1 <1>   0.0800 
 38 H        0.3020     6.4780     0.6390 H     1 <1>   0.0800 
 39 H        1.6110     6.0080     1.6960 H     1 <1>   0.0800 
 40 H       -0.0380     5.7110     2.1730 H     1 <1>   0.0800 
 41 H        1.3570     5.0490    -1.2720 H     1 <1>   0.0800 
 42 H        1.8450     3.4100    -0.9080 H     1 <1>   0.0800 
 43 H        2.6540     4.7420    -0.1430 H     1 <1>   0.0800 
 44 H       -6.2360    -1.7030     1.7260 H     1 <1>   0.1500 
 45 H       -6.0850    -3.5210    -2.1150 H     1 <1>   0.1500 
 46 H       -8.1680    -3.0940     2.2140 H     1 <1>   0.1500 
 47 H       -8.0250    -4.8390    -1.4720 H     1 <1>   0.1500 
@<TRIPOS>BOND
  1   1   2  2   
  2   2   3  am  
  3   2   4  1   
  4   3   5  1   
  5   3  22  1   
  6   4   6  1   
  7   4  23  1   
  8   4  24  1   
  9   5   7  1   
 10   5   8  1   
 11   5  25  1   
 12   6   9  1   
 13   6  26  1   
 14   6  27  1   
 15   7  10  1   
 16   7  11  1   
 17   7  28  1   
 18   8  12  1   
 19   8  29  1   
 20   8  30  1   
 21   9  13  1   
 22   9  31  1   
 23   9  32  1   
 24  10  12  1   
 25  10  33  1   
 26  10  34  1   
 27  11  14  1   
 28  11  35  1   
 29  11  36  1   
 30  13  15  1   
 31  13  16  1   
 32  13  37  1   
 33  14  17  ar  
 34  14  18  ar  
 35  15  38  1   
 36  15  39  1   
 37  15  40  1   
 38  16  41  1   
 39  16  42  1   
 40  16  43  1   
 41  17  19  ar  
 42  17  44  1   
 43  18  20  ar  
 44  18  45  1   
 45  19  21  ar  
 46  19  46  1   
 47  20  21  ar  
 48  20  47  1   
@<TRIPOS>SUBSTRUCTURE
  1 ****   3 GROUP 4 **** **** 0

# MOE 2024.06 (io_trps.svl 2023.06)
