@<TRIPOS>MOLECULE
NONAME
54 58 1 0 0 
SMALL
USER_CHARGES


@<TRIPOS>ATOM
  1 O       -1.8960    -0.0420    -1.3080 O.2   1 <1>  -0.5700 
  2 C       -2.3210     1.0360    -1.6890 C.2   1 <1>   0.7160 
  3 N       -3.6680     1.1080    -1.9480 N.am  1 <1>  -0.6600 
  4 C       -1.4870     2.2050    -1.7570 C.2   1 <1>  -0.0860 
  5 C       -4.5290     1.5830    -0.8220 C.3   1 <1>   0.1400 
  6 C       -4.3010    -0.0180    -2.7130 C.3   1 <1>   0.1400 
  7 C       -1.8230     3.4310    -2.3350 C.2   1 <1>   0.1390 
  8 C       -0.2240     2.4200    -1.2950 C.2   1 <1>  -0.3020 
  9 C       -4.7930     0.4400     0.2010 C.3   1 <1>   0.4230 
 10 C       -4.9240    -1.0850    -1.7780 C.3   1 <1>   0.3430 
 11 N       -0.8820     4.3130    -2.2340 N.2   1 <1>  -0.7070 
 12 N        0.1190     3.6850    -1.5860 N.pl3 1 <1>   0.3140 
 13 N       -4.4330    -0.9190    -0.3660 N.4   1 <1>  -0.9590 
 14 C       -6.2550     0.4620     0.7030 C.3   1 <1>   0.1200 
 15 C        1.4050     4.3590    -1.3010 C.3   1 <1>   0.2390 
 16 C       -4.7910    -2.0070     0.5920 C.3   1 <1>   0.5180 
 17 O       -6.4930    -0.5950     1.5900 O.3   1 <1>  -0.5600 
 18 C        1.8540     4.1160     0.1350 C.ar  1 <1>  -0.1430 
 19 C       -4.5020    -3.3750    -0.0380 C.3   1 <1>  -0.1950 
 20 C       -6.2520    -1.8780     1.0740 C.3   1 <1>   0.1200 
 21 C        2.8670     3.2110     0.4160 C.ar  1 <1>  -0.1500 
 22 C        1.2480     4.8040     1.1760 C.ar  1 <1>  -0.1500 
 23 C       -3.8730    -4.4590     0.7820 C.3   1 <1>  -0.2000 
 24 C       -3.1000    -3.8170    -0.3340 C.3   1 <1>  -0.2000 
 25 C        3.2710     2.9990     1.7220 C.ar  1 <1>  -0.1500 
 26 C        1.6520     4.5930     2.4820 C.ar  1 <1>  -0.1500 
 27 C        2.6640     3.6900     2.7560 C.ar  1 <1>  -0.1500 
 28 H       -4.0550     2.4090    -0.3170 H     1 <1>   0.0800 
 29 H       -5.4580     1.9480    -1.2250 H     1 <1>   0.0800 
 30 H       -5.0550     0.3710    -3.3750 H     1 <1>   0.0800 
 31 H       -3.5530    -0.4920    -3.3290 H     1 <1>   0.0800 
 32 H       -2.7650     3.6320    -2.8180 H     1 <1>   0.1500 
 33 H        0.4280     1.7380    -0.7780 H     1 <1>   0.1500 
 34 H       -4.1650     0.6260     1.0570 H     1 <1>   0.0800 
 35 H       -4.6640    -2.0610    -2.1530 H     1 <1>   0.0800 
 36 H       -5.9970    -0.9980    -1.8030 H     1 <1>   0.0800 
 37 H       -3.3970    -0.9150    -0.4600 H     1 <1>   0.4500 
 38 H       -6.9530     0.3870    -0.1130 H     1 <1>   0.0800 
 39 H       -6.4510     1.3780     1.2350 H     1 <1>   0.0800 
 40 H        2.1380     3.9910    -1.9930 H     1 <1>   0.0800 
 41 H        1.2790     5.4120    -1.4690 H     1 <1>   0.0800 
 42 H       -4.1590    -1.9110     1.4600 H     1 <1>   0.0800 
 43 H       -5.2820    -3.7000    -0.7050 H     1 <1>   0.1000 
 44 H       -6.4410    -2.5870     1.8610 H     1 <1>   0.0800 
 45 H       -6.9460    -2.0660     0.2730 H     1 <1>   0.0800 
 46 H        3.3480     2.6650    -0.3780 H     1 <1>   0.1500 
 47 H        0.4580     5.5080     0.9730 H     1 <1>   0.1500 
 48 H       -3.5530    -4.2650     1.7920 H     1 <1>   0.1000 
 49 H       -4.2020    -5.4770     0.6500 H     1 <1>   0.1000 
 50 H       -2.9050    -4.4040    -1.2160 H     1 <1>   0.1000 
 51 H       -2.2640    -3.1900    -0.0720 H     1 <1>   0.1000 
 52 H        4.0580     2.2960     1.9360 H     1 <1>   0.1500 
 53 H        1.1800     5.1310     3.2860 H     1 <1>   0.1500 
 54 H        2.9790     3.5250     3.7720 H     1 <1>   0.1500 
@<TRIPOS>BOND
  1   1   2  2   
  2   2   3  am  
  3   2   4  1   
  4   3   5  1   
  5   3   6  1   
  6   4   7  1   
  7   4   8  2   
  8   5   9  1   
  9   5  28  1   
 10   5  29  1   
 11   6  10  1   
 12   6  30  1   
 13   6  31  1   
 14   7  11  2   
 15   7  32  1   
 16   8  12  1   
 17   8  33  1   
 18   9  13  1   
 19   9  14  1   
 20   9  34  1   
 21  10  13  1   
 22  10  35  1   
 23  10  36  1   
 24  11  12  1   
 25  12  15  1   
 26  13  16  1   
 27  13  37  1   
 28  14  17  1   
 29  14  38  1   
 30  14  39  1   
 31  15  18  1   
 32  15  40  1   
 33  15  41  1   
 34  16  19  1   
 35  16  20  1   
 36  16  42  1   
 37  17  20  1   
 38  18  21  ar  
 39  18  22  ar  
 40  19  23  1   
 41  19  24  1   
 42  19  43  1   
 43  20  44  1   
 44  20  45  1   
 45  21  25  ar  
 46  21  46  1   
 47  22  26  ar  
 48  22  47  1   
 49  23  24  1   
 50  23  48  1   
 51  23  49  1   
 52  24  50  1   
 53  24  51  1   
 54  25  27  ar  
 55  25  52  1   
 56  26  27  ar  
 57  26  53  1   
 58  27  54  1   
@<TRIPOS>SUBSTRUCTURE
  1 ****   2 GROUP 4 **** **** 0

# MOE 2024.06 (io_trps.svl 2023.06)
