@<TRIPOS>MOLECULE
NONAME
42 44 1 0 0 
SMALL
USER_CHARGES


@<TRIPOS>ATOM
  1 S       -0.1320     0.0030    -0.6190 S.3   1 <1>  -0.0800 
  2 C       -1.3680    -0.9040     0.2590 C.2   1 <1>  -0.0450 
  3 C       -0.7040     1.5400    -0.0070 C.2   1 <1>  -0.1400 
  4 C       -1.3980    -2.3400     0.1180 C.2   1 <1>   0.7150 
  5 C       -2.1250    -0.0210     0.9620 C.2   1 <1>  -0.1500 
  6 C       -1.7560     1.3480     0.8100 C.2   1 <1>  -0.1500 
  7 C        0.0470     2.7750    -0.4730 C.3   1 <1>   0.0200 
  8 O       -0.3770    -2.9640    -0.1100 O.2   1 <1>  -0.5700 
  9 N       -2.5750    -3.0490     0.2330 N.am  1 <1>  -0.6600 
 10 C       -0.5360     4.0640     0.1130 C.3   1 <1>  -0.2400 
 11 C       -3.9220    -2.4780    -0.0220 C.3   1 <1>   0.1400 
 12 C       -2.6100    -4.5290     0.1220 C.3   1 <1>   0.1400 
 13 C       -4.7440    -3.6450    -0.5640 C.3   1 <1>   0.2000 
 14 C       -4.0900    -4.8970     0.0140 C.3   1 <1>  -0.0800 
 15 O       -6.0680    -3.5680    -0.1670 O.3   1 <1>  -0.6800 
 16 C       -4.3500    -6.1550    -0.8290 C.3   1 <1>   0.0200 
 17 C       -3.6120    -7.3500    -0.2580 C.2   1 <1>  -0.0400 
 18 O       -3.8930    -7.7780     0.9440 O.3   1 <1>  -0.0190 
 19 C       -2.6420    -8.1300    -0.7580 C.2   1 <1>  -0.1500 
 20 N       -3.1590    -8.8000     1.2770 N.2   1 <1>  -0.4100 
 21 C       -2.3970    -9.0360     0.2700 C.2   1 <1>   0.1080 
 22 C       -1.3730   -10.1480     0.2210 C.3   1 <1>  -0.0590 
 23 H       -2.9440    -0.2910     1.6030 H     1 <1>   0.1500 
 24 H       -2.2960     2.1240     1.3230 H     1 <1>   0.1500 
 25 H        1.0790     2.6860    -0.1830 H     1 <1>   0.0800 
 26 H        0.0070     2.8220    -1.5480 H     1 <1>   0.0800 
 27 H       -0.4820     4.0410     1.1870 H     1 <1>   0.0800 
 28 H       -1.5630     4.1770    -0.1850 H     1 <1>   0.0800 
 29 H        0.0210     4.9130    -0.2410 H     1 <1>   0.0800 
 30 H       -4.3340    -2.1230     0.9060 H     1 <1>   0.0800 
 31 H       -3.8720    -1.6790    -0.7420 H     1 <1>   0.0800 
 32 H       -2.0720    -4.8290    -0.7620 H     1 <1>   0.0800 
 33 H       -2.1520    -4.9860     0.9840 H     1 <1>   0.0800 
 34 H       -4.7100    -3.6430    -1.6410 H     1 <1>   0.0800 
 35 H       -4.4500    -5.0600     1.0150 H     1 <1>   0.0800 
 36 H       -6.1440    -3.6660     0.8020 H     1 <1>   0.4000 
 37 H       -4.0280    -5.9920    -1.8420 H     1 <1>   0.0800 
 38 H       -5.4050    -6.3680    -0.8440 H     1 <1>   0.0800 
 39 H       -2.1480    -8.0950    -1.7110 H     1 <1>   0.1500 
 40 H       -1.5930   -10.8100    -0.5960 H     1 <1>   0.0800 
 41 H       -1.3960   -10.7080     1.1390 H     1 <1>   0.0800 
 42 H       -0.3910    -9.7340     0.0900 H     1 <1>   0.0800 
@<TRIPOS>BOND
  1   1   2  1   
  2   1   3  1   
  3   2   4  1   
  4   2   5  2   
  5   3   6  2   
  6   3   7  1   
  7   4   8  2   
  8   4   9  am  
  9   5   6  1   
 10   5  23  1   
 11   6  24  1   
 12   7  10  1   
 13   7  25  1   
 14   7  26  1   
 15   9  11  1   
 16   9  12  1   
 17  10  27  1   
 18  10  28  1   
 19  10  29  1   
 20  11  13  1   
 21  11  30  1   
 22  11  31  1   
 23  12  14  1   
 24  12  32  1   
 25  12  33  1   
 26  13  14  1   
 27  13  15  1   
 28  13  34  1   
 29  14  16  1   
 30  14  35  1   
 31  15  36  1   
 32  16  17  1   
 33  16  37  1   
 34  16  38  1   
 35  17  18  1   
 36  17  19  2   
 37  18  20  1   
 38  19  21  1   
 39  19  39  1   
 40  20  21  2   
 41  21  22  1   
 42  22  40  1   
 43  22  41  1   
 44  22  42  1   
@<TRIPOS>SUBSTRUCTURE
  1 ****   9 GROUP 4 **** **** 0

# MOE 2024.06 (io_trps.svl 2023.06)
