@<TRIPOS>MOLECULE
NONAME
56 58 1 0 0 
SMALL
USER_CHARGES


@<TRIPOS>ATOM
  1 O       -1.1270     0.5530    -1.0140 O.2   1 <1>  -0.5700 
  2 C       -1.4240     1.4120    -0.2140 C.2   1 <1>   0.5690 
  3 N       -2.3230     1.1360     0.7920 N.am  1 <1>  -0.6600 
  4 C       -0.7950     2.7980    -0.3680 C.3   1 <1>  -0.0190 
  5 C       -2.7730    -0.2730     0.9870 C.3   1 <1>   0.1400 
  6 C       -2.9610     2.1490     1.6830 C.3   1 <1>   0.1400 
  7 C       -1.6430     3.7560    -1.2330 C.3   1 <1>  -0.0220 
  8 C        0.6290     2.8200    -0.9750 C.3   1 <1>  -0.0220 
  9 C       -3.9150    -0.6190     0.0190 C.3   1 <1>   0.1400 
 10 C       -4.4890     2.0060     1.7520 C.3   1 <1>  -0.1600 
 11 C       -0.5980     4.5960    -1.9240 C.2   1 <1>  -0.2880 
 12 C        0.6230     4.0940    -1.7830 C.2   1 <1>  -0.2880 
 13 N       -5.2070     0.0620     0.3740 N.am  1 <1>  -0.6600 
 14 C       -5.1450     1.5570     0.4400 C.3   1 <1>   0.1400 
 15 C       -6.3960    -0.5870     0.6060 C.2   1 <1>   0.5690 
 16 O       -7.3870    -0.0010     0.9830 O.2   1 <1>  -0.5700 
 17 C       -6.5590    -2.1030     0.3820 C.3   1 <1>   0.4040 
 18 N       -7.9930    -2.5080     0.1230 N.4   1 <1>  -0.9590 
 19 C       -8.2210    -3.9490     0.4090 C.3   1 <1>   0.3430 
 20 C       -8.4400    -2.0450    -1.2230 C.3   1 <1>   0.3430 
 21 C       -9.7070    -4.3110     0.4190 C.3   1 <1>  -0.1600 
 22 C       -9.9370    -1.7410    -1.1910 C.3   1 <1>  -0.1600 
 23 C      -10.3390    -4.3150    -0.9800 C.3   1 <1>  -0.1600 
 24 C      -10.8570    -2.9470    -1.4450 C.3   1 <1>  -0.1600 
 25 H       -0.6950     3.2400     0.6050 H     1 <1>   0.0800 
 26 H       -3.0780    -0.4340     2.0060 H     1 <1>   0.0800 
 27 H       -1.9420    -0.9300     0.7920 H     1 <1>   0.0800 
 28 H       -2.7420     3.1380     1.3270 H     1 <1>   0.0800 
 29 H       -2.5450     2.0610     2.6730 H     1 <1>   0.0800 
 30 H       -2.2950     4.3590    -0.6280 H     1 <1>   0.0800 
 31 H       -2.2150     3.2160    -1.9680 H     1 <1>   0.0800 
 32 H        0.8110     1.9870    -1.6310 H     1 <1>   0.0800 
 33 H        1.3780     2.8420    -0.2030 H     1 <1>   0.0800 
 34 H       -4.0350    -1.6850     0.0290 H     1 <1>   0.0800 
 35 H       -3.6240    -0.3380    -0.9800 H     1 <1>   0.0800 
 36 H       -4.8880     2.9690     2.0170 H     1 <1>   0.0800 
 37 H       -4.7650     1.3350     2.5460 H     1 <1>   0.0800 
 38 H       -0.9070     5.4780    -2.4590 H     1 <1>   0.1500 
 39 H        1.5550     4.4650    -2.1750 H     1 <1>   0.1500 
 40 H       -4.6050     1.9420    -0.4080 H     1 <1>   0.0800 
 41 H       -6.1420     1.9640     0.3950 H     1 <1>   0.0800 
 42 H       -6.2020    -2.5970     1.2680 H     1 <1>   0.0800 
 43 H       -5.9430    -2.4050    -0.4460 H     1 <1>   0.0800 
 44 H       -8.5400    -1.9440     0.7960 H     1 <1>   0.4500 
 45 H       -7.8110    -4.1850     1.3780 H     1 <1>   0.0800 
 46 H       -7.7100    -4.5540    -0.3230 H     1 <1>   0.0800 
 47 H       -8.2150    -2.7770    -1.9810 H     1 <1>   0.0800 
 48 H       -7.9250    -1.1300    -1.4710 H     1 <1>   0.0800 
 49 H      -10.2550    -3.6750     1.0920 H     1 <1>   0.0800 
 50 H       -9.7810    -5.3120     0.8080 H     1 <1>   0.0800 
 51 H      -10.1430    -1.0120    -1.9560 H     1 <1>   0.0800 
 52 H      -10.1900    -1.2740    -0.2550 H     1 <1>   0.0800 
 53 H      -11.1780    -4.9920    -0.9750 H     1 <1>   0.0800 
 54 H       -9.6370    -4.7050    -1.6980 H     1 <1>   0.0800 
 55 H      -11.0570    -3.0150    -2.5020 H     1 <1>   0.0800 
 56 H      -11.8040    -2.7510    -0.9690 H     1 <1>   0.0800 
@<TRIPOS>BOND
  1   1   2  2   
  2   2   3  am  
  3   2   4  1   
  4   3   5  1   
  5   3   6  1   
  6   4   7  1   
  7   4   8  1   
  8   4  25  1   
  9   5   9  1   
 10   5  26  1   
 11   5  27  1   
 12   6  10  1   
 13   6  28  1   
 14   6  29  1   
 15   7  11  1   
 16   7  30  1   
 17   7  31  1   
 18   8  12  1   
 19   8  32  1   
 20   8  33  1   
 21   9  13  1   
 22   9  34  1   
 23   9  35  1   
 24  10  14  1   
 25  10  36  1   
 26  10  37  1   
 27  11  12  2   
 28  11  38  1   
 29  12  39  1   
 30  13  14  1   
 31  13  15  am  
 32  14  40  1   
 33  14  41  1   
 34  15  16  2   
 35  15  17  1   
 36  17  18  1   
 37  17  42  1   
 38  17  43  1   
 39  18  19  1   
 40  18  20  1   
 41  18  44  1   
 42  19  21  1   
 43  19  45  1   
 44  19  46  1   
 45  20  22  1   
 46  20  47  1   
 47  20  48  1   
 48  21  23  1   
 49  21  49  1   
 50  21  50  1   
 51  22  24  1   
 52  22  51  1   
 53  22  52  1   
 54  23  24  1   
 55  23  53  1   
 56  23  54  1   
 57  24  55  1   
 58  24  56  1   
@<TRIPOS>SUBSTRUCTURE
  1 ****  13 GROUP 4 **** **** 0

# MOE 2024.06 (io_trps.svl 2023.06)
