@<TRIPOS>MOLECULE
NONAME
54 57 1 0 0 
SMALL
USER_CHARGES


@<TRIPOS>ATOM
  1 F        0.9640    -2.5380    -2.6710 F     1 <1>  -0.1900 
  2 C        1.3530    -2.2500    -1.4560 C.ar  1 <1>   0.1900 
  3 C        0.5580    -2.6190    -0.3820 C.ar  1 <1>  -0.1440 
  4 C        2.5580    -1.5880    -1.3020 C.ar  1 <1>  -0.1500 
  5 C        1.0130    -2.3070     0.8930 C.ar  1 <1>  -0.1500 
  6 C       -0.7580    -3.3530    -0.6090 C.3   1 <1>   0.2640 
  7 C        2.9920    -1.2840    -0.0240 C.ar  1 <1>  -0.1500 
  8 C        2.2190    -1.6440     1.0690 C.ar  1 <1>  -0.1500 
  9 O       -1.6890    -2.9980     0.3940 O.3   1 <1>  -0.3620 
 10 C       -2.9300    -3.5320     0.4310 C.ar  1 <1>   0.0830 
 11 C       -3.7480    -3.1420     1.4790 C.ar  1 <1>  -0.1500 
 12 C       -3.4160    -4.4380    -0.5070 C.ar  1 <1>  -0.1500 
 13 C       -5.0310    -3.6420     1.5910 C.ar  1 <1>  -0.1500 
 14 C       -4.7020    -4.9320    -0.3880 C.ar  1 <1>  -0.1500 
 15 C       -5.5430    -4.5420     0.6540 C.ar  1 <1>   0.0860 
 16 C       -6.8900    -5.0660     0.7570 C.2   1 <1>   0.5440 
 17 O       -7.0550    -6.2720     0.7330 O.2   1 <1>  -0.5700 
 18 N       -7.9930    -4.2420     0.8710 N.am  1 <1>  -0.6600 
 19 C       -9.3460    -4.7840     1.2030 C.3   1 <1>   0.1400 
 20 C       -7.9890    -2.7900     0.5410 C.3   1 <1>   0.1400 
 21 C      -10.3450    -4.5590     0.0390 C.3   1 <1>   0.0000 
 22 C       -8.9660    -2.5110    -0.6070 C.3   1 <1>  -0.1600 
 23 C      -11.7560    -5.0880     0.3720 C.3   1 <1>   0.2000 
 24 C      -10.3750    -3.0570    -0.3170 C.3   1 <1>  -0.1600 
 25 C       -9.9670    -5.4330    -1.1700 C.3   1 <1>  -0.1600 
 26 O      -12.1090    -4.9030     1.6980 O.3   1 <1>  -0.6800 
 27 C      -11.7640    -6.5800     0.0290 C.3   1 <1>  -0.1600 
 28 C      -10.5400    -6.8190    -0.8640 C.3   1 <1>  -0.1600 
 29 H        3.1400    -1.3210    -2.1660 H     1 <1>   0.1500 
 30 H        0.4290    -2.5780     1.7560 H     1 <1>   0.1500 
 31 H       -0.5970    -4.4150    -0.5610 H     1 <1>   0.0800 
 32 H       -1.1840    -3.0870    -1.5600 H     1 <1>   0.0800 
 33 H        3.9260    -0.7690     0.1220 H     1 <1>   0.1500 
 34 H        2.5570    -1.4080     2.0640 H     1 <1>   0.1500 
 35 H       -3.3670    -2.4470     2.2060 H     1 <1>   0.1500 
 36 H       -2.8140    -4.7710    -1.3310 H     1 <1>   0.1500 
 37 H       -5.6530    -3.3390     2.4150 H     1 <1>   0.1500 
 38 H       -5.0760    -5.6390    -1.1090 H     1 <1>   0.1500 
 39 H       -9.2850    -5.8310     1.4410 H     1 <1>   0.0800 
 40 H       -9.6960    -4.2720     2.0810 H     1 <1>   0.0800 
 41 H       -8.2870    -2.2340     1.4140 H     1 <1>   0.0800 
 42 H       -7.0070    -2.4610     0.2510 H     1 <1>   0.0800 
 43 H       -9.0210    -1.4490    -0.7720 H     1 <1>   0.0800 
 44 H       -8.5790    -2.9570    -1.5070 H     1 <1>   0.0800 
 45 H      -12.4850    -4.5790    -0.2360 H     1 <1>   0.0800 
 46 H      -11.0090    -2.8890    -1.1700 H     1 <1>   0.0800 
 47 H      -10.7960    -2.5130     0.5120 H     1 <1>   0.0800 
 48 H      -10.4420    -5.0520    -2.0570 H     1 <1>   0.0800 
 49 H       -8.9060    -5.4770    -1.3430 H     1 <1>   0.0800 
 50 H      -11.6050    -5.5180     2.2620 H     1 <1>   0.4000 
 51 H      -11.6960    -7.1950     0.9100 H     1 <1>   0.0800 
 52 H      -12.6670    -6.8220    -0.5030 H     1 <1>   0.0800 
 53 H       -9.8050    -7.3950    -0.3250 H     1 <1>   0.0800 
 54 H      -10.7960    -7.3460    -1.7660 H     1 <1>   0.0800 
@<TRIPOS>BOND
  1   1   2  1   
  2   2   3  ar  
  3   2   4  ar  
  4   3   5  ar  
  5   3   6  1   
  6   4   7  ar  
  7   4  29  1   
  8   5   8  ar  
  9   5  30  1   
 10   6   9  1   
 11   6  31  1   
 12   6  32  1   
 13   7   8  ar  
 14   7  33  1   
 15   8  34  1   
 16   9  10  1   
 17  10  11  ar  
 18  10  12  ar  
 19  11  13  ar  
 20  11  35  1   
 21  12  14  ar  
 22  12  36  1   
 23  13  15  ar  
 24  13  37  1   
 25  14  15  ar  
 26  14  38  1   
 27  15  16  1   
 28  16  17  2   
 29  16  18  am  
 30  18  19  1   
 31  18  20  1   
 32  19  21  1   
 33  19  39  1   
 34  19  40  1   
 35  20  22  1   
 36  20  41  1   
 37  20  42  1   
 38  21  23  1   
 39  21  24  1   
 40  21  25  1   
 41  22  24  1   
 42  22  43  1   
 43  22  44  1   
 44  23  26  1   
 45  23  27  1   
 46  23  45  1   
 47  24  46  1   
 48  24  47  1   
 49  25  28  1   
 50  25  48  1   
 51  25  49  1   
 52  26  50  1   
 53  27  28  1   
 54  27  51  1   
 55  27  52  1   
 56  28  53  1   
 57  28  54  1   
@<TRIPOS>SUBSTRUCTURE
  1 ****  15 GROUP 4 **** **** 0

# MOE 2024.06 (io_trps.svl 2023.06)
