@<TRIPOS>MOLECULE
NONAME
58 61 1 0 0 
SMALL
USER_CHARGES


@<TRIPOS>ATOM
  1 O       -1.5520    -1.2110    -1.3130 O.2   1 <1>  -0.5700 
  2 C       -2.1960    -0.6000    -0.4830 C.2   1 <1>   0.7800 
  3 O       -1.9940     0.7070    -0.3190 O.3   1 <1>  -0.4300 
  4 N       -3.1490    -1.2050     0.3010 N.am  1 <1>  -0.6600 
  5 C       -1.0200     1.3900    -1.0760 C.3   1 <1>   0.1200 
  6 C       -3.9800    -0.4680     1.2850 C.3   1 <1>   0.1400 
  7 C       -3.3770    -2.6690     0.2410 C.3   1 <1>   0.1400 
  8 C       -1.0340     2.8560    -0.6550 C.3   1 <1>  -0.2400 
  9 C       -5.4550    -0.7020     0.9520 C.3   1 <1>  -0.1600 
 10 C       -4.8420    -2.9230    -0.1120 C.3   1 <1>  -0.1600 
 11 C       -5.7660    -2.2010     0.8800 C.3   1 <1>   0.4230 
 12 N       -7.2070    -2.4010     0.5520 N.4   1 <1>  -0.9590 
 13 C       -7.7030    -1.8860    -0.7580 C.3   1 <1>   0.3430 
 14 C       -7.6970    -3.8110     0.6510 C.3   1 <1>   0.3430 
 15 C       -9.0620    -2.5680    -0.9190 C.3   1 <1>   0.2000 
 16 C       -8.7880    -3.9890    -0.4250 C.3   1 <1>  -0.0800 
 17 O       -9.9490    -1.9680    -0.0320 O.3   1 <1>  -0.6800 
 18 C       -8.3600    -4.9160    -1.5910 C.3   1 <1>  -0.0170 
 19 C       -7.4480    -6.0550    -1.1410 C.ar  1 <1>  -0.1440 
 20 C       -7.8800    -7.0850    -0.2720 C.ar  1 <1>   0.0000 
 21 C       -6.1490    -6.0850    -1.5590 C.ar  1 <1>  -0.1500 
 22 C       -6.9080    -8.0100     0.1820 C.ar  1 <1>   0.3100 
 23 C       -9.2120    -7.2570     0.1710 C.ar  1 <1>  -0.1500 
 24 C       -5.2760    -7.0700    -1.0800 C.ar  1 <1>   0.1600 
 25 N       -5.6150    -7.9800    -0.2260 N.ar  1 <1>  -0.6200 
 26 C       -7.2900    -9.0090     1.0910 C.ar  1 <1>  -0.1500 
 27 C       -9.5530    -8.2450     1.0530 C.ar  1 <1>  -0.1500 
 28 C       -8.5810    -9.1280     1.5270 C.ar  1 <1>  -0.1500 
 29 H       -0.0600     0.9410    -0.8820 H     1 <1>   0.0800 
 30 H       -1.2630     1.2850    -2.1210 H     1 <1>   0.0800 
 31 H       -3.7540    -0.8270     2.2750 H     1 <1>   0.0800 
 32 H       -3.7660     0.5880     1.2600 H     1 <1>   0.0800 
 33 H       -2.7400    -3.1260    -0.4980 H     1 <1>   0.0800 
 34 H       -3.1360    -3.1020     1.1970 H     1 <1>   0.0800 
 35 H       -0.8000     2.9430     0.3910 H     1 <1>   0.0800 
 36 H       -2.0000     3.2880    -0.8460 H     1 <1>   0.0800 
 37 H       -0.2980     3.4010    -1.2160 H     1 <1>   0.0800 
 38 H       -5.6580    -0.2210     0.0120 H     1 <1>   0.0800 
 39 H       -6.0560    -0.2370     1.7130 H     1 <1>   0.0800 
 40 H       -5.0050    -3.9830    -0.0770 H     1 <1>   0.0800 
 41 H       -5.0050    -2.5770    -1.1170 H     1 <1>   0.0800 
 42 H       -5.5800    -2.6170     1.8580 H     1 <1>   0.0800 
 43 H       -7.7670    -1.8770     1.2410 H     1 <1>   0.4500 
 44 H       -7.8020    -0.8130    -0.7610 H     1 <1>   0.0800 
 45 H       -7.0460    -2.1930    -1.5530 H     1 <1>   0.0800 
 46 H       -6.8920    -4.5100     0.5040 H     1 <1>   0.0800 
 47 H       -8.1170    -3.9820     1.6290 H     1 <1>   0.0800 
 48 H       -9.4580    -2.5010    -1.9190 H     1 <1>   0.0800 
 49 H       -9.6670    -4.4050     0.0340 H     1 <1>   0.0800 
 50 H      -10.8770    -2.2310    -0.2180 H     1 <1>   0.4000 
 51 H       -7.8390    -4.3430    -2.3390 H     1 <1>   0.0800 
 52 H       -9.2320    -5.3240    -2.0720 H     1 <1>   0.0800 
 53 H       -5.7510    -5.3650    -2.2510 H     1 <1>   0.1500 
 54 H       -9.9840    -6.6120    -0.2000 H     1 <1>   0.1500 
 55 H       -4.2590    -7.0640    -1.4350 H     1 <1>   0.1500 
 56 H       -6.5280    -9.6860     1.4330 H     1 <1>   0.1500 
 57 H      -10.5700    -8.3650     1.3880 H     1 <1>   0.1500 
 58 H       -8.8600    -9.9000     2.2240 H     1 <1>   0.1500 
@<TRIPOS>BOND
  1   1   2  2   
  2   2   3  1   
  3   2   4  am  
  4   3   5  1   
  5   4   6  1   
  6   4   7  1   
  7   5   8  1   
  8   5  29  1   
  9   5  30  1   
 10   6   9  1   
 11   6  31  1   
 12   6  32  1   
 13   7  10  1   
 14   7  33  1   
 15   7  34  1   
 16   8  35  1   
 17   8  36  1   
 18   8  37  1   
 19   9  11  1   
 20   9  38  1   
 21   9  39  1   
 22  10  11  1   
 23  10  40  1   
 24  10  41  1   
 25  11  12  1   
 26  11  42  1   
 27  12  13  1   
 28  12  14  1   
 29  12  43  1   
 30  13  15  1   
 31  13  44  1   
 32  13  45  1   
 33  14  16  1   
 34  14  46  1   
 35  14  47  1   
 36  15  16  1   
 37  15  17  1   
 38  15  48  1   
 39  16  18  1   
 40  16  49  1   
 41  17  50  1   
 42  18  19  1   
 43  18  51  1   
 44  18  52  1   
 45  19  20  ar  
 46  19  21  ar  
 47  20  22  ar  
 48  20  23  ar  
 49  21  24  ar  
 50  21  53  1   
 51  22  25  ar  
 52  22  26  ar  
 53  23  27  ar  
 54  23  54  1   
 55  24  25  ar  
 56  24  55  1   
 57  26  28  ar  
 58  26  56  1   
 59  27  28  ar  
 60  27  57  1   
 61  28  58  1   
@<TRIPOS>SUBSTRUCTURE
  1 ****  10 GROUP 4 **** **** 0

# MOE 2024.06 (io_trps.svl 2023.06)
