@<TRIPOS>MOLECULE
NONAME
45 46 1 0 0 
SMALL
USER_CHARGES


@<TRIPOS>ATOM
  1 S        2.6050     0.1380     1.6840 S.o2  1 <1>   1.3330 
  2 O        3.7640     1.0050     1.6850 O.2   1 <1>  -0.6500 
  3 O        2.4340    -0.8530     2.7150 O.2   1 <1>  -0.6500 
  4 N        2.5810    -0.6650     0.1510 N.am  1 <1>  -0.6930 
  5 C        1.1520     1.1620     1.5860 C.3   1 <1>  -0.1350 
  6 C        1.4860    -1.4470    -0.2140 C.ar  1 <1>   0.1990 
  7 C        3.6680    -0.3150    -0.8210 C.3   1 <1>   0.3370 
  8 C        0.6370    -1.0610    -1.2470 C.ar  1 <1>  -0.1500 
  9 C        1.2100    -2.6300     0.4620 C.ar  1 <1>  -0.1500 
 10 C        3.4500     1.0610    -1.4930 C.2   1 <1>   0.5690 
 11 C        3.8960    -1.4590    -1.8240 C.3   1 <1>  -0.2400 
 12 C       -0.4550    -1.8350    -1.5940 C.ar  1 <1>  -0.1500 
 13 C        0.1190    -3.4060     0.1200 C.ar  1 <1>  -0.1500 
 14 O        2.9240     1.1240    -2.5800 O.2   1 <1>  -0.5700 
 15 N        3.8520     2.1720    -0.8030 N.am  1 <1>  -0.4940 
 16 C       -0.7160    -3.0100    -0.9100 C.ar  1 <1>  -0.1500 
 17 C        3.7620     3.5270    -1.1350 C.2   1 <1>   0.2040 
 18 O        3.3100     3.9450    -2.2930 O.3   1 <1>  -0.0190 
 19 C        4.0880     4.6120    -0.4060 C.2   1 <1>  -0.1810 
 20 N        3.3200     5.2520    -2.3740 N.2   1 <1>  -0.4100 
 21 C        3.7850     5.6750    -1.2540 C.2   1 <1>   0.1080 
 22 C        4.6530     4.6800     1.0040 C.3   1 <1>   0.0210 
 23 C        3.9630     7.1440    -0.9340 C.3   1 <1>  -0.0590 
 24 C        6.1760     4.8090     0.9680 C.3   1 <1>  -0.2400 
 25 H        1.0560     1.7520     2.4760 H     1 <1>   0.0800 
 26 H        0.2760     0.5510     1.4860 H     1 <1>   0.0800 
 27 H        1.2130     1.8180     0.7400 H     1 <1>   0.0800 
 28 H        4.5840    -0.2430    -0.2620 H     1 <1>   0.0800 
 29 H        0.8290    -0.1500    -1.7850 H     1 <1>   0.1500 
 30 H        1.8580    -2.9410     1.2630 H     1 <1>   0.1500 
 31 H        3.0560    -1.5660    -2.4870 H     1 <1>   0.0800 
 32 H        4.0620    -2.3840    -1.3040 H     1 <1>   0.0800 
 33 H        4.7610    -1.2430    -2.4240 H     1 <1>   0.0800 
 34 H       -1.1010    -1.5240    -2.3980 H     1 <1>   0.1500 
 35 H       -0.0810    -4.3190     0.6540 H     1 <1>   0.1500 
 36 H        4.1990     1.9900     0.1470 H     1 <1>   0.3700 
 37 H       -1.5660    -3.6140    -1.1790 H     1 <1>   0.1500 
 38 H        4.3850     3.7880     1.5450 H     1 <1>   0.0800 
 39 H        4.2260     5.5180     1.5260 H     1 <1>   0.0800 
 40 H        5.0020     7.3580    -0.7650 H     1 <1>   0.0800 
 41 H        3.3970     7.4000    -0.0580 H     1 <1>   0.0800 
 42 H        3.6170     7.7430    -1.7570 H     1 <1>   0.0800 
 43 H        6.6080     3.9650     0.4590 H     1 <1>   0.0800 
 44 H        6.5680     4.8450     1.9690 H     1 <1>   0.0800 
 45 H        6.4660     5.7060     0.4510 H     1 <1>   0.0800 
@<TRIPOS>BOND
  1   1   2  2   
  2   1   3  2   
  3   1   4  am  
  4   1   5  1   
  5   4   6  1   
  6   4   7  1   
  7   5  25  1   
  8   5  26  1   
  9   5  27  1   
 10   6   8  ar  
 11   6   9  ar  
 12   7  10  1   
 13   7  11  1   
 14   7  28  1   
 15   8  12  ar  
 16   8  29  1   
 17   9  13  ar  
 18   9  30  1   
 19  10  14  2   
 20  10  15  am  
 21  11  31  1   
 22  11  32  1   
 23  11  33  1   
 24  12  16  ar  
 25  12  34  1   
 26  13  16  ar  
 27  13  35  1   
 28  15  17  1   
 29  15  36  1   
 30  16  37  1   
 31  17  18  1   
 32  17  19  2   
 33  18  20  1   
 34  19  21  1   
 35  19  22  1   
 36  20  21  2   
 37  21  23  1   
 38  22  24  1   
 39  22  38  1   
 40  22  39  1   
 41  23  40  1   
 42  23  41  1   
 43  23  42  1   
 44  24  43  1   
 45  24  44  1   
 46  24  45  1   
@<TRIPOS>SUBSTRUCTURE
  1 ****  10 GROUP 4 **** **** 0

# MOE 2024.06 (io_trps.svl 2023.06)
