@<TRIPOS>MOLECULE
NONAME
51 53 1 0 0 
SMALL
USER_CHARGES


@<TRIPOS>ATOM
  1 S        0.1370    -0.2640    -0.3710 S.3   1 <1>  -0.0800 
  2 C       -1.2420    -1.0690     0.3550 C.2   1 <1>  -0.1400 
  3 C       -0.5720     1.3180    -0.0900 C.2   1 <1>  -0.1400 
  4 C       -2.1510    -0.1610     0.7660 C.2   1 <1>  -0.1500 
  5 C       -1.1630    -2.5820     0.3890 C.3   1 <1>   0.5230 
  6 C       -1.7700     1.1940     0.5080 C.2   1 <1>  -0.1500 
  7 C        0.2060     2.5420    -0.5450 C.3   1 <1>   0.0200 
  8 N       -2.5150    -3.1480     0.6110 N.4   1 <1>  -0.9590 
  9 C        1.0650     3.1590     0.5750 C.3   1 <1>  -0.0800 
 10 C       -3.4780    -2.8940    -0.4920 C.3   1 <1>   0.3430 
 11 C       -2.5380    -4.6200     0.8340 C.3   1 <1>   0.3430 
 12 C        1.7190     4.4580     0.0860 C.3   1 <1>  -0.2400 
 13 C        2.1520     2.1980     1.0780 C.3   1 <1>  -0.2400 
 14 C       -4.6130    -3.8720    -0.1950 C.3   1 <1>   0.2000 
 15 C       -3.8800    -5.1300     0.2760 C.3   1 <1>  -0.0800 
 16 O       -5.3330    -3.3650     0.8820 O.3   1 <1>  -0.6800 
 17 C       -3.6640    -6.1240    -0.8810 C.3   1 <1>   0.0210 
 18 C       -2.9010    -7.3510    -0.4210 C.2   1 <1>   0.1080 
 19 N       -1.6450    -7.3180    -0.0980 N.2   1 <1>  -0.7070 
 20 C       -3.4440    -8.6250    -0.3000 C.2   1 <1>  -0.1500 
 21 N       -1.3470    -8.5940     0.2310 N.pl3 1 <1>   0.3000 
 22 C       -2.4230    -9.4000     0.1210 C.2   1 <1>  -0.3320 
 23 C       -2.4070   -10.8870     0.4230 C.3   1 <1>  -0.0600 
 24 H       -3.0910    -0.3610     1.2520 H     1 <1>   0.1500 
 25 H       -0.4960    -2.8840     1.1790 H     1 <1>   0.0800 
 26 H       -0.7660    -2.9420    -0.5470 H     1 <1>   0.0800 
 27 H       -2.4110     2.0130     0.7860 H     1 <1>   0.1500 
 28 H        0.8220     2.2850    -1.3890 H     1 <1>   0.0800 
 29 H       -0.5040     3.2790    -0.8780 H     1 <1>   0.0800 
 30 H       -2.9290    -2.7060     1.4430 H     1 <1>   0.4500 
 31 H        0.4180     3.4000     1.4020 H     1 <1>   0.0800 
 32 H       -3.8280    -1.8750    -0.5020 H     1 <1>   0.0800 
 33 H       -3.0270    -3.1340    -1.4410 H     1 <1>   0.0800 
 34 H       -1.7190    -5.0790     0.3060 H     1 <1>   0.0800 
 35 H       -2.4470    -4.8510     1.8830 H     1 <1>   0.0800 
 36 H        2.3810     4.2630    -0.7390 H     1 <1>   0.0800 
 37 H        2.2860     4.9120     0.8790 H     1 <1>   0.0800 
 38 H        0.9690     5.1600    -0.2330 H     1 <1>   0.0800 
 39 H        2.7860     1.8830     0.2680 H     1 <1>   0.0800 
 40 H        1.7090     1.3300     1.5300 H     1 <1>   0.0800 
 41 H        2.7620     2.6810     1.8220 H     1 <1>   0.0800 
 42 H       -5.2790    -4.0180    -1.0290 H     1 <1>   0.0800 
 43 H       -4.4310    -5.6360     1.0510 H     1 <1>   0.0800 
 44 H       -6.1480    -3.8860     1.0440 H     1 <1>   0.4000 
 45 H       -3.1110    -5.6650    -1.6810 H     1 <1>   0.0800 
 46 H       -4.6150    -6.4370    -1.2740 H     1 <1>   0.0800 
 47 H       -4.4600    -8.9140    -0.5070 H     1 <1>   0.1500 
 48 H       -0.4050    -8.8880     0.5190 H     1 <1>   0.2700 
 49 H       -3.3830   -11.3090     0.2580 H     1 <1>   0.0800 
 50 H       -2.1310   -11.0580     1.4490 H     1 <1>   0.0800 
 51 H       -1.7050   -11.3910    -0.2180 H     1 <1>   0.0800 
@<TRIPOS>BOND
  1   1   2  1   
  2   1   3  1   
  3   2   4  2   
  4   2   5  1   
  5   3   6  2   
  6   3   7  1   
  7   4   6  1   
  8   4  24  1   
  9   5   8  1   
 10   5  25  1   
 11   5  26  1   
 12   6  27  1   
 13   7   9  1   
 14   7  28  1   
 15   7  29  1   
 16   8  10  1   
 17   8  11  1   
 18   8  30  1   
 19   9  12  1   
 20   9  13  1   
 21   9  31  1   
 22  10  14  1   
 23  10  32  1   
 24  10  33  1   
 25  11  15  1   
 26  11  34  1   
 27  11  35  1   
 28  12  36  1   
 29  12  37  1   
 30  12  38  1   
 31  13  39  1   
 32  13  40  1   
 33  13  41  1   
 34  14  15  1   
 35  14  16  1   
 36  14  42  1   
 37  15  17  1   
 38  15  43  1   
 39  16  44  1   
 40  17  18  1   
 41  17  45  1   
 42  17  46  1   
 43  18  19  2   
 44  18  20  1   
 45  19  21  1   
 46  20  22  2   
 47  20  47  1   
 48  21  22  1   
 49  21  48  1   
 50  22  23  1   
 51  23  49  1   
 52  23  50  1   
 53  23  51  1   
@<TRIPOS>SUBSTRUCTURE
  1 ****   8 GROUP 4 **** **** 0

# MOE 2024.06 (io_trps.svl 2023.06)
