@<TRIPOS>MOLECULE
NONAME
51 53 1 0 0 
SMALL
USER_CHARGES


@<TRIPOS>ATOM
  1 O       -0.7570    -0.3280     2.7620 O.2   1 <1>  -0.5700 
  2 C       -1.3210     0.4200     2.0010 C.2   1 <1>   0.5690 
  3 N       -2.2780    -0.0750     1.1400 N.am  1 <1>  -0.6600 
  4 C       -0.9630     1.8980     2.1570 C.3   1 <1>   0.1570 
  5 C       -2.7940    -1.4650     1.4250 C.3   1 <1>   0.3210 
  6 C       -2.7630     0.5810    -0.1140 C.3   1 <1>   0.1400 
  7 N       -0.6760     2.6090     0.8950 N.pl3 1 <1>   0.0480 
  8 C       -3.9750    -1.9440     0.5660 C.2   1 <1>   0.0460 
  9 C       -3.9630     1.4940     0.1820 C.3   1 <1>   0.3430 
 10 C       -1.3460     3.7110     0.4050 C.ar  1 <1>  -0.1520 
 11 C        0.2610     2.2480    -0.0330 C.2   1 <1>  -0.3020 
 12 N       -5.1630    -1.2930     0.5450 N.2   1 <1>  -0.5650 
 13 C       -4.0210    -3.0380    -0.2330 C.2   1 <1>  -0.3320 
 14 N       -4.6900     1.8920    -1.0630 N.4   1 <1>  -0.9590 
 15 C       -0.8250     4.0170    -0.8490 C.ar  1 <1>   0.0000 
 16 C       -2.3630     4.5000     0.9560 C.ar  1 <1>  -0.1500 
 17 C        0.1940     3.0760    -1.1010 C.2   1 <1>  -0.1500 
 18 C       -5.9020    -2.0160    -0.2330 C.2   1 <1>   0.0360 
 19 N       -5.2650    -3.0880    -0.7430 N.pl3 1 <1>   0.0330 
 20 C       -2.9770    -4.0950    -0.5610 C.3   1 <1>  -0.0600 
 21 C       -3.8560     2.7840    -1.9300 C.3   1 <1>   0.2630 
 22 C       -5.9790     2.5500    -0.7050 C.3   1 <1>   0.2630 
 23 C       -1.3290     5.1020    -1.5720 C.ar  1 <1>  -0.1500 
 24 C       -2.8510     5.5660     0.2360 C.ar  1 <1>  -0.1500 
 25 C       -2.3360     5.8660    -1.0310 C.ar  1 <1>  -0.1500 
 26 H       -0.0900     1.9720     2.7780 H     1 <1>   0.0800 
 27 H       -1.7670     2.3880     2.6680 H     1 <1>   0.0800 
 28 H       -3.1020    -1.5090     2.4560 H     1 <1>   0.0800 
 29 H       -1.9770    -2.1550     1.3150 H     1 <1>   0.0800 
 30 H       -3.0470    -0.1700    -0.8270 H     1 <1>   0.0800 
 31 H       -1.9750     1.1370    -0.5760 H     1 <1>   0.0800 
 32 H       -3.6240     2.3710     0.7030 H     1 <1>   0.0800 
 33 H       -4.6400     0.9610     0.8290 H     1 <1>   0.0800 
 34 H        0.9280     1.4160     0.1230 H     1 <1>   0.1500 
 35 H       -4.9080     1.0170    -1.5660 H     1 <1>   0.4500 
 36 H       -2.7480     4.2910     1.9390 H     1 <1>   0.1500 
 37 H        0.7970     3.0600    -1.9930 H     1 <1>   0.1500 
 38 H       -6.9330    -1.8080    -0.4630 H     1 <1>   0.1500 
 39 H       -5.6560    -3.8030    -1.3650 H     1 <1>   0.2700 
 40 H       -2.0400    -3.8800    -0.0800 H     1 <1>   0.0800 
 41 H       -2.8080    -4.1350    -1.6220 H     1 <1>   0.0800 
 42 H       -3.3120    -5.0620    -0.2270 H     1 <1>   0.0800 
 43 H       -3.6130     3.6920    -1.4040 H     1 <1>   0.0800 
 44 H       -4.3900     3.0390    -2.8310 H     1 <1>   0.0800 
 45 H       -2.9350     2.2950    -2.2040 H     1 <1>   0.0800 
 46 H       -5.7950     3.4590    -0.1550 H     1 <1>   0.0800 
 47 H       -6.5760     1.8900    -0.0950 H     1 <1>   0.0800 
 48 H       -6.5360     2.7910    -1.5960 H     1 <1>   0.0800 
 49 H       -0.9090     5.3310    -2.5360 H     1 <1>   0.1500 
 50 H       -3.6250     6.1940     0.6450 H     1 <1>   0.1500 
 51 H       -2.7250     6.7140    -1.5690 H     1 <1>   0.1500 
@<TRIPOS>BOND
  1   1   2  2   
  2   2   3  am  
  3   2   4  1   
  4   3   5  1   
  5   3   6  1   
  6   4   7  1   
  7   4  26  1   
  8   4  27  1   
  9   5   8  1   
 10   5  28  1   
 11   5  29  1   
 12   6   9  1   
 13   6  30  1   
 14   6  31  1   
 15   7  10  1   
 16   7  11  1   
 17   8  12  1   
 18   8  13  2   
 19   9  14  1   
 20   9  32  1   
 21   9  33  1   
 22  10  15  ar  
 23  10  16  ar  
 24  11  17  2   
 25  11  34  1   
 26  12  18  2   
 27  13  19  1   
 28  13  20  1   
 29  14  21  1   
 30  14  22  1   
 31  14  35  1   
 32  15  17  1   
 33  15  23  ar  
 34  16  24  ar  
 35  16  36  1   
 36  17  37  1   
 37  18  19  1   
 38  18  38  1   
 39  19  39  1   
 40  20  40  1   
 41  20  41  1   
 42  20  42  1   
 43  21  43  1   
 44  21  44  1   
 45  21  45  1   
 46  22  46  1   
 47  22  47  1   
 48  22  48  1   
 49  23  25  ar  
 50  23  49  1   
 51  24  25  ar  
 52  24  50  1   
 53  25  51  1   
@<TRIPOS>SUBSTRUCTURE
  1 ****   6 GROUP 4 **** **** 0

# MOE 2024.06 (io_trps.svl 2023.06)
