@<TRIPOS>MOLECULE
NONAME
52 55 1 0 0 
SMALL
USER_CHARGES


@<TRIPOS>ATOM
  1 O       -3.2140     0.6230    -2.0530 O.2   1 <1>  -0.5700 
  2 C       -2.5040     0.6580    -1.0760 C.2   1 <1>   0.5690 
  3 N       -2.1020    -0.4800    -0.4590 N.am  1 <1>  -0.7300 
  4 C       -2.0730     2.0030    -0.4940 C.3   1 <1>  -0.0190 
  5 C       -2.5270    -1.8340    -0.8700 C.3   1 <1>   0.2200 
  6 C       -3.2650     2.7160     0.1750 C.3   1 <1>  -0.1600 
  7 C       -1.4250     2.9060    -1.5630 C.3   1 <1>  -0.1600 
  8 C       -3.8260    -2.1760    -0.1620 C.3   1 <1>  -0.0800 
  9 C       -1.5760    -2.8780    -0.2990 C.3   1 <1>   0.1200 
 10 C       -2.8590     4.0800     0.7540 C.3   1 <1>  -0.1600 
 11 C       -1.0170     4.2700    -0.9830 C.3   1 <1>  -0.1600 
 12 C       -3.3460    -2.7760     1.1650 C.3   1 <1>   0.1200 
 13 C       -4.6730    -3.1650    -0.9860 C.3   1 <1>  -0.0170 
 14 O       -1.9870    -3.0780     1.0180 O.3   1 <1>  -0.5600 
 15 C       -2.2140     4.9580    -0.3220 C.3   1 <1>   0.2000 
 16 C       -6.0440    -3.3800    -0.3540 C.ar  1 <1>  -0.1440 
 17 O       -1.7730     6.1180     0.2730 O.3   1 <1>  -0.6800 
 18 C       -7.0710    -2.4080    -0.4340 C.ar  1 <1>   0.0000 
 19 C       -6.3190    -4.5360     0.3160 C.ar  1 <1>  -0.1500 
 20 C       -8.3010    -2.6990     0.2050 C.ar  1 <1>   0.3100 
 21 C       -6.9520    -1.1690    -1.1080 C.ar  1 <1>  -0.1500 
 22 C       -7.5740    -4.7260     0.9070 C.ar  1 <1>   0.1600 
 23 N       -8.5360    -3.8590     0.8690 N.ar  1 <1>  -0.6200 
 24 C       -9.3350    -1.7500     0.1550 C.ar  1 <1>  -0.1500 
 25 C       -7.9800    -0.2670    -1.1400 C.ar  1 <1>  -0.1500 
 26 C       -9.1870    -0.5580    -0.5000 C.ar  1 <1>  -0.1500 
 27 H       -1.5930    -0.4480     0.4270 H     1 <1>   0.3700 
 28 H       -1.3330     1.8120     0.2630 H     1 <1>   0.0800 
 29 H       -2.5970    -1.8870    -1.9440 H     1 <1>   0.0800 
 30 H       -4.0440     2.8590    -0.5550 H     1 <1>   0.0800 
 31 H       -3.6640     2.0960     0.9600 H     1 <1>   0.0800 
 32 H       -0.5590     2.4160    -1.9740 H     1 <1>   0.0800 
 33 H       -2.1240     3.0610    -2.3690 H     1 <1>   0.0800 
 34 H       -4.4070    -1.2890     0.0210 H     1 <1>   0.0800 
 35 H       -0.5490    -2.5610    -0.3160 H     1 <1>   0.0800 
 36 H       -1.6800    -3.8130    -0.8210 H     1 <1>   0.0800 
 37 H       -2.1650     3.9260     1.5620 H     1 <1>   0.0800 
 38 H       -3.7320     4.5770     1.1410 H     1 <1>   0.0800 
 39 H       -0.6410     4.8940    -1.7750 H     1 <1>   0.0800 
 40 H       -0.2350     4.1230    -0.2600 H     1 <1>   0.0800 
 41 H       -3.8730    -3.6750     1.4310 H     1 <1>   0.0800 
 42 H       -3.4360    -2.0600     1.9640 H     1 <1>   0.0800 
 43 H       -4.1570    -4.1050    -1.0680 H     1 <1>   0.0800 
 44 H       -4.8050    -2.7930    -1.9870 H     1 <1>   0.0800 
 45 H       -2.9450     5.2290    -1.0670 H     1 <1>   0.0800 
 46 H       -1.0980     5.9120     0.9450 H     1 <1>   0.4000 
 47 H       -5.5920    -5.3210     0.4110 H     1 <1>   0.1500 
 48 H       -6.0360    -0.9210    -1.6130 H     1 <1>   0.1500 
 49 H       -7.7490    -5.6530     1.4270 H     1 <1>   0.1500 
 50 H      -10.2540    -1.9970     0.6520 H     1 <1>   0.1500 
 51 H       -7.8720     0.6720    -1.6550 H     1 <1>   0.1500 
 52 H       -9.9890     0.1600    -0.5310 H     1 <1>   0.1500 
@<TRIPOS>BOND
  1   1   2  2   
  2   2   3  am  
  3   2   4  1   
  4   3   5  1   
  5   3  27  1   
  6   4   6  1   
  7   4   7  1   
  8   4  28  1   
  9   5   8  1   
 10   5   9  1   
 11   5  29  1   
 12   6  10  1   
 13   6  30  1   
 14   6  31  1   
 15   7  11  1   
 16   7  32  1   
 17   7  33  1   
 18   8  12  1   
 19   8  13  1   
 20   8  34  1   
 21   9  14  1   
 22   9  35  1   
 23   9  36  1   
 24  10  15  1   
 25  10  37  1   
 26  10  38  1   
 27  11  15  1   
 28  11  39  1   
 29  11  40  1   
 30  12  14  1   
 31  12  41  1   
 32  12  42  1   
 33  13  16  1   
 34  13  43  1   
 35  13  44  1   
 36  15  17  1   
 37  15  45  1   
 38  16  18  ar  
 39  16  19  ar  
 40  17  46  1   
 41  18  20  ar  
 42  18  21  ar  
 43  19  22  ar  
 44  19  47  1   
 45  20  23  ar  
 46  20  24  ar  
 47  21  25  ar  
 48  21  48  1   
 49  22  23  ar  
 50  22  49  1   
 51  24  26  ar  
 52  24  50  1   
 53  25  26  ar  
 54  25  51  1   
 55  26  52  1   
@<TRIPOS>SUBSTRUCTURE
  1 ****   8 GROUP 4 **** **** 0

# MOE 2024.06 (io_trps.svl 2023.06)
