@<TRIPOS>MOLECULE
NONAME
47 48 1 0 0 
SMALL
USER_CHARGES


@<TRIPOS>ATOM
  1 O        0.7950     2.1130    -1.4790 O.2   1 <1>  -0.5700 
  2 C        0.1870     3.1040    -1.1500 C.2   1 <1>   0.5690 
  3 N       -0.8320     3.0670    -0.2370 N.am  1 <1>  -0.6600 
  4 C        0.6010     4.4370    -1.7740 C.3   1 <1>   0.1810 
  5 C       -1.5770     4.3070     0.1500 C.3   1 <1>   0.3640 
  6 C       -1.2800     1.8050     0.4160 C.3   1 <1>   0.0600 
  7 O       -0.4110     5.4210    -1.7370 O.3   1 <1>  -0.5600 
  8 C       -3.0930     4.1680    -0.0780 C.ar  1 <1>  -0.1440 
  9 C       -1.0230     5.6230    -0.4680 C.3   1 <1>   0.2610 
 10 C       -3.7060     3.8140    -1.2850 C.ar  1 <1>  -0.1440 
 11 C       -3.9000     4.4320     1.0250 C.ar  1 <1>  -0.1500 
 12 C       -0.1050     6.3860     0.5020 C.2   1 <1>   0.5690 
 13 C       -5.0900     3.7300    -1.3500 C.ar  1 <1>  -0.1500 
 14 C       -2.9370     3.5090    -2.5640 C.3   1 <1>  -0.0960 
 15 C       -5.2770     4.3460     0.9480 C.ar  1 <1>  -0.1500 
 16 O       -0.3650     6.3960     1.6830 O.2   1 <1>  -0.5700 
 17 N        0.9680     7.0530    -0.0050 N.am  1 <1>  -0.7300 
 18 C       -5.8750     3.9930    -0.2430 C.ar  1 <1>  -0.1500 
 19 C        2.0550     7.7790     0.6690 C.3   1 <1>   0.3000 
 20 C        3.0110     8.3080    -0.4290 C.3   1 <1>   0.1200 
 21 C        1.4720     8.9580     1.4520 C.3   1 <1>  -0.2400 
 22 C        2.7920     6.8160     1.6060 C.3   1 <1>  -0.2400 
 23 O        3.3670     7.3030    -1.3330 O.3   1 <1>  -0.6800 
 24 H        0.8540     4.2750    -2.8060 H     1 <1>   0.0800 
 25 H        1.4710     4.8080    -1.2660 H     1 <1>   0.0800 
 26 H       -1.4540     4.3830     1.2150 H     1 <1>   0.0800 
 27 H       -1.2660     1.9220     1.4860 H     1 <1>   0.0800 
 28 H       -0.6310     0.9880     0.1510 H     1 <1>   0.0800 
 29 H       -2.2800     1.5650     0.1000 H     1 <1>   0.0800 
 30 H       -1.8600     6.2740    -0.6420 H     1 <1>   0.0800 
 31 H       -3.4620     4.7130     1.9670 H     1 <1>   0.1500 
 32 H       -5.5750     3.4580    -2.2710 H     1 <1>   0.1500 
 33 H       -3.6060     3.2610    -3.3680 H     1 <1>   0.0800 
 34 H       -2.2810     2.6710    -2.4210 H     1 <1>   0.0800 
 35 H       -2.3670     4.3640    -2.8720 H     1 <1>   0.0800 
 36 H       -5.8810     4.5540     1.8140 H     1 <1>   0.1500 
 37 H        1.1300     6.9820    -1.0170 H     1 <1>   0.3700 
 38 H       -6.9460     3.9230    -0.3120 H     1 <1>   0.1500 
 39 H        3.9100     8.7070     0.0080 H     1 <1>   0.0800 
 40 H        2.5300     9.0900    -0.9890 H     1 <1>   0.0800 
 41 H        2.2610     9.5370     1.8950 H     1 <1>   0.0800 
 42 H        0.8320     8.6110     2.2430 H     1 <1>   0.0800 
 43 H        0.9020     9.5970     0.8010 H     1 <1>   0.0800 
 44 H        3.6410     7.3050     2.0480 H     1 <1>   0.0800 
 45 H        3.1330     5.9490     1.0720 H     1 <1>   0.0800 
 46 H        2.1440     6.4970     2.4030 H     1 <1>   0.0800 
 47 H        3.8900     6.6110    -0.8810 H     1 <1>   0.4000 
@<TRIPOS>BOND
  1   1   2  2   
  2   2   3  am  
  3   2   4  1   
  4   3   5  1   
  5   3   6  1   
  6   4   7  1   
  7   4  24  1   
  8   4  25  1   
  9   5   8  1   
 10   5   9  1   
 11   5  26  1   
 12   6  27  1   
 13   6  28  1   
 14   6  29  1   
 15   7   9  1   
 16   8  10  ar  
 17   8  11  ar  
 18   9  12  1   
 19   9  30  1   
 20  10  13  ar  
 21  10  14  1   
 22  11  15  ar  
 23  11  31  1   
 24  12  16  2   
 25  12  17  am  
 26  13  18  ar  
 27  13  32  1   
 28  14  33  1   
 29  14  34  1   
 30  14  35  1   
 31  15  18  ar  
 32  15  36  1   
 33  17  19  1   
 34  17  37  1   
 35  18  38  1   
 36  19  20  1   
 37  19  21  1   
 38  19  22  1   
 39  20  23  1   
 40  20  39  1   
 41  20  40  1   
 42  21  41  1   
 43  21  42  1   
 44  21  43  1   
 45  22  44  1   
 46  22  45  1   
 47  22  46  1   
 48  23  47  1   
@<TRIPOS>SUBSTRUCTURE
  1 ****   9 GROUP 4 **** **** 0

# MOE 2024.06 (io_trps.svl 2023.06)
