@<TRIPOS>MOLECULE
NONAME
50 52 1 0 0 
SMALL
USER_CHARGES


@<TRIPOS>ATOM
  1 O       -0.6220    -0.4180    -0.0040 O.2   1 <1>  -0.5700 
  2 C       -0.5540    -1.6360    -0.1660 C.2   1 <1>   0.6160 
  3 N        0.6600    -2.2560    -0.4550 N.am  1 <1>  -0.2980 
  4 C       -1.6890    -2.4570    -0.0700 C.2   1 <1>  -0.1360 
  5 N        0.8020    -3.6060    -0.6350 N.2   1 <1>  -0.5120 
  6 C        1.8870    -1.4350    -0.5750 C.3   1 <1>   0.0600 
  7 C       -1.5850    -3.8120    -0.2450 C.2   1 <1>   0.1140 
  8 C       -0.2720    -4.3220    -0.5270 C.2   1 <1>   0.3760 
  9 N       -2.7060    -4.6470    -0.1530 N.pl3 1 <1>  -0.8380 
 10 C       -2.7640    -5.9830    -0.8340 C.3   1 <1>   0.2090 
 11 C       -3.9120    -4.2660     0.6550 C.3   1 <1>   0.2090 
 12 C       -4.2080    -6.3960    -1.1740 C.3   1 <1>   0.1400 
 13 C       -4.6970    -5.4940     1.1490 C.3   1 <1>   0.1400 
 14 N       -5.1040    -6.4140     0.0330 N.am  1 <1>  -0.6600 
 15 C       -6.2030    -7.2300     0.1810 C.2   1 <1>   0.5690 
 16 O       -6.8300    -7.2180     1.2200 O.2   1 <1>  -0.5700 
 17 C       -6.6600    -8.1790    -0.9600 C.3   1 <1>   0.2810 
 18 N       -5.7220    -9.3200    -1.2300 N.am  1 <1>  -0.7300 
 19 C       -8.0830    -8.7450    -0.7890 C.3   1 <1>   0.0200 
 20 C       -4.9350   -10.0340    -0.3940 C.2   1 <1>   0.5690 
 21 C       -9.1550    -7.6690    -0.8930 C.2   1 <1>  -0.3320 
 22 O       -4.1040   -10.7630    -0.8650 O.2   1 <1>  -0.5700 
 23 C       -5.0600    -9.9550     1.1080 C.3   1 <1>  -0.1790 
 24 N       -9.3740    -6.7470     0.0630 N.pl3 1 <1>   0.0330 
 25 C      -10.0560    -7.4200    -1.8700 C.2   1 <1>   0.0770 
 26 C      -10.3910    -5.9910    -0.3980 C.2   1 <1>   0.0360 
 27 N      -10.8280    -6.3620    -1.5580 N.2   1 <1>  -0.5650 
 28 H       -2.6170    -1.9670     0.1330 H     1 <1>   0.1500 
 29 H        1.7590    -0.7140    -1.3620 H     1 <1>   0.0800 
 30 H        2.7290    -2.0640    -0.8020 H     1 <1>   0.0800 
 31 H        2.0650    -0.9210     0.3520 H     1 <1>   0.0800 
 32 H       -0.1770    -5.3840    -0.6540 H     1 <1>   0.0600 
 33 H       -2.1910    -5.9480    -1.7450 H     1 <1>   0.0800 
 34 H       -2.3280    -6.7300    -0.1920 H     1 <1>   0.0800 
 35 H       -3.6040    -3.6870     1.5090 H     1 <1>   0.0800 
 36 H       -4.5620    -3.6550     0.0530 H     1 <1>   0.0800 
 37 H       -4.1730    -7.3660    -1.6330 H     1 <1>   0.0800 
 38 H       -4.6030    -5.7000    -1.8940 H     1 <1>   0.0800 
 39 H       -5.5700    -5.1540     1.6780 H     1 <1>   0.0800 
 40 H       -4.0850    -6.0410     1.8460 H     1 <1>   0.0800 
 41 H       -6.6810    -7.5770    -1.8510 H     1 <1>   0.0800 
 42 H       -5.6010    -9.5590    -2.2160 H     1 <1>   0.3700 
 43 H       -8.1690    -9.2490     0.1570 H     1 <1>   0.0800 
 44 H       -8.2630    -9.4690    -1.5650 H     1 <1>   0.0800 
 45 H       -6.0910    -9.9080     1.4000 H     1 <1>   0.0800 
 46 H       -4.5400    -9.0900     1.4720 H     1 <1>   0.0800 
 47 H       -4.6200   -10.8300     1.5490 H     1 <1>   0.0800 
 48 H       -8.8490    -6.6450     0.9430 H     1 <1>   0.2700 
 49 H      -10.1970    -7.9530    -2.7960 H     1 <1>   0.1500 
 50 H      -10.7850    -5.1610     0.1610 H     1 <1>   0.1500 
@<TRIPOS>BOND
  1   1   2  2   
  2   2   3  am  
  3   2   4  1   
  4   3   5  1   
  5   3   6  1   
  6   4   7  2   
  7   4  28  1   
  8   5   8  2   
  9   6  29  1   
 10   6  30  1   
 11   6  31  1   
 12   7   8  1   
 13   7   9  1   
 14   8  32  1   
 15   9  10  1   
 16   9  11  1   
 17  10  12  1   
 18  10  33  1   
 19  10  34  1   
 20  11  13  1   
 21  11  35  1   
 22  11  36  1   
 23  12  14  1   
 24  12  37  1   
 25  12  38  1   
 26  13  14  1   
 27  13  39  1   
 28  13  40  1   
 29  14  15  am  
 30  15  16  2   
 31  15  17  1   
 32  17  18  1   
 33  17  19  1   
 34  17  41  1   
 35  18  20  am  
 36  18  42  1   
 37  19  21  1   
 38  19  43  1   
 39  19  44  1   
 40  20  22  2   
 41  20  23  1   
 42  21  24  1   
 43  21  25  2   
 44  23  45  1   
 45  23  46  1   
 46  23  47  1   
 47  24  26  1   
 48  24  48  1   
 49  25  27  1   
 50  25  49  1   
 51  26  27  2   
 52  26  50  1   
@<TRIPOS>SUBSTRUCTURE
  1 ****  14 GROUP 4 **** **** 0

# MOE 2024.06 (io_trps.svl 2023.06)
