@<TRIPOS>MOLECULE
NONAME
44 46 1 0 0 
SMALL
USER_CHARGES


@<TRIPOS>ATOM
  1 O        4.1760    -1.8130    -1.6340 O.2   1 <1>  -0.5700 
  2 C        3.3100    -1.6340    -0.8000 C.2   1 <1>   0.5440 
  3 N        3.2560    -0.3830    -0.2440 N.am  1 <1>  -0.6600 
  4 C        2.4200    -2.6950    -0.3890 C.ar  1 <1>   0.0860 
  5 C        4.1010    -0.1330     0.9790 C.3   1 <1>   0.2200 
  6 C        2.9260     0.7640    -1.1470 C.3   1 <1>   0.1400 
  7 C        2.5820    -3.9990    -0.8190 C.ar  1 <1>   0.1600 
  8 C        1.3510    -2.4900     0.4630 C.ar  1 <1>   0.1600 
  9 C        3.6130     1.0660     1.8080 C.3   1 <1>   0.1200 
 10 C        5.6020     0.0270     0.6170 C.3   1 <1>   0.3430 
 11 C        3.8630     1.9820    -1.0360 C.3   1 <1>  -0.0800 
 12 N        1.7960    -4.9850    -0.4420 N.ar  1 <1>  -0.6200 
 13 N        0.5480    -3.4500     0.8610 N.ar  1 <1>  -0.6200 
 14 O        4.1870     2.2500     1.3430 O.3   1 <1>  -0.5600 
 15 N        5.8280     0.3380    -0.8370 N.4   1 <1>  -0.9590 
 16 C        3.5900     2.8150     0.2260 C.3   1 <1>   0.1200 
 17 C        5.3670     1.7030    -1.2450 C.3   1 <1>   0.3430 
 18 C        0.8140    -4.6560     0.3820 C.ar  1 <1>   0.4770 
 19 C        7.2410     0.0920    -1.2370 C.3   1 <1>   0.2630 
 20 C       -0.1090    -5.7810     0.8210 C.3   1 <1>  -0.0170 
 21 C       -1.3140    -5.9420    -0.1180 C.3   1 <1>  -0.2400 
 22 H        4.0110    -0.9950     1.6180 H     1 <1>   0.0800 
 23 H        2.9370     0.4180    -2.1680 H     1 <1>   0.0800 
 24 H        1.9160     1.0780    -0.9390 H     1 <1>   0.0800 
 25 H        3.3870    -4.2360    -1.4940 H     1 <1>   0.1500 
 26 H        1.1470    -1.4990     0.8310 H     1 <1>   0.1500 
 27 H        3.9430     0.9500     2.8260 H     1 <1>   0.0800 
 28 H        2.5390     1.1470     1.8110 H     1 <1>   0.0800 
 29 H        6.0950    -0.9010     0.8530 H     1 <1>   0.0800 
 30 H        6.0440     0.7920     1.2340 H     1 <1>   0.0800 
 31 H        3.5770     2.6320    -1.8440 H     1 <1>   0.0800 
 32 H        5.2230    -0.3510    -1.3390 H     1 <1>   0.4500 
 33 H        2.5340     2.9320     0.4110 H     1 <1>   0.0800 
 34 H        4.0150     3.7990     0.1130 H     1 <1>   0.0800 
 35 H        5.9350     2.4480    -0.7120 H     1 <1>   0.0800 
 36 H        5.5800     1.8260    -2.2940 H     1 <1>   0.0800 
 37 H        7.9020     0.7650    -0.7150 H     1 <1>   0.0800 
 38 H        7.3590     0.2420    -2.2980 H     1 <1>   0.0800 
 39 H        7.5220    -0.9220    -1.0040 H     1 <1>   0.0800 
 40 H        0.4480    -6.7010     0.8480 H     1 <1>   0.0800 
 41 H       -0.4570    -5.5800     1.8190 H     1 <1>   0.0800 
 42 H       -0.9770    -6.1610    -1.1160 H     1 <1>   0.0800 
 43 H       -1.8890    -5.0330    -0.1390 H     1 <1>   0.0800 
 44 H       -1.9440    -6.7450     0.2200 H     1 <1>   0.0800 
@<TRIPOS>BOND
  1   1   2  2   
  2   2   3  am  
  3   2   4  1   
  4   3   5  1   
  5   3   6  1   
  6   4   7  ar  
  7   4   8  ar  
  8   5   9  1   
  9   5  10  1   
 10   5  22  1   
 11   6  11  1   
 12   6  23  1   
 13   6  24  1   
 14   7  12  ar  
 15   7  25  1   
 16   8  13  ar  
 17   8  26  1   
 18   9  14  1   
 19   9  27  1   
 20   9  28  1   
 21  10  15  1   
 22  10  29  1   
 23  10  30  1   
 24  11  16  1   
 25  11  17  1   
 26  11  31  1   
 27  12  18  ar  
 28  13  18  ar  
 29  14  16  1   
 30  15  17  1   
 31  15  19  1   
 32  15  32  1   
 33  16  33  1   
 34  16  34  1   
 35  17  35  1   
 36  17  36  1   
 37  18  20  1   
 38  19  37  1   
 39  19  38  1   
 40  19  39  1   
 41  20  21  1   
 42  20  40  1   
 43  20  41  1   
 44  21  42  1   
 45  21  43  1   
 46  21  44  1   
@<TRIPOS>SUBSTRUCTURE
  1 ****   2 GROUP 4 **** **** 0

# MOE 2024.06 (io_trps.svl 2023.06)
