@<TRIPOS>MOLECULE
NONAME
52 54 1 0 0 
SMALL
USER_CHARGES


@<TRIPOS>ATOM
  1 F        5.2500    -0.5180    -0.9020 F     1 <1>  -0.1900 
  2 C        5.2400    -0.2460     0.3750 C.ar  1 <1>   0.1900 
  3 C        4.9100     1.0400     0.7990 C.ar  1 <1>   0.0860 
  4 C        5.5650    -1.2700     1.2450 C.ar  1 <1>  -0.1500 
  5 C        4.5770     2.1110    -0.1170 C.2   1 <1>   0.5440 
  6 C        4.9090     1.2540     2.1780 C.ar  1 <1>  -0.1500 
  7 C        5.5620    -1.0200     2.6060 C.ar  1 <1>  -0.1500 
  8 O        3.5320     2.7120     0.0370 O.2   1 <1>  -0.5700 
  9 N        5.4180     2.5280    -1.1330 N.am  1 <1>  -0.6600 
 10 C        5.2300     0.2430     3.0690 C.ar  1 <1>  -0.1500 
 11 C        6.8670     2.1470    -1.2080 C.3   1 <1>   0.1400 
 12 C        4.9160     3.4280    -2.2110 C.3   1 <1>   0.1400 
 13 C        7.7860     3.3770    -1.3060 C.3   1 <1>   0.3430 
 14 C        5.0090     4.8990    -1.7770 C.3   1 <1>  -0.1600 
 15 N        7.1640     4.5470    -0.6140 N.4   1 <1>  -0.9590 
 16 C        6.4220     5.4380    -1.5300 C.3   1 <1>   0.3430 
 17 C        8.1170     5.2140     0.3060 C.3   1 <1>   0.5230 
 18 C        8.4160     4.2350     1.4340 C.2   1 <1>   0.0060 
 19 N        7.5120     3.4460     1.9330 N.2   1 <1>  -0.5650 
 20 N        9.6440     4.0770     1.9870 N.pl3 1 <1>   0.0480 
 21 C        8.1790     2.7410     2.8640 C.2   1 <1>   0.0770 
 22 C        9.4760     3.1110     2.9080 C.2   1 <1>  -0.3020 
 23 C       10.9190     4.7670     1.6850 C.3   1 <1>   0.0960 
 24 C       11.6240     4.1430     0.4760 C.3   1 <1>   0.1200 
 25 O       10.8150     4.2460    -0.6600 O.3   1 <1>  -0.5600 
 26 C       11.4520     3.8060    -1.8210 C.3   1 <1>   0.0400 
 27 H        5.8130    -2.2450     0.8630 H     1 <1>   0.1500 
 28 H        4.6500     2.2310     2.5500 H     1 <1>   0.1500 
 29 H        5.8110    -1.8030     3.3020 H     1 <1>   0.1500 
 30 H        5.2200     0.4390     4.1280 H     1 <1>   0.1500 
 31 H        7.0290     1.5000    -2.0520 H     1 <1>   0.0800 
 32 H        7.1490     1.6020    -0.3240 H     1 <1>   0.0800 
 33 H        3.8840     3.1870    -2.4120 H     1 <1>   0.0800 
 34 H        5.4680     3.2610    -3.1200 H     1 <1>   0.0800 
 35 H        7.9650     3.6140    -2.3400 H     1 <1>   0.0800 
 36 H        8.7330     3.1300    -0.8550 H     1 <1>   0.0800 
 37 H        4.4160     5.0400    -0.8900 H     1 <1>   0.0800 
 38 H        4.5550     5.5010    -2.5430 H     1 <1>   0.0800 
 39 H        6.4720     4.1110     0.0270 H     1 <1>   0.4500 
 40 H        6.3390     6.4220    -1.0970 H     1 <1>   0.0800 
 41 H        6.9520     5.5260    -2.4640 H     1 <1>   0.0800 
 42 H        7.6680     6.0980     0.7270 H     1 <1>   0.0800 
 43 H        9.0150     5.4920    -0.2170 H     1 <1>   0.0800 
 44 H        7.6870     1.9920     3.4640 H     1 <1>   0.1500 
 45 H       10.2660     2.7420     3.5380 H     1 <1>   0.1500 
 46 H       11.5590     4.6910     2.5460 H     1 <1>   0.0800 
 47 H       10.7320     5.8090     1.5030 H     1 <1>   0.0800 
 48 H       11.8360     3.1030     0.6620 H     1 <1>   0.0800 
 49 H       12.5490     4.6650     0.2900 H     1 <1>   0.0800 
 50 H       10.7740     3.9200    -2.6480 H     1 <1>   0.0800 
 51 H       11.7200     2.7680    -1.7110 H     1 <1>   0.0800 
 52 H       12.3320     4.4020    -1.9960 H     1 <1>   0.0800 
@<TRIPOS>BOND
  1   1   2  1   
  2   2   3  ar  
  3   2   4  ar  
  4   3   5  1   
  5   3   6  ar  
  6   4   7  ar  
  7   4  27  1   
  8   5   8  2   
  9   5   9  am  
 10   6  10  ar  
 11   6  28  1   
 12   7  10  ar  
 13   7  29  1   
 14   9  11  1   
 15   9  12  1   
 16  10  30  1   
 17  11  13  1   
 18  11  31  1   
 19  11  32  1   
 20  12  14  1   
 21  12  33  1   
 22  12  34  1   
 23  13  15  1   
 24  13  35  1   
 25  13  36  1   
 26  14  16  1   
 27  14  37  1   
 28  14  38  1   
 29  15  16  1   
 30  15  17  1   
 31  15  39  1   
 32  16  40  1   
 33  16  41  1   
 34  17  18  1   
 35  17  42  1   
 36  17  43  1   
 37  18  19  2   
 38  18  20  1   
 39  19  21  1   
 40  20  22  1   
 41  20  23  1   
 42  21  22  2   
 43  21  44  1   
 44  22  45  1   
 45  23  24  1   
 46  23  46  1   
 47  23  47  1   
 48  24  25  1   
 49  24  48  1   
 50  24  49  1   
 51  25  26  1   
 52  26  50  1   
 53  26  51  1   
 54  26  52  1   
@<TRIPOS>SUBSTRUCTURE
  1 ****  11 GROUP 4 **** **** 0

# MOE 2024.06 (io_trps.svl 2023.06)
