@<TRIPOS>MOLECULE
NONAME
48 49 1 0 0 
SMALL
USER_CHARGES


@<TRIPOS>ATOM
  1 S        1.0970     0.9130    -0.6680 S.o2  1 <1>   1.3330 
  2 O        1.5290     1.9240    -1.6070 O.2   1 <1>  -0.6500 
  3 O        1.0560    -0.4630    -1.1090 O.2   1 <1>  -0.6500 
  4 N        2.0600     0.9730     0.7310 N.am  1 <1>  -0.8490 
  5 C       -0.5510     1.3120    -0.0630 C.3   1 <1>  -0.0550 
  6 C        2.5450    -0.3300     1.1910 C.3   1 <1>   0.1160 
  7 C        3.1570     1.9440     0.6710 C.3   1 <1>   0.1160 
  8 C       -0.8890     2.7590     0.3730 C.3   1 <1>  -0.0800 
  9 C       -0.7810     3.8000    -0.7530 C.3   1 <1>   0.2000 
 10 C       -0.0490     3.3100     1.5340 C.3   1 <1>   0.1400 
 11 O       -1.8810     4.6380    -0.6520 O.3   1 <1>  -0.6800 
 12 C        0.4710     4.6260    -0.4600 C.3   1 <1>   0.1400 
 13 N        0.7190     4.4520     0.9880 N.am  1 <1>  -0.6600 
 14 C        1.6000     5.1910     1.7440 C.2   1 <1>   0.5440 
 15 O        1.8380     4.8160     2.8770 O.2   1 <1>  -0.5700 
 16 C        2.1650     6.4360     1.2670 C.ar  1 <1>   0.0860 
 17 C        3.1000     6.5180     0.2250 C.ar  1 <1>   0.0820 
 18 C        1.7530     7.6230     1.8730 C.ar  1 <1>  -0.1500 
 19 O        3.5260     5.3650    -0.3490 O.3   1 <1>  -0.3630 
 20 C        3.5690     7.7640    -0.1930 C.ar  1 <1>  -0.1500 
 21 C        2.2230     8.8530     1.4570 C.ar  1 <1>  -0.1500 
 22 C        4.3670     5.3570    -1.4820 C.3   1 <1>   0.1200 
 23 C        3.1310     8.9230     0.4180 C.ar  1 <1>  -0.1500 
 24 C        4.6140     3.9100    -1.8940 C.3   1 <1>  -0.2400 
 25 H       -1.2460     1.0480    -0.8370 H     1 <1>   0.0800 
 26 H       -0.7600     0.6620     0.7640 H     1 <1>   0.0800 
 27 H        3.0720    -0.2230     2.1240 H     1 <1>   0.0800 
 28 H        3.2070    -0.7610     0.4580 H     1 <1>   0.0800 
 29 H        1.7160    -1.0000     1.3440 H     1 <1>   0.0800 
 30 H        3.6310     2.0310     1.6330 H     1 <1>   0.0800 
 31 H        2.7850     2.9140     0.3960 H     1 <1>   0.0800 
 32 H        3.8850     1.6350    -0.0600 H     1 <1>   0.0800 
 33 H       -1.9110     2.7140     0.7090 H     1 <1>   0.0800 
 34 H       -0.7750     3.3750    -1.7430 H     1 <1>   0.0800 
 35 H        0.6130     2.5790     1.9610 H     1 <1>   0.0800 
 36 H       -0.6920     3.6740     2.3170 H     1 <1>   0.0800 
 37 H       -1.8170     5.1420     0.1840 H     1 <1>   0.4000 
 38 H        0.3360     5.6620    -0.7190 H     1 <1>   0.0800 
 39 H        1.3100     4.2380    -1.0080 H     1 <1>   0.0800 
 40 H        1.0510     7.5680     2.6870 H     1 <1>   0.1500 
 41 H        4.2810     7.8570    -0.9900 H     1 <1>   0.1500 
 42 H        1.8850     9.7530     1.9410 H     1 <1>   0.1500 
 43 H        3.8750     5.8950    -2.2740 H     1 <1>   0.0800 
 44 H        5.2950     5.8360    -1.2230 H     1 <1>   0.0800 
 45 H        3.4990     9.8810     0.0900 H     1 <1>   0.1500 
 46 H        3.6820     3.4210    -2.1140 H     1 <1>   0.0800 
 47 H        5.1260     3.3850    -1.1090 H     1 <1>   0.0800 
 48 H        5.2270     3.8830    -2.7770 H     1 <1>   0.0800 
@<TRIPOS>BOND
  1   1   2  2   
  2   1   3  2   
  3   1   4  am  
  4   1   5  1   
  5   4   6  1   
  6   4   7  1   
  7   5   8  1   
  8   5  25  1   
  9   5  26  1   
 10   6  27  1   
 11   6  28  1   
 12   6  29  1   
 13   7  30  1   
 14   7  31  1   
 15   7  32  1   
 16   8   9  1   
 17   8  10  1   
 18   8  33  1   
 19   9  11  1   
 20   9  12  1   
 21   9  34  1   
 22  10  13  1   
 23  10  35  1   
 24  10  36  1   
 25  11  37  1   
 26  12  13  1   
 27  12  38  1   
 28  12  39  1   
 29  13  14  am  
 30  14  15  2   
 31  14  16  1   
 32  16  17  ar  
 33  16  18  ar  
 34  17  19  1   
 35  17  20  ar  
 36  18  21  ar  
 37  18  40  1   
 38  19  22  1   
 39  20  23  ar  
 40  20  41  1   
 41  21  23  ar  
 42  21  42  1   
 43  22  24  1   
 44  22  43  1   
 45  22  44  1   
 46  23  45  1   
 47  24  46  1   
 48  24  47  1   
 49  24  48  1   
@<TRIPOS>SUBSTRUCTURE
  1 ****  13 GROUP 4 **** **** 0

# MOE 2024.06 (io_trps.svl 2023.06)
