@<TRIPOS>MOLECULE
NONAME
48 50 1 0 0 
SMALL
USER_CHARGES


@<TRIPOS>ATOM
  1 F       -1.0610    -0.3630     1.0140 F     1 <1>  -0.1900 
  2 C       -2.2520     0.1340     0.7960 C.ar  1 <1>   0.1900 
  3 C       -2.4950     1.5120     0.8060 C.ar  1 <1>   0.0830 
  4 C       -3.2620    -0.7760     0.5560 C.ar  1 <1>  -0.1500 
  5 O       -1.5860     2.5050     1.0280 O.3   1 <1>  -0.3630 
  6 C       -3.7920     1.9360     0.5680 C.ar  1 <1>  -0.1500 
  7 C       -4.5460    -0.3170     0.3240 C.ar  1 <1>  -0.1500 
  8 C       -0.2120     2.2590     1.2330 C.3   1 <1>   0.0400 
  9 C       -4.8430     1.0480     0.3220 C.ar  1 <1>   0.0530 
 10 C       -6.1800     1.5400     0.0830 C.2   1 <1>   0.0870 
 11 O       -6.5310     2.7290     0.5060 O.3   1 <1>  -0.0190 
 12 C       -7.2730     1.0080    -0.5270 C.2   1 <1>  -0.0860 
 13 N       -7.7700     3.0300     0.2230 N.2   1 <1>  -0.4100 
 14 C       -8.2390     2.0120    -0.4100 C.2   1 <1>   0.3720 
 15 C       -7.4480    -0.2570    -1.1660 C.2   1 <1>   0.7160 
 16 N       -9.5500     1.9370    -0.9090 N.pl3 1 <1>  -0.8210 
 17 O       -6.7660    -0.5180    -2.1400 O.2   1 <1>  -0.5700 
 18 N       -8.3310    -1.2130    -0.6960 N.am  1 <1>  -0.6600 
 19 C       -9.6340     1.9580    -2.3950 C.3   1 <1>   0.1290 
 20 C      -10.5290     2.8720    -0.2860 C.3   1 <1>   0.1290 
 21 C       -8.5720    -2.4900    -1.4270 C.3   1 <1>   0.1400 
 22 C       -9.1980    -1.0080     0.5000 C.3   1 <1>   0.1400 
 23 C       -8.3910    -3.6720    -0.4730 C.3   1 <1>  -0.1600 
 24 C       -9.0310    -2.1820     1.4670 C.3   1 <1>  -0.1600 
 25 C       -9.2880    -3.5080     0.7530 C.3   1 <1>   0.2000 
 26 O       -9.0220    -4.5350     1.6290 O.3   1 <1>  -0.6800 
 27 H       -3.0440    -1.8280     0.5520 H     1 <1>   0.1500 
 28 H       -3.9850     2.9950     0.5720 H     1 <1>   0.1500 
 29 H       -5.3220    -1.0380     0.1430 H     1 <1>   0.1500 
 30 H        0.2820     3.2060     1.3520 H     1 <1>   0.0800 
 31 H        0.1840     1.7460     0.3740 H     1 <1>   0.0800 
 32 H       -0.0910     1.6710     2.1250 H     1 <1>   0.0800 
 33 H       -8.9410     1.2550    -2.8240 H     1 <1>   0.0800 
 34 H       -9.3980     2.9420    -2.7620 H     1 <1>   0.0800 
 35 H      -10.6280     1.6910    -2.7090 H     1 <1>   0.0800 
 36 H      -10.4530     2.8180     0.7870 H     1 <1>   0.0800 
 37 H      -11.5300     2.6040    -0.5740 H     1 <1>   0.0800 
 38 H      -10.3250     3.8820    -0.5970 H     1 <1>   0.0800 
 39 H       -7.8940    -2.5950    -2.2580 H     1 <1>   0.0800 
 40 H       -9.5750    -2.4840    -1.8180 H     1 <1>   0.0800 
 41 H      -10.2230    -0.9350     0.1780 H     1 <1>   0.0800 
 42 H       -8.9490    -0.0960     1.0140 H     1 <1>   0.0800 
 43 H       -7.3580    -3.7210    -0.1810 H     1 <1>   0.0800 
 44 H       -8.6470    -4.5810    -0.9880 H     1 <1>   0.0800 
 45 H       -9.7280    -2.0700     2.2780 H     1 <1>   0.0800 
 46 H       -8.0330    -2.1580     1.8650 H     1 <1>   0.0800 
 47 H      -10.3250    -3.5820     0.4680 H     1 <1>   0.0800 
 48 H       -8.0860    -4.5080     1.9020 H     1 <1>   0.4000 
@<TRIPOS>BOND
  1   1   2  1   
  2   2   3  ar  
  3   2   4  ar  
  4   3   5  1   
  5   3   6  ar  
  6   4   7  ar  
  7   4  27  1   
  8   5   8  1   
  9   6   9  ar  
 10   6  28  1   
 11   7   9  ar  
 12   7  29  1   
 13   8  30  1   
 14   8  31  1   
 15   8  32  1   
 16   9  10  1   
 17  10  11  1   
 18  10  12  2   
 19  11  13  1   
 20  12  14  1   
 21  12  15  1   
 22  13  14  2   
 23  14  16  1   
 24  15  17  2   
 25  15  18  am  
 26  16  19  1   
 27  16  20  1   
 28  18  21  1   
 29  18  22  1   
 30  19  33  1   
 31  19  34  1   
 32  19  35  1   
 33  20  36  1   
 34  20  37  1   
 35  20  38  1   
 36  21  23  1   
 37  21  39  1   
 38  21  40  1   
 39  22  24  1   
 40  22  41  1   
 41  22  42  1   
 42  23  25  1   
 43  23  43  1   
 44  23  44  1   
 45  24  25  1   
 46  24  45  1   
 47  24  46  1   
 48  25  26  1   
 49  25  47  1   
 50  26  48  1   
@<TRIPOS>SUBSTRUCTURE
  1 ****  12 GROUP 4 **** **** 0

# MOE 2024.06 (io_trps.svl 2023.06)
