@<TRIPOS>MOLECULE
NONAME
23 22 1 0 0 
SMALL
USER_CHARGES


@<TRIPOS>ATOM
  1 F        8.3400     1.1390     0.9390 F     1 <1>  -0.3400 
  2 C        7.9920     0.1810     0.0820 C.3   1 <1>   0.7410 
  3 F        7.5800    -0.8120     0.8670 F     1 <1>  -0.3400 
  4 C        9.1980    -0.2570    -0.7880 C.2   1 <1>   0.6590 
  5 C        6.7600     0.6890    -0.6800 C.3   1 <1>  -0.1600 
  6 O        9.1520    -0.1950    -1.9950 O.2   1 <1>  -0.5700 
  7 O       10.2850    -0.7030    -0.1600 O.3   1 <1>  -0.4300 
  8 C        5.6540     1.0830     0.2970 C.3   1 <1>   0.3430 
  9 C       11.4340    -1.1240    -0.8590 C.3   1 <1>   0.1200 
 10 N        4.4690     1.5730    -0.4510 N.4   1 <1>  -0.8530 
 11 C       12.4730    -1.5660     0.1660 C.3   1 <1>  -0.2400 
 12 H        6.4280    -0.0940    -1.3390 H     1 <1>   0.0800 
 13 H        7.0600     1.5300    -1.2790 H     1 <1>   0.0800 
 14 H        6.0150     1.8560     0.9600 H     1 <1>   0.0800 
 15 H        5.3810     0.2290     0.9000 H     1 <1>   0.0800 
 16 H       11.8000    -0.3000    -1.4480 H     1 <1>   0.0800 
 17 H       11.1620    -1.9400    -1.5080 H     1 <1>   0.0800 
 18 H        4.7000     2.3970    -1.0190 H     1 <1>   0.4500 
 19 H        3.7160     1.8420     0.1950 H     1 <1>   0.4500 
 20 H        4.0960     0.8480    -1.0770 H     1 <1>   0.4500 
 21 H       12.7290    -0.7460     0.8130 H     1 <1>   0.0800 
 22 H       13.3640    -1.8940    -0.3380 H     1 <1>   0.0800 
 23 H       12.0930    -2.3820     0.7540 H     1 <1>   0.0800 
@<TRIPOS>BOND
  1   1   2  1   
  2   2   3  1   
  3   2   4  1   
  4   2   5  1   
  5   4   6  2   
  6   4   7  1   
  7   5   8  1   
  8   5  12  1   
  9   5  13  1   
 10   7   9  1   
 11   8  10  1   
 12   8  14  1   
 13   8  15  1   
 14   9  11  1   
 15   9  16  1   
 16   9  17  1   
 17  10  18  1   
 18  10  19  1   
 19  10  20  1   
 20  11  21  1   
 21  11  22  1   
 22  11  23  1   
@<TRIPOS>SUBSTRUCTURE
  1 ****   2 GROUP 4 **** **** 0

# MOE 2024.06 (io_trps.svl 2023.06)
