@<TRIPOS>MOLECULE
NONAME
39 40 1 0 0 
SMALL
USER_CHARGES


@<TRIPOS>ATOM
  1 O       -0.2120     0.6620    -1.4960 O.2   1 <1>  -0.5700 
  2 C       -0.8770     1.4780    -0.9100 C.2   1 <1>   0.5690 
  3 N       -2.1750     1.3540    -0.5650 N.am  1 <1>  -0.6600 
  4 C       -0.3350     2.8100    -0.4790 C.3   1 <1>  -0.0990 
  5 C       -2.6970     2.5600     0.1040 C.3   1 <1>   0.1400 
  6 C       -3.0310     0.1960    -0.8960 C.3   1 <1>   0.2780 
  7 C       -1.4230     3.3400     0.4770 C.3   1 <1>  -0.0190 
  8 C       -3.5970    -0.4020     0.3790 C.2   1 <1>  -0.2880 
  9 C       -1.6000     4.8530     0.4570 C.2   1 <1>   0.5690 
 10 C       -3.2720    -1.5990     0.8750 C.2   1 <1>  -0.3000 
 11 O       -2.7150     5.3070     0.3990 O.2   1 <1>  -0.5700 
 12 N       -0.4740     5.6250     0.5290 N.am  1 <1>  -0.4940 
 13 C       -0.3520     7.0200     0.5290 C.2   1 <1>   0.2040 
 14 O       -1.3910     7.8160     0.4530 O.3   1 <1>  -0.0190 
 15 C        0.7500     7.7940     0.6000 C.2   1 <1>  -0.1810 
 16 N       -1.0420     9.0770     0.4700 N.2   1 <1>  -0.4100 
 17 C        0.2400     9.0910     0.5570 C.2   1 <1>   0.1080 
 18 C        2.2140     7.3990     0.7020 C.3   1 <1>  -0.0590 
 19 C        1.0510    10.3750     0.6050 C.3   1 <1>   0.0210 
 20 C        1.5280    10.7850    -0.7930 C.3   1 <1>  -0.2400 
 21 H       -0.2360     3.4300    -1.3520 H     1 <1>   0.0800 
 22 H        0.6150     2.6910     0.0090 H     1 <1>   0.0800 
 23 H       -3.2690     2.3130     0.9810 H     1 <1>   0.0800 
 24 H       -3.3110     3.1090    -0.5910 H     1 <1>   0.0800 
 25 H       -2.4450    -0.5440    -1.4160 H     1 <1>   0.0800 
 26 H       -3.8290     0.5110    -1.5470 H     1 <1>   0.0800 
 27 H       -1.1650     3.0550     1.4810 H     1 <1>   0.0800 
 28 H       -4.3080     0.2470     0.8590 H     1 <1>   0.1500 
 29 H       -3.6850    -2.0080     1.7810 H     1 <1>   0.1500 
 30 H       -2.5620    -2.2700     0.4200 H     1 <1>   0.1500 
 31 H        0.4080     5.1250     0.5910 H     1 <1>   0.3700 
 32 H        2.3230     6.3300     0.7010 H     1 <1>   0.0800 
 33 H        2.6350     7.7860     1.6120 H     1 <1>   0.0800 
 34 H        2.7610     7.7990    -0.1330 H     1 <1>   0.0800 
 35 H        1.8950    10.2450     1.2580 H     1 <1>   0.0800 
 36 H        0.4360    11.1570     1.0140 H     1 <1>   0.0800 
 37 H        2.1570    10.0230    -1.2150 H     1 <1>   0.0800 
 38 H        2.0820    11.7050    -0.7400 H     1 <1>   0.0800 
 39 H        0.6800    10.9290    -1.4390 H     1 <1>   0.0800 
@<TRIPOS>BOND
  1   1   2  2   
  2   2   3  am  
  3   2   4  1   
  4   3   5  1   
  5   3   6  1   
  6   4   7  1   
  7   4  21  1   
  8   4  22  1   
  9   5   7  1   
 10   5  23  1   
 11   5  24  1   
 12   6   8  1   
 13   6  25  1   
 14   6  26  1   
 15   7   9  1   
 16   7  27  1   
 17   8  10  2   
 18   8  28  1   
 19   9  11  2   
 20   9  12  am  
 21  10  29  1   
 22  10  30  1   
 23  12  13  1   
 24  12  31  1   
 25  13  14  1   
 26  13  15  2   
 27  14  16  1   
 28  15  17  1   
 29  15  18  1   
 30  16  17  2   
 31  17  19  1   
 32  18  32  1   
 33  18  33  1   
 34  18  34  1   
 35  19  20  1   
 36  19  35  1   
 37  19  36  1   
 38  20  37  1   
 39  20  38  1   
 40  20  39  1   
@<TRIPOS>SUBSTRUCTURE
  1 ****   9 GROUP 4 **** **** 0

# MOE 2024.06 (io_trps.svl 2023.06)
