@<TRIPOS>MOLECULE
NONAME
49 51 1 0 0 
SMALL
USER_CHARGES


@<TRIPOS>ATOM
  1 O       -0.2330    -0.3950    -0.0990 O.2   1 <1>  -0.5700 
  2 C       -1.1950     0.3170    -0.2610 C.2   1 <1>   0.5690 
  3 N       -2.4580    -0.0980     0.0540 N.am  1 <1>  -0.6600 
  4 C       -0.9650     1.7060    -0.8210 C.3   1 <1>  -0.0990 
  5 C       -3.7060     0.6860    -0.0700 C.3   1 <1>   0.1400 
  6 C       -2.7480    -1.4740     0.5100 C.3   1 <1>   0.1400 
  7 C       -0.7930     2.7320     0.3040 C.3   1 <1>   0.0200 
  8 C       -4.7650    -0.1220     0.6910 C.3   1 <1>  -0.0800 
  9 C       -4.2750    -1.5770     0.5830 C.3   1 <1>  -0.0800 
 10 C       -0.7330     4.1430    -0.2590 C.2   1 <1>  -0.3320 
 11 C       -6.2450     0.1160     0.2610 C.3   1 <1>   0.2800 
 12 C       -4.8810    -2.2650    -0.6510 C.3   1 <1>  -0.1600 
 13 N       -1.7980     4.8760    -0.6630 N.pl3 1 <1>   0.3140 
 14 C        0.3610     4.9090    -0.4530 C.2   1 <1>  -0.1500 
 15 O       -6.2990     0.5630    -1.0470 O.3   1 <1>  -0.6800 
 16 C       -7.0320    -1.2070     0.3040 C.3   1 <1>  -0.1600 
 17 C       -6.9530     1.1820     1.1260 C.3   1 <1>  -0.1600 
 18 C       -6.4190    -2.3200    -0.5740 C.3   1 <1>  -0.1600 
 19 N       -1.4170     6.0840    -1.1110 N.2   1 <1>  -0.7070 
 20 C       -3.2180     4.5010    -0.6390 C.3   1 <1>   0.0160 
 21 C       -0.1260     6.0970    -0.9830 C.2   1 <1>   0.1390 
 22 C       -6.3160     2.5840     1.1070 C.3   1 <1>  -0.2400 
 23 H       -0.0750     1.6930    -1.4230 H     1 <1>   0.0800 
 24 H       -1.7800     1.9760    -1.4630 H     1 <1>   0.0800 
 25 H       -3.5930     1.6670     0.3490 H     1 <1>   0.0800 
 26 H       -3.9410     0.7640    -1.1170 H     1 <1>   0.0800 
 27 H       -2.3250    -2.1940    -0.1700 H     1 <1>   0.0800 
 28 H       -2.3140    -1.6130     1.4850 H     1 <1>   0.0800 
 29 H        0.1220     2.5160     0.8290 H     1 <1>   0.0800 
 30 H       -1.5960     2.6560     1.0150 H     1 <1>   0.0800 
 31 H       -4.6760     0.1410     1.7300 H     1 <1>   0.0800 
 32 H       -4.5520    -2.1400     1.4580 H     1 <1>   0.0800 
 33 H       -4.5960    -1.7110    -1.5300 H     1 <1>   0.0800 
 34 H       -4.4890    -3.2610    -0.7550 H     1 <1>   0.0800 
 35 H        1.3930     4.6820    -0.2540 H     1 <1>   0.1500 
 36 H       -7.2260     0.5660    -1.3460 H     1 <1>   0.4000 
 37 H       -7.0390    -1.5520     1.3230 H     1 <1>   0.0800 
 38 H       -8.0580    -1.0490     0.0240 H     1 <1>   0.0800 
 39 H       -7.9760     1.2670     0.8060 H     1 <1>   0.0800 
 40 H       -6.9760     0.8380     2.1450 H     1 <1>   0.0800 
 41 H       -6.7250    -3.2740    -0.1820 H     1 <1>   0.0800 
 42 H       -6.8100    -2.2440    -1.5740 H     1 <1>   0.0800 
 43 H       -3.3940     3.7320    -1.3660 H     1 <1>   0.0800 
 44 H       -3.8120     5.3630    -0.8800 H     1 <1>   0.0800 
 45 H       -3.4770     4.1530     0.3420 H     1 <1>   0.0800 
 46 H        0.4870     6.9380    -1.2590 H     1 <1>   0.1500 
 47 H       -6.2320     2.9510     0.0990 H     1 <1>   0.0800 
 48 H       -5.3420     2.5690     1.5590 H     1 <1>   0.0800 
 49 H       -6.9310     3.2690     1.6650 H     1 <1>   0.0800 
@<TRIPOS>BOND
  1   1   2  2   
  2   2   3  am  
  3   2   4  1   
  4   3   5  1   
  5   3   6  1   
  6   4   7  1   
  7   4  23  1   
  8   4  24  1   
  9   5   8  1   
 10   5  25  1   
 11   5  26  1   
 12   6   9  1   
 13   6  27  1   
 14   6  28  1   
 15   7  10  1   
 16   7  29  1   
 17   7  30  1   
 18   8   9  1   
 19   8  11  1   
 20   8  31  1   
 21   9  12  1   
 22   9  32  1   
 23  10  13  1   
 24  10  14  2   
 25  11  15  1   
 26  11  16  1   
 27  11  17  1   
 28  12  18  1   
 29  12  33  1   
 30  12  34  1   
 31  13  19  1   
 32  13  20  1   
 33  14  21  1   
 34  14  35  1   
 35  15  36  1   
 36  16  18  1   
 37  16  37  1   
 38  16  38  1   
 39  17  22  1   
 40  17  39  1   
 41  17  40  1   
 42  18  41  1   
 43  18  42  1   
 44  19  21  2   
 45  20  43  1   
 46  20  44  1   
 47  20  45  1   
 48  21  46  1   
 49  22  47  1   
 50  22  48  1   
 51  22  49  1   
@<TRIPOS>SUBSTRUCTURE
  1 ****   5 GROUP 4 **** **** 0

# MOE 2024.06 (io_trps.svl 2023.06)
