@<TRIPOS>MOLECULE
NONAME
43 45 1 0 0 
SMALL
USER_CHARGES


@<TRIPOS>ATOM
  1 N       -0.4150     0.0270     0.7180 N.ar  1 <1>  -0.6200 
  2 C       -1.4760     0.6820     0.2660 C.ar  1 <1>   0.4100 
  3 C        0.6680     0.7850     0.7970 C.ar  1 <1>   0.1600 
  4 N       -2.6560    -0.0860     0.2160 N.pl3 1 <1>  -0.8380 
  5 C       -1.4200     2.0710    -0.1300 C.ar  1 <1>   0.4100 
  6 C        0.7140     2.1170     0.4440 C.ar  1 <1>   0.1600 
  7 C       -2.5650    -1.5740     0.1690 C.3   1 <1>   0.2090 
  8 C       -3.8880     0.5030     0.8220 C.3   1 <1>   0.2090 
  9 N       -0.3180     2.8000    -0.0280 N.ar  1 <1>  -0.6200 
 10 N       -2.5190     2.7560    -0.6850 N.pl3 1 <1>  -0.8380 
 11 C       -3.9530    -2.1790    -0.0760 C.3   1 <1>  -0.0800 
 12 C       -4.5660    -0.4960     1.7660 C.3   1 <1>  -0.1600 
 13 C       -2.6180     4.2320    -0.5110 C.3   1 <1>   0.1290 
 14 C       -2.9800     2.2770    -2.0130 C.3   1 <1>   0.1290 
 15 C       -4.9250    -1.8230     1.0720 C.3   1 <1>  -0.1600 
 16 C       -3.8380    -3.6970    -0.2950 C.3   1 <1>   0.0960 
 17 N       -5.1510    -4.3020    -0.6000 N.pl3 1 <1>   0.0480 
 18 C       -5.8780    -4.1770    -1.7340 C.2   1 <1>   0.0360 
 19 C       -5.8880    -5.1060     0.1880 C.2   1 <1>  -0.3020 
 20 N       -6.9960    -4.8280    -1.7180 N.2   1 <1>  -0.5650 
 21 C       -7.0040    -5.4140    -0.5070 C.2   1 <1>   0.0770 
 22 H        1.5620     0.3140     1.1660 H     1 <1>   0.1500 
 23 H        1.6400     2.6530     0.5490 H     1 <1>   0.1500 
 24 H       -2.1610    -1.9340     1.1010 H     1 <1>   0.0800 
 25 H       -1.8900    -1.8520    -0.6230 H     1 <1>   0.0800 
 26 H       -4.5660     0.7780     0.0340 H     1 <1>   0.0800 
 27 H       -3.6360     1.3960     1.3700 H     1 <1>   0.0800 
 28 H       -4.3170    -1.7400    -0.9890 H     1 <1>   0.0800 
 29 H       -5.4530    -0.0520     2.1820 H     1 <1>   0.0800 
 30 H       -3.8900    -0.6860     2.5810 H     1 <1>   0.0800 
 31 H       -2.3230     4.5010     0.4880 H     1 <1>   0.0800 
 32 H       -3.6320     4.5540    -0.6710 H     1 <1>   0.0800 
 33 H       -1.9680     4.7270    -1.2110 H     1 <1>   0.0800 
 34 H       -2.7770     1.2250    -2.1240 H     1 <1>   0.0800 
 35 H       -2.4660     2.8110    -2.7930 H     1 <1>   0.0800 
 36 H       -4.0390     2.4350    -2.1090 H     1 <1>   0.0800 
 37 H       -4.9290    -2.5990     1.8180 H     1 <1>   0.0800 
 38 H       -5.9220    -1.7590     0.6680 H     1 <1>   0.0800 
 39 H       -3.4400    -4.1670     0.5870 H     1 <1>   0.0800 
 40 H       -3.1750    -3.9010    -1.1160 H     1 <1>   0.0800 
 41 H       -5.5400    -3.5840    -2.5650 H     1 <1>   0.1500 
 42 H       -5.5900    -5.4080     1.1750 H     1 <1>   0.1500 
 43 H       -7.8260    -6.0380    -0.1950 H     1 <1>   0.1500 
@<TRIPOS>BOND
  1   1   2  ar  
  2   1   3  ar  
  3   2   4  1   
  4   2   5  ar  
  5   3   6  ar  
  6   3  22  1   
  7   4   7  1   
  8   4   8  1   
  9   5   9  ar  
 10   5  10  1   
 11   6   9  ar  
 12   6  23  1   
 13   7  11  1   
 14   7  24  1   
 15   7  25  1   
 16   8  12  1   
 17   8  26  1   
 18   8  27  1   
 19  10  13  1   
 20  10  14  1   
 21  11  15  1   
 22  11  16  1   
 23  11  28  1   
 24  12  15  1   
 25  12  29  1   
 26  12  30  1   
 27  13  31  1   
 28  13  32  1   
 29  13  33  1   
 30  14  34  1   
 31  14  35  1   
 32  14  36  1   
 33  15  37  1   
 34  15  38  1   
 35  16  17  1   
 36  16  39  1   
 37  16  40  1   
 38  17  18  1   
 39  17  19  1   
 40  18  20  2   
 41  18  41  1   
 42  19  21  2   
 43  19  42  1   
 44  20  21  1   
 45  21  43  1   
@<TRIPOS>SUBSTRUCTURE
  1 ****   4 GROUP 4 **** **** 0

# MOE 2024.06 (io_trps.svl 2023.06)
