@<TRIPOS>MOLECULE
NONAME
49 51 1 0 0 
SMALL
USER_CHARGES


@<TRIPOS>ATOM
  1 F       -2.1010    -0.8290    -0.6560 F     1 <1>  -0.3400 
  2 C       -2.3360     0.1430     0.2150 C.3   1 <1>   1.1640 
  3 F       -1.1450     0.6350     0.5320 F     1 <1>  -0.3400 
  4 F       -2.7910    -0.4390     1.3190 F     1 <1>  -0.3400 
  5 C       -3.3100     1.2150    -0.3050 C.ar  1 <1>  -0.1440 
  6 C       -4.4640     0.8640    -1.0260 C.ar  1 <1>   0.0860 
  7 C       -3.0420     2.5590    -0.0570 C.ar  1 <1>  -0.1500 
  8 C       -4.8770    -0.5030    -1.2930 C.2   1 <1>   0.5440 
  9 C       -5.2770     1.8910    -1.5070 C.ar  1 <1>  -0.1500 
 10 C       -3.8780     3.5550    -0.5260 C.ar  1 <1>  -0.1500 
 11 O       -5.1310    -0.8640    -2.4230 O.2   1 <1>  -0.5700 
 12 N       -5.0840    -1.4070    -0.2800 N.am  1 <1>  -0.6600 
 13 C       -4.9960     3.2190    -1.2610 C.ar  1 <1>  -0.1500 
 14 C       -5.8770    -1.0520     0.9320 C.3   1 <1>   0.1400 
 15 C       -5.0540    -2.8690    -0.5710 C.3   1 <1>   0.1400 
 16 C       -7.3210    -1.6020     0.8250 C.3   1 <1>   0.4230 
 17 C       -6.4890    -3.3960    -0.7270 C.3   1 <1>   0.3430 
 18 N       -7.3490    -3.0850     0.4830 N.4   1 <1>  -0.9590 
 19 C       -8.1400    -0.7870    -0.2040 C.3   1 <1>   0.1200 
 20 C       -8.7800    -3.5270     0.3250 C.3   1 <1>   0.4230 
 21 O       -9.4460    -1.2790    -0.2800 O.3   1 <1>  -0.5600 
 22 C       -9.5470    -2.6200    -0.6690 C.3   1 <1>   0.1200 
 23 C       -8.8500    -5.0170    -0.0500 C.3   1 <1>  -0.1600 
 24 C      -10.2550    -5.6070     0.1530 C.3   1 <1>  -0.1600 
 25 C      -10.2650    -7.1070    -0.1500 C.3   1 <1>  -0.2400 
 26 H       -2.1710     2.8570     0.5050 H     1 <1>   0.1500 
 27 H       -6.1460     1.6410    -2.0920 H     1 <1>   0.1500 
 28 H       -3.6540     4.5900    -0.3270 H     1 <1>   0.1500 
 29 H       -5.6430     3.9930    -1.6420 H     1 <1>   0.1500 
 30 H       -5.3960    -1.4660     1.8020 H     1 <1>   0.0800 
 31 H       -5.9070     0.0170     1.0610 H     1 <1>   0.0800 
 32 H       -4.5030    -3.0530    -1.4780 H     1 <1>   0.0800 
 33 H       -4.5480    -3.3860     0.2260 H     1 <1>   0.0800 
 34 H       -7.7940    -1.4560     1.7810 H     1 <1>   0.0800 
 35 H       -6.4510    -4.4600    -0.8910 H     1 <1>   0.0800 
 36 H       -6.9160    -2.9420    -1.6060 H     1 <1>   0.0800 
 37 H       -6.9550    -3.5940     1.2820 H     1 <1>   0.4500 
 38 H       -7.6980    -0.8250    -1.1850 H     1 <1>   0.0800 
 39 H       -8.2010     0.2440     0.1010 H     1 <1>   0.0800 
 40 H       -9.2690    -3.4190     1.2790 H     1 <1>   0.0800 
 41 H      -10.5930    -2.8700    -0.6730 H     1 <1>   0.0800 
 42 H       -9.1690    -2.7210    -1.6710 H     1 <1>   0.0800 
 43 H       -8.5670    -5.1580    -1.0790 H     1 <1>   0.0800 
 44 H       -8.1680    -5.5690     0.5740 H     1 <1>   0.0800 
 45 H      -10.5760    -5.4560     1.1710 H     1 <1>   0.0800 
 46 H      -10.9660    -5.1240    -0.4960 H     1 <1>   0.0800 
 47 H       -9.5920    -7.6350     0.5040 H     1 <1>   0.0800 
 48 H       -9.9750    -7.2940    -1.1690 H     1 <1>   0.0800 
 49 H      -11.2550    -7.5040    -0.0040 H     1 <1>   0.0800 
@<TRIPOS>BOND
  1   1   2  1   
  2   2   3  1   
  3   2   4  1   
  4   2   5  1   
  5   5   6  ar  
  6   5   7  ar  
  7   6   8  1   
  8   6   9  ar  
  9   7  10  ar  
 10   7  26  1   
 11   8  11  2   
 12   8  12  am  
 13   9  13  ar  
 14   9  27  1   
 15  10  13  ar  
 16  10  28  1   
 17  12  14  1   
 18  12  15  1   
 19  13  29  1   
 20  14  16  1   
 21  14  30  1   
 22  14  31  1   
 23  15  17  1   
 24  15  32  1   
 25  15  33  1   
 26  16  18  1   
 27  16  19  1   
 28  16  34  1   
 29  17  18  1   
 30  17  35  1   
 31  17  36  1   
 32  18  20  1   
 33  18  37  1   
 34  19  21  1   
 35  19  38  1   
 36  19  39  1   
 37  20  22  1   
 38  20  23  1   
 39  20  40  1   
 40  21  22  1   
 41  22  41  1   
 42  22  42  1   
 43  23  24  1   
 44  23  43  1   
 45  23  44  1   
 46  24  25  1   
 47  24  45  1   
 48  24  46  1   
 49  25  47  1   
 50  25  48  1   
 51  25  49  1   
@<TRIPOS>SUBSTRUCTURE
  1 ****  12 GROUP 4 **** **** 0

# MOE 2024.06 (io_trps.svl 2023.06)
