@<TRIPOS>MOLECULE
NONAME
57 59 1 0 0 
SMALL
USER_CHARGES


@<TRIPOS>ATOM
  1 S       -0.0760     0.8110     1.2320 S.o2  1 <1>   1.2040 
  2 O       -0.1480    -0.0190     2.4140 O.2   1 <1>  -0.6500 
  3 O       -0.7570     0.4090     0.0220 O.2   1 <1>  -0.6500 
  4 C        1.6530     1.1860     0.8610 C.ar  1 <1>  -0.0090 
  5 C       -0.7120     2.4140     1.6820 C.3   1 <1>  -0.1350 
  6 C        2.6240     1.1510     1.8530 C.ar  1 <1>  -0.1500 
  7 C        2.0500     1.5510    -0.4190 C.ar  1 <1>  -0.1500 
  8 C        3.9420     1.4720     1.5810 C.ar  1 <1>  -0.1500 
  9 C        3.3660     1.8730    -0.6990 C.ar  1 <1>  -0.1500 
 10 C        4.3270     1.8390     0.3010 C.ar  1 <1>  -0.1430 
 11 C        5.7820     2.2000     0.0160 C.3   1 <1>   0.4330 
 12 N        5.8050     3.5970    -0.4420 N.pl3 1 <1>  -0.8690 
 13 C        6.4220     1.3100    -1.0590 C.3   1 <1>  -0.1600 
 14 C        6.7070     4.5650    -0.2440 C.ar  1 <1>   0.4100 
 15 C        6.4690    -0.1720    -0.6570 C.3   1 <1>  -0.2400 
 16 N        6.3120     5.7630    -0.6030 N.ar  1 <1>  -0.6200 
 17 C        7.9810     4.3260     0.3000 C.ar  1 <1>  -0.1500 
 18 C        7.1530     6.7760    -0.4420 C.ar  1 <1>   0.7710 
 19 C        8.8260     5.3720     0.4670 C.ar  1 <1>   0.2180 
 20 N        8.3780     6.5930     0.0860 N.ar  1 <1>  -0.1790 
 21 N        6.7700     8.0290    -0.8120 N.pl3 1 <1>  -0.8380 
 22 C       10.2280     5.2430     1.0500 C.3   1 <1>  -0.0170 
 23 C        5.3590     8.3270    -1.2640 C.3   1 <1>   0.2090 
 24 C        7.6190     9.2720    -0.8720 C.3   1 <1>   0.2090 
 25 C       10.3760     6.0060     2.3730 C.3   1 <1>  -0.2400 
 26 C        5.3490     9.0800    -2.6050 C.3   1 <1>   0.1200 
 27 C        7.4880     9.9680    -2.2400 C.3   1 <1>   0.1200 
 28 O        6.1480    10.2250    -2.5310 O.3   1 <1>  -0.5600 
 29 H       -1.7520     2.3370     1.9320 H     1 <1>   0.0800 
 30 H       -0.6080     3.1000     0.8640 H     1 <1>   0.0800 
 31 H       -0.1840     2.8010     2.5310 H     1 <1>   0.0800 
 32 H        2.3460     0.8630     2.8540 H     1 <1>   0.1500 
 33 H        1.3190     1.5780    -1.2120 H     1 <1>   0.1500 
 34 H        4.6640     1.4330     2.3790 H     1 <1>   0.1500 
 35 H        3.6340     2.1480    -1.7050 H     1 <1>   0.1500 
 36 H        6.3510     2.1160     0.9260 H     1 <1>   0.0800 
 37 H        4.9010     3.8880    -0.8230 H     1 <1>   0.4000 
 38 H        7.4260     1.6480    -1.2380 H     1 <1>   0.0800 
 39 H        5.8740     1.4040    -1.9790 H     1 <1>   0.0800 
 40 H        7.0190    -0.3020     0.2590 H     1 <1>   0.0800 
 41 H        6.9520    -0.7470    -1.4280 H     1 <1>   0.0800 
 42 H        5.4750    -0.5620    -0.5210 H     1 <1>   0.0800 
 43 H        8.2580     3.3250     0.5690 H     1 <1>   0.1500 
 44 H        8.9350     7.4250     0.2110 H     1 <1>   0.4570 
 45 H       10.9520     5.6030     0.3390 H     1 <1>   0.0800 
 46 H       10.4460     4.2030     1.2270 H     1 <1>   0.0800 
 47 H        4.8720     8.9380    -0.5230 H     1 <1>   0.0800 
 48 H        4.7700     7.4340    -1.3750 H     1 <1>   0.0800 
 49 H        8.6570     9.0530    -0.7050 H     1 <1>   0.0800 
 50 H        7.2960     9.9600    -0.1080 H     1 <1>   0.0800 
 51 H       10.2440     7.0650     2.2380 H     1 <1>   0.0800 
 52 H       11.3600     5.8430     2.7780 H     1 <1>   0.0800 
 53 H        9.6570     5.6540     3.0940 H     1 <1>   0.0800 
 54 H        4.3490     9.3930    -2.8470 H     1 <1>   0.0800 
 55 H        5.7150     8.4500    -3.3980 H     1 <1>   0.0800 
 56 H        7.9000     9.3580    -3.0260 H     1 <1>   0.0800 
 57 H        8.0040    10.9120    -2.2300 H     1 <1>   0.0800 
@<TRIPOS>BOND
  1   1   2  2   
  2   1   3  2   
  3   1   4  1   
  4   1   5  1   
  5   4   6  ar  
  6   4   7  ar  
  7   5  29  1   
  8   5  30  1   
  9   5  31  1   
 10   6   8  ar  
 11   6  32  1   
 12   7   9  ar  
 13   7  33  1   
 14   8  10  ar  
 15   8  34  1   
 16   9  10  ar  
 17   9  35  1   
 18  10  11  1   
 19  11  12  1   
 20  11  13  1   
 21  11  36  1   
 22  12  14  1   
 23  12  37  1   
 24  13  15  1   
 25  13  38  1   
 26  13  39  1   
 27  14  16  ar  
 28  14  17  ar  
 29  15  40  1   
 30  15  41  1   
 31  15  42  1   
 32  16  18  ar  
 33  17  19  ar  
 34  17  43  1   
 35  18  20  ar  
 36  18  21  1   
 37  19  20  ar  
 38  19  22  1   
 39  20  44  1   
 40  21  23  1   
 41  21  24  1   
 42  22  25  1   
 43  22  45  1   
 44  22  46  1   
 45  23  26  1   
 46  23  47  1   
 47  23  48  1   
 48  24  27  1   
 49  24  49  1   
 50  24  50  1   
 51  25  51  1   
 52  25  52  1   
 53  25  53  1   
 54  26  28  1   
 55  26  54  1   
 56  26  55  1   
 57  27  28  1   
 58  27  56  1   
 59  27  57  1   
@<TRIPOS>SUBSTRUCTURE
  1 ****  12 GROUP 4 **** **** 0

# MOE 2024.06 (io_trps.svl 2023.06)
