@<TRIPOS>MOLECULE
NONAME
50 51 1 0 0 
SMALL
USER_CHARGES


@<TRIPOS>ATOM
  1 O       -0.1030    -0.4470     0.0510 O.3   1 <1>  -0.5600 
  2 C       -1.4590    -0.7060    -0.0700 C.3   1 <1>   0.1200 
  3 C        0.2090     0.9000     0.2000 C.3   1 <1>   0.0400 
  4 C       -1.6150    -2.2180    -0.2500 C.3   1 <1>  -0.1600 
  5 C       -3.0730    -2.6660    -0.4600 C.3   1 <1>  -0.0800 
  6 C       -3.9480    -2.3900     0.7760 C.3   1 <1>  -0.1600 
  7 C       -3.1090    -4.1660    -0.7970 C.3   1 <1>  -0.1600 
  8 C       -5.3580    -2.9610     0.6190 C.3   1 <1>   0.3430 
  9 C       -4.5370    -4.6940    -0.9240 C.3   1 <1>   0.3430 
 10 N       -5.2850    -4.4230     0.3400 N.4   1 <1>  -0.9590 
 11 C       -6.6490    -5.0200     0.3280 C.3   1 <1>   0.3430 
 12 C       -6.5710    -6.5440     0.4400 C.3   1 <1>  -0.1600 
 13 C       -7.9650    -7.1800     0.5830 C.3   1 <1>  -0.0800 
 14 C       -7.8210    -8.6920     0.8340 C.3   1 <1>  -0.1600 
 15 C       -8.8440    -6.9270    -0.6580 C.3   1 <1>  -0.1600 
 16 C       -9.1890    -9.3750     0.9670 C.3   1 <1>  -0.1600 
 17 C      -10.2110    -7.6110    -0.5270 C.3   1 <1>  -0.1600 
 18 C      -10.0590    -9.1140    -0.2670 C.3   1 <1>  -0.1600 
 19 H       -1.8360    -0.1760    -0.9280 H     1 <1>   0.0800 
 20 H       -1.9490    -0.3640     0.8250 H     1 <1>   0.0800 
 21 H        1.2780     0.9870     0.2840 H     1 <1>   0.0800 
 22 H       -0.2560     1.2770     1.0950 H     1 <1>   0.0800 
 23 H       -0.1310     1.4430    -0.6640 H     1 <1>   0.0800 
 24 H       -1.1990    -2.7110     0.6110 H     1 <1>   0.0800 
 25 H       -1.0320    -2.5040    -1.1090 H     1 <1>   0.0800 
 26 H       -3.4770    -2.1220    -1.2990 H     1 <1>   0.0800 
 27 H       -4.0330    -1.3300     0.9330 H     1 <1>   0.0800 
 28 H       -3.4920    -2.8100     1.6560 H     1 <1>   0.0800 
 29 H       -2.5900    -4.7300    -0.0410 H     1 <1>   0.0800 
 30 H       -2.5960    -4.3350    -1.7280 H     1 <1>   0.0800 
 31 H       -5.8610    -2.4600    -0.1930 H     1 <1>   0.0800 
 32 H       -5.9170    -2.7850     1.5250 H     1 <1>   0.0800 
 33 H       -4.5060    -5.7530    -1.1210 H     1 <1>   0.0800 
 34 H       -5.0300    -4.2090    -1.7510 H     1 <1>   0.0800 
 35 H       -4.7550    -4.8540     1.1090 H     1 <1>   0.4500 
 36 H       -7.1660    -4.7420    -0.5770 H     1 <1>   0.0800 
 37 H       -7.2140    -4.6440     1.1660 H     1 <1>   0.0800 
 38 H       -5.9900    -6.8010     1.3090 H     1 <1>   0.0800 
 39 H       -6.0920    -6.9600    -0.4280 H     1 <1>   0.0800 
 40 H       -8.4570    -6.7510     1.4410 H     1 <1>   0.0800 
 41 H       -7.2590    -8.8650     1.7350 H     1 <1>   0.0800 
 42 H       -7.2850    -9.1480     0.0180 H     1 <1>   0.0800 
 43 H       -8.3500    -7.3090    -1.5360 H     1 <1>   0.0800 
 44 H       -9.0100    -5.8740    -0.8010 H     1 <1>   0.0800 
 45 H       -9.6920    -9.0030     1.8430 H     1 <1>   0.0800 
 46 H       -9.0530   -10.4350     1.0930 H     1 <1>   0.0800 
 47 H      -10.7790    -7.4610    -1.4300 H     1 <1>   0.0800 
 48 H      -10.7600    -7.1650     0.2840 H     1 <1>   0.0800 
 49 H      -11.0310    -9.5560    -0.1230 H     1 <1>   0.0800 
 50 H       -9.6100    -9.5830    -1.1270 H     1 <1>   0.0800 
@<TRIPOS>BOND
  1   1   2  1   
  2   1   3  1   
  3   2   4  1   
  4   2  19  1   
  5   2  20  1   
  6   3  21  1   
  7   3  22  1   
  8   3  23  1   
  9   4   5  1   
 10   4  24  1   
 11   4  25  1   
 12   5   6  1   
 13   5   7  1   
 14   5  26  1   
 15   6   8  1   
 16   6  27  1   
 17   6  28  1   
 18   7   9  1   
 19   7  29  1   
 20   7  30  1   
 21   8  10  1   
 22   8  31  1   
 23   8  32  1   
 24   9  10  1   
 25   9  33  1   
 26   9  34  1   
 27  10  11  1   
 28  10  35  1   
 29  11  12  1   
 30  11  36  1   
 31  11  37  1   
 32  12  13  1   
 33  12  38  1   
 34  12  39  1   
 35  13  14  1   
 36  13  15  1   
 37  13  40  1   
 38  14  16  1   
 39  14  41  1   
 40  14  42  1   
 41  15  17  1   
 42  15  43  1   
 43  15  44  1   
 44  16  18  1   
 45  16  45  1   
 46  16  46  1   
 47  17  18  1   
 48  17  47  1   
 49  17  48  1   
 50  18  49  1   
 51  18  50  1   
@<TRIPOS>SUBSTRUCTURE
  1 ****  10 GROUP 4 **** **** 0

# MOE 2024.06 (io_trps.svl 2023.06)
