@<TRIPOS>MOLECULE
NONAME
45 46 1 0 0 
SMALL
USER_CHARGES


@<TRIPOS>ATOM
  1 S        0.7640    -0.2050     0.0790 S.o2  1 <1>   1.3330 
  2 O        1.0730    -0.6810     1.4090 O.2   1 <1>  -0.6500 
  3 O        0.5740    -1.1580    -0.9910 O.2   1 <1>  -0.6500 
  4 N       -0.6290     0.7600     0.1870 N.am  1 <1>  -0.8490 
  5 C        2.0240     0.9550    -0.4410 C.3   1 <1>  -0.0550 
  6 C       -0.7130     1.5260     1.4350 C.3   1 <1>   0.1160 
  7 C       -1.8560    -0.0180    -0.0060 C.3   1 <1>   0.1160 
  8 C        3.3910     0.2910    -0.6980 C.3   1 <1>  -0.0800 
  9 C        4.4600     1.2180    -1.2570 C.3   1 <1>   0.2200 
 10 C        4.0590    -0.2900     0.5550 C.3   1 <1>   0.1200 
 11 N        4.4090     2.5400    -0.5920 N.am  1 <1>  -0.7300 
 12 C        5.7230     0.4900    -0.8190 C.3   1 <1>   0.1200 
 13 O        5.4280    -0.0250     0.4440 O.3   1 <1>  -0.5600 
 14 C        3.8570     3.6850    -1.0980 C.2   1 <1>   0.5440 
 15 O        3.3580     3.6300    -2.2080 O.2   1 <1>  -0.5700 
 16 C        3.8470     4.9200    -0.3130 C.ar  1 <1>   0.3960 
 17 N        4.2880     4.9090     0.9460 N.ar  1 <1>  -0.6200 
 18 C        3.3760     6.1010    -0.8580 C.ar  1 <1>  -0.1500 
 19 C        4.2450     6.0530     1.5960 C.ar  1 <1>   0.4770 
 20 C        3.3770     7.2330    -0.0850 C.ar  1 <1>   0.1670 
 21 N        3.8120     7.2180     1.1510 N.ar  1 <1>  -0.6200 
 22 C        4.7510     6.0430     3.0190 C.3   1 <1>  -0.0970 
 23 C        2.8750     8.5570    -0.6200 C.3   1 <1>  -0.0970 
 24 H        1.7010     1.4300    -1.3480 H     1 <1>   0.0800 
 25 H        2.1280     1.7160     0.3060 H     1 <1>   0.0800 
 26 H       -1.5680     2.1790     1.4100 H     1 <1>   0.0800 
 27 H        0.1700     2.1290     1.5610 H     1 <1>   0.0800 
 28 H       -0.8020     0.8620     2.2800 H     1 <1>   0.0800 
 29 H       -2.7180     0.6240     0.0500 H     1 <1>   0.0800 
 30 H       -1.9350    -0.7860     0.7460 H     1 <1>   0.0800 
 31 H       -1.8470    -0.4850    -0.9770 H     1 <1>   0.0800 
 32 H        3.2520    -0.5160    -1.3970 H     1 <1>   0.0800 
 33 H        4.4010     1.3270    -2.3270 H     1 <1>   0.0800 
 34 H        3.9140    -1.3550     0.6300 H     1 <1>   0.0800 
 35 H        3.7090     0.1860     1.4550 H     1 <1>   0.0800 
 36 H        4.8090     2.5700     0.3520 H     1 <1>   0.3700 
 37 H        6.5790     1.1380    -0.7580 H     1 <1>   0.0800 
 38 H        5.9330    -0.3390    -1.4720 H     1 <1>   0.0800 
 39 H        3.0180     6.1200    -1.8710 H     1 <1>   0.1500 
 40 H        4.0420     6.5350     3.6580 H     1 <1>   0.0800 
 41 H        5.6880     6.5650     3.0660 H     1 <1>   0.0800 
 42 H        4.8920     5.0350     3.3640 H     1 <1>   0.0800 
 43 H        2.5460     8.4640    -1.6390 H     1 <1>   0.0800 
 44 H        3.6640     9.2860    -0.5740 H     1 <1>   0.0800 
 45 H        2.0530     8.8990    -0.0190 H     1 <1>   0.0800 
@<TRIPOS>BOND
  1   1   2  2   
  2   1   3  2   
  3   1   4  am  
  4   1   5  1   
  5   4   6  1   
  6   4   7  1   
  7   5   8  1   
  8   5  24  1   
  9   5  25  1   
 10   6  26  1   
 11   6  27  1   
 12   6  28  1   
 13   7  29  1   
 14   7  30  1   
 15   7  31  1   
 16   8   9  1   
 17   8  10  1   
 18   8  32  1   
 19   9  11  1   
 20   9  12  1   
 21   9  33  1   
 22  10  13  1   
 23  10  34  1   
 24  10  35  1   
 25  11  14  am  
 26  11  36  1   
 27  12  13  1   
 28  12  37  1   
 29  12  38  1   
 30  14  15  2   
 31  14  16  1   
 32  16  17  ar  
 33  16  18  ar  
 34  17  19  ar  
 35  18  20  ar  
 36  18  39  1   
 37  19  21  ar  
 38  19  22  1   
 39  20  21  ar  
 40  20  23  1   
 41  22  40  1   
 42  22  41  1   
 43  22  42  1   
 44  23  43  1   
 45  23  44  1   
 46  23  45  1   
@<TRIPOS>SUBSTRUCTURE
  1 ****  11 GROUP 4 **** **** 0

# MOE 2024.06 (io_trps.svl 2023.06)
