@<TRIPOS>MOLECULE
NONAME
37 39 1 0 0 
SMALL
USER_CHARGES


@<TRIPOS>ATOM
  1 F       -1.8840    -1.4070     1.8530 F     1 <1>  -0.3400 
  2 C       -1.4740    -1.6370     0.6070 C.3   1 <1>   1.2010 
  3 F       -0.1430    -1.6380     0.6550 F     1 <1>  -0.3400 
  4 F       -1.8070    -0.5490    -0.0870 F     1 <1>  -0.3400 
  5 C       -2.0560    -2.9560     0.0110 C.2   1 <1>   0.3350 
  6 N       -2.7760    -3.0350    -1.0480 N.2   1 <1>  -0.4100 
  7 N       -1.8490    -4.1600     0.5660 N.2   1 <1>  -0.5650 
  8 O       -3.0780    -4.2840    -1.2310 O.3   1 <1>  -0.0190 
  9 C       -2.5040    -4.9060    -0.2330 C.2   1 <1>   0.2980 
 10 C       -2.6430    -6.4240    -0.1360 C.3   1 <1>   0.2900 
 11 N       -3.9910    -6.8760     0.2880 N.3   1 <1>  -0.8100 
 12 C       -5.0540    -6.5980    -0.6850 C.3   1 <1>   0.1100 
 13 C       -4.0430    -8.3240     0.5300 C.3   1 <1>   0.1100 
 14 C       -6.1960    -7.5050    -0.2440 C.3   1 <1>   0.2000 
 15 C       -5.4830    -8.7770     0.2190 C.3   1 <1>  -0.0800 
 16 O       -6.7840    -6.9260     0.8640 O.3   1 <1>  -0.6800 
 17 C       -5.5360    -9.8680    -0.8660 C.3   1 <1>  -0.0170 
 18 C       -4.8350   -11.1440    -0.4260 C.ar  1 <1>   0.1670 
 19 N       -3.5870   -11.3110    -0.8350 N.ar  1 <1>  -0.6200 
 20 C       -5.5130   -12.0660     0.3710 C.ar  1 <1>   0.1600 
 21 C       -3.0700   -12.4490    -0.4020 C.ar  1 <1>   0.1600 
 22 N       -4.9950   -13.2010     0.8090 N.ar  1 <1>  -0.6200 
 23 C       -3.7510   -13.3630     0.3930 C.ar  1 <1>   0.1600 
 24 H       -1.9250    -6.7710     0.5860 H     1 <1>   0.0800 
 25 H       -2.3930    -6.8610    -1.0870 H     1 <1>   0.0800 
 26 H       -5.3470    -5.5620    -0.6770 H     1 <1>   0.0800 
 27 H       -4.7340    -6.8770    -1.6750 H     1 <1>   0.0800 
 28 H       -3.3410    -8.8310    -0.1110 H     1 <1>   0.0800 
 29 H       -3.7880    -8.5340     1.5550 H     1 <1>   0.0800 
 30 H       -6.9510    -7.6580    -0.9960 H     1 <1>   0.0800 
 31 H       -5.9480    -9.1630     1.1100 H     1 <1>   0.0800 
 32 H       -6.0510    -6.6080     1.4350 H     1 <1>   0.4000 
 33 H       -5.0810    -9.5110    -1.7740 H     1 <1>   0.0800 
 34 H       -6.5630   -10.0970    -1.0890 H     1 <1>   0.0800 
 35 H       -6.5260   -11.8530     0.6620 H     1 <1>   0.1500 
 36 H       -2.0580   -12.6700    -0.6900 H     1 <1>   0.1500 
 37 H       -3.2450   -14.2620     0.6960 H     1 <1>   0.1500 
@<TRIPOS>BOND
  1   1   2  1   
  2   2   3  1   
  3   2   4  1   
  4   2   5  1   
  5   5   6  2   
  6   5   7  1   
  7   6   8  1   
  8   7   9  2   
  9   8   9  1   
 10   9  10  1   
 11  10  11  1   
 12  10  24  1   
 13  10  25  1   
 14  11  12  1   
 15  11  13  1   
 16  12  14  1   
 17  12  26  1   
 18  12  27  1   
 19  13  15  1   
 20  13  28  1   
 21  13  29  1   
 22  14  15  1   
 23  14  16  1   
 24  14  30  1   
 25  15  17  1   
 26  15  31  1   
 27  16  32  1   
 28  17  18  1   
 29  17  33  1   
 30  17  34  1   
 31  18  19  ar  
 32  18  20  ar  
 33  19  21  ar  
 34  20  22  ar  
 35  20  35  1   
 36  21  23  ar  
 37  21  36  1   
 38  22  23  ar  
 39  23  37  1   
@<TRIPOS>SUBSTRUCTURE
  1 ****  11 GROUP 4 **** **** 0

# MOE 2024.06 (io_trps.svl 2023.06)
