@<TRIPOS>MOLECULE
NONAME
41 42 1 0 0 
SMALL
USER_CHARGES


@<TRIPOS>ATOM
  1 F       -1.7700    -1.2290     0.4640 F     1 <1>  -0.1900 
  2 C       -2.2640    -0.0720     0.1110 C.ar  1 <1>   0.1900 
  3 C       -3.1910    -0.0120    -0.9190 C.ar  1 <1>  -0.1440 
  4 C       -1.8180     1.0480     0.7910 C.ar  1 <1>  -0.1500 
  5 C       -3.6480     1.2530    -1.2530 C.ar  1 <1>   0.1900 
  6 C       -3.6650    -1.2660    -1.6420 C.3   1 <1>   0.2540 
  7 C       -2.3090     2.3000     0.4300 C.ar  1 <1>   0.0830 
  8 F       -4.5150     1.3870    -2.2230 F     1 <1>  -0.1900 
  9 C       -3.2290     2.3990    -0.6020 C.ar  1 <1>  -0.1500 
 10 N       -4.6310    -2.0200    -0.8220 N.3   1 <1>  -0.8100 
 11 O       -1.9380     3.4560     1.0320 O.3   1 <1>  -0.3630 
 12 C       -4.8220    -3.3810    -1.3510 C.3   1 <1>   0.2900 
 13 C       -5.9100    -1.2860    -0.6610 C.3   1 <1>   0.1100 
 14 C       -0.9960     3.4680     2.0820 C.3   1 <1>   0.0400 
 15 C       -4.9740    -4.3550    -0.2010 C.2   1 <1>  -0.3320 
 16 C       -6.8320    -1.9130     0.3950 C.3   1 <1>   0.1200 
 17 N       -5.6200    -5.5320    -0.2870 N.pl3 1 <1>   0.0330 
 18 C       -4.5250    -4.2670     1.0710 C.2   1 <1>   0.0770 
 19 O       -7.9420    -1.0970     0.5680 O.3   1 <1>  -0.6800 
 20 C       -5.5270    -6.0820     0.9440 C.2   1 <1>   0.0060 
 21 N       -4.8770    -5.3530     1.7870 N.2   1 <1>  -0.5650 
 22 C       -6.1330    -7.4240     1.2910 C.3   1 <1>  -0.0600 
 23 H       -1.1030     0.9180     1.5800 H     1 <1>   0.1500 
 24 H       -2.8010    -1.8800    -1.8310 H     1 <1>   0.0800 
 25 H       -4.1060    -1.0180    -2.5930 H     1 <1>   0.0800 
 26 H       -3.6110     3.3600    -0.8920 H     1 <1>   0.1500 
 27 H       -3.9660    -3.6890    -1.9280 H     1 <1>   0.0800 
 28 H       -5.6860    -3.4100    -1.9920 H     1 <1>   0.0800 
 29 H       -6.4260    -1.2400    -1.6050 H     1 <1>   0.0800 
 30 H       -5.6990    -0.2820    -0.3400 H     1 <1>   0.0800 
 31 H       -0.8590     4.4870     2.3960 H     1 <1>   0.0800 
 32 H       -0.0640     3.0700     1.7210 H     1 <1>   0.0800 
 33 H       -1.3750     2.8810     2.9000 H     1 <1>   0.0800 
 34 H       -6.3260    -2.0070     1.3400 H     1 <1>   0.0800 
 35 H       -7.1860    -2.8760     0.0760 H     1 <1>   0.0800 
 36 H       -6.0910    -5.9360    -1.1000 H     1 <1>   0.2700 
 37 H       -3.9580    -3.4590     1.5060 H     1 <1>   0.1500 
 38 H       -7.6850    -0.2700     1.0200 H     1 <1>   0.4000 
 39 H       -5.7040    -8.1930     0.6760 H     1 <1>   0.0800 
 40 H       -7.1970    -7.3980     1.1440 H     1 <1>   0.0800 
 41 H       -5.9330    -7.6550     2.3220 H     1 <1>   0.0800 
@<TRIPOS>BOND
  1   1   2  1   
  2   2   3  ar  
  3   2   4  ar  
  4   3   5  ar  
  5   3   6  1   
  6   4   7  ar  
  7   4  23  1   
  8   5   8  1   
  9   5   9  ar  
 10   6  10  1   
 11   6  24  1   
 12   6  25  1   
 13   7   9  ar  
 14   7  11  1   
 15   9  26  1   
 16  10  12  1   
 17  10  13  1   
 18  11  14  1   
 19  12  15  1   
 20  12  27  1   
 21  12  28  1   
 22  13  16  1   
 23  13  29  1   
 24  13  30  1   
 25  14  31  1   
 26  14  32  1   
 27  14  33  1   
 28  15  17  1   
 29  15  18  2   
 30  16  19  1   
 31  16  34  1   
 32  16  35  1   
 33  17  20  1   
 34  17  36  1   
 35  18  21  1   
 36  18  37  1   
 37  19  38  1   
 38  20  21  2   
 39  20  22  1   
 40  22  39  1   
 41  22  40  1   
 42  22  41  1   
@<TRIPOS>SUBSTRUCTURE
  1 ****  10 GROUP 4 **** **** 0

# MOE 2024.06 (io_trps.svl 2023.06)
