@<TRIPOS>MOLECULE
NONAME
49 52 1 0 0 
SMALL
USER_CHARGES


@<TRIPOS>ATOM
  1 F       -2.4850    -3.9700     0.2990 F     1 <1>  -0.1900 
  2 C       -3.2830    -2.9390     0.3330 C.ar  1 <1>   0.1900 
  3 C       -3.9390    -2.6370     1.5100 C.ar  1 <1>  -0.1500 
  4 C       -3.4550    -2.1910    -0.8150 C.ar  1 <1>  -0.1500 
  5 C       -4.7910    -1.5460     1.5350 C.ar  1 <1>  -0.1500 
  6 C       -4.3180    -1.1100    -0.7730 C.ar  1 <1>  -0.1500 
  7 C       -5.0030    -0.7660     0.3950 C.ar  1 <1>   0.0540 
  8 C       -5.8640     0.3990     0.4080 C.2   1 <1>   0.2350 
  9 N       -5.4870     1.5430    -0.0980 N.2   1 <1>  -0.7070 
 10 C       -7.1620     0.5040     0.9280 C.2   1 <1>  -0.1810 
 11 N       -6.4980     2.3950     0.1140 N.pl3 1 <1>   0.3000 
 12 C       -7.5290     1.7890     0.7300 C.2   1 <1>  -0.3020 
 13 C       -7.9950    -0.5930     1.5580 C.3   1 <1>   0.5240 
 14 N       -8.5470    -1.4830     0.5070 N.4   1 <1>  -0.9590 
 15 C       -9.0350    -0.8120    -0.7310 C.3   1 <1>   0.3430 
 16 C       -9.6140    -2.4100     0.9440 C.3   1 <1>   0.3430 
 17 C      -10.0530    -1.7710    -1.3580 C.3   1 <1>   0.2000 
 18 C      -10.2690    -2.9070    -0.3480 C.3   1 <1>  -0.0800 
 19 O      -11.2550    -1.1070    -1.5680 O.3   1 <1>  -0.6800 
 20 C       -9.6850    -4.2520    -0.8360 C.3   1 <1>   0.0210 
 21 C       -8.1720    -4.4000    -0.7350 C.2   1 <1>   0.1080 
 22 N       -7.3110    -3.4770    -1.0480 N.2   1 <1>  -0.7070 
 23 C       -7.5510    -5.5650    -0.3010 C.2   1 <1>  -0.1500 
 24 N       -6.1050    -4.0530    -0.8470 N.pl3 1 <1>   0.3000 
 25 C       -6.2300    -5.3100    -0.3790 C.2   1 <1>  -0.3320 
 26 C       -5.0570    -6.2150    -0.0440 C.3   1 <1>  -0.0600 
 27 H       -3.7700    -3.2380     2.3870 H     1 <1>   0.1500 
 28 H       -2.9170    -2.4420    -1.7130 H     1 <1>   0.1500 
 29 H       -5.2720    -1.2820     2.4590 H     1 <1>   0.1500 
 30 H       -4.4560    -0.5020    -1.6520 H     1 <1>   0.1500 
 31 H       -6.4510     3.3820    -0.1760 H     1 <1>   0.2700 
 32 H       -8.4370     2.3090     0.9780 H     1 <1>   0.1500 
 33 H       -8.8040    -0.1360     2.1030 H     1 <1>   0.0800 
 34 H       -7.4000    -1.1620     2.2520 H     1 <1>   0.0800 
 35 H       -7.7830    -2.1000     0.1510 H     1 <1>   0.4500 
 36 H       -9.5120     0.1240    -0.4940 H     1 <1>   0.0800 
 37 H       -8.2130    -0.6360    -1.4070 H     1 <1>   0.0800 
 38 H       -9.2140    -3.2280     1.5220 H     1 <1>   0.0800 
 39 H      -10.3420    -1.8760     1.5320 H     1 <1>   0.0800 
 40 H       -9.7010    -2.1260    -2.3130 H     1 <1>   0.0800 
 41 H      -11.3210    -3.0640    -0.1780 H     1 <1>   0.0800 
 42 H      -11.7300    -0.9000    -0.7400 H     1 <1>   0.4000 
 43 H       -9.9760    -4.4210    -1.8590 H     1 <1>   0.0800 
 44 H      -10.1280    -5.0430    -0.2560 H     1 <1>   0.0800 
 45 H       -8.0360    -6.4710     0.0170 H     1 <1>   0.1500 
 46 H       -5.2140    -3.5710    -1.0360 H     1 <1>   0.2700 
 47 H       -5.4100    -7.1930     0.2300 H     1 <1>   0.0800 
 48 H       -4.4960    -5.8130     0.7810 H     1 <1>   0.0800 
 49 H       -4.4060    -6.3140    -0.8940 H     1 <1>   0.0800 
@<TRIPOS>BOND
  1   1   2  1   
  2   2   3  ar  
  3   2   4  ar  
  4   3   5  ar  
  5   3  27  1   
  6   4   6  ar  
  7   4  28  1   
  8   5   7  ar  
  9   5  29  1   
 10   6   7  ar  
 11   6  30  1   
 12   7   8  1   
 13   8   9  2   
 14   8  10  1   
 15   9  11  1   
 16  10  12  2   
 17  10  13  1   
 18  11  12  1   
 19  11  31  1   
 20  12  32  1   
 21  13  14  1   
 22  13  33  1   
 23  13  34  1   
 24  14  15  1   
 25  14  16  1   
 26  14  35  1   
 27  15  17  1   
 28  15  36  1   
 29  15  37  1   
 30  16  18  1   
 31  16  38  1   
 32  16  39  1   
 33  17  18  1   
 34  17  19  1   
 35  17  40  1   
 36  18  20  1   
 37  18  41  1   
 38  19  42  1   
 39  20  21  1   
 40  20  43  1   
 41  20  44  1   
 42  21  22  2   
 43  21  23  1   
 44  22  24  1   
 45  23  25  2   
 46  23  45  1   
 47  24  25  1   
 48  24  46  1   
 49  25  26  1   
 50  26  47  1   
 51  26  48  1   
 52  26  49  1   
@<TRIPOS>SUBSTRUCTURE
  1 ****  22 GROUP 4 **** **** 0

# MOE 2024.06 (io_trps.svl 2023.06)
