@<TRIPOS>MOLECULE
NONAME
34 35 1 0 0 
SMALL
USER_CHARGES


@<TRIPOS>ATOM
  1 CL       1.4870     0.8840    -1.2780 Cl    1 <1>  -0.1770 
  2 C        2.0240    -0.4050    -0.2360 C.ar  1 <1>   0.1770 
  3 C        2.3850    -0.1200     1.0660 C.ar  1 <1>  -0.1500 
  4 C        2.0730    -1.6950    -0.7360 C.ar  1 <1>  -0.1500 
  5 C        2.8020    -1.1640     1.8670 C.ar  1 <1>   0.1770 
  6 C        2.4900    -2.7400     0.0810 C.ar  1 <1>  -0.1440 
  7 CL       3.2630    -0.8470     3.5170 Cl    1 <1>  -0.1770 
  8 C        2.8620    -2.4630     1.3920 C.ar  1 <1>  -0.1500 
  9 C        2.5280    -4.1630    -0.4490 C.3   1 <1>   0.4870 
 10 N        1.3980    -4.9210     0.1360 N.4   1 <1>  -0.9590 
 11 C        1.5280    -6.4050    -0.1490 C.3   1 <1>   0.3430 
 12 C        0.0730    -4.3860    -0.3060 C.3   1 <1>   0.3430 
 13 C        0.1820    -7.1540    -0.1950 C.3   1 <1>   0.2000 
 14 C       -1.0370    -5.0260     0.5310 C.3   1 <1>  -0.1600 
 15 O       -0.3380    -7.0310    -1.4720 O.3   1 <1>  -0.6800 
 16 C       -0.8140    -6.5380     0.7940 C.3   1 <1>  -0.1860 
 17 C       -2.1050    -7.3220     0.7620 C.2   1 <1>   0.9060 
 18 O       -2.5290    -7.7830     1.8190 O.co2 1 <1>  -0.9000 
 19 O       -2.6530    -7.4790    -0.3350 O.co2 1 <1>  -0.9000 
 20 H        2.3420     0.8850     1.4440 H     1 <1>   0.1500 
 21 H        1.7830    -1.8610    -1.7600 H     1 <1>   0.1500 
 22 H        3.2010    -3.2370     2.0590 H     1 <1>   0.1500 
 23 H        3.4640    -4.6210    -0.1710 H     1 <1>   0.0800 
 24 H        2.4540    -4.1620    -1.5240 H     1 <1>   0.0800 
 25 H        1.4110    -4.7960     1.1540 H     1 <1>   0.4500 
 26 H        2.0170    -6.5640    -1.0950 H     1 <1>   0.0800 
 27 H        2.1370    -6.8520     0.6180 H     1 <1>   0.0800 
 28 H        0.0310    -3.3150    -0.1970 H     1 <1>   0.0800 
 29 H       -0.0840    -4.6310    -1.3450 H     1 <1>   0.0800 
 30 H        0.3160    -8.2060    -0.0020 H     1 <1>   0.0800 
 31 H       -1.1450    -4.5090     1.4680 H     1 <1>   0.0800 
 32 H       -1.9620    -4.8910    -0.0060 H     1 <1>   0.0800 
 33 H       -1.3130    -7.2760    -1.3920 H     1 <1>   0.4000 
 34 H       -0.4100    -6.6560     1.7820 H     1 <1>   0.0800 
@<TRIPOS>BOND
  1   1   2  1   
  2   2   3  ar  
  3   2   4  ar  
  4   3   5  ar  
  5   3  20  1   
  6   4   6  ar  
  7   4  21  1   
  8   5   7  1   
  9   5   8  ar  
 10   6   8  ar  
 11   6   9  1   
 12   8  22  1   
 13   9  10  1   
 14   9  23  1   
 15   9  24  1   
 16  10  11  1   
 17  10  12  1   
 18  10  25  1   
 19  11  13  1   
 20  11  26  1   
 21  11  27  1   
 22  12  14  1   
 23  12  28  1   
 24  12  29  1   
 25  13  15  1   
 26  13  16  1   
 27  13  30  1   
 28  14  16  1   
 29  14  31  1   
 30  14  32  1   
 31  15  33  1   
 32  16  17  1   
 33  16  34  1   
 34  17  18  ar  
 35  17  19  ar  
@<TRIPOS>SUBSTRUCTURE
  1 ****  12 GROUP 4 **** **** 0

# MOE 2024.06 (io_trps.svl 2023.06)
