@<TRIPOS>MOLECULE
NONAME
49 52 1 0 0 
SMALL
USER_CHARGES


@<TRIPOS>ATOM
  1 O       -0.0970     0.7040     0.6540 O.2   1 <1>  -0.5700 
  2 C       -0.0720     1.9200     0.6760 C.2   1 <1>   0.5440 
  3 N       -1.2240     2.6110     0.9960 N.am  1 <1>  -0.6600 
  4 C        1.1690     2.5990     0.3500 C.ar  1 <1>   0.0860 
  5 C       -1.4620     4.0410     0.6580 C.3   1 <1>   0.1400 
  6 C       -2.4200     1.9250     1.5650 C.3   1 <1>   0.1400 
  7 C        1.7320     3.5480     1.2020 C.ar  1 <1>  -0.1500 
  8 C        1.8510     2.3120    -0.8300 C.ar  1 <1>  -0.1500 
  9 C       -2.6050     4.1320    -0.3550 C.3   1 <1>  -0.1600 
 10 C       -3.5750     2.0050     0.5660 C.3   1 <1>  -0.1600 
 11 C        2.9160     4.1900     0.8860 C.ar  1 <1>  -0.1500 
 12 C        3.0350     2.9490    -1.1540 C.ar  1 <1>  -0.1500 
 13 C       -3.8790     3.4510     0.1640 C.3   1 <1>   0.4180 
 14 C        3.5760     3.8940    -0.2970 C.ar  1 <1>  -0.1430 
 15 O       -4.3130     4.1030     1.3340 O.3   1 <1>  -0.5600 
 16 C       -4.9790     3.4690    -0.8940 C.2   1 <1>  -0.2880 
 17 C        4.8870     4.5900    -0.6430 C.3   1 <1>   0.2390 
 18 C       -5.0520     5.2820     1.1810 C.3   1 <1>   0.1200 
 19 C       -6.1200     4.1520    -0.7790 C.2   1 <1>  -0.2760 
 20 N        6.0480     3.9100    -0.0350 N.pl3 1 <1>   0.3140 
 21 C       -6.3730     5.0030     0.4520 C.3   1 <1>  -0.0220 
 22 C       -7.2370     4.1430    -1.8080 C.3   1 <1>  -0.1020 
 23 N        7.2570     4.4280    -0.0540 N.2   1 <1>  -0.4180 
 24 C        6.1270     2.7500     0.5900 C.2   1 <1>   0.0360 
 25 N        8.0220     3.5890     0.5470 N.2   1 <1>   0.0000 
 26 N        7.3300     2.5310     0.9570 N.2   1 <1>  -0.3380 
 27 H       -0.5810     4.4910     0.2370 H     1 <1>   0.0800 
 28 H       -1.7230     4.5760     1.5550 H     1 <1>   0.0800 
 29 H       -2.6980     2.4100     2.4850 H     1 <1>   0.0800 
 30 H       -2.2010     0.8940     1.7870 H     1 <1>   0.0800 
 31 H        1.2290     3.7750     2.1270 H     1 <1>   0.1500 
 32 H        1.4380     1.5710    -1.4940 H     1 <1>   0.1500 
 33 H       -2.2950     3.6480    -1.2630 H     1 <1>   0.0800 
 34 H       -2.8060     5.1580    -0.5970 H     1 <1>   0.0800 
 35 H       -4.4570     1.5630     0.9920 H     1 <1>   0.0800 
 36 H       -3.3120     1.4330    -0.3050 H     1 <1>   0.0800 
 37 H        3.3200     4.9160     1.5720 H     1 <1>   0.1500 
 38 H        3.5300     2.6960    -2.0770 H     1 <1>   0.1500 
 39 H       -4.7420     2.8600    -1.7480 H     1 <1>   0.1500 
 40 H        4.8700     5.6050    -0.2910 H     1 <1>   0.0800 
 41 H        5.0300     4.6080    -1.7080 H     1 <1>   0.0800 
 42 H       -4.4600     5.9910     0.6290 H     1 <1>   0.0800 
 43 H       -5.2440     5.6800     2.1610 H     1 <1>   0.0800 
 44 H       -6.8150     5.9420     0.1720 H     1 <1>   0.0800 
 45 H       -7.0520     4.4950     1.1130 H     1 <1>   0.0800 
 46 H       -8.1450     3.7780    -1.3640 H     1 <1>   0.0800 
 47 H       -6.9820     3.5060    -2.6350 H     1 <1>   0.0800 
 48 H       -7.4060     5.1370    -2.1820 H     1 <1>   0.0800 
 49 H        5.2910     2.0960     0.7570 H     1 <1>   0.1500 
@<TRIPOS>BOND
  1   1   2  2   
  2   2   3  am  
  3   2   4  1   
  4   3   5  1   
  5   3   6  1   
  6   4   7  ar  
  7   4   8  ar  
  8   5   9  1   
  9   5  27  1   
 10   5  28  1   
 11   6  10  1   
 12   6  29  1   
 13   6  30  1   
 14   7  11  ar  
 15   7  31  1   
 16   8  12  ar  
 17   8  32  1   
 18   9  13  1   
 19   9  33  1   
 20   9  34  1   
 21  10  13  1   
 22  10  35  1   
 23  10  36  1   
 24  11  14  ar  
 25  11  37  1   
 26  12  14  ar  
 27  12  38  1   
 28  13  15  1   
 29  13  16  1   
 30  14  17  1   
 31  15  18  1   
 32  16  19  2   
 33  16  39  1   
 34  17  20  1   
 35  17  40  1   
 36  17  41  1   
 37  18  21  1   
 38  18  42  1   
 39  18  43  1   
 40  19  21  1   
 41  19  22  1   
 42  20  23  1   
 43  20  24  1   
 44  21  44  1   
 45  21  45  1   
 46  22  46  1   
 47  22  47  1   
 48  22  48  1   
 49  23  25  2   
 50  24  26  2   
 51  24  49  1   
 52  25  26  1   
@<TRIPOS>SUBSTRUCTURE
  1 ****   4 GROUP 4 **** **** 0

# MOE 2024.06 (io_trps.svl 2023.06)
