@<TRIPOS>MOLECULE
NONAME
54 57 1 0 0 
SMALL
USER_CHARGES


@<TRIPOS>ATOM
  1 O        1.7830     0.7300     1.6030 O.2   1 <1>  -0.5700 
  2 C        2.1730     0.0630     0.6730 C.2   1 <1>   0.5690 
  3 N        2.1120     0.5890    -0.6030 N.am  1 <1>  -0.6600 
  4 C        2.7850    -1.3230     0.9430 C.3   1 <1>   0.1250 
  5 C        2.8510     0.0550    -1.7940 C.3   1 <1>   0.1400 
  6 C        1.3300     1.8310    -0.8650 C.3   1 <1>   0.1400 
  7 C        1.8740    -2.4950     0.6260 C.ar  1 <1>  -0.1440 
  8 C        3.2000    -1.6120     2.4030 C.3   1 <1>  -0.1600 
  9 C        4.2210     0.7450    -1.9770 C.3   1 <1>   0.3430 
 10 C        2.2050     3.0780    -0.6840 C.3   1 <1>  -0.1600 
 11 C        2.0760    -3.5140     1.5260 C.ar  1 <1>  -0.1440 
 12 C        0.9420    -2.6350    -0.3900 C.ar  1 <1>  -0.1500 
 13 C        3.1000    -3.1350     2.5680 C.3   1 <1>  -0.0160 
 14 N        4.3570     1.9670    -1.1100 N.4   1 <1>  -0.9590 
 15 C        3.4860     3.0940    -1.5220 C.3   1 <1>   0.3430 
 16 C        1.3750    -4.7010     1.4270 C.ar  1 <1>  -0.1500 
 17 C        0.2330    -3.8210    -0.4970 C.ar  1 <1>  -0.1500 
 18 C        5.7730     2.3390    -0.8190 C.3   1 <1>   0.5230 
 19 C        0.4510    -4.8520     0.4050 C.ar  1 <1>  -0.1500 
 20 C        6.4240     1.2670     0.0490 C.2   1 <1>   0.0060 
 21 N        5.7800     0.2970     0.6040 N.2   1 <1>  -0.3380 
 22 N        7.7270     1.2060     0.3410 N.pl3 1 <1>   0.0330 
 23 N        6.6680    -0.4370     1.2680 N.2   1 <1>  -0.3380 
 24 C        7.8180     0.1190     1.1060 C.2   1 <1>   0.0060 
 25 C        9.1170    -0.3940     1.7050 C.3   1 <1>   0.0200 
 26 C        9.7160     0.6080     2.6980 C.3   1 <1>  -0.2400 
 27 H        3.6700    -1.4350     0.3480 H     1 <1>   0.0800 
 28 H        2.2570     0.2080    -2.6790 H     1 <1>   0.0800 
 29 H        2.9970    -1.0080    -1.7090 H     1 <1>   0.0800 
 30 H        0.4980     1.8800    -0.1800 H     1 <1>   0.0800 
 31 H        0.9190     1.8010    -1.8600 H     1 <1>   0.0800 
 32 H        2.4960    -1.1570     3.0780 H     1 <1>   0.0800 
 33 H        4.1860    -1.2420     2.6240 H     1 <1>   0.0800 
 34 H        4.3700     0.9950    -3.0140 H     1 <1>   0.0800 
 35 H        4.9800     0.0290    -1.7060 H     1 <1>   0.0800 
 36 H        2.4500     3.1880     0.3590 H     1 <1>   0.0800 
 37 H        1.6150     3.9360    -0.9520 H     1 <1>   0.0800 
 38 H        0.7570    -1.8400    -1.0880 H     1 <1>   0.1500 
 39 H        2.7820    -3.4060     3.5590 H     1 <1>   0.0800 
 40 H        4.0400    -3.6060     2.3400 H     1 <1>   0.0800 
 41 H        3.9780     1.6430    -0.1990 H     1 <1>   0.4500 
 42 H        3.9930     4.0320    -1.3570 H     1 <1>   0.0800 
 43 H        3.2450     3.0200    -2.5700 H     1 <1>   0.0800 
 44 H        1.5430    -5.4930     2.1340 H     1 <1>   0.1500 
 45 H       -0.4930    -3.9440    -1.2820 H     1 <1>   0.1500 
 46 H        5.7980     3.2740    -0.2840 H     1 <1>   0.0800 
 47 H        6.3210     2.4520    -1.7390 H     1 <1>   0.0800 
 48 H       -0.1020    -5.7700     0.3160 H     1 <1>   0.1500 
 49 H        8.5000     1.8210     0.0720 H     1 <1>   0.2700 
 50 H        9.8220    -0.5970     0.9180 H     1 <1>   0.0800 
 51 H        8.9220    -1.3210     2.2160 H     1 <1>   0.0800 
 52 H        9.9700     1.5310     2.2090 H     1 <1>   0.0800 
 53 H       10.6070     0.1980     3.1390 H     1 <1>   0.0800 
 54 H        9.0100     0.8120     3.4840 H     1 <1>   0.0800 
@<TRIPOS>BOND
  1   1   2  2   
  2   2   3  am  
  3   2   4  1   
  4   3   5  1   
  5   3   6  1   
  6   4   7  1   
  7   4   8  1   
  8   4  27  1   
  9   5   9  1   
 10   5  28  1   
 11   5  29  1   
 12   6  10  1   
 13   6  30  1   
 14   6  31  1   
 15   7  11  ar  
 16   7  12  ar  
 17   8  13  1   
 18   8  32  1   
 19   8  33  1   
 20   9  14  1   
 21   9  34  1   
 22   9  35  1   
 23  10  15  1   
 24  10  36  1   
 25  10  37  1   
 26  11  13  1   
 27  11  16  ar  
 28  12  17  ar  
 29  12  38  1   
 30  13  39  1   
 31  13  40  1   
 32  14  15  1   
 33  14  18  1   
 34  14  41  1   
 35  15  42  1   
 36  15  43  1   
 37  16  19  ar  
 38  16  44  1   
 39  17  19  ar  
 40  17  45  1   
 41  18  20  1   
 42  18  46  1   
 43  18  47  1   
 44  19  48  1   
 45  20  21  2   
 46  20  22  1   
 47  21  23  1   
 48  22  24  1   
 49  22  49  1   
 50  23  24  2   
 51  24  25  1   
 52  25  26  1   
 53  25  50  1   
 54  25  51  1   
 55  26  52  1   
 56  26  53  1   
 57  26  54  1   
@<TRIPOS>SUBSTRUCTURE
  1 ****   4 GROUP 4 **** **** 0

# MOE 2024.06 (io_trps.svl 2023.06)
