@<TRIPOS>MOLECULE
NONAME
51 53 1 0 0 
SMALL
USER_CHARGES


@<TRIPOS>ATOM
  1 O       -2.8270     0.8430    -2.5770 O.2   1 <1>  -0.5700 
  2 C       -2.3650     0.8980    -1.4650 C.2   1 <1>   0.5690 
  3 N       -1.9610    -0.2110    -0.8020 N.am  1 <1>  -0.7300 
  4 C       -2.2300     2.2390    -0.7820 C.3   1 <1>  -0.0990 
  5 C       -1.9840    -1.5850    -1.3520 C.3   1 <1>   0.2200 
  6 C       -0.9180     2.9260    -1.1760 C.3   1 <1>  -0.0160 
  7 C       -3.1040    -2.4100    -0.7330 C.3   1 <1>  -0.0800 
  8 C       -0.7670    -2.3370    -0.8320 C.3   1 <1>   0.1200 
  9 C       -0.7540     4.2330    -0.4100 C.ar  1 <1>  -0.1440 
 10 C       -2.4790    -2.9240     0.5700 C.3   1 <1>   0.1200 
 11 C       -4.4510    -1.6860    -0.5500 C.3   1 <1>  -0.0160 
 12 O       -1.1010    -2.6960     0.4740 O.3   1 <1>  -0.5600 
 13 C       -0.0600     4.3210     0.7940 C.ar  1 <1>  -0.1440 
 14 C       -1.3320     5.3750    -0.9440 C.ar  1 <1>  -0.1500 
 15 C       -5.5110    -2.6390    -0.0200 C.ar  1 <1>  -0.1440 
 16 C        0.0430     5.5470     1.4340 C.ar  1 <1>  -0.1500 
 17 C        0.6010     3.1100     1.4390 C.3   1 <1>  -0.0970 
 18 C       -1.2250     6.5920    -0.2970 C.ar  1 <1>  -0.1500 
 19 C       -6.1910    -3.5030    -0.8560 C.ar  1 <1>  -0.1500 
 20 C       -5.8490    -2.6940     1.3170 C.ar  1 <1>  -0.1500 
 21 C       -0.5340     6.6860     0.8970 C.ar  1 <1>  -0.1440 
 22 C       -7.1430    -4.3590    -0.3280 C.ar  1 <1>   0.1600 
 23 C       -6.8170    -3.5880     1.7430 C.ar  1 <1>   0.1600 
 24 C       -0.4110     8.0180     1.6140 C.3   1 <1>  -0.0970 
 25 N       -7.4710    -4.4240     0.9520 N.ar  1 <1>  -0.6200 
 26 H       -1.5930    -0.1540     0.1500 H     1 <1>   0.3700 
 27 H       -3.0590     2.8590    -1.0690 H     1 <1>   0.0800 
 28 H       -2.2690     2.1070     0.2830 H     1 <1>   0.0800 
 29 H       -2.0260    -1.5650    -2.4290 H     1 <1>   0.0800 
 30 H       -0.9280     3.1260    -2.2340 H     1 <1>   0.0800 
 31 H       -0.0870     2.2700    -0.9910 H     1 <1>   0.0800 
 32 H       -3.2690    -3.2640    -1.3660 H     1 <1>   0.0800 
 33 H        0.1260    -1.7370    -0.8290 H     1 <1>   0.0800 
 34 H       -0.6040    -3.2400    -1.3940 H     1 <1>   0.0800 
 35 H       -2.6510    -3.9780     0.7060 H     1 <1>   0.0800 
 36 H       -2.8380    -2.3830     1.4280 H     1 <1>   0.0800 
 37 H       -4.7720    -1.2860    -1.4960 H     1 <1>   0.0800 
 38 H       -4.3460    -0.8590     0.1300 H     1 <1>   0.0800 
 39 H       -1.8730     5.3220    -1.8720 H     1 <1>   0.1500 
 40 H        0.5780     5.6230     2.3630 H     1 <1>   0.1500 
 41 H        0.9810     3.3520     2.4150 H     1 <1>   0.0800 
 42 H        1.4220     2.7750     0.8320 H     1 <1>   0.0800 
 43 H       -0.1090     2.3110     1.5480 H     1 <1>   0.0800 
 44 H       -1.6820     7.4650    -0.7290 H     1 <1>   0.1500 
 45 H       -5.9890    -3.5170    -1.9110 H     1 <1>   0.1500 
 46 H       -5.3710    -2.0510     2.0330 H     1 <1>   0.1500 
 47 H       -7.6630    -5.0250    -0.9950 H     1 <1>   0.1500 
 48 H       -7.0680    -3.6180     2.7890 H     1 <1>   0.1500 
 49 H       -0.5050     8.8320     0.9190 H     1 <1>   0.0800 
 50 H        0.5460     8.0950     2.0980 H     1 <1>   0.0800 
 51 H       -1.1840     8.1030     2.3560 H     1 <1>   0.0800 
@<TRIPOS>BOND
  1   1   2  2   
  2   2   3  am  
  3   2   4  1   
  4   3   5  1   
  5   3  26  1   
  6   4   6  1   
  7   4  27  1   
  8   4  28  1   
  9   5   7  1   
 10   5   8  1   
 11   5  29  1   
 12   6   9  1   
 13   6  30  1   
 14   6  31  1   
 15   7  10  1   
 16   7  11  1   
 17   7  32  1   
 18   8  12  1   
 19   8  33  1   
 20   8  34  1   
 21   9  13  ar  
 22   9  14  ar  
 23  10  12  1   
 24  10  35  1   
 25  10  36  1   
 26  11  15  1   
 27  11  37  1   
 28  11  38  1   
 29  13  16  ar  
 30  13  17  1   
 31  14  18  ar  
 32  14  39  1   
 33  15  19  ar  
 34  15  20  ar  
 35  16  21  ar  
 36  16  40  1   
 37  17  41  1   
 38  17  42  1   
 39  17  43  1   
 40  18  21  ar  
 41  18  44  1   
 42  19  22  ar  
 43  19  45  1   
 44  20  23  ar  
 45  20  46  1   
 46  21  24  1   
 47  22  25  ar  
 48  22  47  1   
 49  23  25  ar  
 50  23  48  1   
 51  24  49  1   
 52  24  50  1   
 53  24  51  1   
@<TRIPOS>SUBSTRUCTURE
  1 ****   3 GROUP 4 **** **** 0

# MOE 2024.06 (io_trps.svl 2023.06)
