@<TRIPOS>MOLECULE
NONAME
46 48 1 0 0 
SMALL
USER_CHARGES


@<TRIPOS>ATOM
  1 O       -0.7560     0.4120     1.8810 O.2   1 <1>  -0.5700 
  2 C       -1.5560     0.9880     1.1690 C.2   1 <1>   0.5440 
  3 N       -2.5670     0.2560     0.5940 N.am  1 <1>  -0.6600 
  4 C       -1.4390     2.4130     0.9270 C.ar  1 <1>   0.0860 
  5 C       -3.4930     0.7540    -0.4550 C.3   1 <1>   0.1400 
  6 C       -2.6800    -1.2160     0.7330 C.3   1 <1>   0.1400 
  7 C       -0.4260     2.9590     0.1270 C.ar  1 <1>  -0.1440 
  8 C       -2.3690     3.2860     1.4910 C.ar  1 <1>  -0.1500 
  9 C       -4.4730    -0.3990    -0.6690 C.3   1 <1>   0.2000 
 10 C       -3.6300    -1.6490    -0.3910 C.3   1 <1>  -0.0800 
 11 C       -0.3670     4.3250    -0.0970 C.ar  1 <1>  -0.1500 
 12 C        0.6260     2.0540    -0.5020 C.3   1 <1>  -0.0960 
 13 C       -2.3090     4.6470     1.2640 C.ar  1 <1>  -0.1500 
 14 O       -5.4740    -0.2940     0.2840 O.3   1 <1>  -0.6800 
 15 C       -4.4390    -2.9200    -0.0700 C.3   1 <1>   0.0200 
 16 C       -1.3100     5.1790     0.4680 C.ar  1 <1>   0.0830 
 17 C       -3.5730    -4.1620     0.0590 C.2   1 <1>  -0.0400 
 18 O       -1.3180     6.5190     0.2900 O.3   1 <1>  -0.3630 
 19 O       -4.1320    -5.2760     0.4530 O.3   1 <1>  -0.0190 
 20 C       -2.2710    -4.4140    -0.1530 C.2   1 <1>  -0.1500 
 21 C       -0.3220     7.1760    -0.4610 C.3   1 <1>   0.0400 
 22 N       -3.2770    -6.2540     0.5190 N.2   1 <1>  -0.4100 
 23 C       -2.1460    -5.7640     0.1600 C.2   1 <1>   0.1080 
 24 C       -0.8600    -6.5560     0.0910 C.3   1 <1>  -0.0590 
 25 H       -3.9990     1.6560    -0.1540 H     1 <1>   0.0800 
 26 H       -2.9350     0.9370    -1.3560 H     1 <1>   0.0800 
 27 H       -1.7140    -1.6810     0.6450 H     1 <1>   0.0800 
 28 H       -3.0940    -1.4430     1.7010 H     1 <1>   0.0800 
 29 H       -3.1460     2.8850     2.1180 H     1 <1>   0.1500 
 30 H       -4.9270    -0.3940    -1.6460 H     1 <1>   0.0800 
 31 H       -3.0350    -1.8370    -1.2670 H     1 <1>   0.0800 
 32 H        0.4180     4.7190    -0.7130 H     1 <1>   0.1500 
 33 H        1.3010     2.6120    -1.1250 H     1 <1>   0.0800 
 34 H        0.1540     1.2980    -1.1050 H     1 <1>   0.0800 
 35 H        1.1980     1.5700     0.2700 H     1 <1>   0.0800 
 36 H       -3.0330     5.3090     1.7050 H     1 <1>   0.1500 
 37 H       -5.0600    -0.1410     1.1580 H     1 <1>   0.4000 
 38 H       -5.1610    -3.0890    -0.8490 H     1 <1>   0.0800 
 39 H       -4.9810    -2.7890     0.8500 H     1 <1>   0.0800 
 40 H       -1.4790    -3.7700    -0.4840 H     1 <1>   0.1500 
 41 H       -0.5320     8.2310    -0.4430 H     1 <1>   0.0800 
 42 H       -0.3540     6.8150    -1.4740 H     1 <1>   0.0800 
 43 H        0.6360     6.9860    -0.0120 H     1 <1>   0.0800 
 44 H       -0.1290    -6.1220     0.7480 H     1 <1>   0.0800 
 45 H       -0.4820    -6.5520    -0.9140 H     1 <1>   0.0800 
 46 H       -1.0380    -7.5730     0.3920 H     1 <1>   0.0800 
@<TRIPOS>BOND
  1   1   2  2   
  2   2   3  am  
  3   2   4  1   
  4   3   5  1   
  5   3   6  1   
  6   4   7  ar  
  7   4   8  ar  
  8   5   9  1   
  9   5  25  1   
 10   5  26  1   
 11   6  10  1   
 12   6  27  1   
 13   6  28  1   
 14   7  11  ar  
 15   7  12  1   
 16   8  13  ar  
 17   8  29  1   
 18   9  10  1   
 19   9  14  1   
 20   9  30  1   
 21  10  15  1   
 22  10  31  1   
 23  11  16  ar  
 24  11  32  1   
 25  12  33  1   
 26  12  34  1   
 27  12  35  1   
 28  13  16  ar  
 29  13  36  1   
 30  14  37  1   
 31  15  17  1   
 32  15  38  1   
 33  15  39  1   
 34  16  18  1   
 35  17  19  1   
 36  17  20  2   
 37  18  21  1   
 38  19  22  1   
 39  20  23  1   
 40  20  40  1   
 41  21  41  1   
 42  21  42  1   
 43  21  43  1   
 44  22  23  2   
 45  23  24  1   
 46  24  44  1   
 47  24  45  1   
 48  24  46  1   
@<TRIPOS>SUBSTRUCTURE
  1 ****   3 GROUP 4 **** **** 0

# MOE 2024.06 (io_trps.svl 2023.06)
