@<TRIPOS>MOLECULE
NONAME
49 53 1 0 0 
SMALL
USER_CHARGES


@<TRIPOS>ATOM
  1 S        0.7600     1.3930     2.7760 S.3   1 <1>  -0.0800 
  2 C       -0.4900     1.5590     1.5530 C.2   1 <1>  -0.1400 
  3 C       -0.2460     0.2850     3.7000 C.2   1 <1>  -0.1100 
  4 C       -1.5650     0.8250     1.8720 C.2   1 <1>  -0.1810 
  5 C       -0.3240     2.4340     0.3170 C.3   1 <1>   0.4600 
  6 C       -1.4320     0.0900     3.0920 C.2   1 <1>  -0.1500 
  7 C       -2.7710     0.8360     0.9600 C.3   1 <1>   0.0210 
  8 O       -1.4390     2.2350    -0.5320 O.3   1 <1>  -0.5600 
  9 C        0.9080     2.0100    -0.4920 C.3   1 <1>  -0.1600 
 10 C       -0.2400     3.9220     0.6860 C.3   1 <1>  -0.1600 
 11 C       -2.7090     2.0860     0.0600 C.3   1 <1>   0.1200 
 12 C        1.1280     2.9140    -1.7070 C.3   1 <1>   0.1400 
 13 C       -0.0200     4.7880    -0.5550 C.3   1 <1>   0.1400 
 14 N        1.2160     4.3290    -1.2470 N.am  1 <1>  -0.6600 
 15 C        2.3540     5.0710    -1.4470 C.2   1 <1>   0.5690 
 16 O        3.2630     4.6640    -2.1320 O.2   1 <1>  -0.5700 
 17 C        2.4990     6.4460    -0.8240 C.3   1 <1>  -0.0990 
 18 C        3.9610     6.8640    -0.6790 C.3   1 <1>   0.3640 
 19 N        4.6380     6.0300     0.3340 N.am  1 <1>  -0.7300 
 20 C        4.0940     8.2460    -0.0460 C.ar  1 <1>  -0.1440 
 21 C        5.1210     6.7630     1.3590 C.2   1 <1>   0.5440 
 22 C        4.7780     8.1400     1.1530 C.ar  1 <1>   0.0860 
 23 C        3.6470     9.4710    -0.5070 C.ar  1 <1>  -0.1500 
 24 O        5.7520     6.2790     2.2740 O.2   1 <1>  -0.5700 
 25 C        5.0160     9.2760     1.9160 C.ar  1 <1>  -0.1500 
 26 C        3.8860    10.6030     0.2580 C.ar  1 <1>  -0.1500 
 27 C        4.5670    10.5060     1.4640 C.ar  1 <1>  -0.1500 
 28 H        0.1650    -0.1080     4.6120 H     1 <1>   0.1500 
 29 H       -2.2240    -0.5440     3.4520 H     1 <1>   0.1500 
 30 H       -3.6740     0.8590     1.5410 H     1 <1>   0.0800 
 31 H       -2.7760    -0.0520     0.3540 H     1 <1>   0.0800 
 32 H        0.7900     0.9900    -0.8090 H     1 <1>   0.0800 
 33 H        1.7840     2.0580     0.1280 H     1 <1>   0.0800 
 34 H        0.5820     4.0740     1.3610 H     1 <1>   0.0800 
 35 H       -1.1330     4.2260     1.1980 H     1 <1>   0.0800 
 36 H       -2.9230     2.9700     0.6350 H     1 <1>   0.0800 
 37 H       -3.4320     2.0080    -0.7320 H     1 <1>   0.0800 
 38 H        0.3060     2.8140    -2.3960 H     1 <1>   0.0800 
 39 H        2.0280     2.6170    -2.2180 H     1 <1>   0.0800 
 40 H        0.0390     5.8240    -0.2780 H     1 <1>   0.0800 
 41 H       -0.8560     4.6790    -1.2270 H     1 <1>   0.0800 
 42 H        2.0510     6.4650     0.1500 H     1 <1>   0.0800 
 43 H        1.9900     7.1500    -1.4530 H     1 <1>   0.0800 
 44 H        4.4900     6.8200    -1.6180 H     1 <1>   0.0800 
 45 H        4.8690     5.0490     0.1680 H     1 <1>   0.3700 
 46 H        3.1220     9.5520    -1.4430 H     1 <1>   0.1500 
 47 H        5.5480     9.1830     2.8470 H     1 <1>   0.1500 
 48 H        3.5440    11.5640    -0.0860 H     1 <1>   0.1500 
 49 H        4.7480    11.3900     2.0500 H     1 <1>   0.1500 
@<TRIPOS>BOND
  1   1   2  1   
  2   1   3  1   
  3   2   4  2   
  4   2   5  1   
  5   3   6  2   
  6   3  28  1   
  7   4   6  1   
  8   4   7  1   
  9   5   8  1   
 10   5   9  1   
 11   5  10  1   
 12   6  29  1   
 13   7  11  1   
 14   7  30  1   
 15   7  31  1   
 16   8  11  1   
 17   9  12  1   
 18   9  32  1   
 19   9  33  1   
 20  10  13  1   
 21  10  34  1   
 22  10  35  1   
 23  11  36  1   
 24  11  37  1   
 25  12  14  1   
 26  12  38  1   
 27  12  39  1   
 28  13  14  1   
 29  13  40  1   
 30  13  41  1   
 31  14  15  am  
 32  15  16  2   
 33  15  17  1   
 34  17  18  1   
 35  17  42  1   
 36  17  43  1   
 37  18  19  1   
 38  18  20  1   
 39  18  44  1   
 40  19  21  am  
 41  19  45  1   
 42  20  22  ar  
 43  20  23  ar  
 44  21  22  1   
 45  21  24  2   
 46  22  25  ar  
 47  23  26  ar  
 48  23  46  1   
 49  25  27  ar  
 50  25  47  1   
 51  26  27  ar  
 52  26  48  1   
 53  27  49  1   
@<TRIPOS>SUBSTRUCTURE
  1 ****  14 GROUP 4 **** **** 0

# MOE 2024.06 (io_trps.svl 2023.06)
