@<TRIPOS>MOLECULE
NONAME
63 65 1 0 0 
SMALL
USER_CHARGES


@<TRIPOS>ATOM
  1 O       -2.9420    -0.1980    -2.7840 O.2   1 <1>  -0.5700 
  2 C       -2.9170    -0.6730    -1.6720 C.2   1 <1>   0.5690 
  3 N       -2.5460     0.0570    -0.5810 N.am  1 <1>  -0.6600 
  4 C       -3.3060    -2.1260    -1.5200 C.3   1 <1>  -0.0190 
  5 C       -2.5980    -0.5110     0.7960 C.3   1 <1>   0.2200 
  6 C       -2.1260     1.4830    -0.6900 C.3   1 <1>   0.0600 
  7 C       -2.1230    -2.9580    -0.9910 C.3   1 <1>   0.1200 
  8 C       -4.6590    -2.2740    -0.7970 C.3   1 <1>   0.1400 
  9 C       -1.5880    -1.6740     0.9710 C.3   1 <1>   0.1200 
 10 C       -4.0570    -0.8110     1.2130 C.3   1 <1>   0.1400 
 11 O       -1.9580    -2.8980     0.3930 O.3   1 <1>  -0.5600 
 12 N       -4.6150    -2.1030     0.6920 N.am  1 <1>  -0.6600 
 13 C       -4.9100    -3.1330     1.5670 C.2   1 <1>   0.5440 
 14 O       -4.9730    -2.9030     2.7610 O.2   1 <1>  -0.5700 
 15 C       -5.1410    -4.4830     1.1000 C.ar  1 <1>   0.0860 
 16 C       -6.4010    -4.9060     0.7040 C.ar  1 <1>  -0.1500 
 17 C       -4.0960    -5.3900     1.0230 C.ar  1 <1>  -0.1500 
 18 C       -6.6440    -6.1860     0.2200 C.ar  1 <1>  -0.1430 
 19 C       -4.2480    -6.6880     0.5540 C.ar  1 <1>  -0.1430 
 20 C       -5.5440    -7.0600     0.1520 C.ar  1 <1>   0.0830 
 21 C       -8.0880    -6.5930    -0.2120 C.3   1 <1>   0.1430 
 22 C       -2.9520    -7.5600     0.5460 C.3   1 <1>   0.1430 
 23 O       -5.7380    -8.2960    -0.3110 O.3   1 <1>  -0.5320 
 24 C       -8.1300    -6.9710    -1.7040 C.3   1 <1>  -0.2400 
 25 C       -8.6070    -7.7610     0.6460 C.3   1 <1>  -0.2400 
 26 C       -9.1210    -5.4590    -0.0390 C.3   1 <1>  -0.2400 
 27 C       -1.8750    -6.8670    -0.3090 C.3   1 <1>  -0.2400 
 28 C       -3.0670    -8.9970    -0.0040 C.3   1 <1>  -0.2400 
 29 C       -2.4340    -7.6960     1.9890 C.3   1 <1>  -0.2400 
 30 H       -3.4760    -2.4760    -2.5210 H     1 <1>   0.0800 
 31 H       -2.2620     0.2660     1.4600 H     1 <1>   0.0800 
 32 H       -1.1400     1.6060    -0.2780 H     1 <1>   0.0800 
 33 H       -2.8180     2.1090    -0.1530 H     1 <1>   0.0800 
 34 H       -2.1070     1.8000    -1.7180 H     1 <1>   0.0800 
 35 H       -1.2030    -2.6520    -1.4580 H     1 <1>   0.0800 
 36 H       -2.2940    -3.9920    -1.2320 H     1 <1>   0.0800 
 37 H       -5.0570    -3.2420    -1.0420 H     1 <1>   0.0800 
 38 H       -5.3450    -1.5490    -1.1980 H     1 <1>   0.0800 
 39 H       -1.4750    -1.8670     2.0230 H     1 <1>   0.0800 
 40 H       -0.6270    -1.3910     0.5790 H     1 <1>   0.0800 
 41 H       -4.6900    -0.0040     0.8910 H     1 <1>   0.0800 
 42 H       -4.0860    -0.8150     2.2870 H     1 <1>   0.0800 
 43 H       -7.1760    -4.1720     0.8000 H     1 <1>   0.1500 
 44 H       -3.1400    -5.0290     1.3550 H     1 <1>   0.1500 
 45 H       -4.9170    -8.8180    -0.2850 H     1 <1>   0.4500 
 46 H       -9.1400    -7.1530    -2.0230 H     1 <1>   0.0800 
 47 H       -7.5670    -7.8610    -1.9030 H     1 <1>   0.0800 
 48 H       -7.7200    -6.1730    -2.2960 H     1 <1>   0.0800 
 49 H       -9.6350    -7.9760     0.4190 H     1 <1>   0.0800 
 50 H       -8.5290    -7.5110     1.6890 H     1 <1>   0.0800 
 51 H       -8.0460    -8.6590     0.4750 H     1 <1>   0.0800 
 52 H      -10.0990    -5.7840    -0.3460 H     1 <1>   0.0800 
 53 H       -8.8560    -4.6080    -0.6410 H     1 <1>   0.0800 
 54 H       -9.1860    -5.1590     0.9920 H     1 <1>   0.0800 
 55 H       -0.9870    -7.4700    -0.3710 H     1 <1>   0.0800 
 56 H       -1.5870    -5.9190     0.1050 H     1 <1>   0.0800 
 57 H       -2.2470    -6.7030    -1.3040 H     1 <1>   0.0800 
 58 H       -2.1090    -9.4860     0.0310 H     1 <1>   0.0800 
 59 H       -3.3810    -8.9930    -1.0330 H     1 <1>   0.0800 
 60 H       -3.7370    -9.5880     0.5960 H     1 <1>   0.0800 
 61 H       -1.5520    -8.3110     2.0250 H     1 <1>   0.0800 
 62 H       -3.1890    -8.1450     2.6090 H     1 <1>   0.0800 
 63 H       -2.1820    -6.7410     2.4110 H     1 <1>   0.0800 
@<TRIPOS>BOND
  1   1   2  2   
  2   2   3  am  
  3   2   4  1   
  4   3   5  1   
  5   3   6  1   
  6   4   7  1   
  7   4   8  1   
  8   4  30  1   
  9   5   9  1   
 10   5  10  1   
 11   5  31  1   
 12   6  32  1   
 13   6  33  1   
 14   6  34  1   
 15   7  11  1   
 16   7  35  1   
 17   7  36  1   
 18   8  12  1   
 19   8  37  1   
 20   8  38  1   
 21   9  11  1   
 22   9  39  1   
 23   9  40  1   
 24  10  12  1   
 25  10  41  1   
 26  10  42  1   
 27  12  13  am  
 28  13  14  2   
 29  13  15  1   
 30  15  16  ar  
 31  15  17  ar  
 32  16  18  ar  
 33  16  43  1   
 34  17  19  ar  
 35  17  44  1   
 36  18  20  ar  
 37  18  21  1   
 38  19  20  ar  
 39  19  22  1   
 40  20  23  1   
 41  21  24  1   
 42  21  25  1   
 43  21  26  1   
 44  22  27  1   
 45  22  28  1   
 46  22  29  1   
 47  23  45  1   
 48  24  46  1   
 49  24  47  1   
 50  24  48  1   
 51  25  49  1   
 52  25  50  1   
 53  25  51  1   
 54  26  52  1   
 55  26  53  1   
 56  26  54  1   
 57  27  55  1   
 58  27  56  1   
 59  27  57  1   
 60  28  58  1   
 61  28  59  1   
 62  28  60  1   
 63  29  61  1   
 64  29  62  1   
 65  29  63  1   
@<TRIPOS>SUBSTRUCTURE
  1 ****  15 GROUP 4 **** **** 0

# MOE 2024.06 (io_trps.svl 2023.06)
