@<TRIPOS>MOLECULE
NONAME
37 39 1 0 0 
SMALL
USER_CHARGES


@<TRIPOS>ATOM
  1 S       -2.1570     0.7620     2.3920 S.3   1 <1>  -0.0800 
  2 C       -1.9730     0.4270     0.6780 C.2   1 <1>   0.3020 
  3 C       -1.4140     2.3100     2.1660 C.2   1 <1>  -0.1100 
  4 N       -1.4150     1.3970     0.0470 N.2   1 <1>  -0.5650 
  5 N       -2.4430    -0.8340     0.1970 N.pl3 1 <1>   0.6460 
  6 C       -1.0830     2.4860     0.8670 C.2   1 <1>   0.1410 
  7 N       -3.4300    -1.5260     0.8440 N.2   1 <1>  -0.7070 
  8 C       -2.0610    -1.5540    -0.8910 C.2   1 <1>  -0.3320 
  9 C       -0.4380     3.6760     0.3150 C.2   1 <1>   0.7160 
 10 C       -3.6330    -2.6050     0.1690 C.2   1 <1>   0.1080 
 11 C       -2.8030    -2.6840    -0.9370 C.2   1 <1>  -0.1500 
 12 C       -0.9680    -1.0870    -1.8190 C.3   1 <1>   1.2000 
 13 O        0.0970     3.6810    -0.7780 O.2   1 <1>  -0.5700 
 14 N       -0.4060     4.8430     1.0340 N.am  1 <1>  -0.7300 
 15 C       -4.6630    -3.6370     0.5690 C.3   1 <1>  -0.0590 
 16 F       -1.3090    -0.0200    -2.5230 F     1 <1>  -0.3400 
 17 F       -0.6630    -2.0260    -2.7060 F     1 <1>  -0.3400 
 18 F        0.1600    -0.8090    -1.1820 F     1 <1>  -0.3400 
 19 C        0.1070     6.1380     0.5130 C.3   1 <1>   0.1400 
 20 C        1.6340     6.1150     0.4090 C.3   1 <1>   0.0960 
 21 N        2.1090     7.3950    -0.1330 N.pl3 1 <1>   0.3140 
 22 N        2.0250     8.5340     0.5420 N.2   1 <1>  -0.7070 
 23 C        2.6640     7.6430    -1.3220 C.2   1 <1>   0.0360 
 24 C        2.5390     9.3840    -0.2860 C.2   1 <1>   0.3660 
 25 N        2.9510     8.8880    -1.4590 N.2   1 <1>  -0.5650 
 26 H       -1.2950     2.9320     3.0340 H     1 <1>   0.1500 
 27 H       -2.7780    -3.4890    -1.6540 H     1 <1>   0.1500 
 28 H       -0.9480     4.8980     1.8970 H     1 <1>   0.3700 
 29 H       -4.4340    -4.0110     1.5500 H     1 <1>   0.0800 
 30 H       -4.6690    -4.4540    -0.1270 H     1 <1>   0.0800 
 31 H       -5.6370    -3.1840     0.5900 H     1 <1>   0.0800 
 32 H       -0.2000     6.9340     1.1710 H     1 <1>   0.0800 
 33 H       -0.3170     6.3140    -0.4630 H     1 <1>   0.0800 
 34 H        1.9560     5.3250    -0.2440 H     1 <1>   0.0800 
 35 H        2.0700     5.9780     1.3810 H     1 <1>   0.0800 
 36 H        2.8380     6.8810    -2.0600 H     1 <1>   0.1500 
 37 H        2.6390    10.4360    -0.0690 H     1 <1>   0.1500 
@<TRIPOS>BOND
  1   1   2  1   
  2   1   3  1   
  3   2   4  2   
  4   2   5  1   
  5   3   6  2   
  6   3  26  1   
  7   4   6  1   
  8   5   7  1   
  9   5   8  1   
 10   6   9  1   
 11   7  10  2   
 12   8  11  2   
 13   8  12  1   
 14   9  13  2   
 15   9  14  am  
 16  10  11  1   
 17  10  15  1   
 18  11  27  1   
 19  12  16  1   
 20  12  17  1   
 21  12  18  1   
 22  14  19  1   
 23  14  28  1   
 24  15  29  1   
 25  15  30  1   
 26  15  31  1   
 27  19  20  1   
 28  19  32  1   
 29  19  33  1   
 30  20  21  1   
 31  20  34  1   
 32  20  35  1   
 33  21  22  1   
 34  21  23  1   
 35  22  24  2   
 36  23  25  2   
 37  23  36  1   
 38  24  25  1   
 39  24  37  1   
@<TRIPOS>SUBSTRUCTURE
  1 ****   6 GROUP 4 **** **** 0

# MOE 2024.06 (io_trps.svl 2023.06)
