@<TRIPOS>MOLECULE
NONAME
56 61 1 0 0 
SMALL
USER_CHARGES


@<TRIPOS>ATOM
  1 O        3.1980    -1.5050     1.5130 O.co2 1 <1>  -0.9000 
  2 C        3.3270    -0.9920     0.4040 C.2   1 <1>   0.9060 
  3 O        3.3370    -1.6290    -0.6560 O.co2 1 <1>  -0.9000 
  4 C        3.5060     0.5080     0.3250 C.3   1 <1>  -0.1860 
  5 C        4.7740     0.8350    -0.4710 C.3   1 <1>   0.2000 
  6 C        2.2520     1.2190    -0.2500 C.3   1 <1>  -0.1600 
  7 O        4.6130     0.3640    -1.7640 O.3   1 <1>  -0.6800 
  8 C        4.9970     2.3590    -0.5350 C.3   1 <1>   0.3430 
  9 C        2.5860     2.3790    -1.1920 C.3   1 <1>   0.3430 
 10 N        3.7180     3.1700    -0.6300 N.4   1 <1>  -0.9590 
 11 C        3.9360     4.4250    -1.3870 C.3   1 <1>   0.4860 
 12 C        4.9720     5.2590    -0.6600 C.ar  1 <1>  -0.1440 
 13 C        6.2670     5.3430    -1.1550 C.ar  1 <1>  -0.1500 
 14 C        4.6330     5.9330     0.5080 C.ar  1 <1>  -0.1500 
 15 C        7.2150     6.0840    -0.4730 C.ar  1 <1>  -0.1440 
 16 C        5.5800     6.6760     1.1920 C.ar  1 <1>  -0.1500 
 17 C        6.8720     6.7470     0.7030 C.ar  1 <1>  -0.1440 
 18 C        8.6860     6.2680    -0.8870 C.3   1 <1>   0.3500 
 19 C        8.0320     7.5190     1.3510 C.3   1 <1>   0.3500 
 20 C        9.4830     5.8090     0.3420 C.ar  1 <1>  -0.1440 
 21 C        8.8860     7.7890    -0.9390 C.ar  1 <1>  -0.1440 
 22 C        9.1390     6.4680     1.5210 C.ar  1 <1>  -0.1440 
 23 C        8.5410     8.4480     0.2390 C.ar  1 <1>  -0.1440 
 24 C       10.4680     4.8360     0.3500 C.ar  1 <1>  -0.1500 
 25 C        9.3610     8.5050    -2.0250 C.ar  1 <1>  -0.1500 
 26 C        9.7790     6.1540     2.7070 C.ar  1 <1>  -0.1500 
 27 C        8.6700     9.8230     0.3320 C.ar  1 <1>  -0.1500 
 28 C       11.1050     4.5230     1.5390 C.ar  1 <1>  -0.1500 
 29 C        9.4890     9.8810    -1.9290 C.ar  1 <1>  -0.1500 
 30 C       10.7630     5.1780     2.7120 C.ar  1 <1>  -0.1500 
 31 C        9.1450    10.5370    -0.7570 C.ar  1 <1>  -0.1500 
 32 H        3.6570     0.8490     1.3320 H     1 <1>   0.0800 
 33 H        5.6320     0.3370    -0.0500 H     1 <1>   0.0800 
 34 H        1.6300     1.5590     0.5590 H     1 <1>   0.0800 
 35 H        1.6690     0.5080    -0.8110 H     1 <1>   0.0800 
 36 H        4.1980    -0.5500    -1.6670 H     1 <1>   0.4000 
 37 H        5.6300     2.5580    -1.3830 H     1 <1>   0.0800 
 38 H        5.5330     2.6650     0.3480 H     1 <1>   0.0800 
 39 H        1.7130     2.9970    -1.3270 H     1 <1>   0.0800 
 40 H        2.8730     1.9780    -2.1510 H     1 <1>   0.0800 
 41 H        3.4640     3.4200     0.3320 H     1 <1>   0.4500 
 42 H        4.2780     4.1990    -2.3840 H     1 <1>   0.0800 
 43 H        3.0160     4.9820    -1.4590 H     1 <1>   0.0800 
 44 H        6.5480     4.8380    -2.0640 H     1 <1>   0.1500 
 45 H        3.6310     5.8910     0.8980 H     1 <1>   0.1500 
 46 H        5.3130     7.1970     2.0960 H     1 <1>   0.1500 
 47 H        8.9550     5.7630    -1.7960 H     1 <1>   0.0800 
 48 H        7.7690     8.0290     2.2600 H     1 <1>   0.0800 
 49 H       10.7430     4.3270    -0.5570 H     1 <1>   0.1500 
 50 H        9.6320     8.0030    -2.9370 H     1 <1>   0.1500 
 51 H        9.5200     6.6610     3.6200 H     1 <1>   0.1500 
 52 H        8.4060    10.3380     1.2380 H     1 <1>   0.1500 
 53 H       11.8720     3.7680     1.5540 H     1 <1>   0.1500 
 54 H        9.8580    10.4450    -2.7680 H     1 <1>   0.1500 
 55 H       11.2660     4.9300     3.6300 H     1 <1>   0.1500 
 56 H        9.2480    11.6060    -0.6920 H     1 <1>   0.1500 
@<TRIPOS>BOND
  1   1   2  ar  
  2   2   3  ar  
  3   2   4  1   
  4   4   5  1   
  5   4   6  1   
  6   4  32  1   
  7   5   7  1   
  8   5   8  1   
  9   5  33  1   
 10   6   9  1   
 11   6  34  1   
 12   6  35  1   
 13   7  36  1   
 14   8  10  1   
 15   8  37  1   
 16   8  38  1   
 17   9  10  1   
 18   9  39  1   
 19   9  40  1   
 20  10  11  1   
 21  10  41  1   
 22  11  12  1   
 23  11  42  1   
 24  11  43  1   
 25  12  13  ar  
 26  12  14  ar  
 27  13  15  ar  
 28  13  44  1   
 29  14  16  ar  
 30  14  45  1   
 31  15  17  ar  
 32  15  18  1   
 33  16  17  ar  
 34  16  46  1   
 35  17  19  1   
 36  18  20  1   
 37  18  21  1   
 38  18  47  1   
 39  19  22  1   
 40  19  23  1   
 41  19  48  1   
 42  20  22  ar  
 43  20  24  ar  
 44  21  23  ar  
 45  21  25  ar  
 46  22  26  ar  
 47  23  27  ar  
 48  24  28  ar  
 49  24  49  1   
 50  25  29  ar  
 51  25  50  1   
 52  26  30  ar  
 53  26  51  1   
 54  27  31  ar  
 55  27  52  1   
 56  28  30  ar  
 57  28  53  1   
 58  29  31  ar  
 59  29  54  1   
 60  30  55  1   
 61  31  56  1   
@<TRIPOS>SUBSTRUCTURE
  1 ****  13 GROUP 4 **** **** 0

# MOE 2024.06 (io_trps.svl 2023.06)
