@<TRIPOS>MOLECULE
NONAME
45 47 1 0 0 
SMALL
USER_CHARGES


@<TRIPOS>ATOM
  1 O        1.9620    -0.4410     1.9600 O.3   1 <1>  -0.6800 
  2 C        2.7630     0.4790     1.2950 C.3   1 <1>   0.2000 
  3 C        3.5820    -0.2100     0.1690 C.3   1 <1>   0.0000 
  4 C        1.8490     1.6160     0.8070 C.3   1 <1>  -0.1600 
  5 C        4.4400     0.8770    -0.5410 C.3   1 <1>   0.2090 
  6 C        2.6030    -0.8760    -0.8380 C.3   1 <1>   0.1200 
  7 C        4.5110    -1.3240     0.7430 C.3   1 <1>  -0.1600 
  8 C        2.4350     2.4020    -0.3710 C.3   1 <1>   0.2090 
  9 N        3.9100     2.2720    -0.3890 N.pl3 1 <1>  -0.8380 
 10 O        3.2700    -1.4780    -1.9030 O.3   1 <1>  -0.6800 
 11 C        5.4050    -0.9250     1.9350 C.3   1 <1>  -0.1600 
 12 C        4.6680     3.2380     0.2330 C.ar  1 <1>   0.4100 
 13 C        6.3620    -2.0620     2.3010 C.3   1 <1>  -0.2400 
 14 N        5.2520     2.9020     1.3470 N.ar  1 <1>  -0.6200 
 15 C        4.7750     4.5440    -0.3080 C.ar  1 <1>   0.0000 
 16 C        5.9290     3.8660     1.9780 C.ar  1 <1>   0.4700 
 17 C        5.4970     5.4660     0.4570 C.ar  1 <1>   0.3100 
 18 C        4.2310     4.9690    -1.5370 C.ar  1 <1>  -0.1500 
 19 N        6.0770     5.1010     1.6190 N.ar  1 <1>  -0.6200 
 20 C        5.6270     6.7850     0.0000 C.ar  1 <1>  -0.1500 
 21 C        4.3730     6.2630    -1.9690 C.ar  1 <1>  -0.1500 
 22 C        5.0750     7.1840    -1.1900 C.ar  1 <1>  -0.1500 
 23 H        1.5970    -0.0380     2.7700 H     1 <1>   0.4000 
 24 H        3.4500     0.8940     2.0130 H     1 <1>   0.0800 
 25 H        0.8910     1.2310     0.5090 H     1 <1>   0.0800 
 26 H        1.6940     2.2990     1.6220 H     1 <1>   0.0800 
 27 H        4.5260     0.6620    -1.5900 H     1 <1>   0.0800 
 28 H        5.4440     0.8540    -0.1580 H     1 <1>   0.0800 
 29 H        1.9080    -0.1680    -1.2490 H     1 <1>   0.0800 
 30 H        2.0390    -1.6460    -0.3400 H     1 <1>   0.0800 
 31 H        3.8980    -2.1510     1.0580 H     1 <1>   0.0800 
 32 H        5.1400    -1.6900    -0.0500 H     1 <1>   0.0800 
 33 H        2.1530     3.4380    -0.2890 H     1 <1>   0.0800 
 34 H        2.0450     2.0280    -1.3020 H     1 <1>   0.0800 
 35 H        3.6530    -0.8090    -2.5000 H     1 <1>   0.4000 
 36 H        5.9810    -0.0450     1.7090 H     1 <1>   0.0800 
 37 H        4.7920    -0.7080     2.7930 H     1 <1>   0.0800 
 38 H        7.0130    -2.2880     1.4750 H     1 <1>   0.0800 
 39 H        5.8090    -2.9480     2.5600 H     1 <1>   0.0800 
 40 H        6.9660    -1.7770     3.1440 H     1 <1>   0.0800 
 41 H        6.4000     3.5640     2.8980 H     1 <1>   0.1500 
 42 H        3.7020     4.2540    -2.1410 H     1 <1>   0.1500 
 43 H        6.1780     7.4750     0.6130 H     1 <1>   0.1500 
 44 H        3.9510     6.5800    -2.9080 H     1 <1>   0.1500 
 45 H        5.1800     8.1990    -1.5340 H     1 <1>   0.1500 
@<TRIPOS>BOND
  1   1   2  1   
  2   1  23  1   
  3   2   3  1   
  4   2   4  1   
  5   2  24  1   
  6   3   5  1   
  7   3   6  1   
  8   3   7  1   
  9   4   8  1   
 10   4  25  1   
 11   4  26  1   
 12   5   9  1   
 13   5  27  1   
 14   5  28  1   
 15   6  10  1   
 16   6  29  1   
 17   6  30  1   
 18   7  11  1   
 19   7  31  1   
 20   7  32  1   
 21   8   9  1   
 22   8  33  1   
 23   8  34  1   
 24   9  12  1   
 25  10  35  1   
 26  11  13  1   
 27  11  36  1   
 28  11  37  1   
 29  12  14  ar  
 30  12  15  ar  
 31  13  38  1   
 32  13  39  1   
 33  13  40  1   
 34  14  16  ar  
 35  15  17  ar  
 36  15  18  ar  
 37  16  19  ar  
 38  16  41  1   
 39  17  19  ar  
 40  17  20  ar  
 41  18  21  ar  
 42  18  42  1   
 43  20  22  ar  
 44  20  43  1   
 45  21  22  ar  
 46  21  44  1   
 47  22  45  1   
@<TRIPOS>SUBSTRUCTURE
  1 ****   9 GROUP 4 **** **** 0

# MOE 2024.06 (io_trps.svl 2023.06)
