@<TRIPOS>MOLECULE
NONAME
45 47 1 0 0 
SMALL
USER_CHARGES


@<TRIPOS>ATOM
  1 CL      -0.6560    -0.4260     1.6330 Cl    1 <1>  -0.1770 
  2 C       -0.6300    -2.0260     0.9170 C.ar  1 <1>   0.1770 
  3 C       -1.7850    -2.5310     0.3220 C.ar  1 <1>   0.1170 
  4 C        0.5520    -2.7390     0.9580 C.ar  1 <1>  -0.1500 
  5 N       -2.9520    -1.7460     0.3250 N.am  1 <1>  -0.5470 
  6 C       -1.7150    -3.7960    -0.2740 C.ar  1 <1>  -0.1430 
  7 C        0.6010    -3.9950     0.3830 C.ar  1 <1>  -0.1500 
  8 C       -4.1860    -2.0470     0.8220 C.2   1 <1>   0.6900 
  9 C       -0.5280    -4.5130    -0.2290 C.ar  1 <1>  -0.1500 
 10 C       -2.9060    -4.4240    -0.9890 C.3   1 <1>  -0.0960 
 11 O       -4.3830    -3.1010     1.3970 O.2   1 <1>  -0.5700 
 12 N       -5.1900    -1.1230     0.6870 N.am  1 <1>  -0.6600 
 13 C       -6.5070    -1.3300     1.3560 C.3   1 <1>   0.1400 
 14 C       -5.1660    -0.0320    -0.3360 C.3   1 <1>   0.1400 
 15 C       -7.5800    -1.7540     0.3270 C.3   1 <1>   0.0000 
 16 C       -6.5750     0.2820    -0.8710 C.3   1 <1>  -0.1600 
 17 C       -8.9810    -1.5770     0.9410 C.3   1 <1>   0.2000 
 18 C       -7.4010    -1.0040    -1.0320 C.3   1 <1>  -0.1600 
 19 C       -7.5670    -3.2700     0.0750 C.3   1 <1>  -0.1600 
 20 O       -9.4490    -0.2790     0.8360 O.3   1 <1>  -0.6800 
 21 C       -9.9020    -2.5460     0.1990 C.3   1 <1>  -0.1600 
 22 C       -8.9780    -3.6090    -0.4140 C.3   1 <1>  -0.1600 
 23 H        1.4180    -2.3160     1.4330 H     1 <1>   0.1500 
 24 H       -2.7890    -0.7440     0.3110 H     1 <1>   0.3700 
 25 H        1.5120    -4.5680     0.4100 H     1 <1>   0.1500 
 26 H       -0.4760    -5.4910    -0.6760 H     1 <1>   0.1500 
 27 H       -2.5800    -5.1420    -1.7180 H     1 <1>   0.0800 
 28 H       -3.4860    -3.6740    -1.4960 H     1 <1>   0.0800 
 29 H       -3.5360    -4.9240    -0.2740 H     1 <1>   0.0800 
 30 H       -6.4270    -2.0600     2.1430 H     1 <1>   0.0800 
 31 H       -6.7990    -0.4010     1.8160 H     1 <1>   0.0800 
 32 H       -4.7340     0.8540     0.0960 H     1 <1>   0.0800 
 33 H       -4.5520    -0.3430    -1.1640 H     1 <1>   0.0800 
 34 H       -7.0720     0.9540    -0.1920 H     1 <1>   0.0800 
 35 H       -6.4880     0.7870    -1.8170 H     1 <1>   0.0800 
 36 H       -8.9620    -1.8370     1.9870 H     1 <1>   0.0800 
 37 H       -6.8660    -1.6330    -1.7230 H     1 <1>   0.0800 
 38 H       -8.3480    -0.7860    -1.4910 H     1 <1>   0.0800 
 39 H       -6.8030    -3.5770    -0.6180 H     1 <1>   0.0800 
 40 H       -7.3900    -3.7880     1.0030 H     1 <1>   0.0800 
 41 H       -9.4380    -0.0080    -0.1000 H     1 <1>   0.4000 
 42 H      -10.5930    -2.9960     0.8900 H     1 <1>   0.0800 
 43 H      -10.4510    -2.0480    -0.5810 H     1 <1>   0.0800 
 44 H       -9.2630    -4.6040    -0.1180 H     1 <1>   0.0800 
 45 H       -9.0150    -3.5430    -1.4880 H     1 <1>   0.0800 
@<TRIPOS>BOND
  1   1   2  1   
  2   2   3  ar  
  3   2   4  ar  
  4   3   5  1   
  5   3   6  ar  
  6   4   7  ar  
  7   4  23  1   
  8   5   8  am  
  9   5  24  1   
 10   6   9  ar  
 11   6  10  1   
 12   7   9  ar  
 13   7  25  1   
 14   8  11  2   
 15   8  12  am  
 16   9  26  1   
 17  10  27  1   
 18  10  28  1   
 19  10  29  1   
 20  12  13  1   
 21  12  14  1   
 22  13  15  1   
 23  13  30  1   
 24  13  31  1   
 25  14  16  1   
 26  14  32  1   
 27  14  33  1   
 28  15  17  1   
 29  15  18  1   
 30  15  19  1   
 31  16  18  1   
 32  16  34  1   
 33  16  35  1   
 34  17  20  1   
 35  17  21  1   
 36  17  36  1   
 37  18  37  1   
 38  18  38  1   
 39  19  22  1   
 40  19  39  1   
 41  19  40  1   
 42  20  41  1   
 43  21  22  1   
 44  21  42  1   
 45  21  43  1   
 46  22  44  1   
 47  22  45  1   
@<TRIPOS>SUBSTRUCTURE
  1 ****   8 GROUP 4 **** **** 0

# MOE 2024.06 (io_trps.svl 2023.06)
