@<TRIPOS>MOLECULE
NONAME
51 54 1 0 0 
SMALL
USER_CHARGES


@<TRIPOS>ATOM
  1 F        0.9140    -0.5840     1.2310 F     1 <1>  -0.1900 
  2 C        0.9410    -1.8780     1.0540 C.ar  1 <1>   0.1900 
  3 C        1.7280    -2.3980     0.0480 C.ar  1 <1>  -0.1500 
  4 C        0.1780    -2.6810     1.8770 C.ar  1 <1>  -0.1500 
  5 C        1.7530    -3.7710    -0.1340 C.ar  1 <1>  -0.1500 
  6 C        0.2130    -4.0510     1.6840 C.ar  1 <1>  -0.1500 
  7 C        1.0080    -4.6180     0.6870 C.ar  1 <1>  -0.1430 
  8 C        1.0210    -6.1470     0.4800 C.3   1 <1>   0.1430 
  9 C        2.3630    -6.6560    -0.0870 C.3   1 <1>  -0.1600 
 10 C        0.9290    -6.9130     1.8150 C.3   1 <1>  -0.1600 
 11 C       -0.1730    -6.4620    -0.4590 C.3   1 <1>   0.1400 
 12 C        2.5680    -8.0880     0.4170 C.3   1 <1>  -0.1600 
 13 C        1.6690    -8.2440     1.6430 C.3   1 <1>  -0.1600 
 14 N       -0.3360    -7.9020    -0.7850 N.am  1 <1>  -0.7300 
 15 C       -1.3390    -8.7260    -0.3650 C.2   1 <1>   0.7160 
 16 O       -2.2980    -8.2420     0.2130 O.2   1 <1>  -0.5700 
 17 C       -1.2200   -10.1580    -0.5970 C.2   1 <1>   0.2030 
 18 N       -0.1610   -10.7660    -1.1120 N.2   1 <1>  -0.7070 
 19 C       -2.2100   -11.0940    -0.3040 C.2   1 <1>  -0.1500 
 20 N       -0.4790   -12.0630    -1.1490 N.pl3 1 <1>   0.3140 
 21 C       -1.7150   -12.3100    -0.6480 C.2   1 <1>  -0.2370 
 22 C        0.4040   -13.0520    -1.8050 C.3   1 <1>   0.0960 
 23 C       -2.2830   -13.6200    -0.5270 C.2   1 <1>   0.7150 
 24 C        0.8870   -14.1630    -0.8550 C.3   1 <1>   0.2000 
 25 O       -3.4750   -13.8170    -0.5880 O.2   1 <1>  -0.5700 
 26 N       -1.4870   -14.6940    -0.2950 N.am  1 <1>  -0.7300 
 27 O        1.1380   -15.2880    -1.6250 O.3   1 <1>  -0.6800 
 28 C       -0.1090   -14.5660     0.2490 C.3   1 <1>   0.1400 
 29 H        2.3040    -1.7420    -0.5780 H     1 <1>   0.1500 
 30 H       -0.4290    -2.2410     2.6470 H     1 <1>   0.1500 
 31 H        2.3600    -4.1660    -0.9290 H     1 <1>   0.1500 
 32 H       -0.3930    -4.6720     2.3210 H     1 <1>   0.1500 
 33 H        3.1610    -6.0560     0.3160 H     1 <1>   0.0800 
 34 H        2.4010    -6.6010    -1.1610 H     1 <1>   0.0800 
 35 H       -0.0900    -7.0670     2.1240 H     1 <1>   0.0800 
 36 H        1.4390    -6.3500     2.5790 H     1 <1>   0.0800 
 37 H       -0.0460    -5.9180    -1.3780 H     1 <1>   0.0800 
 38 H       -1.0770    -6.0990     0.0000 H     1 <1>   0.0800 
 39 H        3.6010    -8.2590     0.6690 H     1 <1>   0.0800 
 40 H        2.2800    -8.7990    -0.3380 H     1 <1>   0.0800 
 41 H        0.9650    -9.0420     1.4800 H     1 <1>   0.0800 
 42 H        2.2460    -8.4730     2.5230 H     1 <1>   0.0800 
 43 H        0.4790    -8.3790    -1.1760 H     1 <1>   0.3700 
 44 H       -3.1730   -10.8690     0.1220 H     1 <1>   0.1500 
 45 H        1.2530   -12.5350    -2.2120 H     1 <1>   0.0800 
 46 H       -0.1530   -13.4810    -2.6170 H     1 <1>   0.0800 
 47 H        1.8220   -13.8720    -0.4060 H     1 <1>   0.0800 
 48 H       -1.9960   -15.5560    -0.0850 H     1 <1>   0.3700 
 49 H        0.2930   -15.6880    -1.9150 H     1 <1>   0.4000 
 50 H       -0.1070   -13.8130     1.0190 H     1 <1>   0.0800 
 51 H        0.2000   -15.4930     0.7010 H     1 <1>   0.0800 
@<TRIPOS>BOND
  1   1   2  1   
  2   2   3  ar  
  3   2   4  ar  
  4   3   5  ar  
  5   3  29  1   
  6   4   6  ar  
  7   4  30  1   
  8   5   7  ar  
  9   5  31  1   
 10   6   7  ar  
 11   6  32  1   
 12   7   8  1   
 13   8   9  1   
 14   8  10  1   
 15   8  11  1   
 16   9  12  1   
 17   9  33  1   
 18   9  34  1   
 19  10  13  1   
 20  10  35  1   
 21  10  36  1   
 22  11  14  1   
 23  11  37  1   
 24  11  38  1   
 25  12  13  1   
 26  12  39  1   
 27  12  40  1   
 28  13  41  1   
 29  13  42  1   
 30  14  15  am  
 31  14  43  1   
 32  15  16  2   
 33  15  17  1   
 34  17  18  2   
 35  17  19  1   
 36  18  20  1   
 37  19  21  2   
 38  19  44  1   
 39  20  21  1   
 40  20  22  1   
 41  21  23  1   
 42  22  24  1   
 43  22  45  1   
 44  22  46  1   
 45  23  25  2   
 46  23  26  am  
 47  24  27  1   
 48  24  28  1   
 49  24  47  1   
 50  26  28  1   
 51  26  48  1   
 52  27  49  1   
 53  28  50  1   
 54  28  51  1   
@<TRIPOS>SUBSTRUCTURE
  1 ****  14 GROUP 4 **** **** 0

# MOE 2024.06 (io_trps.svl 2023.06)
