@<TRIPOS>MOLECULE
NONAME
47 49 1 0 0 
SMALL
USER_CHARGES


@<TRIPOS>ATOM
  1 S       -1.5360    -0.4110     0.0080 S.3   1 <1>  -0.0800 
  2 C       -2.2270     0.9260     0.8930 C.2   1 <1>  -0.1400 
  3 C       -0.7310     0.6860    -1.0810 C.2   1 <1>  -0.1100 
  4 C       -1.8510     2.1160     0.3700 C.2   1 <1>  -0.0540 
  5 C       -3.1160     0.5730     2.0700 C.3   1 <1>  -0.0600 
  6 C       -0.9730     1.9870    -0.7850 C.2   1 <1>  -0.0860 
  7 C       -2.2720     3.3910     0.9000 C.ar  1 <1>   0.0540 
  8 C       -0.4060     3.0830    -1.5540 C.2   1 <1>   0.7160 
  9 C       -1.6070     3.9670     1.9770 C.ar  1 <1>  -0.1500 
 10 C       -3.3200     4.0940     0.3160 C.ar  1 <1>  -0.1500 
 11 O        0.2780     2.8550    -2.5320 O.2   1 <1>  -0.5700 
 12 N       -0.6110     4.3870    -1.2170 N.am  1 <1>  -0.7300 
 13 C       -1.9620     5.2180     2.4450 C.ar  1 <1>  -0.1500 
 14 C       -3.6740     5.3490     0.7760 C.ar  1 <1>  -0.1500 
 15 C       -0.1590     5.5810    -1.9620 C.3   1 <1>   0.2200 
 16 C       -2.9940     5.9140     1.8390 C.ar  1 <1>  -0.1500 
 17 C        0.6460     6.4850    -1.0120 C.3   1 <1>   0.1400 
 18 C       -1.3950     6.4050    -2.3380 C.3   1 <1>  -0.0990 
 19 N       -0.3640     7.4210    -0.4810 N.am  1 <1>  -0.6600 
 20 C       -1.5150     7.3690    -1.1910 C.2   1 <1>   0.5690 
 21 C       -0.1410     8.1560     0.7920 C.3   1 <1>   0.1400 
 22 O       -2.5200     7.9960    -0.9630 O.2   1 <1>  -0.5700 
 23 C       -0.3480     9.6600     0.6070 C.3   1 <1>   0.1200 
 24 O        0.0360    10.3030     1.7830 O.3   1 <1>  -0.5600 
 25 C       -0.1700    11.6780     1.7590 C.3   1 <1>   0.0400 
 26 H       -0.1330     0.2550    -1.8650 H     1 <1>   0.1500 
 27 H       -3.9470    -0.0200     1.7340 H     1 <1>   0.0800 
 28 H       -3.4940     1.4630     2.5390 H     1 <1>   0.0800 
 29 H       -2.5560     0.0100     2.7950 H     1 <1>   0.0800 
 30 H       -0.8010     3.4270     2.4430 H     1 <1>   0.1500 
 31 H       -3.8510     3.6560    -0.5110 H     1 <1>   0.1500 
 32 H       -1.1860     4.5860    -0.3910 H     1 <1>   0.3700 
 33 H       -1.4370     5.6550     3.2770 H     1 <1>   0.1500 
 34 H       -4.4750     5.8960     0.3050 H     1 <1>   0.1500 
 35 H        0.4180     5.2920    -2.8240 H     1 <1>   0.0800 
 36 H       -3.2690     6.8940     2.1900 H     1 <1>   0.1500 
 37 H        1.3890     7.0400    -1.5580 H     1 <1>   0.0800 
 38 H        1.1140     5.9170    -0.2270 H     1 <1>   0.0800 
 39 H       -2.2790     5.8060    -2.4490 H     1 <1>   0.0800 
 40 H       -1.2160     6.9650    -3.2360 H     1 <1>   0.0800 
 41 H        0.8630     7.9800     1.1350 H     1 <1>   0.0800 
 42 H       -0.8330     7.7940     1.5320 H     1 <1>   0.0800 
 43 H       -1.3860     9.8730     0.4170 H     1 <1>   0.0800 
 44 H        0.2640    10.0250    -0.1980 H     1 <1>   0.0800 
 45 H        0.1580    12.0820     2.7000 H     1 <1>   0.0800 
 46 H       -1.2190    11.8770     1.6240 H     1 <1>   0.0800 
 47 H        0.4040    12.1100     0.9580 H     1 <1>   0.0800 
@<TRIPOS>BOND
  1   1   2  1   
  2   1   3  1   
  3   2   4  2   
  4   2   5  1   
  5   3   6  2   
  6   3  26  1   
  7   4   6  1   
  8   4   7  1   
  9   5  27  1   
 10   5  28  1   
 11   5  29  1   
 12   6   8  1   
 13   7   9  ar  
 14   7  10  ar  
 15   8  11  2   
 16   8  12  am  
 17   9  13  ar  
 18   9  30  1   
 19  10  14  ar  
 20  10  31  1   
 21  12  15  1   
 22  12  32  1   
 23  13  16  ar  
 24  13  33  1   
 25  14  16  ar  
 26  14  34  1   
 27  15  17  1   
 28  15  18  1   
 29  15  35  1   
 30  16  36  1   
 31  17  19  1   
 32  17  37  1   
 33  17  38  1   
 34  18  20  1   
 35  18  39  1   
 36  18  40  1   
 37  19  20  am  
 38  19  21  1   
 39  20  22  2   
 40  21  23  1   
 41  21  41  1   
 42  21  42  1   
 43  23  24  1   
 44  23  43  1   
 45  23  44  1   
 46  24  25  1   
 47  25  45  1   
 48  25  46  1   
 49  25  47  1   
@<TRIPOS>SUBSTRUCTURE
  1 ****  12 GROUP 4 **** **** 0

# MOE 2024.06 (io_trps.svl 2023.06)
