@<TRIPOS>MOLECULE
NONAME
46 48 1 0 0 
SMALL
USER_CHARGES


@<TRIPOS>ATOM
  1 CL      -0.3130    -0.1230    -0.4470 Cl    1 <1>  -0.1770 
  2 C       -0.6030    -1.8270    -0.2060 C.ar  1 <1>   0.1770 
  3 C        0.1830    -2.7480    -0.8690 C.ar  1 <1>  -0.1500 
  4 C       -1.6170    -2.2300     0.6470 C.ar  1 <1>  -0.1500 
  5 C       -0.0810    -4.0850    -0.6520 C.ar  1 <1>   0.1900 
  6 C       -1.8580    -3.5820     0.8470 C.ar  1 <1>  -0.1500 
  7 F        0.6560    -4.9680    -1.2830 F     1 <1>  -0.1900 
  8 C       -1.0900    -4.5480     0.1960 C.ar  1 <1>   0.1170 
  9 N       -1.2730    -5.9420     0.3380 N.am  1 <1>  -0.5470 
 10 C       -2.2070    -6.6750     1.0270 C.2   1 <1>   0.5690 
 11 O       -3.0380    -6.1840     1.7470 O.2   1 <1>  -0.5700 
 12 C       -2.2480    -8.2010     0.8480 C.3   1 <1>   0.4040 
 13 N       -2.9610    -8.7340    -0.3980 N.4   1 <1>  -0.9590 
 14 C       -4.4180    -8.4000    -0.5490 C.3   1 <1>   0.4230 
 15 C       -2.7880   -10.2190    -0.4700 C.3   1 <1>   0.2630 
 16 C       -5.2530    -8.4670     0.7300 C.3   1 <1>  -0.1600 
 17 C       -4.6550    -7.0120    -1.1370 C.3   1 <1>  -0.1600 
 18 C       -6.4870    -7.6070     0.4310 C.3   1 <1>  -0.0800 
 19 C       -6.0490    -6.5890    -0.6520 C.3   1 <1>  -0.0800 
 20 C       -7.1180    -7.0010     1.7070 C.3   1 <1>   0.1400 
 21 C       -6.0950    -5.1230    -0.1790 C.3   1 <1>  -0.0990 
 22 N       -7.8710    -5.7780     1.3680 N.am  1 <1>  -0.7300 
 23 C       -7.4100    -4.8420     0.5140 C.2   1 <1>   0.5690 
 24 O       -8.0130    -3.8220     0.3060 O.2   1 <1>  -0.5700 
 25 H        0.9690    -2.4300    -1.5290 H     1 <1>   0.1500 
 26 H       -2.2120    -1.4880     1.1500 H     1 <1>   0.1500 
 27 H       -2.6490    -3.8590     1.5190 H     1 <1>   0.1500 
 28 H       -0.5520    -6.4610    -0.1710 H     1 <1>   0.3700 
 29 H       -2.7200    -8.6090     1.7240 H     1 <1>   0.0800 
 30 H       -1.2310    -8.5520     0.8480 H     1 <1>   0.0800 
 31 H       -2.5020    -8.3240    -1.2230 H     1 <1>   0.4500 
 32 H       -4.8590    -9.0960    -1.2450 H     1 <1>   0.0800 
 33 H       -3.2750   -10.6940     0.3670 H     1 <1>   0.0800 
 34 H       -1.7420   -10.4800    -0.4540 H     1 <1>   0.0800 
 35 H       -3.2210   -10.6030    -1.3800 H     1 <1>   0.0800 
 36 H       -5.5390    -9.4770     0.9640 H     1 <1>   0.0800 
 37 H       -4.7390    -8.0410     1.5690 H     1 <1>   0.0800 
 38 H       -3.9280    -6.2990    -0.8060 H     1 <1>   0.0800 
 39 H       -4.6320    -7.0480    -2.2120 H     1 <1>   0.0800 
 40 H       -7.2320    -8.2440    -0.0170 H     1 <1>   0.0800 
 41 H       -6.7440    -6.6770    -1.4730 H     1 <1>   0.0800 
 42 H       -6.3530    -6.7310     2.4160 H     1 <1>   0.0800 
 43 H       -7.7750    -7.7170     2.1730 H     1 <1>   0.0800 
 44 H       -5.9840    -4.4550    -1.0140 H     1 <1>   0.0800 
 45 H       -5.3070    -4.9230     0.5240 H     1 <1>   0.0800 
 46 H       -8.7320    -5.5660     1.8780 H     1 <1>   0.3700 
@<TRIPOS>BOND
  1   1   2  1   
  2   2   3  ar  
  3   2   4  ar  
  4   3   5  ar  
  5   3  25  1   
  6   4   6  ar  
  7   4  26  1   
  8   5   7  1   
  9   5   8  ar  
 10   6   8  ar  
 11   6  27  1   
 12   8   9  1   
 13   9  10  am  
 14   9  28  1   
 15  10  11  2   
 16  10  12  1   
 17  12  13  1   
 18  12  29  1   
 19  12  30  1   
 20  13  14  1   
 21  13  15  1   
 22  13  31  1   
 23  14  16  1   
 24  14  17  1   
 25  14  32  1   
 26  15  33  1   
 27  15  34  1   
 28  15  35  1   
 29  16  18  1   
 30  16  36  1   
 31  16  37  1   
 32  17  19  1   
 33  17  38  1   
 34  17  39  1   
 35  18  19  1   
 36  18  20  1   
 37  18  40  1   
 38  19  21  1   
 39  19  41  1   
 40  20  22  1   
 41  20  42  1   
 42  20  43  1   
 43  21  23  1   
 44  21  44  1   
 45  21  45  1   
 46  22  23  am  
 47  22  46  1   
 48  23  24  2   
@<TRIPOS>SUBSTRUCTURE
  1 ****  11 GROUP 4 **** **** 0

# MOE 2024.06 (io_trps.svl 2023.06)
