@<TRIPOS>MOLECULE
NONAME
48 50 1 0 0 
SMALL
USER_CHARGES


@<TRIPOS>ATOM
  1 CL      -0.2630     0.0460    -1.2410 Cl    1 <1>  -0.1770 
  2 C       -1.8740     0.4760    -0.7300 C.ar  1 <1>   0.1770 
  3 C       -2.4500     1.6410    -1.2000 C.ar  1 <1>  -0.1500 
  4 C       -2.5570    -0.3510     0.1410 C.ar  1 <1>  -0.1500 
  5 C       -3.7280     1.9760    -0.7910 C.ar  1 <1>  -0.1500 
  6 C       -3.8340    -0.0040     0.5450 C.ar  1 <1>  -0.1500 
  7 C       -4.4500     1.1620     0.0860 C.ar  1 <1>   0.0530 
  8 C       -5.7750     1.5430     0.5060 C.2   1 <1>   0.0870 
  9 O       -6.0070     2.7940     0.8170 O.3   1 <1>  -0.0190 
 10 C       -6.9450     0.8660     0.6840 C.2   1 <1>  -0.0860 
 11 N       -7.2360     3.0090     1.1990 N.2   1 <1>  -0.4100 
 12 C       -7.8190     1.8720     1.1210 C.2   1 <1>   0.3720 
 13 C       -7.2690    -0.5170     0.4940 C.2   1 <1>   0.7160 
 14 N       -9.1630     1.7550     1.4510 N.pl3 1 <1>  -0.8520 
 15 O       -6.4950    -1.2880    -0.0380 O.2   1 <1>  -0.5700 
 16 N       -8.4680    -1.0020     0.9170 N.am  1 <1>  -0.7300 
 17 C      -10.0760     1.8190     0.2770 C.3   1 <1>   0.2090 
 18 C       -8.9030    -2.4170     0.9230 C.3   1 <1>   0.1400 
 19 C      -11.4430     1.2350     0.6320 C.3   1 <1>   0.1200 
 20 C       -9.3950    -2.8610    -0.4650 C.3   1 <1>  -0.0800 
 21 O      -12.2050     1.1750    -0.5320 O.3   1 <1>  -0.5600 
 22 C      -10.6230    -2.0840    -0.9170 C.3   1 <1>   0.1200 
 23 C       -9.9600    -4.2740    -0.4100 C.3   1 <1>  -0.1600 
 24 C      -13.4010     0.4790    -0.3850 C.3   1 <1>   0.0400 
 25 O      -11.6830    -2.6930    -0.2570 O.3   1 <1>  -0.5600 
 26 C      -11.4540    -4.0650    -0.1570 C.3   1 <1>   0.1200 
 27 H       -1.9010     2.2710    -1.8760 H     1 <1>   0.1500 
 28 H       -2.0920    -1.2540     0.4950 H     1 <1>   0.1500 
 29 H       -4.1790     2.8830    -1.1550 H     1 <1>   0.1500 
 30 H       -4.3620    -0.6480     1.2250 H     1 <1>   0.1500 
 31 H       -9.3830     2.5530     2.0600 H     1 <1>   0.4000 
 32 H       -9.0910    -0.3160     1.3620 H     1 <1>   0.3700 
 33 H       -9.6560     1.2560    -0.5400 H     1 <1>   0.0800 
 34 H      -10.1920     2.8440    -0.0340 H     1 <1>   0.0800 
 35 H       -9.6890    -2.5380     1.6490 H     1 <1>   0.0800 
 36 H       -8.0720    -3.0360     1.2200 H     1 <1>   0.0800 
 37 H      -11.9530     1.8610     1.3440 H     1 <1>   0.0800 
 38 H      -11.3310     0.2390     1.0240 H     1 <1>   0.0800 
 39 H       -8.5910    -2.7830    -1.1760 H     1 <1>   0.0800 
 40 H      -10.7810    -2.1970    -1.9760 H     1 <1>   0.0800 
 41 H      -10.5880    -1.0410    -0.6680 H     1 <1>   0.0800 
 42 H       -9.5050    -4.8840     0.3500 H     1 <1>   0.0800 
 43 H       -9.8320    -4.7600    -1.3620 H     1 <1>   0.0800 
 44 H      -13.9150     0.4930    -1.3300 H     1 <1>   0.0800 
 45 H      -14.0050     0.9600     0.3640 H     1 <1>   0.0800 
 46 H      -13.1910    -0.5400    -0.1060 H     1 <1>   0.0800 
 47 H      -11.7410    -4.3800     0.8320 H     1 <1>   0.0800 
 48 H      -12.0560    -4.5680    -0.8940 H     1 <1>   0.0800 
@<TRIPOS>BOND
  1   1   2  1   
  2   2   3  ar  
  3   2   4  ar  
  4   3   5  ar  
  5   3  27  1   
  6   4   6  ar  
  7   4  28  1   
  8   5   7  ar  
  9   5  29  1   
 10   6   7  ar  
 11   6  30  1   
 12   7   8  1   
 13   8   9  1   
 14   8  10  2   
 15   9  11  1   
 16  10  12  1   
 17  10  13  1   
 18  11  12  2   
 19  12  14  1   
 20  13  15  2   
 21  13  16  am  
 22  14  17  1   
 23  14  31  1   
 24  16  18  1   
 25  16  32  1   
 26  17  19  1   
 27  17  33  1   
 28  17  34  1   
 29  18  20  1   
 30  18  35  1   
 31  18  36  1   
 32  19  21  1   
 33  19  37  1   
 34  19  38  1   
 35  20  22  1   
 36  20  23  1   
 37  20  39  1   
 38  21  24  1   
 39  22  25  1   
 40  22  40  1   
 41  22  41  1   
 42  23  26  1   
 43  23  42  1   
 44  23  43  1   
 45  24  44  1   
 46  24  45  1   
 47  24  46  1   
 48  25  26  1   
 49  26  47  1   
 50  26  48  1   
@<TRIPOS>SUBSTRUCTURE
  1 ****  13 GROUP 4 **** **** 0

# MOE 2024.06 (io_trps.svl 2023.06)
