@<TRIPOS>MOLECULE
NONAME
56 59 1 0 0 
SMALL
USER_CHARGES


@<TRIPOS>ATOM
  1 O       -2.3170     0.2410    -2.3990 O.2   1 <1>  -0.5700 
  2 C       -2.3480    -0.4160    -1.3970 C.2   1 <1>   0.5690 
  3 N       -2.8410     0.1090    -0.2540 N.am  1 <1>  -0.7300 
  4 C       -1.9290    -1.8680    -1.4440 C.3   1 <1>  -0.0190 
  5 C       -3.0180    -0.6370     1.0280 C.3   1 <1>   0.2200 
  6 C       -0.8110    -2.1720    -0.4390 C.3   1 <1>   0.1200 
  7 C       -3.1370    -2.8020    -1.2670 C.3   1 <1>   0.3430 
  8 C       -1.6760    -1.1960     1.5330 C.3   1 <1>   0.1200 
  9 C       -4.0460    -1.7920     0.8720 C.3   1 <1>   0.3430 
 10 O       -1.3400    -2.3620     0.8370 O.3   1 <1>  -0.5600 
 11 N       -4.3360    -2.1890    -0.5690 N.4   1 <1>  -0.9590 
 12 C       -5.5620    -3.0150    -0.7820 C.3   1 <1>   0.4230 
 13 C       -6.8230    -2.1960    -0.4990 C.3   1 <1>  -0.1600 
 14 C       -5.5600    -4.2970     0.0590 C.3   1 <1>  -0.1600 
 15 C       -8.0740    -3.0330    -0.7700 C.3   1 <1>   0.3430 
 16 C       -6.8240    -5.1160    -0.2100 C.3   1 <1>   0.3430 
 17 N       -8.0430    -4.2860     0.0430 N.4   1 <1>  -0.9590 
 18 C       -9.3020    -5.0680    -0.2150 C.3   1 <1>   0.3430 
 19 C       -9.5240    -6.1790     0.8150 C.3   1 <1>  -0.0170 
 20 C      -10.8650    -6.8230     0.5290 C.ar  1 <1>  -0.1440 
 21 C      -12.0180    -6.3270     1.1180 C.ar  1 <1>  -0.1500 
 22 C      -10.9530    -7.9050    -0.3350 C.ar  1 <1>  -0.1500 
 23 C      -13.2460    -6.9010     0.8410 C.ar  1 <1>  -0.1500 
 24 C      -12.1810    -8.4790    -0.6110 C.ar  1 <1>  -0.1500 
 25 C      -13.3290    -7.9760    -0.0250 C.ar  1 <1>  -0.1500 
 26 H       -2.9810     1.1270    -0.2450 H     1 <1>   0.3700 
 27 H       -1.5130    -2.0470    -2.4190 H     1 <1>   0.0800 
 28 H       -3.3770     0.0530     1.7730 H     1 <1>   0.0800 
 29 H       -0.0690    -1.3890    -0.4150 H     1 <1>   0.0800 
 30 H       -0.3170    -3.0890    -0.7110 H     1 <1>   0.0800 
 31 H       -2.8160    -3.6830    -0.7350 H     1 <1>   0.0800 
 32 H       -3.4410    -3.1140    -2.2540 H     1 <1>   0.0800 
 33 H       -1.7680    -1.4720     2.5690 H     1 <1>   0.0800 
 34 H       -0.8820    -0.4730     1.4490 H     1 <1>   0.0800 
 35 H       -4.9580    -1.4710     1.3430 H     1 <1>   0.0800 
 36 H       -3.6900    -2.6480     1.4230 H     1 <1>   0.0800 
 37 H       -4.4780    -1.2840    -1.0520 H     1 <1>   0.4500 
 38 H       -5.5910    -3.3010    -1.8230 H     1 <1>   0.0800 
 39 H       -6.8520    -1.8550     0.5190 H     1 <1>   0.0800 
 40 H       -6.8470    -1.3360    -1.1450 H     1 <1>   0.0800 
 41 H       -4.7090    -4.9040    -0.1940 H     1 <1>   0.0800 
 42 H       -5.5140    -4.0760     1.1100 H     1 <1>   0.0800 
 43 H       -8.1260    -3.2810    -1.8190 H     1 <1>   0.0800 
 44 H       -8.9530    -2.4570    -0.5230 H     1 <1>   0.0800 
 45 H       -6.8280    -5.9850     0.4300 H     1 <1>   0.0800 
 46 H       -6.8250    -5.4590    -1.2340 H     1 <1>   0.0800 
 47 H       -8.0680    -4.0250     1.0400 H     1 <1>   0.4500 
 48 H      -10.1520    -4.4060    -0.1730 H     1 <1>   0.0800 
 49 H       -9.2770    -5.5020    -1.2020 H     1 <1>   0.0800 
 50 H       -8.7560    -6.9280     0.7510 H     1 <1>   0.0800 
 51 H       -9.5330    -5.7730     1.8110 H     1 <1>   0.0800 
 52 H      -11.9790    -5.4950     1.8000 H     1 <1>   0.1500 
 53 H      -10.0740    -8.3180    -0.7990 H     1 <1>   0.1500 
 54 H      -14.1400    -6.5150     1.3000 H     1 <1>   0.1500 
 55 H      -12.2480    -9.3190    -1.2810 H     1 <1>   0.1500 
 56 H      -14.2840    -8.4240    -0.2400 H     1 <1>   0.1500 
@<TRIPOS>BOND
  1   1   2  2   
  2   2   3  am  
  3   2   4  1   
  4   3   5  1   
  5   3  26  1   
  6   4   6  1   
  7   4   7  1   
  8   4  27  1   
  9   5   8  1   
 10   5   9  1   
 11   5  28  1   
 12   6  10  1   
 13   6  29  1   
 14   6  30  1   
 15   7  11  1   
 16   7  31  1   
 17   7  32  1   
 18   8  10  1   
 19   8  33  1   
 20   8  34  1   
 21   9  11  1   
 22   9  35  1   
 23   9  36  1   
 24  11  12  1   
 25  11  37  1   
 26  12  13  1   
 27  12  14  1   
 28  12  38  1   
 29  13  15  1   
 30  13  39  1   
 31  13  40  1   
 32  14  16  1   
 33  14  41  1   
 34  14  42  1   
 35  15  17  1   
 36  15  43  1   
 37  15  44  1   
 38  16  17  1   
 39  16  45  1   
 40  16  46  1   
 41  17  18  1   
 42  17  47  1   
 43  18  19  1   
 44  18  48  1   
 45  18  49  1   
 46  19  20  1   
 47  19  50  1   
 48  19  51  1   
 49  20  21  ar  
 50  20  22  ar  
 51  21  23  ar  
 52  21  52  1   
 53  22  24  ar  
 54  22  53  1   
 55  23  25  ar  
 56  23  54  1   
 57  24  25  ar  
 58  24  55  1   
 59  25  56  1   
@<TRIPOS>SUBSTRUCTURE
  1 ****  14 GROUP 4 **** **** 0

# MOE 2024.06 (io_trps.svl 2023.06)
