@<TRIPOS>MOLECULE
NONAME
54 57 1 0 0 
SMALL
USER_CHARGES


@<TRIPOS>ATOM
  1 O       -2.0620     0.5350     2.8200 O.2   1 <1>  -0.5700 
  2 C       -2.4130     0.9320     1.7270 C.2   1 <1>   0.5440 
  3 N       -3.2410     0.1400     0.9700 N.am  1 <1>  -0.6600 
  4 C       -1.9850     2.2190     1.2540 C.ar  1 <1>   0.0860 
  5 C       -4.1590     0.6280    -0.0890 C.3   1 <1>   0.1400 
  6 C       -3.5250    -1.2810     1.2920 C.3   1 <1>   0.1400 
  7 C       -1.2200     2.4210     0.1140 C.ar  1 <1>   0.1660 
  8 C       -2.3460     3.3650     1.9350 C.ar  1 <1>   0.1600 
  9 C       -5.2800    -0.4120    -0.1220 C.3   1 <1>   0.2000 
 10 C       -4.5960    -1.7210     0.2800 C.3   1 <1>  -0.0800 
 11 N       -0.9090     3.6190    -0.3150 N.ar  1 <1>  -0.6200 
 12 C       -0.6770     1.2710    -0.7190 C.3   1 <1>  -0.0960 
 13 N       -2.0430     4.5730     1.5300 N.ar  1 <1>  -0.6200 
 14 O       -6.2030    -0.0930     0.8600 O.3   1 <1>  -0.6800 
 15 C       -3.9820    -2.4110    -0.9550 C.3   1 <1>  -0.0160 
 16 C       -1.3340     4.6580     0.4050 C.ar  1 <1>   0.7200 
 17 C       -3.2750    -3.7070    -0.6000 C.ar  1 <1>   0.1670 
 18 N       -1.0140     5.9160    -0.0490 N.pl3 1 <1>  -0.8380 
 19 N       -1.9780    -3.6890    -0.5570 N.ar  1 <1>  -0.6200 
 20 C       -4.0470    -4.8510    -0.3390 C.ar  1 <1>  -0.1500 
 21 C       -1.6210     7.1490     0.5260 C.3   1 <1>   0.1290 
 22 C       -0.0020     6.1460    -1.1180 C.3   1 <1>   0.1290 
 23 C       -1.3400    -4.8430    -0.2340 C.ar  1 <1>   0.3100 
 24 C       -3.4330    -6.0220    -0.0140 C.ar  1 <1>  -0.1500 
 25 C       -2.0300    -6.0430     0.0480 C.ar  1 <1>   0.0000 
 26 C        0.0630    -4.8500    -0.1750 C.ar  1 <1>  -0.1500 
 27 C       -1.2910    -7.1970     0.3760 C.ar  1 <1>  -0.1500 
 28 C        0.7630    -5.9830     0.1450 C.ar  1 <1>  -0.1500 
 29 C        0.0770    -7.1700     0.4240 C.ar  1 <1>  -0.1500 
 30 H       -4.5360     1.6140     0.1230 H     1 <1>   0.0800 
 31 H       -3.6390     0.6370    -1.0310 H     1 <1>   0.0800 
 32 H       -2.6240    -1.8670     1.2320 H     1 <1>   0.0800 
 33 H       -3.9100    -1.3420     2.2960 H     1 <1>   0.0800 
 34 H       -2.9110     3.2660     2.8460 H     1 <1>   0.1500 
 35 H       -5.7940    -0.4550    -1.0670 H     1 <1>   0.0800 
 36 H       -5.2970    -2.3980     0.7370 H     1 <1>   0.0800 
 37 H       -0.6790     0.3440    -0.1760 H     1 <1>   0.0800 
 38 H        0.3370     1.4830    -1.0070 H     1 <1>   0.0800 
 39 H       -1.2660     1.1580    -1.6100 H     1 <1>   0.0800 
 40 H       -5.7280     0.0520     1.7040 H     1 <1>   0.4000 
 41 H       -3.2770    -1.7530    -1.4340 H     1 <1>   0.0800 
 42 H       -4.7560    -2.6280    -1.6700 H     1 <1>   0.0800 
 43 H       -5.1180    -4.7890    -0.3980 H     1 <1>   0.1500 
 44 H       -1.7080     7.9070    -0.2320 H     1 <1>   0.0800 
 45 H       -1.0010     7.5150     1.3260 H     1 <1>   0.0800 
 46 H       -2.6040     6.9450     0.9130 H     1 <1>   0.0800 
 47 H        0.5350     7.0590    -0.9290 H     1 <1>   0.0800 
 48 H       -0.4960     6.2150    -2.0720 H     1 <1>   0.0800 
 49 H        0.7090     5.3390    -1.1510 H     1 <1>   0.0800 
 50 H       -3.9890    -6.9190     0.1940 H     1 <1>   0.1500 
 51 H        0.5720    -3.9300    -0.3920 H     1 <1>   0.1500 
 52 H       -1.8240    -8.1060     0.5890 H     1 <1>   0.1500 
 53 H        1.8390    -5.9750     0.1870 H     1 <1>   0.1500 
 54 H        0.6390    -8.0530     0.6740 H     1 <1>   0.1500 
@<TRIPOS>BOND
  1   1   2  2   
  2   2   3  am  
  3   2   4  1   
  4   3   5  1   
  5   3   6  1   
  6   4   7  ar  
  7   4   8  ar  
  8   5   9  1   
  9   5  30  1   
 10   5  31  1   
 11   6  10  1   
 12   6  32  1   
 13   6  33  1   
 14   7  11  ar  
 15   7  12  1   
 16   8  13  ar  
 17   8  34  1   
 18   9  10  1   
 19   9  14  1   
 20   9  35  1   
 21  10  15  1   
 22  10  36  1   
 23  11  16  ar  
 24  12  37  1   
 25  12  38  1   
 26  12  39  1   
 27  13  16  ar  
 28  14  40  1   
 29  15  17  1   
 30  15  41  1   
 31  15  42  1   
 32  16  18  1   
 33  17  19  ar  
 34  17  20  ar  
 35  18  21  1   
 36  18  22  1   
 37  19  23  ar  
 38  20  24  ar  
 39  20  43  1   
 40  21  44  1   
 41  21  45  1   
 42  21  46  1   
 43  22  47  1   
 44  22  48  1   
 45  22  49  1   
 46  23  25  ar  
 47  23  26  ar  
 48  24  25  ar  
 49  24  50  1   
 50  25  27  ar  
 51  26  28  ar  
 52  26  51  1   
 53  27  29  ar  
 54  27  52  1   
 55  28  29  ar  
 56  28  53  1   
 57  29  54  1   
@<TRIPOS>SUBSTRUCTURE
  1 ****   3 GROUP 4 **** **** 0

# MOE 2024.06 (io_trps.svl 2023.06)
