@<TRIPOS>MOLECULE
NONAME
50 53 1 0 0 
SMALL
USER_CHARGES


@<TRIPOS>ATOM
  1 F       -0.5270    -1.1030     0.9090 F     1 <1>  -0.3400 
  2 C        0.3170    -1.6020     0.0190 C.3   1 <1>   1.1640 
  3 F        1.5350    -1.2530     0.4150 F     1 <1>  -0.3400 
  4 F        0.0950    -0.9630    -1.1210 F     1 <1>  -0.3400 
  5 C        0.1620    -3.1280    -0.1350 C.ar  1 <1>  -0.1440 
  6 C        1.2000    -4.0120     0.0720 C.ar  1 <1>  -0.1500 
  7 C       -1.0760    -3.6530    -0.5190 C.ar  1 <1>  -0.1500 
  8 C        1.0300    -5.3970    -0.0770 C.ar  1 <1>   0.3610 
  9 C       -1.2620    -5.0060    -0.6430 C.ar  1 <1>  -0.1500 
 10 N        2.1130    -6.2420     0.0050 N.ar  1 <1>  -0.1790 
 11 C       -0.2410    -5.9350    -0.3620 C.ar  1 <1>   0.0000 
 12 C        2.0060    -7.5670    -0.1840 C.ar  1 <1>   0.2180 
 13 C       -0.4010    -7.3620    -0.4080 C.ar  1 <1>   0.1000 
 14 C        0.7720    -8.1240    -0.3940 C.ar  1 <1>  -0.1500 
 15 C        3.2690    -8.4110    -0.1400 C.3   1 <1>  -0.0970 
 16 N       -1.6090    -7.9910    -0.4120 N.pl3 1 <1>  -0.8380 
 17 C       -2.7920    -7.4770     0.3580 C.3   1 <1>   0.2090 
 18 C       -1.7990    -9.3530    -1.0190 C.3   1 <1>   0.2090 
 19 C       -3.5310    -8.6390     1.0250 C.3   1 <1>  -0.1600 
 20 C       -3.2770    -9.6250    -1.3030 C.3   1 <1>  -0.1600 
 21 C       -4.1400    -9.6200    -0.0100 C.3   1 <1>   0.0000 
 22 C       -5.5800    -9.1710    -0.3600 C.3   1 <1>   0.1400 
 23 C       -4.2110   -11.0240     0.6400 C.3   1 <1>  -0.1600 
 24 N       -6.3050   -10.2150    -1.1180 N.am  1 <1>  -0.7300 
 25 C       -4.9040   -12.0800    -0.2480 C.3   1 <1>  -0.0990 
 26 C       -6.0810   -11.5450    -1.0440 C.2   1 <1>   0.5690 
 27 O       -6.8050   -12.3170    -1.6170 O.2   1 <1>  -0.5700 
 28 H        2.1730    -3.6380     0.3460 H     1 <1>   0.1500 
 29 H       -1.8960    -2.9820    -0.7270 H     1 <1>   0.1500 
 30 H       -2.2160    -5.3630    -0.9830 H     1 <1>   0.1500 
 31 H        3.0290    -5.8260     0.1830 H     1 <1>   0.4570 
 32 H        0.7030    -9.1890    -0.5120 H     1 <1>   0.1500 
 33 H        3.9580    -8.0970    -0.9040 H     1 <1>   0.0800 
 34 H        3.0390    -9.4490    -0.3040 H     1 <1>   0.0800 
 35 H        3.7460    -8.3240     0.8210 H     1 <1>   0.0800 
 36 H       -3.4670    -6.9690    -0.3080 H     1 <1>   0.0800 
 37 H       -2.4630    -6.7840     1.1140 H     1 <1>   0.0800 
 38 H       -1.4240   -10.1030    -0.3440 H     1 <1>   0.0800 
 39 H       -1.2450    -9.4130    -1.9410 H     1 <1>   0.0800 
 40 H       -4.2960    -8.2510     1.6730 H     1 <1>   0.0800 
 41 H       -2.8210    -9.1470     1.6550 H     1 <1>   0.0800 
 42 H       -3.3680   -10.5550    -1.8290 H     1 <1>   0.0800 
 43 H       -3.6160    -8.8630    -1.9830 H     1 <1>   0.0800 
 44 H       -5.5560    -8.2630    -0.9370 H     1 <1>   0.0800 
 45 H       -6.1320    -8.9750     0.5430 H     1 <1>   0.0800 
 46 H       -4.7720   -10.9450     1.5560 H     1 <1>   0.0800 
 47 H       -3.2260   -11.3720     0.8960 H     1 <1>   0.0800 
 48 H       -7.1280    -9.9280    -1.6530 H     1 <1>   0.3700 
 49 H       -5.2490   -12.8920     0.3650 H     1 <1>   0.0800 
 50 H       -4.2000   -12.4880    -0.9480 H     1 <1>   0.0800 
@<TRIPOS>BOND
  1   1   2  1   
  2   2   3  1   
  3   2   4  1   
  4   2   5  1   
  5   5   6  ar  
  6   5   7  ar  
  7   6   8  ar  
  8   6  28  1   
  9   7   9  ar  
 10   7  29  1   
 11   8  10  ar  
 12   8  11  ar  
 13   9  11  ar  
 14   9  30  1   
 15  10  12  ar  
 16  10  31  1   
 17  11  13  ar  
 18  12  14  ar  
 19  12  15  1   
 20  13  14  ar  
 21  13  16  1   
 22  14  32  1   
 23  15  33  1   
 24  15  34  1   
 25  15  35  1   
 26  16  17  1   
 27  16  18  1   
 28  17  19  1   
 29  17  36  1   
 30  17  37  1   
 31  18  20  1   
 32  18  38  1   
 33  18  39  1   
 34  19  21  1   
 35  19  40  1   
 36  19  41  1   
 37  20  21  1   
 38  20  42  1   
 39  20  43  1   
 40  21  22  1   
 41  21  23  1   
 42  22  24  1   
 43  22  44  1   
 44  22  45  1   
 45  23  25  1   
 46  23  46  1   
 47  23  47  1   
 48  24  26  am  
 49  24  48  1   
 50  25  26  1   
 51  25  49  1   
 52  25  50  1   
 53  26  27  2   
@<TRIPOS>SUBSTRUCTURE
  1 ****  16 GROUP 4 **** **** 0

# MOE 2024.06 (io_trps.svl 2023.06)
