@<TRIPOS>MOLECULE
NONAME
50 53 1 0 0 
SMALL
USER_CHARGES


@<TRIPOS>ATOM
  1 O       -3.4260     2.8090    -1.8670 O.2   1 <1>  -0.5700 
  2 C       -2.9280     3.2350    -0.8500 C.2   1 <1>   0.6300 
  3 N       -3.4020     2.9080     0.4070 N.am  1 <1>  -0.6600 
  4 C       -1.7090     4.1600    -1.0160 C.3   1 <1>   0.0320 
  5 C       -4.4480     1.8700     0.6780 C.3   1 <1>   0.2200 
  6 C       -2.7950     3.4570     1.6540 C.3   1 <1>   0.0600 
  7 C       -0.4020     3.4630    -0.6510 C.ar  1 <1>  -0.0320 
  8 C       -1.6450     5.0700    -2.2140 C.3   1 <1>  -0.2000 
  9 C       -1.8700     5.6510    -0.8590 C.3   1 <1>  -0.2000 
 10 C       -4.0410     0.4830     0.1800 C.3   1 <1>  -0.1600 
 11 C       -5.7950     2.1890     0.0290 C.3   1 <1>  -0.1600 
 12 C        0.0090     2.3670    -1.3930 C.ar  1 <1>  -0.1500 
 13 C        0.3840     3.8900     0.4090 C.ar  1 <1>  -0.1500 
 14 C       -4.8480     0.1970    -1.0960 C.3   1 <1>  -0.0800 
 15 C       -5.9570     1.2570    -1.1820 C.3   1 <1>  -0.0800 
 16 C        1.1840     1.7060    -1.0820 C.ar  1 <1>  -0.1500 
 17 C        1.5600     3.2290     0.7210 C.ar  1 <1>  -0.1500 
 18 C       -5.5520    -1.1690    -1.0990 C.3   1 <1>  -0.1600 
 19 C       -7.2900     0.4910    -1.2160 C.3   1 <1>  -0.1600 
 20 C        1.9650     2.1330    -0.0210 C.ar  1 <1>  -0.1430 
 21 C       -6.9890    -0.8990    -0.6710 C.3   1 <1>   0.2000 
 22 C        3.2550     1.4090     0.3190 C.3   1 <1>  -0.0970 
 23 O       -7.0210    -0.8340     0.7030 O.3   1 <1>  -0.6800 
 24 H       -4.5970     1.8100     1.7420 H     1 <1>   0.0800 
 25 H       -3.5580     3.6260     2.3940 H     1 <1>   0.0800 
 26 H       -2.3070     4.3960     1.4720 H     1 <1>   0.0800 
 27 H       -2.0750     2.7570     2.0410 H     1 <1>   0.0800 
 28 H       -0.6920     5.2160    -2.6930 H     1 <1>   0.1000 
 29 H       -2.4600     5.0510    -2.9180 H     1 <1>   0.1000 
 30 H       -2.8460     6.0390    -0.6270 H     1 <1>   0.1000 
 31 H       -1.0790     6.2370    -0.4290 H     1 <1>   0.1000 
 32 H       -2.9830     0.4270    -0.0080 H     1 <1>   0.0800 
 33 H       -4.2840    -0.2360     0.9400 H     1 <1>   0.0800 
 34 H       -6.5720     2.0000     0.7470 H     1 <1>   0.0800 
 35 H       -5.8520     3.2220    -0.2660 H     1 <1>   0.0800 
 36 H       -0.5940     2.0270    -2.2180 H     1 <1>   0.1500 
 37 H        0.0870     4.7380     0.9960 H     1 <1>   0.1500 
 38 H       -4.1970     0.2810    -1.9510 H     1 <1>   0.0800 
 39 H       -5.8410     1.8310    -2.0870 H     1 <1>   0.0800 
 40 H        1.4860     0.8580    -1.6710 H     1 <1>   0.1500 
 41 H        2.1600     3.5740     1.5450 H     1 <1>   0.1500 
 42 H       -5.0700    -1.9090    -0.4840 H     1 <1>   0.0800 
 43 H       -5.5700    -1.5360    -2.1100 H     1 <1>   0.0800 
 44 H       -7.5900     0.3860    -2.2440 H     1 <1>   0.0800 
 45 H       -8.0870     0.9800    -0.6850 H     1 <1>   0.0800 
 46 H       -7.6870    -1.6530    -0.9980 H     1 <1>   0.0800 
 47 H        3.1770     0.3660     0.0700 H     1 <1>   0.0800 
 48 H        3.4670     1.4910     1.3700 H     1 <1>   0.0800 
 49 H        4.0700     1.8390    -0.2350 H     1 <1>   0.0800 
 50 H       -6.3850    -0.1490     0.9800 H     1 <1>   0.4000 
@<TRIPOS>BOND
  1   1   2  2   
  2   2   3  am  
  3   2   4  1   
  4   3   5  1   
  5   3   6  1   
  6   4   7  1   
  7   4   8  1   
  8   4   9  1   
  9   5  10  1   
 10   5  11  1   
 11   5  24  1   
 12   6  25  1   
 13   6  26  1   
 14   6  27  1   
 15   7  12  ar  
 16   7  13  ar  
 17   8   9  1   
 18   8  28  1   
 19   8  29  1   
 20   9  30  1   
 21   9  31  1   
 22  10  14  1   
 23  10  32  1   
 24  10  33  1   
 25  11  15  1   
 26  11  34  1   
 27  11  35  1   
 28  12  16  ar  
 29  12  36  1   
 30  13  17  ar  
 31  13  37  1   
 32  14  15  1   
 33  14  18  1   
 34  14  38  1   
 35  15  19  1   
 36  15  39  1   
 37  16  20  ar  
 38  16  40  1   
 39  17  20  ar  
 40  17  41  1   
 41  18  21  1   
 42  18  42  1   
 43  18  43  1   
 44  19  21  1   
 45  19  44  1   
 46  19  45  1   
 47  20  22  1   
 48  21  23  1   
 49  21  46  1   
 50  22  47  1   
 51  22  48  1   
 52  22  49  1   
 53  23  50  1   
@<TRIPOS>SUBSTRUCTURE
  1 ****   2 GROUP 4 **** **** 0

# MOE 2024.06 (io_trps.svl 2023.06)
