@<TRIPOS>MOLECULE
NONAME
46 47 1 0 0 
SMALL
USER_CHARGES


@<TRIPOS>ATOM
  1 CL       0.6060    -1.1030     0.7490 Cl    1 <1>  -0.1770 
  2 C       -1.0420    -1.3850     0.2420 C.ar  1 <1>   0.1770 
  3 C       -1.9460    -0.3320     0.1900 C.ar  1 <1>  -0.1440 
  4 C       -1.4000    -2.6760    -0.0960 C.ar  1 <1>  -0.1500 
  5 C       -3.2360    -0.6350    -0.2290 C.ar  1 <1>   0.1770 
  6 C       -1.5040     1.0780     0.5760 C.3   1 <1>  -0.0960 
  7 C       -2.6980    -2.9750    -0.5020 C.ar  1 <1>   0.0860 
  8 CL      -4.4630     0.6050    -0.3440 Cl    1 <1>  -0.1770 
  9 C       -3.6070    -1.9210    -0.5720 C.ar  1 <1>  -0.1500 
 10 C       -3.0780    -4.3310    -0.8500 C.2   1 <1>   0.5440 
 11 O       -2.3980    -4.9440    -1.6490 O.2   1 <1>  -0.5700 
 12 N       -4.1810    -4.9490    -0.2980 N.am  1 <1>  -0.6600 
 13 C       -4.7450    -6.1940    -0.9100 C.3   1 <1>   0.1400 
 14 C       -4.7890    -4.5450     1.0000 C.3   1 <1>   0.1400 
 15 C       -6.2780    -6.1010    -1.0180 C.3   1 <1>   0.2000 
 16 C       -6.3100    -4.4230     0.8410 C.3   1 <1>  -0.1600 
 17 O       -6.7730    -7.3000    -1.5240 O.3   1 <1>  -0.6800 
 18 C       -6.9730    -5.7280     0.3250 C.3   1 <1>   0.0000 
 19 C       -6.7740    -6.8820     1.3500 C.3   1 <1>   0.1200 
 20 C       -8.5040    -5.5130     0.1340 C.3   1 <1>  -0.1600 
 21 O       -7.2960    -6.5640     2.5960 O.3   1 <1>  -0.6800 
 22 C       -8.9370    -4.4910    -0.9350 C.3   1 <1>  -0.1600 
 23 C      -10.4630    -4.3660    -0.9760 C.3   1 <1>  -0.2400 
 24 H       -0.6660    -3.4610    -0.0500 H     1 <1>   0.1500 
 25 H       -1.0800     1.0720     1.5650 H     1 <1>   0.0800 
 26 H       -2.3180     1.7790     0.5720 H     1 <1>   0.0800 
 27 H       -0.7570     1.4270    -0.1140 H     1 <1>   0.0800 
 28 H       -4.6120    -2.1090    -0.9020 H     1 <1>   0.1500 
 29 H       -4.3450    -6.3310    -1.9000 H     1 <1>   0.0800 
 30 H       -4.4550    -7.0370    -0.3100 H     1 <1>   0.0800 
 31 H       -4.5450    -5.2830     1.7440 H     1 <1>   0.0800 
 32 H       -4.3870    -3.6070     1.3380 H     1 <1>   0.0800 
 33 H       -6.4920    -5.3490    -1.7550 H     1 <1>   0.0800 
 34 H       -6.7420    -4.1280     1.7800 H     1 <1>   0.0800 
 35 H       -6.4930    -3.6200     0.1520 H     1 <1>   0.0800 
 36 H       -6.6150    -8.0380    -0.9060 H     1 <1>   0.4000 
 37 H       -5.7350    -7.1210     1.4880 H     1 <1>   0.0800 
 38 H       -7.2810    -7.7710     1.0180 H     1 <1>   0.0800 
 39 H       -8.9520    -6.4590    -0.1180 H     1 <1>   0.0800 
 40 H       -8.9320    -5.2130     1.0750 H     1 <1>   0.0800 
 41 H       -6.9240    -5.7270     2.9290 H     1 <1>   0.4000 
 42 H       -8.5230    -3.5210    -0.7270 H     1 <1>   0.0800 
 43 H       -8.6000    -4.8040    -1.9070 H     1 <1>   0.0800 
 44 H      -10.8400    -4.0310    -0.0260 H     1 <1>   0.0800 
 45 H      -10.9110    -5.3160    -1.2120 H     1 <1>   0.0800 
 46 H      -10.7540    -3.6560    -1.7290 H     1 <1>   0.0800 
@<TRIPOS>BOND
  1   1   2  1   
  2   2   3  ar  
  3   2   4  ar  
  4   3   5  ar  
  5   3   6  1   
  6   4   7  ar  
  7   4  24  1   
  8   5   8  1   
  9   5   9  ar  
 10   6  25  1   
 11   6  26  1   
 12   6  27  1   
 13   7   9  ar  
 14   7  10  1   
 15   9  28  1   
 16  10  11  2   
 17  10  12  am  
 18  12  13  1   
 19  12  14  1   
 20  13  15  1   
 21  13  29  1   
 22  13  30  1   
 23  14  16  1   
 24  14  31  1   
 25  14  32  1   
 26  15  17  1   
 27  15  18  1   
 28  15  33  1   
 29  16  18  1   
 30  16  34  1   
 31  16  35  1   
 32  17  36  1   
 33  18  19  1   
 34  18  20  1   
 35  19  21  1   
 36  19  37  1   
 37  19  38  1   
 38  20  22  1   
 39  20  39  1   
 40  20  40  1   
 41  21  41  1   
 42  22  23  1   
 43  22  42  1   
 44  22  43  1   
 45  23  44  1   
 46  23  45  1   
 47  23  46  1   
@<TRIPOS>SUBSTRUCTURE
  1 ****  12 GROUP 4 **** **** 0

# MOE 2024.06 (io_trps.svl 2023.06)
