@<TRIPOS>MOLECULE
NONAME
65 68 1 0 0 
SMALL
USER_CHARGES


@<TRIPOS>ATOM
  1 O       -0.5720     0.9330    -0.1350 O.3   1 <1>  -0.3630 
  2 C       -1.6070     1.0420    -1.0050 C.ar  1 <1>   0.0820 
  3 C        0.7350     1.3090    -0.5030 C.3   1 <1>   0.1200 
  4 C       -2.8140     0.4880    -0.6090 C.ar  1 <1>  -0.1500 
  5 C       -1.5120     1.6640    -2.2460 C.ar  1 <1>  -0.1500 
  6 C        1.6690     0.9270     0.6510 C.3   1 <1>   0.3430 
  7 C       -3.9250     0.5440    -1.4370 C.ar  1 <1>  -0.1440 
  8 C       -2.6160     1.7170    -3.0770 C.ar  1 <1>  -0.1500 
  9 N        3.1130     1.2080     0.3560 N.4   1 <1>  -0.9590 
 10 C       -3.8170     1.1570    -2.6770 C.ar  1 <1>  -0.1500 
 11 C       -5.2460    -0.0600    -0.9960 C.3   1 <1>   0.4860 
 12 C        3.9770     0.5640     1.3910 C.3   1 <1>   0.3430 
 13 C        3.4030     2.6720     0.2510 C.3   1 <1>   0.3430 
 14 N       -5.8950     0.8480    -0.0120 N.4   1 <1>  -0.9590 
 15 C        5.4490     0.7250     1.0090 C.3   1 <1>  -0.1600 
 16 C        4.8620     2.8810    -0.1580 C.3   1 <1>  -0.1600 
 17 C       -7.0900     0.1850     0.6240 C.3   1 <1>   0.3430 
 18 C       -6.1660     2.1950    -0.6110 C.3   1 <1>   0.3430 
 19 C        5.8290     2.1990     0.8190 C.3   1 <1>  -0.1600 
 20 C       -8.4420     0.6480     0.0360 C.3   1 <1>   0.0000 
 21 C       -7.2380     2.9330     0.1890 C.3   1 <1>  -0.1600 
 22 C       -9.6130    -0.0710     0.7320 C.3   1 <1>   0.2000 
 23 C       -8.5870     2.1860     0.1960 C.3   1 <1>  -0.1600 
 24 C       -8.6230     0.2280    -1.4400 C.3   1 <1>  -0.1600 
 25 O       -9.2690    -1.3990     0.9370 O.3   1 <1>  -0.6800 
 26 C      -10.7670    -0.0240    -0.2660 C.3   1 <1>  -0.1600 
 27 C      -10.1290     0.0360    -1.6590 C.3   1 <1>  -0.1600 
 28 H        0.9970     0.7710    -1.3980 H     1 <1>   0.0800 
 29 H        0.7380     2.3700    -0.6750 H     1 <1>   0.0800 
 30 H       -2.8610     0.0080     0.3530 H     1 <1>   0.1500 
 31 H       -0.5980     2.1110    -2.5890 H     1 <1>   0.1500 
 32 H        1.5470    -0.1270     0.8420 H     1 <1>   0.0800 
 33 H        1.3710     1.4670     1.5360 H     1 <1>   0.0800 
 34 H       -2.5400     2.1930    -4.0410 H     1 <1>   0.1500 
 35 H        3.3650     0.7750    -0.5430 H     1 <1>   0.4500 
 36 H       -4.6590     1.2040    -3.3480 H     1 <1>   0.1500 
 37 H       -5.0630    -1.0230    -0.5460 H     1 <1>   0.0800 
 38 H       -5.8880    -0.2020    -1.8490 H     1 <1>   0.0800 
 39 H        3.8020     1.0240     2.3510 H     1 <1>   0.0800 
 40 H        3.7410    -0.4860     1.4710 H     1 <1>   0.0800 
 41 H        2.7610     3.1300    -0.4850 H     1 <1>   0.0800 
 42 H        3.2240     3.1490     1.2010 H     1 <1>   0.0800 
 43 H       -5.2000     0.9940     0.7300 H     1 <1>   0.4500 
 44 H        6.0620     0.2990     1.7850 H     1 <1>   0.0800 
 45 H        5.6480     0.1740     0.1060 H     1 <1>   0.0800 
 46 H        5.0150     2.5000    -1.1520 H     1 <1>   0.0800 
 47 H        5.0720     3.9370    -0.1840 H     1 <1>   0.0800 
 48 H       -7.0110    -0.8870     0.5330 H     1 <1>   0.0800 
 49 H       -7.1000     0.4150     1.6760 H     1 <1>   0.0800 
 50 H       -5.2560     2.7740    -0.6350 H     1 <1>   0.0800 
 51 H       -6.5110     2.0790    -1.6250 H     1 <1>   0.0800 
 52 H        6.8380     2.2730     0.4480 H     1 <1>   0.0800 
 53 H        5.7940     2.7040     1.7700 H     1 <1>   0.0800 
 54 H       -6.8860     3.0670     1.1980 H     1 <1>   0.0800 
 55 H       -7.3790     3.9150    -0.2290 H     1 <1>   0.0800 
 56 H       -9.8750     0.3560     1.6860 H     1 <1>   0.0800 
 57 H       -9.2140     2.5750    -0.5890 H     1 <1>   0.0800 
 58 H       -9.0810     2.4200     1.1240 H     1 <1>   0.0800 
 59 H       -8.2200     0.9370    -2.1400 H     1 <1>   0.0800 
 60 H       -8.1470    -0.7250    -1.6030 H     1 <1>   0.0800 
 61 H      -10.0610    -1.9130     1.1960 H     1 <1>   0.4000 
 62 H      -11.4400    -0.8580    -0.1600 H     1 <1>   0.0800 
 63 H      -11.3260     0.8820    -0.1040 H     1 <1>   0.0800 
 64 H      -10.3150    -0.8760    -2.2010 H     1 <1>   0.0800 
 65 H      -10.5430     0.8580    -2.2180 H     1 <1>   0.0800 
@<TRIPOS>BOND
  1   1   2  1   
  2   1   3  1   
  3   2   4  ar  
  4   2   5  ar  
  5   3   6  1   
  6   3  28  1   
  7   3  29  1   
  8   4   7  ar  
  9   4  30  1   
 10   5   8  ar  
 11   5  31  1   
 12   6   9  1   
 13   6  32  1   
 14   6  33  1   
 15   7  10  ar  
 16   7  11  1   
 17   8  10  ar  
 18   8  34  1   
 19   9  12  1   
 20   9  13  1   
 21   9  35  1   
 22  10  36  1   
 23  11  14  1   
 24  11  37  1   
 25  11  38  1   
 26  12  15  1   
 27  12  39  1   
 28  12  40  1   
 29  13  16  1   
 30  13  41  1   
 31  13  42  1   
 32  14  17  1   
 33  14  18  1   
 34  14  43  1   
 35  15  19  1   
 36  15  44  1   
 37  15  45  1   
 38  16  19  1   
 39  16  46  1   
 40  16  47  1   
 41  17  20  1   
 42  17  48  1   
 43  17  49  1   
 44  18  21  1   
 45  18  50  1   
 46  18  51  1   
 47  19  52  1   
 48  19  53  1   
 49  20  22  1   
 50  20  23  1   
 51  20  24  1   
 52  21  23  1   
 53  21  54  1   
 54  21  55  1   
 55  22  25  1   
 56  22  26  1   
 57  22  56  1   
 58  23  57  1   
 59  23  58  1   
 60  24  27  1   
 61  24  59  1   
 62  24  60  1   
 63  25  61  1   
 64  26  27  1   
 65  26  62  1   
 66  26  63  1   
 67  27  64  1   
 68  27  65  1   
@<TRIPOS>SUBSTRUCTURE
  1 ****   4 GROUP 4 **** **** 0

# MOE 2024.06 (io_trps.svl 2023.06)
