@<TRIPOS>MOLECULE
NONAME
43 45 1 0 0 
SMALL
USER_CHARGES


@<TRIPOS>ATOM
  1 F       -0.4860    -1.3910     2.0410 F     1 <1>  -0.3400 
  2 C       -0.2620    -1.4430     0.7310 C.3   1 <1>   0.7810 
  3 F       -1.4750    -1.3920     0.1850 F     1 <1>  -0.3400 
  4 C        0.4340    -2.7580     0.3570 C.2   1 <1>   0.1080 
  5 N        1.5570    -2.8330    -0.3080 N.2   1 <1>  -0.7070 
  6 C       -0.0440    -4.0170     0.6800 C.2   1 <1>  -0.1500 
  7 N        1.8140    -4.1470    -0.4130 N.pl3 1 <1>   0.3140 
  8 C        0.8500    -4.9080     0.1660 C.2   1 <1>  -0.2370 
  9 C        3.0270    -4.6090    -1.1090 C.3   1 <1>   0.0160 
 10 C        0.8610    -6.3440     0.1910 C.2   1 <1>   0.7150 
 11 O        1.9170    -6.9480     0.2270 O.2   1 <1>  -0.5700 
 12 N       -0.3060    -7.0690     0.1590 N.am  1 <1>  -0.6600 
 13 C       -1.6100    -6.5610    -0.3380 C.3   1 <1>   0.1400 
 14 C       -0.3160    -8.5530     0.2170 C.3   1 <1>   0.1400 
 15 C       -2.3400    -7.8010    -0.8530 C.3   1 <1>   0.2000 
 16 C       -1.7660    -8.9610    -0.0470 C.3   1 <1>  -0.0800 
 17 O       -3.7080    -7.7080    -0.6570 O.3   1 <1>  -0.6800 
 18 C       -1.9040   -10.3200    -0.7500 C.3   1 <1>   0.0210 
 19 C       -1.1820   -11.4120     0.0170 C.2   1 <1>   0.1080 
 20 N       -1.3650   -11.6240     1.2840 N.2   1 <1>  -0.7070 
 21 C       -0.2500   -12.2860    -0.5320 C.2   1 <1>  -0.1500 
 22 N       -0.5460   -12.6520     1.5790 N.pl3 1 <1>   0.3000 
 23 C        0.1410   -13.0690     0.4950 C.2   1 <1>  -0.3320 
 24 C        1.1450   -14.2070     0.5080 C.3   1 <1>  -0.0600 
 25 H        0.2840    -0.5650     0.4400 H     1 <1>   0.0800 
 26 H       -0.9440    -4.2180     1.2340 H     1 <1>   0.1500 
 27 H        2.7550    -5.3280    -1.8590 H     1 <1>   0.0800 
 28 H        3.6890    -5.0630    -0.3950 H     1 <1>   0.0800 
 29 H        3.5150    -3.7710    -1.5710 H     1 <1>   0.0800 
 30 H       -2.1500    -6.1190     0.4800 H     1 <1>   0.0800 
 31 H       -1.4690    -5.8430    -1.1270 H     1 <1>   0.0800 
 32 H        0.3390    -8.9410    -0.5450 H     1 <1>   0.0800 
 33 H        0.0190    -8.9010     1.1810 H     1 <1>   0.0800 
 34 H       -2.1530    -7.9200    -1.9060 H     1 <1>   0.0800 
 35 H       -2.2540    -9.0120     0.9110 H     1 <1>   0.0800 
 36 H       -3.9190    -7.7620     0.2960 H     1 <1>   0.4000 
 37 H       -1.5010   -10.2630    -1.7450 H     1 <1>   0.0800 
 38 H       -2.9440   -10.5810    -0.8240 H     1 <1>   0.0800 
 39 H        0.0730   -12.3100    -1.5580 H     1 <1>   0.1500 
 40 H       -0.4790   -13.0430     2.5260 H     1 <1>   0.2700 
 41 H        1.5570   -14.3470    -0.4760 H     1 <1>   0.0800 
 42 H        0.6680   -15.1210     0.8130 H     1 <1>   0.0800 
 43 H        1.9490   -13.9860     1.1870 H     1 <1>   0.0800 
@<TRIPOS>BOND
  1   1   2  1   
  2   2   3  1   
  3   2   4  1   
  4   2  25  1   
  5   4   5  2   
  6   4   6  1   
  7   5   7  1   
  8   6   8  2   
  9   6  26  1   
 10   7   8  1   
 11   7   9  1   
 12   8  10  1   
 13   9  27  1   
 14   9  28  1   
 15   9  29  1   
 16  10  11  2   
 17  10  12  am  
 18  12  13  1   
 19  12  14  1   
 20  13  15  1   
 21  13  30  1   
 22  13  31  1   
 23  14  16  1   
 24  14  32  1   
 25  14  33  1   
 26  15  16  1   
 27  15  17  1   
 28  15  34  1   
 29  16  18  1   
 30  16  35  1   
 31  17  36  1   
 32  18  19  1   
 33  18  37  1   
 34  18  38  1   
 35  19  20  2   
 36  19  21  1   
 37  20  22  1   
 38  21  23  2   
 39  21  39  1   
 40  22  23  1   
 41  22  40  1   
 42  23  24  1   
 43  24  41  1   
 44  24  42  1   
 45  24  43  1   
@<TRIPOS>SUBSTRUCTURE
  1 ****  12 GROUP 4 **** **** 0

# MOE 2024.06 (io_trps.svl 2023.06)
