@<TRIPOS>MOLECULE
NONAME
56 59 1 0 0 
SMALL
USER_CHARGES


@<TRIPOS>ATOM
  1 O        0.1060    -0.4600     1.8060 O.2   1 <1>  -0.5700 
  2 C       -0.9270    -0.7540     1.2300 C.2   1 <1>   0.5440 
  3 N       -0.8610    -1.5420     0.0840 N.am  1 <1>  -0.6600 
  4 C       -2.1950    -0.2400     1.7610 C.ar  1 <1>   0.3960 
  5 C        0.3130    -2.3820    -0.3540 C.3   1 <1>   0.2200 
  6 C       -2.0690    -1.8370    -0.7380 C.3   1 <1>   0.1400 
  7 N       -3.1250    -1.1270     2.1630 N.ar  1 <1>  -0.6200 
  8 C       -2.4210     1.1450     1.8340 C.ar  1 <1>  -0.1440 
  9 C        0.0230    -3.8890    -0.1060 C.3   1 <1>   0.0000 
 10 C        1.7130    -1.9680     0.1290 C.3   1 <1>   0.1400 
 11 C       -2.4440    -3.3150    -0.5820 C.3   1 <1>  -0.1600 
 12 C       -4.2520    -0.6440     2.6470 C.ar  1 <1>   0.1600 
 13 C       -3.6120     1.6240     2.3400 C.ar  1 <1>  -0.1500 
 14 C       -1.3740     2.1530     1.3660 C.3   1 <1>  -0.0960 
 15 C        1.1950    -4.7420    -0.6770 C.3   1 <1>  -0.1600 
 16 C       -1.2590    -4.2470    -0.9060 C.3   1 <1>  -0.1600 
 17 C       -0.2640    -4.1980     1.3960 C.3   1 <1>   0.1200 
 18 N        2.7320    -2.7900    -0.6040 N.am  1 <1>  -0.6600 
 19 C       -4.5440     0.7010     2.7560 C.ar  1 <1>  -0.1500 
 20 C        2.6100    -4.2450    -0.3220 C.3   1 <1>   0.1400 
 21 O        0.8800    -4.3270     2.1700 O.3   1 <1>  -0.6800 
 22 C        3.7070    -2.2950    -1.4370 C.2   1 <1>   0.5690 
 23 O        4.5190    -3.0230    -1.9600 O.2   1 <1>  -0.5700 
 24 C        3.8000    -0.8240    -1.7810 C.3   1 <1>   0.1570 
 25 N        4.3320    -0.0550    -0.6500 N.pl3 1 <1>   0.3140 
 26 N        3.7860     1.1250    -0.2950 N.2   1 <1>  -0.7070 
 27 C        5.3760    -0.3660     0.1470 C.2   1 <1>  -0.3020 
 28 C        4.4840     1.5220     0.7250 C.2   1 <1>   0.1390 
 29 C        5.4980     0.6300     1.0490 C.2   1 <1>  -0.1500 
 30 H        0.3670    -2.2540    -1.4210 H     1 <1>   0.0800 
 31 H       -2.9010    -1.2160    -0.4560 H     1 <1>   0.0800 
 32 H       -1.8480    -1.6260    -1.7710 H     1 <1>   0.0800 
 33 H        1.8130    -2.1450     1.1860 H     1 <1>   0.0800 
 34 H        1.8540    -0.9180    -0.0480 H     1 <1>   0.0800 
 35 H       -2.7880    -3.4800     0.4250 H     1 <1>   0.0800 
 36 H       -3.2650    -3.5390    -1.2390 H     1 <1>   0.0800 
 37 H       -4.9870    -1.3590     2.9760 H     1 <1>   0.1500 
 38 H       -3.8130     2.6790     2.4140 H     1 <1>   0.1500 
 39 H       -1.7770     3.1490     1.3370 H     1 <1>   0.0800 
 40 H       -1.0250     1.9030     0.3790 H     1 <1>   0.0800 
 41 H       -0.5340     2.1460     2.0370 H     1 <1>   0.0800 
 42 H        1.1410    -4.7450    -1.7510 H     1 <1>   0.0800 
 43 H        1.0900    -5.7640    -0.3600 H     1 <1>   0.0800 
 44 H       -1.0570    -4.1650    -1.9600 H     1 <1>   0.0800 
 45 H       -1.5430    -5.2670    -0.7150 H     1 <1>   0.0800 
 46 H       -0.8050    -5.1230     1.4890 H     1 <1>   0.0800 
 47 H       -0.8640    -3.4240     1.8420 H     1 <1>   0.0800 
 48 H       -5.4870     1.0190     3.1630 H     1 <1>   0.1500 
 49 H        3.3320    -4.8020    -0.8960 H     1 <1>   0.0800 
 50 H        2.8360    -4.4110     0.7150 H     1 <1>   0.0800 
 51 H        1.3560    -5.1460     1.9420 H     1 <1>   0.4000 
 52 H        2.8310    -0.4450    -2.0380 H     1 <1>   0.0800 
 53 H        4.4570    -0.6900    -2.6180 H     1 <1>   0.0800 
 54 H        5.9570    -1.2640     0.0310 H     1 <1>   0.1500 
 55 H        4.2890     2.4410     1.2530 H     1 <1>   0.1500 
 56 H        6.2080     0.7370     1.8490 H     1 <1>   0.1500 
@<TRIPOS>BOND
  1   1   2  2   
  2   2   3  am  
  3   2   4  1   
  4   3   5  1   
  5   3   6  1   
  6   4   7  ar  
  7   4   8  ar  
  8   5   9  1   
  9   5  10  1   
 10   5  30  1   
 11   6  11  1   
 12   6  31  1   
 13   6  32  1   
 14   7  12  ar  
 15   8  13  ar  
 16   8  14  1   
 17   9  15  1   
 18   9  16  1   
 19   9  17  1   
 20  10  18  1   
 21  10  33  1   
 22  10  34  1   
 23  11  16  1   
 24  11  35  1   
 25  11  36  1   
 26  12  19  ar  
 27  12  37  1   
 28  13  19  ar  
 29  13  38  1   
 30  14  39  1   
 31  14  40  1   
 32  14  41  1   
 33  15  20  1   
 34  15  42  1   
 35  15  43  1   
 36  16  44  1   
 37  16  45  1   
 38  17  21  1   
 39  17  46  1   
 40  17  47  1   
 41  18  20  1   
 42  18  22  am  
 43  19  48  1   
 44  20  49  1   
 45  20  50  1   
 46  21  51  1   
 47  22  23  2   
 48  22  24  1   
 49  24  25  1   
 50  24  52  1   
 51  24  53  1   
 52  25  26  1   
 53  25  27  1   
 54  26  28  2   
 55  27  29  2   
 56  27  54  1   
 57  28  29  1   
 58  28  55  1   
 59  29  56  1   
@<TRIPOS>SUBSTRUCTURE
  1 ****   5 GROUP 4 **** **** 0

# MOE 2024.06 (io_trps.svl 2023.06)
