@<TRIPOS>MOLECULE
NONAME
47 49 1 0 0 
SMALL
USER_CHARGES


@<TRIPOS>ATOM
  1 O       -1.3130     0.1660     0.3210 O.2   1 <1>  -0.5700 
  2 C       -2.1540     1.0420     0.4370 C.2   1 <1>   0.7150 
  3 N       -3.4280     0.6590     0.7780 N.am  1 <1>  -0.6600 
  4 C       -1.8230     2.4220     0.2140 C.2   1 <1>  -0.2370 
  5 C       -3.6750    -0.6550     1.4390 C.3   1 <1>   0.1400 
  6 C       -4.6300     1.2180     0.0980 C.3   1 <1>   0.1400 
  7 N       -0.7830     2.8690    -0.5390 N.pl3 1 <1>   0.3140 
  8 C       -2.4260     3.5500     0.6840 C.2   1 <1>  -0.1500 
  9 C       -4.1150    -1.6830     0.3700 C.3   1 <1>   0.4230 
 10 C       -5.1260     0.2040    -0.9450 C.3   1 <1>  -0.1600 
 11 N       -0.7190     4.2080    -0.5730 N.2   1 <1>  -0.7070 
 12 C        0.2100     2.0690    -1.2750 C.3   1 <1>   0.0160 
 13 C       -1.7050     4.6070     0.1640 C.2   1 <1>   0.1080 
 14 N       -4.2980    -3.0810     0.8910 N.4   1 <1>  -0.9590 
 15 C       -5.4050    -1.1960    -0.3250 C.3   1 <1>  -0.1060 
 16 C       -1.9910     6.0720     0.4000 C.3   1 <1>  -0.0590 
 17 C       -4.6010    -4.0460    -0.1960 C.3   1 <1>   0.3430 
 18 C       -3.2260    -3.5670     1.7990 C.3   1 <1>   0.2630 
 19 C       -6.5300    -1.1130     0.7260 C.2   1 <1>   0.9060 
 20 C       -5.7850    -2.1760    -1.4600 C.3   1 <1>  -0.1600 
 21 C       -5.8640    -3.6240    -0.9510 C.3   1 <1>  -0.1600 
 22 O       -6.5320    -1.9220     1.6680 O.co2 1 <1>  -0.9000 
 23 O       -7.3920    -0.2420     0.6250 O.co2 1 <1>  -0.9000 
 24 H       -2.7710    -0.9770     1.9220 H     1 <1>   0.0800 
 25 H       -4.4350    -0.5340     2.1920 H     1 <1>   0.0800 
 26 H       -5.4000     1.4130     0.8270 H     1 <1>   0.0800 
 27 H       -4.3970     2.1460    -0.3950 H     1 <1>   0.0800 
 28 H       -3.2830     3.6210     1.3300 H     1 <1>   0.1500 
 29 H       -3.3300    -1.7090    -0.3670 H     1 <1>   0.0800 
 30 H       -6.0290     0.5870    -1.3890 H     1 <1>   0.0800 
 31 H       -4.3910     0.1300    -1.7270 H     1 <1>   0.0800 
 32 H       -0.2990     1.3960    -1.9390 H     1 <1>   0.0800 
 33 H        0.8020     1.5130    -0.5740 H     1 <1>   0.0800 
 34 H        0.8440     2.7260    -1.8410 H     1 <1>   0.0800 
 35 H       -5.1940    -2.9680     1.4400 H     1 <1>   0.4500 
 36 H       -2.8470     6.1910     1.0370 H     1 <1>   0.0800 
 37 H       -2.1780     6.5560    -0.5400 H     1 <1>   0.0800 
 38 H       -1.1380     6.5320     0.8640 H     1 <1>   0.0800 
 39 H       -3.7700    -4.0890    -0.8810 H     1 <1>   0.0800 
 40 H       -4.7530    -5.0280     0.2200 H     1 <1>   0.0800 
 41 H       -2.2780    -3.5760     1.2870 H     1 <1>   0.0800 
 42 H       -3.4520    -4.5650     2.1380 H     1 <1>   0.0800 
 43 H       -3.1510    -2.9270     2.6630 H     1 <1>   0.0800 
 44 H       -6.7390    -1.8900    -1.8730 H     1 <1>   0.0800 
 45 H       -5.0550    -2.1220    -2.2490 H     1 <1>   0.0800 
 46 H       -6.0160    -4.2870    -1.7830 H     1 <1>   0.0800 
 47 H       -6.7140    -3.7340    -0.2990 H     1 <1>   0.0800 
@<TRIPOS>BOND
  1   1   2  2   
  2   2   3  am  
  3   2   4  1   
  4   3   5  1   
  5   3   6  1   
  6   4   7  1   
  7   4   8  2   
  8   5   9  1   
  9   5  24  1   
 10   5  25  1   
 11   6  10  1   
 12   6  26  1   
 13   6  27  1   
 14   7  11  1   
 15   7  12  1   
 16   8  13  1   
 17   8  28  1   
 18   9  14  1   
 19   9  15  1   
 20   9  29  1   
 21  10  15  1   
 22  10  30  1   
 23  10  31  1   
 24  11  13  2   
 25  12  32  1   
 26  12  33  1   
 27  12  34  1   
 28  13  16  1   
 29  14  17  1   
 30  14  18  1   
 31  14  35  1   
 32  15  19  1   
 33  15  20  1   
 34  16  36  1   
 35  16  37  1   
 36  16  38  1   
 37  17  21  1   
 38  17  39  1   
 39  17  40  1   
 40  18  41  1   
 41  18  42  1   
 42  18  43  1   
 43  19  22  ar  
 44  19  23  ar  
 45  20  21  1   
 46  20  44  1   
 47  20  45  1   
 48  21  46  1   
 49  21  47  1   
@<TRIPOS>SUBSTRUCTURE
  1 ****   3 GROUP 4 **** **** 0

# MOE 2024.06 (io_trps.svl 2023.06)
