@<TRIPOS>MOLECULE
NONAME
47 49 1 0 0 
SMALL
USER_CHARGES


@<TRIPOS>ATOM
  1 O        2.1860     0.3030     1.5150 O.2   1 <1>  -0.5700 
  2 C        2.6850    -0.3870     0.6470 C.2   1 <1>   0.7060 
  3 O        2.4830    -1.7050     0.7490 O.3   1 <1>  -0.2320 
  4 C        3.4600     0.1230    -0.4560 C.2   1 <1>   0.0290 
  5 C        2.9600    -2.6050    -0.1350 C.ar  1 <1>   0.0830 
  6 C        3.6960     1.5460    -0.5860 C.2   1 <1>   0.6160 
  7 C        3.9510    -0.7730    -1.3620 C.2   1 <1>  -0.1780 
  8 C        3.7160    -2.1670    -1.2270 C.ar  1 <1>   0.0280 
  9 C        2.6910    -3.9500     0.0590 C.ar  1 <1>  -0.1500 
 10 O        4.2320     1.9620    -1.5960 O.2   1 <1>  -0.5700 
 11 N        3.3440     2.4530     0.3880 N.am  1 <1>  -0.4940 
 12 C        4.1940    -3.1230    -2.1240 C.ar  1 <1>  -0.1500 
 13 C        3.1720    -4.8900    -0.8430 C.ar  1 <1>   0.0830 
 14 C        3.4100     3.8670     0.4100 C.2   1 <1>  -0.0880 
 15 C        3.9250    -4.4620    -1.9310 C.ar  1 <1>  -0.1500 
 16 O        2.9600    -6.2220    -0.7440 O.3   1 <1>  -0.3630 
 17 N        4.4180     4.6760    -0.0320 N.pl3 1 <1>   0.3140 
 18 C        2.4520     4.6880     0.9020 C.2   1 <1>  -0.1500 
 19 C        2.1640    -6.8200     0.2540 C.3   1 <1>   0.2000 
 20 N        4.1060     5.9850     0.1560 N.2   1 <1>  -0.7070 
 21 C        5.7330     4.2640    -0.5860 C.3   1 <1>   0.0960 
 22 C        2.9360     5.9740     0.7120 C.2   1 <1>   0.1390 
 23 C        2.5620    -8.2930     0.3200 C.3   1 <1>  -0.2400 
 24 C        0.6900    -6.6640    -0.1280 C.3   1 <1>  -0.2400 
 25 C        6.8900     5.1660    -0.1220 C.3   1 <1>  -0.1600 
 26 C        8.2390     4.6540    -0.6400 C.3   1 <1>  -0.2400 
 27 H        4.5340    -0.4520    -2.2100 H     1 <1>   0.1500 
 28 H        2.1070    -4.2340     0.9120 H     1 <1>   0.1500 
 29 H        2.7810     2.0410     1.1470 H     1 <1>   0.3700 
 30 H        4.7780    -2.8110    -2.9720 H     1 <1>   0.1500 
 31 H        4.2940    -5.1990    -2.6230 H     1 <1>   0.1500 
 32 H        1.5080     4.4280     1.3430 H     1 <1>   0.1500 
 33 H        2.3800    -6.3540     1.2000 H     1 <1>   0.0800 
 34 H        5.6600     4.2780    -1.6580 H     1 <1>   0.0800 
 35 H        5.9310     3.2580    -0.2710 H     1 <1>   0.0800 
 36 H        2.4080     6.8700     0.9910 H     1 <1>   0.1500 
 37 H        2.3870    -8.7720    -0.6260 H     1 <1>   0.0800 
 38 H        1.9850    -8.7970     1.0740 H     1 <1>   0.0800 
 39 H        3.6030    -8.3790     0.5750 H     1 <1>   0.0800 
 40 H        0.5030    -7.1250    -1.0810 H     1 <1>   0.0800 
 41 H        0.4170    -5.6270    -0.1790 H     1 <1>   0.0800 
 42 H        0.0690    -7.1400     0.6100 H     1 <1>   0.0800 
 43 H        6.9090     5.1950     0.9540 H     1 <1>   0.0800 
 44 H        6.7310     6.1670    -0.4860 H     1 <1>   0.0800 
 45 H        8.4340     3.6620    -0.2710 H     1 <1>   0.0800 
 46 H        9.0300     5.3040    -0.3070 H     1 <1>   0.0800 
 47 H        8.2450     4.6330    -1.7160 H     1 <1>   0.0800 
@<TRIPOS>BOND
  1   1   2  2   
  2   2   3  1   
  3   2   4  1   
  4   3   5  1   
  5   4   6  1   
  6   4   7  2   
  7   5   8  ar  
  8   5   9  ar  
  9   6  10  2   
 10   6  11  am  
 11   7   8  1   
 12   7  27  1   
 13   8  12  ar  
 14   9  13  ar  
 15   9  28  1   
 16  11  14  1   
 17  11  29  1   
 18  12  15  ar  
 19  12  30  1   
 20  13  15  ar  
 21  13  16  1   
 22  14  17  1   
 23  14  18  2   
 24  15  31  1   
 25  16  19  1   
 26  17  20  1   
 27  17  21  1   
 28  18  22  1   
 29  18  32  1   
 30  19  23  1   
 31  19  24  1   
 32  19  33  1   
 33  20  22  2   
 34  21  25  1   
 35  21  34  1   
 36  21  35  1   
 37  22  36  1   
 38  23  37  1   
 39  23  38  1   
 40  23  39  1   
 41  24  40  1   
 42  24  41  1   
 43  24  42  1   
 44  25  26  1   
 45  25  43  1   
 46  25  44  1   
 47  26  45  1   
 48  26  46  1   
 49  26  47  1   
@<TRIPOS>SUBSTRUCTURE
  1 ****   4 GROUP 4 **** **** 0

# MOE 2024.06 (io_trps.svl 2023.06)
