@<TRIPOS>MOLECULE
NONAME
54 58 1 0 0 
SMALL
USER_CHARGES


@<TRIPOS>ATOM
  1 O       -1.0110    -2.3060    -2.5350 O.2   1 <1>  -0.5700 
  2 C       -0.1610    -2.7600    -1.8150 C.2   1 <1>   0.5690 
  3 N       -0.4030    -3.8270    -1.0240 N.am  1 <1>  -0.7300 
  4 C        1.2190    -2.1430    -1.7530 C.3   1 <1>  -0.0990 
  5 C        0.6050    -4.3960    -0.1060 C.3   1 <1>   0.1400 
  6 C        2.3030    -3.2380    -1.7270 C.3   1 <1>  -0.0800 
  7 C        1.9820    -4.4350    -0.8000 C.3   1 <1>  -0.0800 
  8 C        3.6770    -2.7140    -1.2900 C.3   1 <1>  -0.1600 
  9 C        3.1480    -4.5110     0.1930 C.3   1 <1>  -0.1600 
 10 C        4.3320    -3.8710    -0.5350 C.3   1 <1>   0.2200 
 11 N        5.4200    -3.3900     0.3710 N.am  1 <1>  -0.6600 
 12 C        6.4640    -2.6450    -0.1440 C.2   1 <1>   0.5440 
 13 C        5.6130    -4.1190     1.6600 C.3   1 <1>   0.0600 
 14 O        6.7400    -2.7750    -1.3260 O.2   1 <1>  -0.5700 
 15 C        7.2450    -1.7520     0.6960 C.ar  1 <1>   0.0860 
 16 C        8.6060    -1.5080     0.4330 C.ar  1 <1>  -0.1520 
 17 C        6.7110    -1.0960     1.7990 C.ar  1 <1>  -0.1500 
 18 N        9.3870    -1.9780    -0.5910 N.pl3 1 <1>   0.0330 
 19 C        9.3900    -0.6910     1.2440 C.ar  1 <1>   0.0000 
 20 C        7.4810    -0.2680     2.6180 C.ar  1 <1>  -0.1500 
 21 C       10.6500    -1.4850    -0.4220 C.2   1 <1>  -0.3320 
 22 C       10.6830    -0.6990     0.6760 C.2   1 <1>  -0.1810 
 23 C        8.8160    -0.0660     2.3510 C.ar  1 <1>  -0.1500 
 24 C       11.8290    -1.7610    -1.3340 C.3   1 <1>   0.0200 
 25 C       11.9230     0.0230     1.1630 C.3   1 <1>   0.0210 
 26 C       13.1340    -1.3210    -0.6450 C.3   1 <1>  -0.1600 
 27 C       12.9920     0.0480     0.0530 C.3   1 <1>  -0.1600 
 28 H       -1.3440    -4.2240    -1.0390 H     1 <1>   0.3700 
 29 H        1.3640    -1.4990    -2.6010 H     1 <1>   0.0800 
 30 H        1.2660    -1.5440    -0.8620 H     1 <1>   0.0800 
 31 H        0.6470    -3.7760     0.7730 H     1 <1>   0.0800 
 32 H        0.3130    -5.3890     0.1890 H     1 <1>   0.0800 
 33 H        2.3940    -3.6290    -2.7270 H     1 <1>   0.0800 
 34 H        2.0110    -5.3240    -1.4070 H     1 <1>   0.0800 
 35 H        3.5630    -1.8790    -0.6210 H     1 <1>   0.0800 
 36 H        4.2650    -2.4130    -2.1400 H     1 <1>   0.0800 
 37 H        3.3540    -5.5270     0.4760 H     1 <1>   0.0800 
 38 H        2.9120    -3.9250     1.0640 H     1 <1>   0.0800 
 39 H        4.7410    -4.5730    -1.2440 H     1 <1>   0.0800 
 40 H        4.8730    -3.8060     2.3750 H     1 <1>   0.0800 
 41 H        6.5900    -3.9210     2.0670 H     1 <1>   0.0800 
 42 H        5.5300    -5.1790     1.4980 H     1 <1>   0.0800 
 43 H        5.6690    -1.2260     2.0320 H     1 <1>   0.1500 
 44 H        9.0270    -2.5600    -1.3580 H     1 <1>   0.2700 
 45 H        7.0220     0.2140     3.4640 H     1 <1>   0.1500 
 46 H        9.4250     0.5650     2.9720 H     1 <1>   0.1500 
 47 H       11.8800    -2.8100    -1.5690 H     1 <1>   0.0800 
 48 H       11.6960    -1.2110    -2.2490 H     1 <1>   0.0800 
 49 H       11.6710     1.0290     1.4480 H     1 <1>   0.0800 
 50 H       12.3030    -0.4930     2.0260 H     1 <1>   0.0800 
 51 H       13.3990    -2.0580     0.0940 H     1 <1>   0.0800 
 52 H       13.9250    -1.2820    -1.3720 H     1 <1>   0.0800 
 53 H       12.7090     0.7820    -0.6820 H     1 <1>   0.0800 
 54 H       13.9360     0.3460     0.4730 H     1 <1>   0.0800 
@<TRIPOS>BOND
  1   1   2  2   
  2   2   3  am  
  3   2   4  1   
  4   3   5  1   
  5   3  28  1   
  6   4   6  1   
  7   4  29  1   
  8   4  30  1   
  9   5   7  1   
 10   5  31  1   
 11   5  32  1   
 12   6   7  1   
 13   6   8  1   
 14   6  33  1   
 15   7   9  1   
 16   7  34  1   
 17   8  10  1   
 18   8  35  1   
 19   8  36  1   
 20   9  10  1   
 21   9  37  1   
 22   9  38  1   
 23  10  11  1   
 24  10  39  1   
 25  11  12  am  
 26  11  13  1   
 27  12  14  2   
 28  12  15  1   
 29  13  40  1   
 30  13  41  1   
 31  13  42  1   
 32  15  16  ar  
 33  15  17  ar  
 34  16  18  1   
 35  16  19  ar  
 36  17  20  ar  
 37  17  43  1   
 38  18  21  1   
 39  18  44  1   
 40  19  22  1   
 41  19  23  ar  
 42  20  23  ar  
 43  20  45  1   
 44  21  22  2   
 45  21  24  1   
 46  22  25  1   
 47  23  46  1   
 48  24  26  1   
 49  24  47  1   
 50  24  48  1   
 51  25  27  1   
 52  25  49  1   
 53  25  50  1   
 54  26  27  1   
 55  26  51  1   
 56  26  52  1   
 57  27  53  1   
 58  27  54  1   
@<TRIPOS>SUBSTRUCTURE
  1 ****  12 GROUP 4 **** **** 0

# MOE 2024.06 (io_trps.svl 2023.06)
