@<TRIPOS>MOLECULE
NONAME
49 52 1 0 0 
SMALL
USER_CHARGES


@<TRIPOS>ATOM
  1 O        4.0170    -1.5850    -2.1120 O.2   1 <1>  -0.5700 
  2 C        3.1520    -1.5630    -1.2560 C.2   1 <1>   0.5440 
  3 N        3.0270    -0.3890    -0.5590 N.am  1 <1>  -0.6600 
  4 C        2.3660    -2.7360    -0.9320 C.ar  1 <1>   0.0860 
  5 C        3.7180    -0.3130     0.7760 C.3   1 <1>   0.2200 
  6 C        2.8050     0.8730    -1.3340 C.3   1 <1>   0.1400 
  7 C        2.7250    -3.9890    -1.4220 C.ar  1 <1>   0.1600 
  8 C        1.2370    -2.6840    -0.1240 C.ar  1 <1>  -0.1500 
  9 C        3.1580     0.7950     1.6830 C.3   1 <1>   0.1200 
 10 C        5.2530    -0.1600     0.6040 C.3   1 <1>   0.3430 
 11 C        3.7500     2.0370    -0.9780 C.3   1 <1>  -0.0800 
 12 N        2.1040    -5.1260    -1.1670 N.ar  1 <1>  -0.6200 
 13 C        0.5640    -3.8550     0.1530 C.ar  1 <1>  -0.1440 
 14 O        3.8070     2.0070     1.4390 O.3   1 <1>  -0.5600 
 15 N        5.6450     0.3160    -0.7690 N.4   1 <1>  -0.9590 
 16 C        3.3560     2.7240     0.3400 C.3   1 <1>   0.1200 
 17 C        5.2620     1.7340    -1.0550 C.3   1 <1>   0.3430 
 18 C        1.0380    -5.0470    -0.3870 C.ar  1 <1>   0.1670 
 19 C       -0.6710    -3.8030     1.0480 C.3   1 <1>  -0.0170 
 20 C        7.0860     0.0650    -1.0510 C.3   1 <1>   0.2630 
 21 C        0.3320    -6.3710    -0.1290 C.3   1 <1>  -0.0170 
 22 C       -1.5420    -5.0570     0.9210 C.3   1 <1>  -0.1600 
 23 C       -0.6780    -6.3160     1.0250 C.3   1 <1>  -0.1600 
 24 H        3.5380    -1.2410     1.2900 H     1 <1>   0.0800 
 25 H        2.9070     0.6600    -2.3860 H     1 <1>   0.0800 
 26 H        1.7860     1.1870    -1.1830 H     1 <1>   0.0800 
 27 H        3.5870    -4.0540    -2.0650 H     1 <1>   0.1500 
 28 H        0.8920    -1.7470     0.2760 H     1 <1>   0.1500 
 29 H        3.3600     0.5460     2.7100 H     1 <1>   0.0800 
 30 H        2.0930     0.9110     1.5690 H     1 <1>   0.0800 
 31 H        5.6990    -1.1250     0.7780 H     1 <1>   0.0800 
 32 H        5.6370     0.5120     1.3540 H     1 <1>   0.0800 
 33 H        3.5690     2.7870    -1.7270 H     1 <1>   0.0800 
 34 H        5.0780    -0.2790    -1.4170 H     1 <1>   0.4500 
 35 H        2.2890     2.8570     0.4200 H     1 <1>   0.0800 
 36 H        3.8150     3.6960     0.3960 H     1 <1>   0.0800 
 37 H        5.7830     2.3910    -0.3760 H     1 <1>   0.0800 
 38 H        5.5930     1.9740    -2.0520 H     1 <1>   0.0800 
 39 H       -0.3460    -3.7040     2.0700 H     1 <1>   0.0800 
 40 H       -1.2640    -2.9380     0.8050 H     1 <1>   0.0800 
 41 H        7.7050     0.6450    -0.3860 H     1 <1>   0.0800 
 42 H        7.3180     0.3350    -2.0680 H     1 <1>   0.0800 
 43 H        7.3130    -0.9800    -0.9170 H     1 <1>   0.0800 
 44 H       -0.1770    -6.6530    -1.0330 H     1 <1>   0.0800 
 45 H        1.0660    -7.1290     0.0790 H     1 <1>   0.0800 
 46 H       -2.2880    -5.0580     1.6970 H     1 <1>   0.0800 
 47 H       -2.0490    -5.0470    -0.0290 H     1 <1>   0.0800 
 48 H       -1.3000    -7.1940     1.0000 H     1 <1>   0.0800 
 49 H       -0.1480    -6.3110     1.9630 H     1 <1>   0.0800 
@<TRIPOS>BOND
  1   1   2  2   
  2   2   3  am  
  3   2   4  1   
  4   3   5  1   
  5   3   6  1   
  6   4   7  ar  
  7   4   8  ar  
  8   5   9  1   
  9   5  10  1   
 10   5  24  1   
 11   6  11  1   
 12   6  25  1   
 13   6  26  1   
 14   7  12  ar  
 15   7  27  1   
 16   8  13  ar  
 17   8  28  1   
 18   9  14  1   
 19   9  29  1   
 20   9  30  1   
 21  10  15  1   
 22  10  31  1   
 23  10  32  1   
 24  11  16  1   
 25  11  17  1   
 26  11  33  1   
 27  12  18  ar  
 28  13  18  ar  
 29  13  19  1   
 30  14  16  1   
 31  15  17  1   
 32  15  20  1   
 33  15  34  1   
 34  16  35  1   
 35  16  36  1   
 36  17  37  1   
 37  17  38  1   
 38  18  21  1   
 39  19  22  1   
 40  19  39  1   
 41  19  40  1   
 42  20  41  1   
 43  20  42  1   
 44  20  43  1   
 45  21  23  1   
 46  21  44  1   
 47  21  45  1   
 48  22  23  1   
 49  22  46  1   
 50  22  47  1   
 51  23  48  1   
 52  23  49  1   
@<TRIPOS>SUBSTRUCTURE
  1 ****   2 GROUP 4 **** **** 0

# MOE 2024.06 (io_trps.svl 2023.06)
