@<TRIPOS>MOLECULE
NONAME
54 57 1 0 0 
SMALL
USER_CHARGES


@<TRIPOS>ATOM
  1 S        2.2680     1.2340     0.6050 S.3   1 <1>  -0.0800 
  2 C        0.9580     2.0860     1.3510 C.2   1 <1>   0.4420 
  3 C        1.2600    -0.1750     0.6070 C.2   1 <1>   0.1980 
  4 N       -0.0610     1.3340     1.5510 N.2   1 <1>  -0.3380 
  5 N        1.1680     3.4180     1.6270 N.am  1 <1>  -0.4940 
  6 N        0.1180     0.0470     1.1260 N.2   1 <1>  -0.3380 
  7 C        1.8370    -1.4670     0.0330 C.3   1 <1>   0.3800 
  8 C        0.3420     4.3630     2.1520 C.2   1 <1>   0.5690 
  9 O        2.4620    -1.2360    -1.2010 O.3   1 <1>  -0.5600 
 10 C        0.8060    -2.5630    -0.2290 C.3   1 <1>  -0.1600 
 11 O       -0.7950     4.1640     2.4980 O.2   1 <1>  -0.5700 
 12 C        0.9310     5.7660     2.3040 C.3   1 <1>   0.1710 
 13 C        2.1530    -2.2200    -2.1410 C.3   1 <1>   0.1200 
 14 C        1.4130    -3.3190    -1.3920 C.3   1 <1>  -0.1600 
 15 N        2.1480     6.0020     1.4650 N.3   1 <1>  -0.8100 
 16 C        2.9140     7.1660     1.9940 C.3   1 <1>   0.2900 
 17 C        1.7890     6.1880     0.0440 C.3   1 <1>   0.1100 
 18 C        4.2670     7.3800     1.3250 C.2   1 <1>   0.2980 
 19 C        2.7410     5.3850    -0.8380 C.3   1 <1>  -0.2400 
 20 O        5.2010     6.4850     1.5070 O.3   1 <1>  -0.0190 
 21 N        4.5910     8.3670     0.5940 N.2   1 <1>  -0.5650 
 22 N        6.2080     6.9380     0.8290 N.2   1 <1>  -0.4100 
 23 C        5.8540     8.0490     0.2850 C.2   1 <1>   0.4620 
 24 C        6.6900     8.8830    -0.5640 C.ar  1 <1>   0.0540 
 25 C        8.0010     8.5180    -0.8720 C.ar  1 <1>  -0.1500 
 26 C        6.2230    10.0810    -1.1080 C.ar  1 <1>  -0.1500 
 27 C        8.8040     9.3040    -1.6790 C.ar  1 <1>  -0.1500 
 28 C        7.0210    10.8710    -1.9160 C.ar  1 <1>  -0.1500 
 29 C        8.3180    10.4870    -2.2080 C.ar  1 <1>  -0.1440 
 30 C        9.1960    11.3530    -3.0930 C.3   1 <1>  -0.0970 
 31 H        2.0710     3.8090     1.3470 H     1 <1>   0.3700 
 32 H        2.5960    -1.8400     0.6970 H     1 <1>   0.0800 
 33 H       -0.1290    -2.1200    -0.5250 H     1 <1>   0.0800 
 34 H        0.6460    -3.1790     0.6380 H     1 <1>   0.0800 
 35 H        1.1810     5.8800     3.3440 H     1 <1>   0.0800 
 36 H        0.1710     6.4910     2.0680 H     1 <1>   0.0800 
 37 H        3.0620    -2.5730    -2.5970 H     1 <1>   0.0800 
 38 H        1.5190    -1.7690    -2.8860 H     1 <1>   0.0800 
 39 H        0.6740    -3.8010    -2.0070 H     1 <1>   0.0800 
 40 H        2.1200    -4.0520    -1.0420 H     1 <1>   0.0800 
 41 H        3.0970     7.0230     3.0450 H     1 <1>   0.0800 
 42 H        2.3300     8.0630     1.8820 H     1 <1>   0.0800 
 43 H        1.8240     7.2310    -0.2310 H     1 <1>   0.0800 
 44 H        0.7860     5.8370    -0.1420 H     1 <1>   0.0800 
 45 H        3.7520     5.7340    -0.7410 H     1 <1>   0.0800 
 46 H        2.4520     5.4980    -1.8670 H     1 <1>   0.0800 
 47 H        2.7010     4.3400    -0.5940 H     1 <1>   0.0800 
 48 H        8.4010     7.6020    -0.4730 H     1 <1>   0.1500 
 49 H        5.2190    10.4010    -0.8960 H     1 <1>   0.1500 
 50 H        9.8100     8.9900    -1.8930 H     1 <1>   0.1500 
 51 H        6.6270    11.7880    -2.3160 H     1 <1>   0.1500 
 52 H        9.9040    10.7470    -3.6290 H     1 <1>   0.0800 
 53 H        9.7330    12.0620    -2.4890 H     1 <1>   0.0800 
 54 H        8.5980    11.8880    -3.8080 H     1 <1>   0.0800 
@<TRIPOS>BOND
  1   1   2  1   
  2   1   3  1   
  3   2   4  2   
  4   2   5  1   
  5   3   6  2   
  6   3   7  1   
  7   4   6  1   
  8   5   8  am  
  9   5  31  1   
 10   7   9  1   
 11   7  10  1   
 12   7  32  1   
 13   8  11  2   
 14   8  12  1   
 15   9  13  1   
 16  10  14  1   
 17  10  33  1   
 18  10  34  1   
 19  12  15  1   
 20  12  35  1   
 21  12  36  1   
 22  13  14  1   
 23  13  37  1   
 24  13  38  1   
 25  14  39  1   
 26  14  40  1   
 27  15  16  1   
 28  15  17  1   
 29  16  18  1   
 30  16  41  1   
 31  16  42  1   
 32  17  19  1   
 33  17  43  1   
 34  17  44  1   
 35  18  20  1   
 36  18  21  2   
 37  19  45  1   
 38  19  46  1   
 39  19  47  1   
 40  20  22  1   
 41  21  23  1   
 42  22  23  2   
 43  23  24  1   
 44  24  25  ar  
 45  24  26  ar  
 46  25  27  ar  
 47  25  48  1   
 48  26  28  ar  
 49  26  49  1   
 50  27  29  ar  
 51  27  50  1   
 52  28  29  ar  
 53  28  51  1   
 54  29  30  1   
 55  30  52  1   
 56  30  53  1   
 57  30  54  1   
@<TRIPOS>SUBSTRUCTURE
  1 ****  19 GROUP 4 **** **** 0

# MOE 2024.06 (io_trps.svl 2023.06)
