@<TRIPOS>MOLECULE
NONAME
50 52 1 0 0 
SMALL
USER_CHARGES


@<TRIPOS>ATOM
  1 O        0.9220     5.4580    -0.6280 O.2   1 <1>  -0.5700 
  2 C        0.2130     4.9060     0.1810 C.2   1 <1>   0.5690 
  3 N       -0.9800     4.3250    -0.1020 N.am  1 <1>  -0.6600 
  4 C        0.5310     4.8220     1.6480 C.3   1 <1>  -0.0990 
  5 C       -1.5890     3.7350     1.1100 C.3   1 <1>   0.1400 
  6 C       -1.2960     3.7360    -1.4270 C.3   1 <1>   0.1400 
  7 C       -0.7930     4.3520     2.2650 C.3   1 <1>  -0.1600 
  8 C       -1.6360     4.7970    -2.4900 C.3   1 <1>  -0.1600 
  9 C       -2.8040     5.7600    -2.1880 C.3   1 <1>   0.4230 
 10 N       -2.5310     6.6660    -1.0340 N.4   1 <1>  -0.9590 
 11 C       -4.0980     4.9620    -1.9410 C.3   1 <1>  -0.1600 
 12 C       -3.6820     7.5540    -0.6770 C.3   1 <1>   0.3430 
 13 C       -1.2880     7.4920    -1.1700 C.3   1 <1>   0.5230 
 14 C       -5.2930     5.8570    -1.6070 C.3   1 <1>  -0.1600 
 15 C       -4.9430     6.7380    -0.4070 C.3   1 <1>  -0.1600 
 16 C       -0.7620     7.9190     0.1960 C.2   1 <1>   0.0060 
 17 N       -1.4270     7.9030     1.3020 N.2   1 <1>  -0.3380 
 18 N        0.4920     8.3320     0.3990 N.pl3 1 <1>   0.0330 
 19 N       -0.6070     8.3240     2.2620 N.2   1 <1>  -0.3380 
 20 C        0.5290     8.5740     1.7090 C.2   1 <1>   0.0060 
 21 C        1.7630     9.0650     2.4440 C.3   1 <1>   0.0200 
 22 C        2.1780    10.4640     1.9770 C.3   1 <1>  -0.2400 
 23 H        0.8390     5.7720     2.0410 H     1 <1>   0.0800 
 24 H        1.3070     4.0940     1.7950 H     1 <1>   0.0800 
 25 H       -1.4600     2.6650     1.0960 H     1 <1>   0.0800 
 26 H       -2.6360     3.9770     1.1810 H     1 <1>   0.0800 
 27 H       -2.1080     3.0360    -1.3260 H     1 <1>   0.0800 
 28 H       -0.4380     3.1760    -1.7620 H     1 <1>   0.0800 
 29 H       -1.3310     5.2040     2.6470 H     1 <1>   0.0800 
 30 H       -0.6430     3.6520     3.0680 H     1 <1>   0.0800 
 31 H       -1.8980     4.2580    -3.3830 H     1 <1>   0.0800 
 32 H       -0.7460     5.3370    -2.7490 H     1 <1>   0.0800 
 33 H       -2.9620     6.3710    -3.0630 H     1 <1>   0.0800 
 34 H       -2.3260     6.0540    -0.2270 H     1 <1>   0.4500 
 35 H       -3.9570     4.2700    -1.1300 H     1 <1>   0.0800 
 36 H       -4.3320     4.3850    -2.8190 H     1 <1>   0.0800 
 37 H       -3.8750     8.2370    -1.4880 H     1 <1>   0.0800 
 38 H       -3.4530     8.1370     0.2000 H     1 <1>   0.0800 
 39 H       -1.4870     8.3620    -1.7720 H     1 <1>   0.0800 
 40 H       -0.5160     6.9210    -1.6510 H     1 <1>   0.0800 
 41 H       -6.1530     5.2500    -1.3750 H     1 <1>   0.0800 
 42 H       -5.5410     6.4730    -2.4550 H     1 <1>   0.0800 
 43 H       -5.7580     7.4100    -0.2050 H     1 <1>   0.0800 
 44 H       -4.7950     6.1360     0.4730 H     1 <1>   0.0800 
 45 H        1.2690     8.4110    -0.2630 H     1 <1>   0.2700 
 46 H        2.5720     8.3720     2.2920 H     1 <1>   0.0800 
 47 H        1.5500     9.0950     3.4990 H     1 <1>   0.0800 
 48 H        2.4460    10.4580     0.9360 H     1 <1>   0.0800 
 49 H        3.0240    10.8050     2.5460 H     1 <1>   0.0800 
 50 H        1.3660    11.1560     2.1240 H     1 <1>   0.0800 
@<TRIPOS>BOND
  1   1   2  2   
  2   2   3  am  
  3   2   4  1   
  4   3   5  1   
  5   3   6  1   
  6   4   7  1   
  7   4  23  1   
  8   4  24  1   
  9   5   7  1   
 10   5  25  1   
 11   5  26  1   
 12   6   8  1   
 13   6  27  1   
 14   6  28  1   
 15   7  29  1   
 16   7  30  1   
 17   8   9  1   
 18   8  31  1   
 19   8  32  1   
 20   9  10  1   
 21   9  11  1   
 22   9  33  1   
 23  10  12  1   
 24  10  13  1   
 25  10  34  1   
 26  11  14  1   
 27  11  35  1   
 28  11  36  1   
 29  12  15  1   
 30  12  37  1   
 31  12  38  1   
 32  13  16  1   
 33  13  39  1   
 34  13  40  1   
 35  14  15  1   
 36  14  41  1   
 37  14  42  1   
 38  15  43  1   
 39  15  44  1   
 40  16  17  2   
 41  16  18  1   
 42  17  19  1   
 43  18  20  1   
 44  18  45  1   
 45  19  20  2   
 46  20  21  1   
 47  21  22  1   
 48  21  46  1   
 49  21  47  1   
 50  22  48  1   
 51  22  49  1   
 52  22  50  1   
@<TRIPOS>SUBSTRUCTURE
  1 ****  16 GROUP 4 **** **** 0

# MOE 2024.06 (io_trps.svl 2023.06)
