@<TRIPOS>MOLECULE
NONAME
57 61 1 0 0 
SMALL
USER_CHARGES


@<TRIPOS>ATOM
  1 O        1.5820    -3.8230    -2.8880 O.2   1 <1>  -0.5700 
  2 C        1.9000    -2.7710    -2.3830 C.2   1 <1>   0.6590 
  3 O        2.3910    -1.7700    -3.1050 O.3   1 <1>  -0.4300 
  4 C        1.7300    -2.4870    -0.8770 C.3   1 <1>   0.2410 
  5 C        2.6220    -1.8890    -4.4940 C.3   1 <1>   0.0400 
  6 C        3.1640    -2.7790    -0.3860 C.2   1 <1>  -0.3320 
  7 C        1.2040    -3.4680    -0.0160 C.3   1 <1>   0.4230 
  8 C        0.0410    -2.0980    -0.7940 C.3   1 <1>  -0.1600 
  9 N        4.1140    -1.8030    -0.2680 N.pl3 1 <1>   0.0330 
 10 C        3.7130    -4.0020    -0.0800 C.2   1 <1>  -0.1810 
 11 N        0.6770    -4.7900     0.3260 N.4   1 <1>  -0.9590 
 12 C        0.8060    -2.5070     1.4470 C.3   1 <1>  -0.0800 
 13 C       -0.8300    -2.9590     0.5100 C.3   1 <1>  -0.0800 
 14 C        5.2770    -2.3940     0.1490 C.ar  1 <1>  -0.1520 
 15 C        5.0610    -3.7630     0.2740 C.ar  1 <1>   0.0000 
 16 C        3.1190    -5.4450    -0.0660 C.3   1 <1>   0.0210 
 17 C        1.6100    -5.7160    -0.4130 C.3   1 <1>   0.3430 
 18 C       -0.9230    -4.3750    -0.1320 C.3   1 <1>   0.3430 
 19 C        1.8140    -1.4490     1.9680 C.3   1 <1>   0.2000 
 20 C       -0.7650    -1.8260     1.3510 C.3   1 <1>  -0.1600 
 21 C        6.5230    -1.8330     0.4340 C.ar  1 <1>  -0.1500 
 22 C        6.1120    -4.5860     0.6900 C.ar  1 <1>  -0.1500 
 23 O        1.8280    -0.3500     1.1320 O.3   1 <1>  -0.6800 
 24 C        1.4580    -0.9200     3.3570 C.3   1 <1>  -0.2400 
 25 C        7.5480    -2.6540     0.8450 C.ar  1 <1>  -0.1500 
 26 C        7.3430    -4.0410     0.9750 C.ar  1 <1>   0.0830 
 27 O        8.3170    -4.9050     1.3770 O.3   1 <1>  -0.3630 
 28 C        9.6270    -4.4530     1.6380 C.3   1 <1>   0.0400 
 29 H        3.0220    -0.9580    -4.8550 H     1 <1>   0.0800 
 30 H        1.6900    -2.1070    -4.9880 H     1 <1>   0.0800 
 31 H        3.3280    -2.6830    -4.6640 H     1 <1>   0.0800 
 32 H        0.7880    -3.7850    -0.9590 H     1 <1>   0.0800 
 33 H       -0.0240    -1.0220    -0.8140 H     1 <1>   0.0800 
 34 H       -0.4360    -2.3690    -1.7240 H     1 <1>   0.0800 
 35 H        3.9850    -0.7980    -0.4380 H     1 <1>   0.2700 
 36 H        0.7640    -4.9190     1.3400 H     1 <1>   0.4500 
 37 H        0.7990    -3.2220     2.2570 H     1 <1>   0.0800 
 38 H       -1.2820    -3.4700     1.3560 H     1 <1>   0.0800 
 39 H        3.2990    -5.8540     0.9120 H     1 <1>   0.0800 
 40 H        3.7070    -6.0360    -0.7470 H     1 <1>   0.0800 
 41 H        1.3670    -6.7390    -0.1800 H     1 <1>   0.0800 
 42 H        1.4750    -5.5870    -1.4740 H     1 <1>   0.0800 
 43 H       -1.0390    -4.3390    -1.2040 H     1 <1>   0.0800 
 44 H       -1.6590    -5.0190     0.3230 H     1 <1>   0.0800 
 45 H        2.8080    -1.8630     2.0100 H     1 <1>   0.0800 
 46 H       -1.2620    -1.8570     2.3140 H     1 <1>   0.0800 
 47 H       -0.8410    -0.8230     0.9680 H     1 <1>   0.0800 
 48 H        6.6730    -0.7720     0.3310 H     1 <1>   0.1500 
 49 H        5.9620    -5.6440     0.7880 H     1 <1>   0.1500 
 50 H        2.2110     0.4150     1.6070 H     1 <1>   0.4000 
 51 H        0.5150    -0.4030     3.3510 H     1 <1>   0.0800 
 52 H        2.2230    -0.2500     3.7070 H     1 <1>   0.0800 
 53 H        1.3960    -1.7330     4.0570 H     1 <1>   0.0800 
 54 H        8.5030    -2.2190     1.0640 H     1 <1>   0.1500 
 55 H       10.2240    -5.3030     1.9160 H     1 <1>   0.0800 
 56 H        9.5980    -3.7470     2.4490 H     1 <1>   0.0800 
 57 H       10.0260    -4.0030     0.7470 H     1 <1>   0.0800 
@<TRIPOS>BOND
  1   1   2  2   
  2   2   3  1   
  3   2   4  1   
  4   3   5  1   
  5   4   6  1   
  6   4   7  1   
  7   4   8  1   
  8   5  29  1   
  9   5  30  1   
 10   5  31  1   
 11   6   9  1   
 12   6  10  2   
 13   7  11  1   
 14   7  12  1   
 15   7  32  1   
 16   8  13  1   
 17   8  33  1   
 18   8  34  1   
 19   9  14  1   
 20   9  35  1   
 21  10  15  1   
 22  10  16  1   
 23  11  17  1   
 24  11  18  1   
 25  11  36  1   
 26  12  19  1   
 27  12  20  1   
 28  12  37  1   
 29  13  18  1   
 30  13  20  1   
 31  13  38  1   
 32  14  15  ar  
 33  14  21  ar  
 34  15  22  ar  
 35  16  17  1   
 36  16  39  1   
 37  16  40  1   
 38  17  41  1   
 39  17  42  1   
 40  18  43  1   
 41  18  44  1   
 42  19  23  1   
 43  19  24  1   
 44  19  45  1   
 45  20  46  1   
 46  20  47  1   
 47  21  25  ar  
 48  21  48  1   
 49  22  26  ar  
 50  22  49  1   
 51  23  50  1   
 52  24  51  1   
 53  24  52  1   
 54  24  53  1   
 55  25  26  ar  
 56  25  54  1   
 57  26  27  1   
 58  27  28  1   
 59  28  55  1   
 60  28  56  1   
 61  28  57  1   
@<TRIPOS>SUBSTRUCTURE
  1 ****   6 GROUP 4 **** **** 0

# MOE 2024.06 (io_trps.svl 2023.06)
