@<TRIPOS>MOLECULE
NONAME
41 43 1 0 0 
SMALL
USER_CHARGES


@<TRIPOS>ATOM
  1 O       -1.3640    -0.7790     1.5000 O.co2 1 <1>  -0.9000 
  2 C       -2.3820    -0.3670     0.9410 C.2   1 <1>   0.9060 
  3 O       -3.4840    -0.3200     1.4970 O.co2 1 <1>  -0.9000 
  4 C       -2.1890     0.3590    -0.4030 C.3   1 <1>   0.3170 
  5 N       -1.9910     1.8650    -0.2230 N.4   1 <1>  -0.9590 
  6 C       -3.3660     0.0660    -1.3670 C.3   1 <1>   0.1200 
  7 C       -3.3030     2.4450     0.2260 C.3   1 <1>   0.3430 
  8 C       -0.9060     2.1080     0.7630 C.3   1 <1>   0.5240 
  9 O       -3.9970     1.2530    -1.7840 O.3   1 <1>  -0.5600 
 10 C       -4.4630     2.0240    -0.7070 C.3   1 <1>   0.1200 
 11 C       -0.6920     3.6020     0.8700 C.2   1 <1>  -0.1810 
 12 C       -0.9270     4.3610     2.0080 C.2   1 <1>   0.1390 
 13 C       -0.2700     4.4950    -0.0520 C.2   1 <1>  -0.3020 
 14 N       -0.6880     5.6170     1.8110 N.2   1 <1>  -0.7070 
 15 N       -0.2580     5.7210     0.5280 N.pl3 1 <1>   0.5930 
 16 C        0.0720     6.9510    -0.1030 C.ar  1 <1>  -0.0230 
 17 C        1.3570     7.2160    -0.5850 C.ar  1 <1>  -0.1430 
 18 C       -0.9190     7.9170    -0.2560 C.ar  1 <1>  -0.1500 
 19 C        1.6140     8.4180    -1.2250 C.ar  1 <1>  -0.1500 
 20 C        2.4980     6.2200    -0.4140 C.3   1 <1>  -0.0970 
 21 C       -0.6520     9.1140    -0.8930 C.ar  1 <1>  -0.1500 
 22 C        0.6160     9.3630    -1.3820 C.ar  1 <1>  -0.1500 
 23 H       -1.2970    -0.0650    -0.8270 H     1 <1>   0.0800 
 24 H       -1.7650     2.2700    -1.1350 H     1 <1>   0.4500 
 25 H       -4.1030    -0.5690    -0.9040 H     1 <1>   0.0800 
 26 H       -3.0020    -0.4390    -2.2440 H     1 <1>   0.0800 
 27 H       -3.5310     2.0980     1.2230 H     1 <1>   0.0800 
 28 H       -3.2420     3.5200     0.2600 H     1 <1>   0.0800 
 29 H       -1.1770     1.7000     1.7250 H     1 <1>   0.0800 
 30 H        0.0030     1.6270     0.4400 H     1 <1>   0.0800 
 31 H       -4.9540     2.8930    -1.1070 H     1 <1>   0.0800 
 32 H       -5.1860     1.4450    -0.1570 H     1 <1>   0.0800 
 33 H       -1.2740     3.9700     2.9530 H     1 <1>   0.1500 
 34 H        0.0210     4.3600    -1.0770 H     1 <1>   0.1500 
 35 H       -1.9060     7.7290     0.1310 H     1 <1>   0.1500 
 36 H        2.5980     8.6330    -1.6050 H     1 <1>   0.1500 
 37 H        3.4470     6.6900    -0.6050 H     1 <1>   0.0800 
 38 H        2.3820     5.4000    -1.0990 H     1 <1>   0.0800 
 39 H        2.5160     5.8400     0.5930 H     1 <1>   0.0800 
 40 H       -1.4280     9.8510    -1.0050 H     1 <1>   0.1500 
 41 H        0.8280    10.2940    -1.8790 H     1 <1>   0.1500 
@<TRIPOS>BOND
  1   1   2  ar  
  2   2   3  ar  
  3   2   4  1   
  4   4   5  1   
  5   4   6  1   
  6   4  23  1   
  7   5   7  1   
  8   5   8  1   
  9   5  24  1   
 10   6   9  1   
 11   6  25  1   
 12   6  26  1   
 13   7  10  1   
 14   7  27  1   
 15   7  28  1   
 16   8  11  1   
 17   8  29  1   
 18   8  30  1   
 19   9  10  1   
 20  10  31  1   
 21  10  32  1   
 22  11  12  1   
 23  11  13  2   
 24  12  14  2   
 25  12  33  1   
 26  13  15  1   
 27  13  34  1   
 28  14  15  1   
 29  15  16  1   
 30  16  17  ar  
 31  16  18  ar  
 32  17  19  ar  
 33  17  20  1   
 34  18  21  ar  
 35  18  35  1   
 36  19  22  ar  
 37  19  36  1   
 38  20  37  1   
 39  20  38  1   
 40  20  39  1   
 41  21  22  ar  
 42  21  40  1   
 43  22  41  1   
@<TRIPOS>SUBSTRUCTURE
  1 ****  11 GROUP 4 **** **** 0

# MOE 2024.06 (io_trps.svl 2023.06)
