@<TRIPOS>MOLECULE
NONAME
55 58 1 0 0 
SMALL
USER_CHARGES


@<TRIPOS>ATOM
  1 S       -1.1540     0.6700    -1.6100 S.o2  1 <1>   1.3330 
  2 O       -1.6240     0.2070    -2.8920 O.2   1 <1>  -0.6500 
  3 O       -0.4810     1.9410    -1.4820 O.2   1 <1>  -0.6500 
  4 N       -2.4930     0.6940    -0.5040 N.am  1 <1>  -0.6930 
  5 C       -0.1140    -0.5770    -0.8840 C.3   1 <1>  -0.1350 
  6 C       -3.3430    -0.3890    -0.3300 C.ar  1 <1>   0.1990 
  7 C       -2.6450     1.9050     0.3410 C.3   1 <1>   0.1160 
  8 C       -4.0400    -0.9490    -1.3960 C.ar  1 <1>  -0.1500 
  9 C       -3.5180    -0.9550     0.9290 C.ar  1 <1>  -0.1500 
 10 C       -4.8670    -2.0400    -1.2120 C.ar  1 <1>  -0.1500 
 11 C       -4.3490    -2.0430     1.1110 C.ar  1 <1>  -0.1500 
 12 C       -5.0500    -2.6130     0.0480 C.ar  1 <1>   0.0860 
 13 C       -5.9140    -3.7570     0.2560 C.2   1 <1>   0.5440 
 14 O       -5.5100    -4.6830     0.9360 O.2   1 <1>  -0.5700 
 15 N       -7.1910    -3.8250    -0.2670 N.am  1 <1>  -0.6600 
 16 C       -8.0010    -2.6230    -0.6450 C.3   1 <1>   0.1400 
 17 C       -7.9680    -5.0970    -0.2700 C.3   1 <1>   0.1400 
 18 C       -9.2110    -2.4550     0.2950 C.3   1 <1>   0.1430 
 19 C       -9.1730    -4.9760     0.6700 C.3   1 <1>  -0.1600 
 20 C      -10.0190    -1.2600    -0.1750 C.ar  1 <1>   0.1670 
 21 C      -10.0440    -3.7560     0.3220 C.3   1 <1>  -0.1600 
 22 C       -8.7700    -2.0170     1.7180 C.3   1 <1>  -0.1600 
 23 N      -10.7890    -1.2280    -1.2410 N.ar  1 <1>  -0.6200 
 24 C       -9.8420    -0.1830     0.6410 C.ar  1 <1>  -0.1430 
 25 C       -8.8960    -0.4850     1.7760 C.3   1 <1>  -0.0170 
 26 C      -11.3900    -0.0650    -1.4480 C.ar  1 <1>   0.4770 
 27 C      -10.5120     0.9740     0.3300 C.ar  1 <1>   0.1600 
 28 N      -11.2990     1.0430    -0.7240 N.ar  1 <1>  -0.6200 
 29 C      -12.2940     0.0110    -2.6540 C.3   1 <1>  -0.0970 
 30 H        0.7820    -0.6890    -1.4620 H     1 <1>   0.0800 
 31 H       -0.6270    -1.5180    -0.8590 H     1 <1>   0.0800 
 32 H        0.1530    -0.3000     0.1170 H     1 <1>   0.0800 
 33 H       -2.7060     2.7760    -0.2890 H     1 <1>   0.0800 
 34 H       -1.7940     2.0060     0.9920 H     1 <1>   0.0800 
 35 H       -3.5420     1.8430     0.9310 H     1 <1>   0.0800 
 36 H       -3.9310    -0.5240    -2.3780 H     1 <1>   0.1500 
 37 H       -2.9870    -0.5440     1.7680 H     1 <1>   0.1500 
 38 H       -5.3820    -2.4640    -2.0570 H     1 <1>   0.1500 
 39 H       -4.4630    -2.4770     2.0910 H     1 <1>   0.1500 
 40 H       -8.3530    -2.7450    -1.6550 H     1 <1>   0.0800 
 41 H       -7.4070    -1.7280    -0.6090 H     1 <1>   0.0800 
 42 H       -7.3480    -5.9230     0.0360 H     1 <1>   0.0800 
 43 H       -8.3060    -5.2950    -1.2730 H     1 <1>   0.0800 
 44 H       -8.8140    -4.9020     1.6820 H     1 <1>   0.0800 
 45 H       -9.7640    -5.8720     0.6010 H     1 <1>   0.0800 
 46 H      -10.4780    -3.9100    -0.6510 H     1 <1>   0.0800 
 47 H      -10.8540    -3.6640     1.0240 H     1 <1>   0.0800 
 48 H       -7.7760    -2.3450     1.9650 H     1 <1>   0.0800 
 49 H       -9.4460    -2.4320     2.4440 H     1 <1>   0.0800 
 50 H       -7.9440    -0.0180     1.5890 H     1 <1>   0.0800 
 51 H       -9.2880    -0.1560     2.7220 H     1 <1>   0.0800 
 52 H      -10.4060     1.8510     0.9460 H     1 <1>   0.1500 
 53 H      -12.0430    -0.7580    -3.3600 H     1 <1>   0.0800 
 54 H      -12.1890     0.9690    -3.1300 H     1 <1>   0.0800 
 55 H      -13.3130    -0.1160    -2.3410 H     1 <1>   0.0800 
@<TRIPOS>BOND
  1   1   2  2   
  2   1   3  2   
  3   1   4  am  
  4   1   5  1   
  5   4   6  1   
  6   4   7  1   
  7   5  30  1   
  8   5  31  1   
  9   5  32  1   
 10   6   8  ar  
 11   6   9  ar  
 12   7  33  1   
 13   7  34  1   
 14   7  35  1   
 15   8  10  ar  
 16   8  36  1   
 17   9  11  ar  
 18   9  37  1   
 19  10  12  ar  
 20  10  38  1   
 21  11  12  ar  
 22  11  39  1   
 23  12  13  1   
 24  13  14  2   
 25  13  15  am  
 26  15  16  1   
 27  15  17  1   
 28  16  18  1   
 29  16  40  1   
 30  16  41  1   
 31  17  19  1   
 32  17  42  1   
 33  17  43  1   
 34  18  20  1   
 35  18  21  1   
 36  18  22  1   
 37  19  21  1   
 38  19  44  1   
 39  19  45  1   
 40  20  23  ar  
 41  20  24  ar  
 42  21  46  1   
 43  21  47  1   
 44  22  25  1   
 45  22  48  1   
 46  22  49  1   
 47  23  26  ar  
 48  24  25  1   
 49  24  27  ar  
 50  25  50  1   
 51  25  51  1   
 52  26  28  ar  
 53  26  29  1   
 54  27  28  ar  
 55  27  52  1   
 56  29  53  1   
 57  29  54  1   
 58  29  55  1   
@<TRIPOS>SUBSTRUCTURE
  1 ****  16 GROUP 4 **** **** 0

# MOE 2024.06 (io_trps.svl 2023.06)
