@<TRIPOS>MOLECULE
NONAME
42 43 1 0 0 
SMALL
USER_CHARGES


@<TRIPOS>ATOM
  1 S        0.6310     0.6970    -0.4370 S.o2  1 <1>   1.3330 
  2 O       -0.1510     1.2760    -1.5060 O.2   1 <1>  -0.6500 
  3 O        2.0600     0.9010    -0.3900 O.2   1 <1>  -0.6500 
  4 N        0.3650    -0.9800    -0.4580 N.am  1 <1>  -0.8490 
  5 C       -0.1110     1.1710     1.1310 C.3   1 <1>  -0.0550 
  6 C        0.2540    -1.5090    -1.8210 C.3   1 <1>   0.1160 
  7 C        1.3770    -1.7410     0.2850 C.3   1 <1>   0.1160 
  8 C       -0.2250     2.6810     1.4450 C.3   1 <1>  -0.0800 
  9 C       -1.0420     3.4640     0.4070 C.3   1 <1>   0.2000 
 10 C        1.1250     3.4120     1.5530 C.3   1 <1>   0.2090 
 11 O       -1.8640     4.3390     1.1010 O.3   1 <1>  -0.6800 
 12 C       -0.0150     4.2910    -0.3640 C.3   1 <1>   0.2090 
 13 N        1.0460     4.5870     0.6350 N.pl3 1 <1>  -0.8380 
 14 C        2.1920     5.2270     0.1740 C.ar  1 <1>   0.4100 
 15 N        3.2920     4.4760     0.1670 N.ar  1 <1>  -0.6200 
 16 C        2.1690     6.5640    -0.2810 C.ar  1 <1>   0.0860 
 17 C        4.3780     5.0020    -0.3600 C.ar  1 <1>   0.1600 
 18 C        1.0080     7.4130    -0.1610 C.2   1 <1>   0.5440 
 19 C        3.3310     7.0770    -0.8430 C.ar  1 <1>  -0.1500 
 20 C        4.4500     6.2790    -0.8830 C.ar  1 <1>  -0.1500 
 21 O        0.6920     8.1890    -1.0380 O.2   1 <1>  -0.5700 
 22 N        0.2360     7.4230     0.9500 N.am  1 <1>  -0.8000 
 23 H       -1.1020     0.7610     1.1600 H     1 <1>   0.0800 
 24 H        0.4400     0.7050     1.9240 H     1 <1>   0.0800 
 25 H        0.0780    -2.5710    -1.7980 H     1 <1>   0.0800 
 26 H        1.1580    -1.3120    -2.3740 H     1 <1>   0.0800 
 27 H       -0.5720    -1.0440    -2.3320 H     1 <1>   0.0800 
 28 H        1.1060    -2.7830     0.3160 H     1 <1>   0.0800 
 29 H        1.4480    -1.3790     1.2960 H     1 <1>   0.0800 
 30 H        2.3420    -1.6440    -0.1850 H     1 <1>   0.0800 
 31 H       -0.7130     2.7470     2.4030 H     1 <1>   0.0800 
 32 H       -1.6620     2.8550    -0.2280 H     1 <1>   0.0800 
 33 H        1.9370     2.7630     1.2750 H     1 <1>   0.0800 
 34 H        1.2940     3.7560     2.5580 H     1 <1>   0.0800 
 35 H       -1.2970     5.0390     1.4800 H     1 <1>   0.4000 
 36 H       -0.4550     5.1840    -0.7730 H     1 <1>   0.0800 
 37 H        0.4100     3.7120    -1.1670 H     1 <1>   0.0800 
 38 H        5.2580     4.3820    -0.3810 H     1 <1>   0.1500 
 39 H        3.3470     8.0820    -1.2300 H     1 <1>   0.1500 
 40 H        5.3700     6.6390    -1.3080 H     1 <1>   0.1500 
 41 H       -0.5940     8.0140     0.9860 H     1 <1>   0.3700 
 42 H        0.3540     6.7010     1.6630 H     1 <1>   0.3700 
@<TRIPOS>BOND
  1   1   2  2   
  2   1   3  2   
  3   1   4  am  
  4   1   5  1   
  5   4   6  1   
  6   4   7  1   
  7   5   8  1   
  8   5  23  1   
  9   5  24  1   
 10   6  25  1   
 11   6  26  1   
 12   6  27  1   
 13   7  28  1   
 14   7  29  1   
 15   7  30  1   
 16   8   9  1   
 17   8  10  1   
 18   8  31  1   
 19   9  11  1   
 20   9  12  1   
 21   9  32  1   
 22  10  13  1   
 23  10  33  1   
 24  10  34  1   
 25  11  35  1   
 26  12  13  1   
 27  12  36  1   
 28  12  37  1   
 29  13  14  1   
 30  14  15  ar  
 31  14  16  ar  
 32  15  17  ar  
 33  16  18  1   
 34  16  19  ar  
 35  17  20  ar  
 36  17  38  1   
 37  18  21  2   
 38  18  22  am  
 39  19  20  ar  
 40  19  39  1   
 41  20  40  1   
 42  22  41  1   
 43  22  42  1   
@<TRIPOS>SUBSTRUCTURE
  1 ****  13 GROUP 4 **** **** 0

# MOE 2024.06 (io_trps.svl 2023.06)
