@<TRIPOS>MOLECULE
NONAME
45 47 1 0 0 
SMALL
USER_CHARGES


@<TRIPOS>ATOM
  1 S        0.1610     0.2210     1.4080 S.o2  1 <1>   1.5760 
  2 O        1.2820    -0.1320     2.2500 O.2   1 <1>  -0.6500 
  3 O       -1.1500     0.4350     1.9780 O.2   1 <1>  -0.6500 
  4 N        0.5910     1.5570     0.4690 N.am  1 <1>  -0.8490 
  5 N        0.0180    -0.9440     0.1980 N.am  1 <1>  -0.8490 
  6 C        1.9520     1.3800    -0.0760 C.3   1 <1>   0.1960 
  7 C        0.4520     2.8020     1.2330 C.3   1 <1>   0.1960 
  8 C       -1.0970    -0.7170    -0.7040 C.3   1 <1>   0.1960 
  9 C       -0.1840    -2.2760     0.7320 C.3   1 <1>   0.1960 
 10 C        2.4080     2.4880    -1.0380 C.3   1 <1>   0.2090 
 11 C        0.2880     3.9970     0.2880 C.3   1 <1>  -0.1600 
 12 C       -1.2790    -2.0520    -1.4160 C.3   1 <1>  -0.1600 
 13 C       -0.6970    -3.0870    -0.4520 C.3   1 <1>  -0.1600 
 14 N        2.7230     3.7480    -0.3020 N.pl3 1 <1>  -0.8380 
 15 C        1.6000     4.6960    -0.0790 C.3   1 <1>   0.2090 
 16 C        4.0260     4.1800    -0.1510 C.ar  1 <1>   0.4100 
 17 N        4.2680     5.4680    -0.3000 N.ar  1 <1>  -0.6200 
 18 C        5.0530     3.3050     0.1510 C.ar  1 <1>  -0.1500 
 19 C        5.5220     5.8470    -0.1580 C.ar  1 <1>   0.4770 
 20 C        6.3160     3.8130     0.2780 C.ar  1 <1>   0.1600 
 21 N        6.5720     5.0960     0.1230 N.ar  1 <1>  -0.6200 
 22 C        5.7940     7.3210    -0.3320 C.3   1 <1>  -0.0970 
 23 H        1.9850     0.4530    -0.6210 H     1 <1>   0.0800 
 24 H        2.6640     1.3060     0.7280 H     1 <1>   0.0800 
 25 H        1.2880     2.9390     1.9000 H     1 <1>   0.0800 
 26 H       -0.4400     2.7520     1.8350 H     1 <1>   0.0800 
 27 H       -0.8820     0.0840    -1.3920 H     1 <1>   0.0800 
 28 H       -1.9900    -0.4810    -0.1480 H     1 <1>   0.0800 
 29 H       -0.9330    -2.2510     1.5090 H     1 <1>   0.0800 
 30 H        0.7340    -2.6740     1.1320 H     1 <1>   0.0800 
 31 H        1.6470     2.6660    -1.7770 H     1 <1>   0.0800 
 32 H        3.2890     2.1560    -1.5580 H     1 <1>   0.0800 
 33 H       -0.3330     4.7280     0.7720 H     1 <1>   0.0800 
 34 H       -0.2320     3.6910    -0.6010 H     1 <1>   0.0800 
 35 H       -0.7240    -2.0470    -2.3370 H     1 <1>   0.0800 
 36 H       -2.3170    -2.2330    -1.6300 H     1 <1>   0.0800 
 37 H       -1.4350    -3.8010    -0.1310 H     1 <1>   0.0800 
 38 H        0.1210    -3.6110    -0.9150 H     1 <1>   0.0800 
 39 H        1.8720     5.3590     0.7260 H     1 <1>   0.0800 
 40 H        1.4620     5.2960    -0.9620 H     1 <1>   0.0800 
 41 H        4.8600     2.2620     0.2900 H     1 <1>   0.1500 
 42 H        7.1410     3.1630     0.5150 H     1 <1>   0.1500 
 43 H        5.0370     7.7690    -0.9490 H     1 <1>   0.0800 
 44 H        6.7510     7.4650    -0.7960 H     1 <1>   0.0800 
 45 H        5.7920     7.7960     0.6300 H     1 <1>   0.0800 
@<TRIPOS>BOND
  1   1   2  2   
  2   1   3  2   
  3   1   4  am  
  4   1   5  am  
  5   4   6  1   
  6   4   7  1   
  7   5   8  1   
  8   5   9  1   
  9   6  10  1   
 10   6  23  1   
 11   6  24  1   
 12   7  11  1   
 13   7  25  1   
 14   7  26  1   
 15   8  12  1   
 16   8  27  1   
 17   8  28  1   
 18   9  13  1   
 19   9  29  1   
 20   9  30  1   
 21  10  14  1   
 22  10  31  1   
 23  10  32  1   
 24  11  15  1   
 25  11  33  1   
 26  11  34  1   
 27  12  13  1   
 28  12  35  1   
 29  12  36  1   
 30  13  37  1   
 31  13  38  1   
 32  14  15  1   
 33  14  16  1   
 34  15  39  1   
 35  15  40  1   
 36  16  17  ar  
 37  16  18  ar  
 38  17  19  ar  
 39  18  20  ar  
 40  18  41  1   
 41  19  21  ar  
 42  19  22  1   
 43  20  21  ar  
 44  20  42  1   
 45  22  43  1   
 46  22  44  1   
 47  22  45  1   
@<TRIPOS>SUBSTRUCTURE
  1 ****   6 GROUP 4 **** **** 0

# MOE 2024.06 (io_trps.svl 2023.06)
