@<TRIPOS>MOLECULE
NONAME
44 45 1 0 0 
SMALL
USER_CHARGES


@<TRIPOS>ATOM
  1 S        1.6830     0.5010    -2.0790 S.3   1 <1>  -0.0800 
  2 C        1.8160    -0.1280    -0.4430 C.2   1 <1>  -0.1400 
  3 C        0.0770    -0.1800    -2.2590 C.2   1 <1>  -0.1100 
  4 C        0.6990    -0.8000    -0.1060 C.2   1 <1>  -0.1500 
  5 C        3.0980     0.1500     0.3180 C.3   1 <1>   0.0200 
  6 C       -0.2920    -0.8280    -1.1390 C.2   1 <1>  -0.1500 
  7 C        3.1980     1.6330     0.6950 C.3   1 <1>  -0.1600 
  8 C        4.5010     1.9410     1.4500 C.3   1 <1>  -0.0990 
  9 C        4.5900     3.3970     1.8690 C.2   1 <1>   0.5690 
 10 O        4.4990     3.6570     3.0440 O.2   1 <1>  -0.5700 
 11 N        4.7760     4.3260     0.8920 N.am  1 <1>  -0.4930 
 12 C        4.9030     5.7350     0.9900 C.2   1 <1>   0.0630 
 13 C        4.1950     6.6470     1.7780 C.2   1 <1>   0.1080 
 14 C        5.7610     6.4950     0.2720 C.2   1 <1>  -0.3320 
 15 N        4.5760     7.8700     1.5730 N.2   1 <1>  -0.7070 
 16 C        3.0910     6.3230     2.7600 C.3   1 <1>  -0.0590 
 17 N        5.5450     7.7810     0.6480 N.pl3 1 <1>   0.3140 
 18 C        6.7970     6.0680    -0.7580 C.3   1 <1>  -0.0600 
 19 C        6.2390     8.9930     0.1640 C.3   1 <1>   0.0960 
 20 C        5.5490     9.5610    -1.0850 C.3   1 <1>  -0.1600 
 21 C        6.2680    10.8120    -1.6020 C.3   1 <1>  -0.2400 
 22 H       -0.4270    -0.0200    -3.1950 H     1 <1>   0.1500 
 23 H        0.5210    -1.2860     0.8370 H     1 <1>   0.1500 
 24 H        3.9360    -0.1390    -0.2920 H     1 <1>   0.0800 
 25 H        3.1110    -0.4500     1.2110 H     1 <1>   0.0800 
 26 H       -1.2300    -1.3340    -0.9900 H     1 <1>   0.1500 
 27 H        2.3570     1.8940     1.3150 H     1 <1>   0.0800 
 28 H        3.1450     2.2320    -0.1970 H     1 <1>   0.0800 
 29 H        5.3520     1.7050     0.8370 H     1 <1>   0.0800 
 30 H        4.5550     1.3320     2.3360 H     1 <1>   0.0800 
 31 H        4.8910     3.9720    -0.0540 H     1 <1>   0.3700 
 32 H        2.5160     5.4870     2.4110 H     1 <1>   0.0800 
 33 H        2.4420     7.1720     2.8730 H     1 <1>   0.0800 
 34 H        3.5220     6.0830     3.7140 H     1 <1>   0.0800 
 35 H        6.8030     4.9990    -0.8720 H     1 <1>   0.0800 
 36 H        7.7790     6.3760    -0.4440 H     1 <1>   0.0800 
 37 H        6.5790     6.5120    -1.7120 H     1 <1>   0.0800 
 38 H        7.2610     8.7460    -0.0480 H     1 <1>   0.0800 
 39 H        6.2210     9.7220     0.9540 H     1 <1>   0.0800 
 40 H        4.5310     9.8130    -0.8370 H     1 <1>   0.0800 
 41 H        5.5340     8.8150    -1.8610 H     1 <1>   0.0800 
 42 H        6.2730    11.5810    -0.8490 H     1 <1>   0.0800 
 43 H        5.7610    11.1930    -2.4720 H     1 <1>   0.0800 
 44 H        7.2840    10.5820    -1.8720 H     1 <1>   0.0800 
@<TRIPOS>BOND
  1   1   2  1   
  2   1   3  1   
  3   2   4  2   
  4   2   5  1   
  5   3   6  2   
  6   3  22  1   
  7   4   6  1   
  8   4  23  1   
  9   5   7  1   
 10   5  24  1   
 11   5  25  1   
 12   6  26  1   
 13   7   8  1   
 14   7  27  1   
 15   7  28  1   
 16   8   9  1   
 17   8  29  1   
 18   8  30  1   
 19   9  10  2   
 20   9  11  am  
 21  11  12  1   
 22  11  31  1   
 23  12  13  1   
 24  12  14  2   
 25  13  15  2   
 26  13  16  1   
 27  14  17  1   
 28  14  18  1   
 29  15  17  1   
 30  16  32  1   
 31  16  33  1   
 32  16  34  1   
 33  17  19  1   
 34  18  35  1   
 35  18  36  1   
 36  18  37  1   
 37  19  20  1   
 38  19  38  1   
 39  19  39  1   
 40  20  21  1   
 41  20  40  1   
 42  20  41  1   
 43  21  42  1   
 44  21  43  1   
 45  21  44  1   
@<TRIPOS>SUBSTRUCTURE
  1 ****  11 GROUP 4 **** **** 0

# MOE 2024.06 (io_trps.svl 2023.06)
