@<TRIPOS>MOLECULE
NONAME
58 61 1 0 0 
SMALL
USER_CHARGES


@<TRIPOS>ATOM
  1 O       -2.5740     1.0580     2.6220 O.2   1 <1>  -0.5700 
  2 C       -2.6120     1.1090     1.4070 C.2   1 <1>   0.5440 
  3 N       -1.9790     2.1560     0.7690 N.am  1 <1>  -0.6600 
  4 C       -3.3060     0.0690     0.6870 C.ar  1 <1>   0.0860 
  5 C       -1.4660     3.3380     1.5240 C.3   1 <1>   0.1400 
  6 C       -1.5390     2.1450    -0.6580 C.3   1 <1>   0.1400 
  7 C       -3.0470    -1.2700     0.9650 C.ar  1 <1>   0.1600 
  8 C       -4.2610     0.3330    -0.2900 C.ar  1 <1>  -0.1500 
  9 C       -1.7310     4.6360     0.7430 C.3   1 <1>   0.1200 
 10 C       -1.8120     3.5080    -1.3160 C.3   1 <1>   0.1200 
 11 N       -3.6050    -2.3100     0.3700 N.ar  1 <1>  -0.6200 
 12 C       -4.8550    -0.7360    -0.9160 C.ar  1 <1>  -0.1500 
 13 O       -1.2400     4.5420    -0.5660 O.3   1 <1>  -0.5600 
 14 C       -4.5050    -2.0370    -0.5670 C.ar  1 <1>   0.4100 
 15 N       -5.1120    -3.0900    -1.2000 N.pl3 1 <1>  -0.8690 
 16 C       -4.9280    -4.5040    -0.8310 C.3   1 <1>   0.2890 
 17 C       -5.1410    -5.3690    -2.0720 C.3   1 <1>  -0.1600 
 18 C       -5.9230    -4.8650     0.2720 C.3   1 <1>  -0.1600 
 19 C       -5.0710    -6.8540    -1.7130 C.3   1 <1>   0.1400 
 20 C       -5.8360    -6.3540     0.6060 C.3   1 <1>   0.1400 
 21 N       -6.0580    -7.1500    -0.6350 N.am  1 <1>  -0.6600 
 22 C       -7.0800    -8.0500    -0.8430 C.2   1 <1>   0.5690 
 23 O       -7.1960    -8.6260    -1.9010 O.2   1 <1>  -0.5700 
 24 C       -8.1130    -8.3470     0.2560 C.3   1 <1>  -0.0190 
 25 C       -8.9420    -9.6230     0.0650 C.3   1 <1>  -0.1600 
 26 C       -9.1890    -7.2650     0.3960 C.3   1 <1>  -0.1600 
 27 C      -10.1410    -9.4480     0.9970 C.3   1 <1>  -0.1600 
 28 C      -10.3610    -7.9360     1.1200 C.3   1 <1>  -0.1600 
 29 H       -0.4080     3.2250     1.6840 H     1 <1>   0.0800 
 30 H       -1.9420     3.4030     2.4880 H     1 <1>   0.0800 
 31 H       -2.0340     1.3710    -1.2140 H     1 <1>   0.0800 
 32 H       -0.4810     1.9480    -0.6950 H     1 <1>   0.0800 
 33 H       -2.3260    -1.4820     1.7370 H     1 <1>   0.1500 
 34 H       -4.5210     1.3470    -0.5360 H     1 <1>   0.1500 
 35 H       -1.2360     5.4630     1.2210 H     1 <1>   0.0800 
 36 H       -2.7860     4.8420     0.7020 H     1 <1>   0.0800 
 37 H       -2.8700     3.6860    -1.3990 H     1 <1>   0.0800 
 38 H       -1.3780     3.5390    -2.3000 H     1 <1>   0.0800 
 39 H       -5.5950    -0.5820    -1.6780 H     1 <1>   0.1500 
 40 H       -5.9510    -2.9030    -1.7480 H     1 <1>   0.4000 
 41 H       -3.9240    -4.6580    -0.4700 H     1 <1>   0.0800 
 42 H       -4.3810    -5.1450    -2.7980 H     1 <1>   0.0800 
 43 H       -6.1030    -5.1670    -2.5080 H     1 <1>   0.0800 
 44 H       -6.9240    -4.6330    -0.0420 H     1 <1>   0.0800 
 45 H       -5.6970    -4.2910     1.1520 H     1 <1>   0.0800 
 46 H       -4.0840    -7.1050    -1.3640 H     1 <1>   0.0800 
 47 H       -5.2680    -7.4450    -2.5920 H     1 <1>   0.0800 
 48 H       -6.5570    -6.5890     1.3670 H     1 <1>   0.0800 
 49 H       -4.8590    -6.5820     0.9970 H     1 <1>   0.0800 
 50 H       -7.5980    -8.4550     1.1930 H     1 <1>   0.0800 
 51 H       -8.3750   -10.5100     0.2890 H     1 <1>   0.0800 
 52 H       -9.2950    -9.6820    -0.9510 H     1 <1>   0.0800 
 53 H       -9.5080    -6.9610    -0.5870 H     1 <1>   0.0800 
 54 H       -8.8340    -6.4000     0.9280 H     1 <1>   0.0800 
 55 H       -9.9070    -9.8570     1.9650 H     1 <1>   0.0800 
 56 H      -11.0120    -9.9480     0.6080 H     1 <1>   0.0800 
 57 H      -11.2950    -7.6440     0.6700 H     1 <1>   0.0800 
 58 H      -10.3730    -7.6530     2.1580 H     1 <1>   0.0800 
@<TRIPOS>BOND
  1   1   2  2   
  2   2   3  am  
  3   2   4  1   
  4   3   5  1   
  5   3   6  1   
  6   4   7  ar  
  7   4   8  ar  
  8   5   9  1   
  9   5  29  1   
 10   5  30  1   
 11   6  10  1   
 12   6  31  1   
 13   6  32  1   
 14   7  11  ar  
 15   7  33  1   
 16   8  12  ar  
 17   8  34  1   
 18   9  13  1   
 19   9  35  1   
 20   9  36  1   
 21  10  13  1   
 22  10  37  1   
 23  10  38  1   
 24  11  14  ar  
 25  12  14  ar  
 26  12  39  1   
 27  14  15  1   
 28  15  16  1   
 29  15  40  1   
 30  16  17  1   
 31  16  18  1   
 32  16  41  1   
 33  17  19  1   
 34  17  42  1   
 35  17  43  1   
 36  18  20  1   
 37  18  44  1   
 38  18  45  1   
 39  19  21  1   
 40  19  46  1   
 41  19  47  1   
 42  20  21  1   
 43  20  48  1   
 44  20  49  1   
 45  21  22  am  
 46  22  23  2   
 47  22  24  1   
 48  24  25  1   
 49  24  26  1   
 50  24  50  1   
 51  25  27  1   
 52  25  51  1   
 53  25  52  1   
 54  26  28  1   
 55  26  53  1   
 56  26  54  1   
 57  27  28  1   
 58  27  55  1   
 59  27  56  1   
 60  28  57  1   
 61  28  58  1   
@<TRIPOS>SUBSTRUCTURE
  1 ****  14 GROUP 4 **** **** 0

# MOE 2024.06 (io_trps.svl 2023.06)
