@<TRIPOS>MOLECULE
NONAME
44 46 1 0 0 
SMALL
USER_CHARGES


@<TRIPOS>ATOM
  1 S       -0.0130    -0.2720     1.8890 S.o2  1 <1>   1.4470 
  2 O       -0.6640    -1.4190     2.4850 O.2   1 <1>  -0.6500 
  3 O        0.3550     0.8260     2.7550 O.2   1 <1>  -0.6500 
  4 N       -1.0790     0.3470     0.7240 N.am  1 <1>  -0.8490 
  5 C        1.3740    -0.8900     0.9030 C.ar  1 <1>  -0.0090 
  6 C       -2.4540     0.4270     1.2480 C.3   1 <1>   0.1960 
  7 C       -0.6480     1.6510     0.2100 C.3   1 <1>   0.1960 
  8 C        2.4880    -0.1140     0.6040 C.ar  1 <1>   0.1900 
  9 C        1.3510    -2.1800     0.3780 C.ar  1 <1>  -0.1500 
 10 C       -3.4790     0.8430     0.1650 C.3   1 <1>   0.0000 
 11 C       -1.5640     2.1060    -0.9280 C.3   1 <1>  -0.1600 
 12 F        2.5630     1.1110     1.0450 F     1 <1>  -0.1900 
 13 C        3.5520    -0.5650    -0.1620 C.ar  1 <1>  -0.1500 
 14 C        2.4090    -2.6330    -0.3880 C.ar  1 <1>   0.1900 
 15 C       -4.8800     0.9170     0.8070 C.3   1 <1>   0.2000 
 16 C       -3.0270     2.1770    -0.4710 C.3   1 <1>  -0.1600 
 17 C       -3.6430    -0.2760    -0.8800 C.3   1 <1>  -0.1600 
 18 C        3.5150    -1.8520    -0.6690 C.ar  1 <1>  -0.1500 
 19 F        2.3620    -3.8470    -0.8660 F     1 <1>  -0.1900 
 20 O       -5.7340     1.6630    -0.0140 O.3   1 <1>  -0.5600 
 21 C       -5.3810    -0.5320     0.8370 C.3   1 <1>  -0.1600 
 22 C       -4.6410    -1.2750    -0.2830 C.3   1 <1>  -0.1600 
 23 C       -6.8270     2.2350     0.6330 C.3   1 <1>   0.0400 
 24 H       -2.7410    -0.5320     1.6420 H     1 <1>   0.0800 
 25 H       -2.4810     1.1350     2.0610 H     1 <1>   0.0800 
 26 H       -0.6600     2.3830     1.0020 H     1 <1>   0.0800 
 27 H        0.3570     1.5830    -0.1680 H     1 <1>   0.0800 
 28 H        0.5120    -2.8290     0.5650 H     1 <1>   0.1500 
 29 H       -1.2490     3.0750    -1.2720 H     1 <1>   0.0800 
 30 H       -1.4690     1.4200    -1.7510 H     1 <1>   0.0800 
 31 H        4.3900     0.0820    -0.3550 H     1 <1>   0.1500 
 32 H       -4.8470     1.3690     1.7840 H     1 <1>   0.0800 
 33 H       -3.6550     2.4260    -1.3090 H     1 <1>   0.0800 
 34 H       -3.1310     2.9640     0.2560 H     1 <1>   0.0800 
 35 H       -4.0740     0.1370    -1.7760 H     1 <1>   0.0800 
 36 H       -2.7100    -0.7470    -1.1360 H     1 <1>   0.0800 
 37 H        4.3180    -2.2450    -1.2690 H     1 <1>   0.1500 
 38 H       -5.1200    -0.9750     1.7820 H     1 <1>   0.0800 
 39 H       -6.4470    -0.5950     0.7140 H     1 <1>   0.0800 
 40 H       -4.1190    -2.1260     0.1210 H     1 <1>   0.0800 
 41 H       -5.3270    -1.6140    -1.0400 H     1 <1>   0.0800 
 42 H       -7.4170     2.7500    -0.1040 H     1 <1>   0.0800 
 43 H       -6.4760     2.9350     1.3700 H     1 <1>   0.0800 
 44 H       -7.4180     1.4630     1.0940 H     1 <1>   0.0800 
@<TRIPOS>BOND
  1   1   2  2   
  2   1   3  2   
  3   1   4  am  
  4   1   5  1   
  5   4   6  1   
  6   4   7  1   
  7   5   8  ar  
  8   5   9  ar  
  9   6  10  1   
 10   6  24  1   
 11   6  25  1   
 12   7  11  1   
 13   7  26  1   
 14   7  27  1   
 15   8  12  1   
 16   8  13  ar  
 17   9  14  ar  
 18   9  28  1   
 19  10  15  1   
 20  10  16  1   
 21  10  17  1   
 22  11  16  1   
 23  11  29  1   
 24  11  30  1   
 25  13  18  ar  
 26  13  31  1   
 27  14  18  ar  
 28  14  19  1   
 29  15  20  1   
 30  15  21  1   
 31  15  32  1   
 32  16  33  1   
 33  16  34  1   
 34  17  22  1   
 35  17  35  1   
 36  17  36  1   
 37  18  37  1   
 38  20  23  1   
 39  21  22  1   
 40  21  38  1   
 41  21  39  1   
 42  22  40  1   
 43  22  41  1   
 44  23  42  1   
 45  23  43  1   
 46  23  44  1   
@<TRIPOS>SUBSTRUCTURE
  1 ****   4 GROUP 4 **** **** 0

# MOE 2024.06 (io_trps.svl 2023.06)
