@<TRIPOS>MOLECULE
NONAME
45 46 1 0 0 
SMALL
USER_CHARGES


@<TRIPOS>ATOM
  1 S       -0.2310     0.4390    -0.9140 S.o2  1 <1>   1.3330 
  2 O        0.0360     1.3950    -1.9640 O.2   1 <1>  -0.6500 
  3 O       -1.0020    -0.7480    -1.2050 O.2   1 <1>  -0.6500 
  4 N        1.2620    -0.0790    -0.2850 N.am  1 <1>  -0.8490 
  5 C       -0.9840     1.2920     0.4790 C.3   1 <1>  -0.0550 
  6 C        1.1760    -1.3460     0.4520 C.3   1 <1>   0.1160 
  7 C        2.2930    -0.1850    -1.3240 C.3   1 <1>   0.1160 
  8 C       -0.4630     2.7090     0.8020 C.3   1 <1>  -0.0800 
  9 C       -0.9630     3.7900    -0.1590 C.3   1 <1>   0.2000 
 10 C        1.0530     2.9000     0.8360 C.3   1 <1>   0.2090 
 11 O       -2.1930     4.2510     0.2890 O.3   1 <1>  -0.6800 
 12 C        0.0990     4.8960    -0.1310 C.3   1 <1>   0.2090 
 13 N        1.2420     4.3560     0.6630 N.pl3 1 <1>  -0.8380 
 14 C        2.4990     4.9260     0.5500 C.ar  1 <1>   0.4100 
 15 N        2.5770     6.1070    -0.0270 N.ar  1 <1>  -0.6200 
 16 C        3.6330     4.3010     1.0210 C.ar  1 <1>  -0.1500 
 17 C        3.7840     6.6260    -0.1360 C.ar  1 <1>   0.7030 
 18 C        4.8320     4.9340     0.8520 C.ar  1 <1>   0.3930 
 19 O        3.8120     7.8290    -0.7400 O.3   1 <1>  -0.3630 
 20 N        4.9380     6.1110     0.2670 N.ar  1 <1>  -0.6200 
 21 O        5.9420     4.3160     1.3060 O.3   1 <1>  -0.3630 
 22 C        5.0190     8.5330    -0.9530 C.3   1 <1>   0.0400 
 23 C        7.2160     4.9140     1.1720 C.3   1 <1>   0.0400 
 24 H       -2.0390     1.3720     0.2950 H     1 <1>   0.0800 
 25 H       -0.8690     0.6810     1.3520 H     1 <1>   0.0800 
 26 H        2.1260    -1.5770     0.9040 H     1 <1>   0.0800 
 27 H        0.9010    -2.1500    -0.2110 H     1 <1>   0.0800 
 28 H        0.4380    -1.2760     1.2320 H     1 <1>   0.0800 
 29 H        3.2270    -0.5060    -0.8950 H     1 <1>   0.0800 
 30 H        2.4500     0.7740    -1.7900 H     1 <1>   0.0800 
 31 H        1.9900    -0.8900    -2.0810 H     1 <1>   0.0800 
 32 H       -0.8090     2.9620     1.7890 H     1 <1>   0.0800 
 33 H       -1.0860     3.4280    -1.1650 H     1 <1>   0.0800 
 34 H        1.5430     2.4050     0.0180 H     1 <1>   0.0800 
 35 H        1.4650     2.5610     1.7710 H     1 <1>   0.0800 
 36 H       -2.0790     4.7250     1.1360 H     1 <1>   0.4000 
 37 H       -0.2710     5.7950     0.3300 H     1 <1>   0.0800 
 38 H        0.4230     5.1140    -1.1350 H     1 <1>   0.0800 
 39 H        3.5970     3.3510     1.5070 H     1 <1>   0.1500 
 40 H        4.7860     9.4580    -1.4500 H     1 <1>   0.0800 
 41 H        5.6670     7.9350    -1.5700 H     1 <1>   0.0800 
 42 H        5.4800     8.7310    -0.0010 H     1 <1>   0.0800 
 43 H        7.9470     4.2520     1.6000 H     1 <1>   0.0800 
 44 H        7.2150     5.8540     1.6960 H     1 <1>   0.0800 
 45 H        7.4210     5.0660     0.1270 H     1 <1>   0.0800 
@<TRIPOS>BOND
  1   1   2  2   
  2   1   3  2   
  3   1   4  am  
  4   1   5  1   
  5   4   6  1   
  6   4   7  1   
  7   5   8  1   
  8   5  24  1   
  9   5  25  1   
 10   6  26  1   
 11   6  27  1   
 12   6  28  1   
 13   7  29  1   
 14   7  30  1   
 15   7  31  1   
 16   8   9  1   
 17   8  10  1   
 18   8  32  1   
 19   9  11  1   
 20   9  12  1   
 21   9  33  1   
 22  10  13  1   
 23  10  34  1   
 24  10  35  1   
 25  11  36  1   
 26  12  13  1   
 27  12  37  1   
 28  12  38  1   
 29  13  14  1   
 30  14  15  ar  
 31  14  16  ar  
 32  15  17  ar  
 33  16  18  ar  
 34  16  39  1   
 35  17  19  1   
 36  17  20  ar  
 37  18  20  ar  
 38  18  21  1   
 39  19  22  1   
 40  21  23  1   
 41  22  40  1   
 42  22  41  1   
 43  22  42  1   
 44  23  43  1   
 45  23  44  1   
 46  23  45  1   
@<TRIPOS>SUBSTRUCTURE
  1 ****  13 GROUP 4 **** **** 0

# MOE 2024.06 (io_trps.svl 2023.06)
