@<TRIPOS>MOLECULE
NONAME
45 47 1 0 0 
SMALL
USER_CHARGES


@<TRIPOS>ATOM
  1 F        0.9480     5.2650     2.4330 F     1 <1>  -0.1900 
  2 C        0.6200     4.8240     1.2480 C.ar  1 <1>   0.1900 
  3 C       -0.6670     5.0330     0.7950 C.ar  1 <1>  -0.1500 
  4 C        1.5730     4.1710     0.4910 C.ar  1 <1>  -0.1500 
  5 C       -1.0220     4.5770    -0.4680 C.ar  1 <1>  -0.1440 
  6 C        1.2160     3.7100    -0.7640 C.ar  1 <1>  -0.1500 
  7 C       -0.0730     3.9130    -1.2380 C.ar  1 <1>  -0.1500 
  8 C       -2.4360     4.8200    -0.9990 C.3   1 <1>   0.3940 
  9 N       -2.6320     6.3070    -1.0320 N.3   1 <1>  -0.8100 
 10 C       -3.4860     4.0420    -0.1610 C.2   1 <1>   0.5690 
 11 C       -4.0570     6.6980    -0.9910 C.3   1 <1>   0.1100 
 12 C       -1.9200     6.9530    -2.1750 C.3   1 <1>   0.1710 
 13 O       -3.4160     2.8410    -0.0520 O.2   1 <1>  -0.5700 
 14 N       -4.5180     4.7040     0.4260 N.am  1 <1>  -0.7300 
 15 C       -4.7580     6.1590     0.2700 C.3   1 <1>   0.1400 
 16 C       -1.4770     8.3780    -1.8550 C.2   1 <1>   0.5690 
 17 O       -1.5330     9.2240    -2.7170 O.2   1 <1>  -0.5700 
 18 N       -1.0440     8.5950    -0.5840 N.am  1 <1>  -0.4930 
 19 C       -0.5680     9.7740     0.0380 C.2   1 <1>   0.0630 
 20 C       -0.0310     9.8850     1.3220 C.2   1 <1>   0.1080 
 21 C       -0.5280    11.0280    -0.4520 C.2   1 <1>  -0.3020 
 22 N        0.3080    11.1030     1.6100 N.2   1 <1>  -0.7070 
 23 C        0.1580     8.7400     2.2920 C.3   1 <1>  -0.0590 
 24 N        0.0010    11.8110     0.5090 N.pl3 1 <1>   0.3140 
 25 C        0.2470    13.2540     0.4190 C.3   1 <1>   0.0160 
 26 H       -1.3790     5.5420     1.4200 H     1 <1>   0.1500 
 27 H        2.5650     4.0260     0.8790 H     1 <1>   0.1500 
 28 H        1.9380     3.1940    -1.3730 H     1 <1>   0.1500 
 29 H       -0.3320     3.5430    -2.2160 H     1 <1>   0.1500 
 30 H       -2.5120     4.4390    -2.0020 H     1 <1>   0.0800 
 31 H       -4.5650     6.3250    -1.8650 H     1 <1>   0.0800 
 32 H       -4.1370     7.7730    -0.9960 H     1 <1>   0.0800 
 33 H       -2.5460     6.9630    -3.0500 H     1 <1>   0.0800 
 34 H       -1.0290     6.4010    -2.4150 H     1 <1>   0.0800 
 35 H       -5.1600     4.1570     1.0030 H     1 <1>   0.3700 
 36 H       -5.8160     6.3430     0.1970 H     1 <1>   0.0800 
 37 H       -4.3840     6.6760     1.1380 H     1 <1>   0.0800 
 38 H       -1.1280     7.7720     0.0150 H     1 <1>   0.3700 
 39 H       -0.8410    11.3890    -1.4140 H     1 <1>   0.1500 
 40 H       -0.7780     8.2430     2.4640 H     1 <1>   0.0800 
 41 H        0.5300     9.1130     3.2290 H     1 <1>   0.0800 
 42 H        0.8680     8.0410     1.8920 H     1 <1>   0.0800 
 43 H       -0.6140    13.7330    -0.0070 H     1 <1>   0.0800 
 44 H        1.1070    13.4230    -0.1990 H     1 <1>   0.0800 
 45 H        0.4270    13.6400     1.4050 H     1 <1>   0.0800 
@<TRIPOS>BOND
  1   1   2  1   
  2   2   3  ar  
  3   2   4  ar  
  4   3   5  ar  
  5   3  26  1   
  6   4   6  ar  
  7   4  27  1   
  8   5   7  ar  
  9   5   8  1   
 10   6   7  ar  
 11   6  28  1   
 12   7  29  1   
 13   8   9  1   
 14   8  10  1   
 15   8  30  1   
 16   9  11  1   
 17   9  12  1   
 18  10  13  2   
 19  10  14  am  
 20  11  15  1   
 21  11  31  1   
 22  11  32  1   
 23  12  16  1   
 24  12  33  1   
 25  12  34  1   
 26  14  15  1   
 27  14  35  1   
 28  15  36  1   
 29  15  37  1   
 30  16  17  2   
 31  16  18  am  
 32  18  19  1   
 33  18  38  1   
 34  19  20  1   
 35  19  21  2   
 36  20  22  2   
 37  20  23  1   
 38  21  24  1   
 39  21  39  1   
 40  22  24  1   
 41  23  40  1   
 42  23  41  1   
 43  23  42  1   
 44  24  25  1   
 45  25  43  1   
 46  25  44  1   
 47  25  45  1   
@<TRIPOS>SUBSTRUCTURE
  1 ****  18 GROUP 4 **** **** 0

# MOE 2024.06 (io_trps.svl 2023.06)
