@<TRIPOS>MOLECULE
NONAME
48 49 1 0 0 
SMALL
USER_CHARGES


@<TRIPOS>ATOM
  1 O       -0.4690    -0.2340     1.1110 O.2   1 <1>  -0.5700 
  2 C       -1.3940     0.5430     1.1540 C.2   1 <1>   0.5690 
  3 N       -2.6820     0.1140     1.3600 N.am  1 <1>  -0.6600 
  4 C       -1.0390     2.0100     0.9830 C.3   1 <1>  -0.0990 
  5 C       -2.9550    -1.3510     1.5270 C.3   1 <1>   0.3210 
  6 C       -3.8930     0.9840     1.5270 C.3   1 <1>   0.1400 
  7 C       -0.5140     2.2900    -0.4310 C.3   1 <1>  -0.0170 
  8 C       -4.0070    -1.8490     0.5420 C.2   1 <1>   0.0460 
  9 C       -4.5960     1.3470     0.2030 C.3   1 <1>   0.1200 
 10 C       -0.4550     3.7880    -0.6820 C.ar  1 <1>  -0.1440 
 11 N       -5.2920    -2.0300     0.9200 N.2   1 <1>  -0.5650 
 12 C       -3.8410    -2.1550    -0.7660 C.2   1 <1>  -0.3320 
 13 O       -3.7910     2.1160    -0.6310 O.3   1 <1>  -0.6800 
 14 C        0.5100     4.5640    -0.0620 C.ar  1 <1>  -0.1500 
 15 C       -1.3740     4.3890    -1.5280 C.ar  1 <1>  -0.1500 
 16 C       -5.8720    -2.4470    -0.1580 C.2   1 <1>   0.0360 
 17 N       -5.0450    -2.5450    -1.2190 N.pl3 1 <1>   0.0330 
 18 C       -2.5990    -2.0830    -1.6370 C.3   1 <1>  -0.0600 
 19 C        0.5560     5.9320    -0.2740 C.ar  1 <1>  -0.1430 
 20 C       -1.3400     5.7570    -1.7450 C.ar  1 <1>  -0.1430 
 21 C       -0.3730     6.5220    -1.1150 C.ar  1 <1>  -0.1500 
 22 C        1.6150     6.7770     0.4110 C.3   1 <1>  -0.0970 
 23 C       -2.3490     6.4100    -2.6710 C.3   1 <1>  -0.0970 
 24 H       -0.2750     2.2560     1.6970 H     1 <1>   0.0800 
 25 H       -1.8750     2.6460     1.1810 H     1 <1>   0.0800 
 26 H       -3.2960    -1.5370     2.5290 H     1 <1>   0.0800 
 27 H       -2.0600    -1.9280     1.3790 H     1 <1>   0.0800 
 28 H       -3.6420     1.8790     2.0660 H     1 <1>   0.0800 
 29 H       -4.6060     0.4570     2.1390 H     1 <1>   0.0800 
 30 H       -1.1590     1.8230    -1.1550 H     1 <1>   0.0800 
 31 H        0.4650     1.8590    -0.5470 H     1 <1>   0.0800 
 32 H       -5.4890     1.9110     0.4070 H     1 <1>   0.0800 
 33 H       -4.8760     0.4590    -0.3340 H     1 <1>   0.0800 
 34 H       -3.5040     2.9380    -0.1870 H     1 <1>   0.4000 
 35 H        1.2270     4.1000     0.5910 H     1 <1>   0.1500 
 36 H       -2.1180     3.7900    -2.0230 H     1 <1>   0.1500 
 37 H       -6.9170    -2.6980    -0.2230 H     1 <1>   0.1500 
 38 H       -5.2870    -2.8480    -2.1670 H     1 <1>   0.2700 
 39 H       -1.7590    -1.7270    -1.0670 H     1 <1>   0.0800 
 40 H       -2.7610    -1.4030    -2.4550 H     1 <1>   0.0800 
 41 H       -2.3590    -3.0560    -2.0280 H     1 <1>   0.0800 
 42 H       -0.3420     7.5840    -1.2820 H     1 <1>   0.1500 
 43 H        2.5040     6.1980     0.5840 H     1 <1>   0.0800 
 44 H        1.2410     7.1320     1.3540 H     1 <1>   0.0800 
 45 H        1.8750     7.6210    -0.2020 H     1 <1>   0.0800 
 46 H       -3.2510     5.8270    -2.7180 H     1 <1>   0.0800 
 47 H       -1.9340     6.4870    -3.6600 H     1 <1>   0.0800 
 48 H       -2.5980     7.3940    -2.3190 H     1 <1>   0.0800 
@<TRIPOS>BOND
  1   1   2  2   
  2   2   3  am  
  3   2   4  1   
  4   3   5  1   
  5   3   6  1   
  6   4   7  1   
  7   4  24  1   
  8   4  25  1   
  9   5   8  1   
 10   5  26  1   
 11   5  27  1   
 12   6   9  1   
 13   6  28  1   
 14   6  29  1   
 15   7  10  1   
 16   7  30  1   
 17   7  31  1   
 18   8  11  1   
 19   8  12  2   
 20   9  13  1   
 21   9  32  1   
 22   9  33  1   
 23  10  14  ar  
 24  10  15  ar  
 25  11  16  2   
 26  12  17  1   
 27  12  18  1   
 28  13  34  1   
 29  14  19  ar  
 30  14  35  1   
 31  15  20  ar  
 32  15  36  1   
 33  16  17  1   
 34  16  37  1   
 35  17  38  1   
 36  18  39  1   
 37  18  40  1   
 38  18  41  1   
 39  19  21  ar  
 40  19  22  1   
 41  20  21  ar  
 42  20  23  1   
 43  21  42  1   
 44  22  43  1   
 45  22  44  1   
 46  22  45  1   
 47  23  46  1   
 48  23  47  1   
 49  23  48  1   
@<TRIPOS>SUBSTRUCTURE
  1 ****   4 GROUP 4 **** **** 0

# MOE 2024.06 (io_trps.svl 2023.06)
