@<TRIPOS>MOLECULE
NONAME
50 52 1 0 0 
SMALL
USER_CHARGES


@<TRIPOS>ATOM
  1 O       -0.8190     0.8020     0.3950 O.2   1 <1>  -0.5700 
  2 C       -0.6220     1.9830     0.5240 C.2   1 <1>   0.5690 
  3 N       -1.6580     2.8490     0.5740 N.am  1 <1>  -0.7300 
  4 C        0.8120     2.5190     0.5960 C.3   1 <1>   0.1810 
  5 C       -1.4880     4.3110     0.7560 C.3   1 <1>   0.3640 
  6 O        0.8890     3.8460     1.0730 O.3   1 <1>  -0.5600 
  7 C       -2.4490     5.0490    -0.1690 C.ar  1 <1>  -0.1440 
  8 C       -0.0290     4.7460     0.4740 C.3   1 <1>   0.2610 
  9 C       -3.1010     6.1870     0.2870 C.ar  1 <1>   0.1600 
 10 C       -2.6850     4.6300    -1.4670 C.ar  1 <1>  -0.1500 
 11 C        0.2100     6.1880     0.9580 C.2   1 <1>   0.5690 
 12 N       -3.9440     6.9160    -0.4260 N.ar  1 <1>  -0.6200 
 13 C       -3.5630     5.3770    -2.2210 C.ar  1 <1>  -0.1500 
 14 O       -0.3490     6.5360     1.9760 O.2   1 <1>  -0.5700 
 15 N        0.9940     7.0750     0.2540 N.am  1 <1>  -0.6600 
 16 C       -4.1570     6.4940    -1.6610 C.ar  1 <1>   0.1600 
 17 C        1.2480     8.4520     0.8140 C.3   1 <1>   0.3210 
 18 C        1.5580     6.8230    -1.1010 C.3   1 <1>   0.1400 
 19 C        2.7250     8.8470     0.8450 C.2   1 <1>   0.3350 
 20 C        2.8400     5.9970    -0.9980 C.3   1 <1>  -0.2400 
 21 N        3.5130     8.6580     1.8290 N.2   1 <1>  -0.4100 
 22 N        3.3100     9.4480    -0.1880 N.2   1 <1>  -0.5650 
 23 O        4.6750     9.1240     1.4870 O.3   1 <1>  -0.0190 
 24 C        4.4870     9.5830     0.2750 C.2   1 <1>   0.2980 
 25 C        5.6570    10.2140    -0.4570 C.3   1 <1>   0.0200 
 26 C        6.0880    11.5360     0.1960 C.3   1 <1>  -0.1600 
 27 C        7.2610    12.1790    -0.5530 C.3   1 <1>  -0.2400 
 28 H       -2.6100     2.4800     0.5640 H     1 <1>   0.3700 
 29 H        1.2560     2.4850    -0.3820 H     1 <1>   0.0800 
 30 H        1.3900     1.9010     1.2590 H     1 <1>   0.0800 
 31 H       -1.7330     4.5410     1.7790 H     1 <1>   0.0800 
 32 H        0.1290     4.6980    -0.5850 H     1 <1>   0.0800 
 33 H       -2.9170     6.5250     1.2950 H     1 <1>   0.1500 
 34 H       -2.2110     3.7560    -1.8820 H     1 <1>   0.1500 
 35 H       -3.7900     5.0990    -3.2350 H     1 <1>   0.1500 
 36 H       -4.8430     7.0710    -2.2590 H     1 <1>   0.1500 
 37 H        0.7130     9.1720     0.2220 H     1 <1>   0.0800 
 38 H        0.8770     8.5250     1.8210 H     1 <1>   0.0800 
 39 H        0.8350     6.3150    -1.7150 H     1 <1>   0.0800 
 40 H        1.7740     7.7610    -1.5850 H     1 <1>   0.0800 
 41 H        2.6510     5.0390    -0.5520 H     1 <1>   0.0800 
 42 H        3.5770     6.5150    -0.4110 H     1 <1>   0.0800 
 43 H        3.2460     5.8390    -1.9810 H     1 <1>   0.0800 
 44 H        6.4770     9.5190    -0.4590 H     1 <1>   0.0800 
 45 H        5.3680    10.3940    -1.4780 H     1 <1>   0.0800 
 46 H        5.2540    12.2160     0.2040 H     1 <1>   0.0800 
 47 H        6.3760    11.3540     1.2180 H     1 <1>   0.0800 
 48 H        6.9860    12.3940    -1.5710 H     1 <1>   0.0800 
 49 H        8.1140    11.5240    -0.5540 H     1 <1>   0.0800 
 50 H        7.5400    13.1010    -0.0740 H     1 <1>   0.0800 
@<TRIPOS>BOND
  1   1   2  2   
  2   2   3  am  
  3   2   4  1   
  4   3   5  1   
  5   3  28  1   
  6   4   6  1   
  7   4  29  1   
  8   4  30  1   
  9   5   7  1   
 10   5   8  1   
 11   5  31  1   
 12   6   8  1   
 13   7   9  ar  
 14   7  10  ar  
 15   8  11  1   
 16   8  32  1   
 17   9  12  ar  
 18   9  33  1   
 19  10  13  ar  
 20  10  34  1   
 21  11  14  2   
 22  11  15  am  
 23  12  16  ar  
 24  13  16  ar  
 25  13  35  1   
 26  15  17  1   
 27  15  18  1   
 28  16  36  1   
 29  17  19  1   
 30  17  37  1   
 31  17  38  1   
 32  18  20  1   
 33  18  39  1   
 34  18  40  1   
 35  19  21  2   
 36  19  22  1   
 37  20  41  1   
 38  20  42  1   
 39  20  43  1   
 40  21  23  1   
 41  22  24  2   
 42  23  24  1   
 43  24  25  1   
 44  25  26  1   
 45  25  44  1   
 46  25  45  1   
 47  26  27  1   
 48  26  46  1   
 49  26  47  1   
 50  27  48  1   
 51  27  49  1   
 52  27  50  1   
@<TRIPOS>SUBSTRUCTURE
  1 ****  15 GROUP 4 **** **** 0

# MOE 2024.06 (io_trps.svl 2023.06)
