@<TRIPOS>MOLECULE
NONAME
48 50 1 0 0 
SMALL
USER_CHARGES


@<TRIPOS>ATOM
  1 S       -0.0400     0.4990     0.3080 S.3   1 <1>  -0.0800 
  2 C       -0.6850     2.1130     0.1650 C.2   1 <1>  -0.1400 
  3 C       -0.4700     0.2040    -1.3600 C.2   1 <1>   0.1980 
  4 C       -1.1550     2.2700    -1.0840 C.2   1 <1>   0.0460 
  5 C       -0.6380     3.0220     1.3790 C.3   1 <1>   0.2900 
  6 N       -1.0230     1.1900    -1.9380 N.2   1 <1>  -0.5650 
  7 C       -0.1530    -1.1570    -1.9330 C.3   1 <1>  -0.0600 
  8 C       -1.8200     3.4950    -1.6750 C.3   1 <1>  -0.0590 
  9 N        0.6890     3.6690     1.4510 N.3   1 <1>  -0.8100 
 10 C        0.6390     5.0550     1.9800 C.3   1 <1>   0.1100 
 11 C        1.7000     2.8390     2.1360 C.3   1 <1>   0.1100 
 12 C        1.9640     5.8070     1.7260 C.3   1 <1>   0.3430 
 13 C        2.9820     2.8020     1.2940 C.3   1 <1>  -0.1600 
 14 N        2.6810     5.1400     0.5960 N.4   1 <1>  -0.9590 
 15 C        3.6730     4.1540     1.0790 C.3   1 <1>   0.3430 
 16 C        3.1690     6.0490    -0.4700 C.3   1 <1>   0.4860 
 17 C        2.0150     6.9080    -0.9580 C.ar  1 <1>  -0.1440 
 18 C        0.9210     6.3290    -1.5890 C.ar  1 <1>  -0.1500 
 19 C        2.0410     8.2850    -0.7660 C.ar  1 <1>  -0.1500 
 20 C       -0.1180     7.1430    -2.0010 C.ar  1 <1>   0.1900 
 21 C        0.9880     9.0830    -1.1900 C.ar  1 <1>  -0.1500 
 22 F       -1.1490     6.5970    -2.5840 F     1 <1>  -0.1900 
 23 C       -0.1070     8.5110    -1.8130 C.ar  1 <1>  -0.1500 
 24 H       -0.8530     2.4700     2.2790 H     1 <1>   0.0800 
 25 H       -1.4030     3.7700     1.2630 H     1 <1>   0.0800 
 26 H       -0.6690    -1.9160    -1.3750 H     1 <1>   0.0800 
 27 H        0.9050    -1.3360    -1.8840 H     1 <1>   0.0800 
 28 H       -0.4700    -1.2000    -2.9590 H     1 <1>   0.0800 
 29 H       -1.8390     4.3050    -0.9720 H     1 <1>   0.0800 
 30 H       -2.8290     3.2530    -1.9570 H     1 <1>   0.0800 
 31 H       -1.2850     3.8050    -2.5530 H     1 <1>   0.0800 
 32 H        0.4050     5.0550     3.0310 H     1 <1>   0.0800 
 33 H       -0.1430     5.5950     1.4730 H     1 <1>   0.0800 
 34 H        1.3440     1.8300     2.2530 H     1 <1>   0.0800 
 35 H        1.9030     3.2190     3.1240 H     1 <1>   0.0800 
 36 H        2.5700     5.7860     2.6160 H     1 <1>   0.0800 
 37 H        1.7440     6.8370     1.4960 H     1 <1>   0.0800 
 38 H        2.7530     2.3630     0.3380 H     1 <1>   0.0800 
 39 H        3.6830     2.1420     1.7740 H     1 <1>   0.0800 
 40 H        1.9200     4.5480     0.2030 H     1 <1>   0.4500 
 41 H        4.4590     4.0290     0.3520 H     1 <1>   0.0800 
 42 H        4.1150     4.4950     2.0010 H     1 <1>   0.0800 
 43 H        3.5590     5.4750    -1.2940 H     1 <1>   0.0800 
 44 H        3.9560     6.6780    -0.0870 H     1 <1>   0.0800 
 45 H        0.8570     5.2700    -1.7670 H     1 <1>   0.1500 
 46 H        2.8830     8.7580    -0.2880 H     1 <1>   0.1500 
 47 H        1.0210    10.1500    -1.0390 H     1 <1>   0.1500 
 48 H       -0.9350     9.1100    -2.1510 H     1 <1>   0.1500 
@<TRIPOS>BOND
  1   1   2  1   
  2   1   3  1   
  3   2   4  2   
  4   2   5  1   
  5   3   6  2   
  6   3   7  1   
  7   4   6  1   
  8   4   8  1   
  9   5   9  1   
 10   5  24  1   
 11   5  25  1   
 12   7  26  1   
 13   7  27  1   
 14   7  28  1   
 15   8  29  1   
 16   8  30  1   
 17   8  31  1   
 18   9  10  1   
 19   9  11  1   
 20  10  12  1   
 21  10  32  1   
 22  10  33  1   
 23  11  13  1   
 24  11  34  1   
 25  11  35  1   
 26  12  14  1   
 27  12  36  1   
 28  12  37  1   
 29  13  15  1   
 30  13  38  1   
 31  13  39  1   
 32  14  15  1   
 33  14  16  1   
 34  14  40  1   
 35  15  41  1   
 36  15  42  1   
 37  16  17  1   
 38  16  43  1   
 39  16  44  1   
 40  17  18  ar  
 41  17  19  ar  
 42  18  20  ar  
 43  18  45  1   
 44  19  21  ar  
 45  19  46  1   
 46  20  22  1   
 47  20  23  ar  
 48  21  23  ar  
 49  21  47  1   
 50  23  48  1   
@<TRIPOS>SUBSTRUCTURE
  1 ****   9 GROUP 4 **** **** 0

# MOE 2024.06 (io_trps.svl 2023.06)
