@<TRIPOS>MOLECULE
NONAME
52 54 1 0 0 
SMALL
USER_CHARGES


@<TRIPOS>ATOM
  1 S       -0.2500    -0.7680     0.5510 S.o2  1 <1>   1.4470 
  2 O       -1.6040    -0.2640     0.6140 O.2   1 <1>  -0.6500 
  3 O        0.1480    -1.7160     1.5670 O.2   1 <1>  -0.6500 
  4 N       -0.2670    -1.5780    -0.9230 N.am  1 <1>  -0.9140 
  5 C        1.0460     0.5260     0.3060 C.ar  1 <1>  -0.0090 
  6 C       -0.8020    -2.9460    -0.9890 C.3   1 <1>   0.2760 
  7 C        2.4040     0.1550     0.2620 C.ar  1 <1>  -0.1430 
  8 C        0.7310     1.8910     0.1480 C.ar  1 <1>  -0.1430 
  9 C       -2.1100    -3.2240    -0.2590 C.3   1 <1>  -0.0800 
 10 C        0.0970    -4.0560    -0.4600 C.3   1 <1>   0.1200 
 11 C        3.4030     1.1120     0.0980 C.ar  1 <1>  -0.1430 
 12 C        2.8200    -1.3160     0.4060 C.3   1 <1>  -0.0970 
 13 C        1.7380     2.8390    -0.0300 C.ar  1 <1>  -0.1430 
 14 C       -0.7250     2.3720     0.1740 C.3   1 <1>  -0.0970 
 15 C       -2.0530    -4.7400    -0.0350 C.3   1 <1>   0.1200 
 16 C       -3.3510    -2.7490    -1.0290 C.3   1 <1>  -0.0170 
 17 O       -0.7540    -5.1550    -0.3460 O.3   1 <1>  -0.5600 
 18 C        3.0550     2.4360    -0.0500 C.ar  1 <1>  -0.1500 
 19 C        4.8930     0.7830     0.0780 C.3   1 <1>  -0.0970 
 20 C        1.4790     4.3330    -0.2050 C.3   1 <1>  -0.0970 
 21 C       -4.6150    -3.0110    -0.2270 C.ar  1 <1>  -0.1430 
 22 C       -4.9360    -2.2360     0.8690 C.ar  1 <1>  -0.1500 
 23 C       -5.4990    -4.0230    -0.5410 C.ar  1 <1>  -0.1500 
 24 C       -6.0930    -2.5050     1.5810 C.ar  1 <1>   0.1600 
 25 C       -6.6300    -4.2070     0.2370 C.ar  1 <1>   0.1600 
 26 N       -6.9480    -3.4730     1.2910 N.ar  1 <1>  -0.6200 
 27 H       -0.8820    -0.9960    -1.4850 H     1 <1>   0.4200 
 28 H       -0.9470    -3.1740    -2.0320 H     1 <1>   0.0800 
 29 H       -2.1090    -2.7840     0.7200 H     1 <1>   0.0800 
 30 H        0.4860    -3.8430     0.5190 H     1 <1>   0.0800 
 31 H        0.8920    -4.2970    -1.1410 H     1 <1>   0.0800 
 32 H        3.8290    -1.5040     0.0980 H     1 <1>   0.0800 
 33 H        2.2110    -1.9530    -0.2030 H     1 <1>   0.0800 
 34 H        2.7300    -1.6220     1.4340 H     1 <1>   0.0800 
 35 H       -0.8420     3.4270     0.0280 H     1 <1>   0.0800 
 36 H       -1.1690     2.1450     1.1260 H     1 <1>   0.0800 
 37 H       -1.2860     1.8940    -0.6080 H     1 <1>   0.0800 
 38 H       -2.7310    -5.2730    -0.6780 H     1 <1>   0.0800 
 39 H       -2.2570    -4.9900     0.9930 H     1 <1>   0.0800 
 40 H       -3.4100    -3.2450    -1.9820 H     1 <1>   0.0800 
 41 H       -3.2760    -1.6920    -1.2130 H     1 <1>   0.0800 
 42 H        3.8300     3.1710    -0.1820 H     1 <1>   0.1500 
 43 H        5.4910     1.6760     0.0650 H     1 <1>   0.0800 
 44 H        5.1320     0.2090    -0.7990 H     1 <1>   0.0800 
 45 H        5.1610     0.2230     0.9560 H     1 <1>   0.0800 
 46 H        2.3970     4.8810    -0.3220 H     1 <1>   0.0800 
 47 H        0.9710     4.7240     0.6580 H     1 <1>   0.0800 
 48 H        0.8800     4.5050    -1.0810 H     1 <1>   0.0800 
 49 H       -4.2960    -1.4270     1.1750 H     1 <1>   0.1500 
 50 H       -5.3220    -4.6700    -1.3800 H     1 <1>   0.1500 
 51 H       -6.3270    -1.8910     2.4330 H     1 <1>   0.1500 
 52 H       -7.3090    -5.0020    -0.0210 H     1 <1>   0.1500 
@<TRIPOS>BOND
  1   1   2  2   
  2   1   3  2   
  3   1   4  am  
  4   1   5  1   
  5   4   6  1   
  6   4  27  1   
  7   5   7  ar  
  8   5   8  ar  
  9   6   9  1   
 10   6  10  1   
 11   6  28  1   
 12   7  11  ar  
 13   7  12  1   
 14   8  13  ar  
 15   8  14  1   
 16   9  15  1   
 17   9  16  1   
 18   9  29  1   
 19  10  17  1   
 20  10  30  1   
 21  10  31  1   
 22  11  18  ar  
 23  11  19  1   
 24  12  32  1   
 25  12  33  1   
 26  12  34  1   
 27  13  18  ar  
 28  13  20  1   
 29  14  35  1   
 30  14  36  1   
 31  14  37  1   
 32  15  17  1   
 33  15  38  1   
 34  15  39  1   
 35  16  21  1   
 36  16  40  1   
 37  16  41  1   
 38  18  42  1   
 39  19  43  1   
 40  19  44  1   
 41  19  45  1   
 42  20  46  1   
 43  20  47  1   
 44  20  48  1   
 45  21  22  ar  
 46  21  23  ar  
 47  22  24  ar  
 48  22  49  1   
 49  23  25  ar  
 50  23  50  1   
 51  24  26  ar  
 52  24  51  1   
 53  25  26  ar  
 54  25  52  1   
@<TRIPOS>SUBSTRUCTURE
  1 ****   1 GROUP 4 **** **** 0

# MOE 2024.06 (io_trps.svl 2023.06)
