@<TRIPOS>MOLECULE
NONAME
44 46 1 0 0 
SMALL
USER_CHARGES


@<TRIPOS>ATOM
  1 O       -0.5100     1.2440     1.6730 O.2   1 <1>  -0.5700 
  2 C       -0.3440     2.2930     1.0800 C.2   1 <1>   0.5440 
  3 N       -1.4400     3.0560     0.7330 N.am  1 <1>  -0.6600 
  4 C        1.0040     2.7230     0.7630 C.ar  1 <1>   0.0860 
  5 C       -2.8340     2.6460     1.0820 C.3   1 <1>   0.1400 
  6 C       -1.3620     4.3170    -0.0540 C.3   1 <1>   0.1400 
  7 C        1.6700     2.3080    -0.3970 C.ar  1 <1>  -0.1440 
  8 C        1.6630     3.5930     1.6290 C.ar  1 <1>  -0.1500 
  9 C       -3.6940     2.4540    -0.1920 C.3   1 <1>   0.0000 
 10 C       -2.1960     4.1830    -1.3340 C.3   1 <1>  -0.1600 
 11 C        2.9470     2.7700    -0.6760 C.ar  1 <1>  -0.1500 
 12 C        1.0000     1.3410    -1.3640 C.3   1 <1>  -0.0970 
 13 C        2.9360     4.0470     1.3420 C.ar  1 <1>   0.0820 
 14 C       -5.1470     2.0570     0.1390 C.3   1 <1>   0.2000 
 15 C       -3.6420     3.7460    -1.0380 C.3   1 <1>  -0.1600 
 16 C       -3.2110     1.2240    -0.9820 C.3   1 <1>  -0.1600 
 17 C        3.5820     3.6420     0.1900 C.ar  1 <1>  -0.1500 
 18 O        3.5620     4.8850     2.1810 O.3   1 <1>  -0.5320 
 19 O       -5.6350     2.6760     1.2770 O.3   1 <1>  -0.6800 
 20 C       -5.1640     0.5370     0.3200 C.3   1 <1>  -0.1600 
 21 C       -3.8570     0.0200    -0.2930 C.3   1 <1>  -0.1600 
 22 H       -2.8290     1.7410     1.6630 H     1 <1>   0.0800 
 23 H       -3.2600     3.4220     1.6930 H     1 <1>   0.0800 
 24 H       -1.7480     5.1230     0.5460 H     1 <1>   0.0800 
 25 H       -0.3450     4.5530    -0.3140 H     1 <1>   0.0800 
 26 H        1.1610     3.9050     2.5260 H     1 <1>   0.1500 
 27 H       -2.2070     5.1290    -1.8460 H     1 <1>   0.0800 
 28 H       -1.7240     3.4690    -1.9850 H     1 <1>   0.0800 
 29 H        3.4600     2.4540    -1.5680 H     1 <1>   0.1500 
 30 H        1.6810     1.0290    -2.1350 H     1 <1>   0.0800 
 31 H        0.1520     1.8120    -1.8270 H     1 <1>   0.0800 
 32 H        0.6640     0.4650    -0.8370 H     1 <1>   0.0800 
 33 H       -5.7910     2.3250    -0.6820 H     1 <1>   0.0800 
 34 H       -4.1720     3.6070    -1.9640 H     1 <1>   0.0800 
 35 H       -4.1390     4.5330    -0.4960 H     1 <1>   0.0800 
 36 H       -3.5700     1.2780    -1.9950 H     1 <1>   0.0800 
 37 H       -2.1390     1.1330    -1.0040 H     1 <1>   0.0800 
 38 H        4.5720     4.0040    -0.0190 H     1 <1>   0.1500 
 39 H        3.0550     5.0720     2.9910 H     1 <1>   0.4500 
 40 H       -5.2200     2.2870     2.0690 H     1 <1>   0.4000 
 41 H       -5.2140     0.2570     1.3580 H     1 <1>   0.0800 
 42 H       -6.0090     0.1220    -0.2000 H     1 <1>   0.0800 
 43 H       -3.2050    -0.3340     0.4890 H     1 <1>   0.0800 
 44 H       -4.0290    -0.7840    -0.9880 H     1 <1>   0.0800 
@<TRIPOS>BOND
  1   1   2  2   
  2   2   3  am  
  3   2   4  1   
  4   3   5  1   
  5   3   6  1   
  6   4   7  ar  
  7   4   8  ar  
  8   5   9  1   
  9   5  22  1   
 10   5  23  1   
 11   6  10  1   
 12   6  24  1   
 13   6  25  1   
 14   7  11  ar  
 15   7  12  1   
 16   8  13  ar  
 17   8  26  1   
 18   9  14  1   
 19   9  15  1   
 20   9  16  1   
 21  10  15  1   
 22  10  27  1   
 23  10  28  1   
 24  11  17  ar  
 25  11  29  1   
 26  12  30  1   
 27  12  31  1   
 28  12  32  1   
 29  13  17  ar  
 30  13  18  1   
 31  14  19  1   
 32  14  20  1   
 33  14  33  1   
 34  15  34  1   
 35  15  35  1   
 36  16  21  1   
 37  16  36  1   
 38  16  37  1   
 39  17  38  1   
 40  18  39  1   
 41  19  40  1   
 42  20  21  1   
 43  20  41  1   
 44  20  42  1   
 45  21  43  1   
 46  21  44  1   
@<TRIPOS>SUBSTRUCTURE
  1 ****   3 GROUP 4 **** **** 0

# MOE 2024.06 (io_trps.svl 2023.06)
