@<TRIPOS>MOLECULE
NONAME
49 51 1 0 0 
SMALL
USER_CHARGES


@<TRIPOS>ATOM
  1 O       -0.4760     0.6930    -2.9440 O.2   1 <1>  -0.5700 
  2 C       -1.3070     1.2770    -2.2850 C.2   1 <1>   0.5690 
  3 N       -2.5090     0.6790    -1.9630 N.am  1 <1>  -0.6600 
  4 C       -0.9560     2.7080    -1.8700 C.3   1 <1>   0.0440 
  5 C       -3.4520     1.2530    -0.9590 C.3   1 <1>   0.2200 
  6 C       -2.8180    -0.6880    -2.4870 C.3   1 <1>   0.0600 
  7 C       -0.8290     2.9510    -0.3580 C.ar  1 <1>  -0.1440 
  8 C       -3.6720     0.3760     0.2660 C.3   1 <1>  -0.1600 
  9 C       -4.8630     1.5290    -1.4570 C.3   1 <1>  -0.1600 
 10 C       -1.2680     4.1290     0.2450 C.ar  1 <1>  -0.1430 
 11 C       -0.2780     1.9510     0.4330 C.ar  1 <1>  -0.1500 
 12 C       -4.8860     1.0220     0.9500 C.3   1 <1>  -0.0800 
 13 C       -5.6280     1.8030    -0.1530 C.3   1 <1>  -0.0800 
 14 C       -1.1600     4.2730     1.6200 C.ar  1 <1>  -0.1500 
 15 C       -1.8610     5.2830    -0.5530 C.3   1 <1>  -0.0970 
 16 C       -0.1800     2.0950     1.8050 C.ar  1 <1>  -0.1430 
 17 C       -4.4750     2.0350     2.0300 C.3   1 <1>  -0.1600 
 18 C       -5.5820     3.2860     0.2480 C.3   1 <1>  -0.1600 
 19 C       -0.6250     3.2620     2.3970 C.ar  1 <1>  -0.1500 
 20 C        0.4160     0.9820     2.6480 C.3   1 <1>  -0.0970 
 21 C       -5.2320     3.3200     1.7290 C.3   1 <1>   0.2000 
 22 O       -4.4100     4.3970     1.9810 O.3   1 <1>  -0.6800 
 23 H       -0.0200     2.9720    -2.3260 H     1 <1>   0.0800 
 24 H       -1.7060     3.3400    -2.3000 H     1 <1>   0.0800 
 25 H       -3.0840     2.1920    -0.6040 H     1 <1>   0.0800 
 26 H       -3.8610    -0.7790    -2.7250 H     1 <1>   0.0800 
 27 H       -2.5530    -1.4260    -1.7510 H     1 <1>   0.0800 
 28 H       -2.2540    -0.8840    -3.3830 H     1 <1>   0.0800 
 29 H       -3.9360    -0.6230    -0.0290 H     1 <1>   0.0800 
 30 H       -2.8000     0.3430     0.8960 H     1 <1>   0.0800 
 31 H       -4.8950     2.3570    -2.1410 H     1 <1>   0.0800 
 32 H       -5.2780     0.6570    -1.9270 H     1 <1>   0.0800 
 33 H        0.0790     1.0430    -0.0230 H     1 <1>   0.1500 
 34 H       -5.5260     0.2680     1.3770 H     1 <1>   0.0800 
 35 H       -6.6520     1.4740    -0.2280 H     1 <1>   0.0800 
 36 H       -1.4890     5.1770     2.1030 H     1 <1>   0.1500 
 37 H       -2.0340     6.1390     0.0740 H     1 <1>   0.0800 
 38 H       -2.7980     4.9920    -0.9890 H     1 <1>   0.0800 
 39 H       -1.1830     5.5760    -1.3350 H     1 <1>   0.0800 
 40 H       -3.4130     2.2130     1.9950 H     1 <1>   0.0800 
 41 H       -4.7300     1.6710     3.0090 H     1 <1>   0.0800 
 42 H       -6.5310     3.7590     0.0740 H     1 <1>   0.0800 
 43 H       -4.8280     3.8060    -0.3150 H     1 <1>   0.0800 
 44 H       -0.5520     3.3930     3.4620 H     1 <1>   0.1500 
 45 H        0.0290     1.0180     3.6500 H     1 <1>   0.0800 
 46 H        1.4850     1.0870     2.6830 H     1 <1>   0.0800 
 47 H        0.1750     0.0230     2.2250 H     1 <1>   0.0800 
 48 H       -6.1200     3.4040     2.3340 H     1 <1>   0.0800 
 49 H       -3.5240     4.2170     1.6040 H     1 <1>   0.4000 
@<TRIPOS>BOND
  1   1   2  2   
  2   2   3  am  
  3   2   4  1   
  4   3   5  1   
  5   3   6  1   
  6   4   7  1   
  7   4  23  1   
  8   4  24  1   
  9   5   8  1   
 10   5   9  1   
 11   5  25  1   
 12   6  26  1   
 13   6  27  1   
 14   6  28  1   
 15   7  10  ar  
 16   7  11  ar  
 17   8  12  1   
 18   8  29  1   
 19   8  30  1   
 20   9  13  1   
 21   9  31  1   
 22   9  32  1   
 23  10  14  ar  
 24  10  15  1   
 25  11  16  ar  
 26  11  33  1   
 27  12  13  1   
 28  12  17  1   
 29  12  34  1   
 30  13  18  1   
 31  13  35  1   
 32  14  19  ar  
 33  14  36  1   
 34  15  37  1   
 35  15  38  1   
 36  15  39  1   
 37  16  19  ar  
 38  16  20  1   
 39  17  21  1   
 40  17  40  1   
 41  17  41  1   
 42  18  21  1   
 43  18  42  1   
 44  18  43  1   
 45  19  44  1   
 46  20  45  1   
 47  20  46  1   
 48  20  47  1   
 49  21  22  1   
 50  21  48  1   
 51  22  49  1   
@<TRIPOS>SUBSTRUCTURE
  1 ****   5 GROUP 4 **** **** 0

# MOE 2024.06 (io_trps.svl 2023.06)
