@<TRIPOS>MOLECULE
NONAME
49 52 1 0 0 
SMALL
USER_CHARGES


@<TRIPOS>ATOM
  1 O       -4.6680     3.6280     0.4250 O.2   1 <1>  -0.5700 
  2 C       -3.6070     3.2640    -0.0220 C.2   1 <1>   0.5690 
  3 N       -3.5250     2.4780    -1.1220 N.am  1 <1>  -0.7300 
  4 C       -2.3140     3.6650     0.6690 C.3   1 <1>   0.0820 
  5 C       -4.6320     1.7360    -1.7570 C.3   1 <1>   0.2200 
  6 C       -1.4170     2.4500     0.8920 C.2   1 <1>  -0.1810 
  7 C       -4.4060     0.2370    -1.6050 C.3   1 <1>  -0.0800 
  8 C       -4.5210     1.8850    -3.2680 C.3   1 <1>   0.1200 
  9 C       -0.6010     1.8780    -0.1130 C.ar  1 <1>   0.0000 
 10 C       -1.2760     1.6990     2.0130 C.2   1 <1>  -0.3320 
 11 C       -3.4210    -0.0660    -2.7390 C.3   1 <1>   0.1200 
 12 C       -3.9350    -0.2400    -0.2170 C.3   1 <1>  -0.0160 
 13 O       -3.5400     0.9730    -3.6690 O.3   1 <1>  -0.5600 
 14 C        0.0020     0.7630     0.4580 C.ar  1 <1>  -0.1520 
 15 C       -0.3360     2.1890    -1.4530 C.ar  1 <1>  -0.1500 
 16 N       -0.4050     0.6760     1.7630 N.pl3 1 <1>   0.0330 
 17 C       -1.9380     1.8450     3.3730 C.3   1 <1>  -0.0600 
 18 C       -3.6880    -1.7390    -0.2020 C.ar  1 <1>  -0.1440 
 19 C        0.8540    -0.0580    -0.2840 C.ar  1 <1>  -0.1500 
 20 C        0.4970     1.3760    -2.1870 C.ar  1 <1>  -0.1500 
 21 C       -4.7070    -2.6500    -0.0140 C.ar  1 <1>  -0.1500 
 22 C       -2.4240    -2.2640    -0.3790 C.ar  1 <1>  -0.1500 
 23 C        1.0920     0.2510    -1.6030 C.ar  1 <1>  -0.1500 
 24 C       -4.4200    -4.0050    -0.0130 C.ar  1 <1>   0.1600 
 25 C       -2.2450    -3.6370    -0.3620 C.ar  1 <1>   0.1600 
 26 N       -3.2130    -4.5210    -0.1840 N.ar  1 <1>  -0.6200 
 27 H       -2.6000     2.1430    -1.4090 H     1 <1>   0.3700 
 28 H       -1.8040     4.3910     0.0670 H     1 <1>   0.0800 
 29 H       -2.5510     4.1260     1.6080 H     1 <1>   0.0800 
 30 H       -5.5840     2.0650    -1.3760 H     1 <1>   0.0800 
 31 H       -5.3290    -0.2650    -1.8380 H     1 <1>   0.0800 
 32 H       -4.2370     2.8780    -3.5670 H     1 <1>   0.0800 
 33 H       -5.4430     1.6060    -3.7460 H     1 <1>   0.0800 
 34 H       -3.6400    -1.0020    -3.2240 H     1 <1>   0.0800 
 35 H       -2.4040    -0.0680    -2.3870 H     1 <1>   0.0800 
 36 H       -4.6770     0.0130     0.5210 H     1 <1>   0.0800 
 37 H       -3.0240     0.2530     0.0670 H     1 <1>   0.0800 
 38 H       -0.7810     3.0600    -1.8980 H     1 <1>   0.1500 
 39 H       -0.1100    -0.0460     2.4270 H     1 <1>   0.2700 
 40 H       -2.6430     2.6560     3.3750 H     1 <1>   0.0800 
 41 H       -1.1950     2.0360     4.1270 H     1 <1>   0.0800 
 42 H       -2.4660     0.9420     3.6240 H     1 <1>   0.0800 
 43 H        1.3130    -0.9140     0.1770 H     1 <1>   0.1500 
 44 H        0.7020     1.6000    -3.2190 H     1 <1>   0.1500 
 45 H       -5.7190    -2.3190     0.1330 H     1 <1>   0.1500 
 46 H       -1.5790    -1.6170    -0.5300 H     1 <1>   0.1500 
 47 H        1.7420    -0.3650    -2.1990 H     1 <1>   0.1500 
 48 H       -5.2270    -4.7020     0.1350 H     1 <1>   0.1500 
 49 H       -1.2520    -4.0280    -0.5040 H     1 <1>   0.1500 
@<TRIPOS>BOND
  1   1   2  2   
  2   2   3  am  
  3   2   4  1   
  4   3   5  1   
  5   3  27  1   
  6   4   6  1   
  7   4  28  1   
  8   4  29  1   
  9   5   7  1   
 10   5   8  1   
 11   5  30  1   
 12   6   9  1   
 13   6  10  2   
 14   7  11  1   
 15   7  12  1   
 16   7  31  1   
 17   8  13  1   
 18   8  32  1   
 19   8  33  1   
 20   9  14  ar  
 21   9  15  ar  
 22  10  16  1   
 23  10  17  1   
 24  11  13  1   
 25  11  34  1   
 26  11  35  1   
 27  12  18  1   
 28  12  36  1   
 29  12  37  1   
 30  14  16  1   
 31  14  19  ar  
 32  15  20  ar  
 33  15  38  1   
 34  16  39  1   
 35  17  40  1   
 36  17  41  1   
 37  17  42  1   
 38  18  21  ar  
 39  18  22  ar  
 40  19  23  ar  
 41  19  43  1   
 42  20  23  ar  
 43  20  44  1   
 44  21  24  ar  
 45  21  45  1   
 46  22  25  ar  
 47  22  46  1   
 48  23  47  1   
 49  24  26  ar  
 50  24  48  1   
 51  25  26  ar  
 52  25  49  1   
@<TRIPOS>SUBSTRUCTURE
  1 ****  12 GROUP 4 **** **** 0

# MOE 2024.06 (io_trps.svl 2023.06)
