@<TRIPOS>MOLECULE
NONAME
43 45 1 0 0 
SMALL
USER_CHARGES


@<TRIPOS>ATOM
  1 N       -8.2610     0.9960    -0.4680 N.pl3 1 <1>  -0.8380 
  2 C       -9.3250     0.1210    -0.2190 C.2   1 <1>  -0.0500 
  3 C       -8.3480     2.3570     0.1390 C.3   1 <1>   0.2890 
  4 C       -7.0510     0.2410    -0.0110 C.3   1 <1>   0.5780 
  5 C       -8.9240    -1.0330     0.3020 C.2   1 <1>  -0.0500 
  6 C       -9.7130     3.0110    -0.1450 C.3   1 <1>  -0.1600 
  7 C       -7.2190     3.2290    -0.4410 C.3   1 <1>  -0.1600 
  8 N       -7.5370    -1.0840     0.4890 N.pl3 1 <1>  -0.8380 
  9 C       -9.7800     4.4640     0.3510 C.3   1 <1>  -0.1600 
 10 C       -7.2830     4.6780     0.0660 C.3   1 <1>  -0.1600 
 11 C       -6.8130    -2.2310    -0.1340 C.3   1 <1>   0.2890 
 12 C       -8.6460     5.3080    -0.2380 C.3   1 <1>  -0.1600 
 13 C       -7.4930    -3.5720     0.2000 C.3   1 <1>  -0.1600 
 14 C       -5.3620    -2.2370     0.3800 C.3   1 <1>  -0.1600 
 15 C       -6.6920    -4.7780    -0.3150 C.3   1 <1>  -0.1600 
 16 C       -4.5610    -3.4380    -0.1450 C.3   1 <1>  -0.1600 
 17 C       -5.2530    -4.7580     0.2100 C.3   1 <1>  -0.1600 
 18 H      -10.3380     0.4020    -0.4530 H     1 <1>   0.1500 
 19 H       -8.2230     2.2740     1.2070 H     1 <1>   0.0800 
 20 H       -6.5500     0.7580     0.7890 H     1 <1>   0.0800 
 21 H       -6.3760     0.1190    -0.8400 H     1 <1>   0.0800 
 22 H       -9.5500    -1.8640     0.5780 H     1 <1>   0.1500 
 23 H      -10.4900     2.4580     0.3510 H     1 <1>   0.0800 
 24 H       -9.8960     2.9870    -1.2050 H     1 <1>   0.0800 
 25 H       -7.3020     3.2300    -1.5140 H     1 <1>   0.0800 
 26 H       -6.2610     2.8230    -0.1780 H     1 <1>   0.0800 
 27 H       -9.7130     4.4760     1.4260 H     1 <1>   0.0800 
 28 H      -10.7280     4.8930     0.0760 H     1 <1>   0.0800 
 29 H       -6.5070     5.2580    -0.4040 H     1 <1>   0.0800 
 30 H       -7.1100     4.6940     1.1290 H     1 <1>   0.0800 
 31 H       -6.8120    -2.1050    -1.2050 H     1 <1>   0.0800 
 32 H       -8.6850     6.3030     0.1710 H     1 <1>   0.0800 
 33 H       -8.7750     5.3830    -1.3050 H     1 <1>   0.0800 
 34 H       -8.4660    -3.6070    -0.2510 H     1 <1>   0.0800 
 35 H       -7.6050    -3.6480     1.2680 H     1 <1>   0.0800 
 36 H       -5.3790    -2.2720     1.4560 H     1 <1>   0.0800 
 37 H       -4.8560    -1.3380     0.0810 H     1 <1>   0.0800 
 38 H       -6.6790    -4.7630    -1.3910 H     1 <1>   0.0800 
 39 H       -7.1750    -5.6880    -0.0040 H     1 <1>   0.0800 
 40 H       -3.5720    -3.4250     0.2800 H     1 <1>   0.0800 
 41 H       -4.4620    -3.3620    -1.2150 H     1 <1>   0.0800 
 42 H       -4.7020    -5.5810    -0.2120 H     1 <1>   0.0800 
 43 H       -5.2610    -4.8800     1.2800 H     1 <1>   0.0800 
@<TRIPOS>BOND
  1   1   2  1   
  2   1   3  1   
  3   1   4  1   
  4   2   5  2   
  5   2  18  1   
  6   3   6  1   
  7   3   7  1   
  8   3  19  1   
  9   4   8  1   
 10   4  20  1   
 11   4  21  1   
 12   5   8  1   
 13   5  22  1   
 14   6   9  1   
 15   6  23  1   
 16   6  24  1   
 17   7  10  1   
 18   7  25  1   
 19   7  26  1   
 20   8  11  1   
 21   9  12  1   
 22   9  27  1   
 23   9  28  1   
 24  10  12  1   
 25  10  29  1   
 26  10  30  1   
 27  11  13  1   
 28  11  14  1   
 29  11  31  1   
 30  12  32  1   
 31  12  33  1   
 32  13  15  1   
 33  13  34  1   
 34  13  35  1   
 35  14  16  1   
 36  14  36  1   
 37  14  37  1   
 38  15  17  1   
 39  15  38  1   
 40  15  39  1   
 41  16  17  1   
 42  16  40  1   
 43  16  41  1   
 44  17  42  1   
 45  17  43  1   
@<TRIPOS>SUBSTRUCTURE
  1 ****   4 GROUP 4 **** **** 0

# MOE 2024.06 (io_trps.svl 2023.06)
