@<TRIPOS>MOLECULE
NONAME
53 54 1 0 0 
SMALL
USER_CHARGES


@<TRIPOS>ATOM
  1 O        3.0610     2.9070     1.3920 O.co2 1 <1>  -0.9000 
  2 C        2.4500     1.8300     1.3880 C.2   1 <1>   0.9060 
  3 O        2.3220     1.1640     2.4150 O.co2 1 <1>  -0.9000 
  4 C        2.1080     1.1610     0.0500 C.3   1 <1>  -0.1060 
  5 C        3.0930    -0.0270    -0.0150 C.3   1 <1>   0.2000 
  6 C        2.3910     2.1020    -1.1670 C.3   1 <1>  -0.1600 
  7 C        0.6300     0.6910     0.0630 C.3   1 <1>  -0.0160 
  8 O        2.9560    -0.6980    -1.2330 O.3   1 <1>  -0.6800 
  9 C        4.5550     0.4780     0.1100 C.3   1 <1>   0.3430 
 10 C        3.8680     2.1560    -1.5940 C.3   1 <1>   0.3430 
 11 C       -0.3680     1.8400    -0.0380 C.ar  1 <1>  -0.1440 
 12 N        4.7520     1.8720    -0.4360 N.4   1 <1>  -0.9590 
 13 C       -0.6280     2.6390     1.0640 C.ar  1 <1>  -0.1500 
 14 C       -1.0300     2.0970    -1.2300 C.ar  1 <1>  -0.1500 
 15 C        6.1770     2.2260    -0.6540 C.3   1 <1>   0.3430 
 16 C       -1.5280     3.6860     0.9760 C.ar  1 <1>  -0.1500 
 17 C       -1.9320     3.1430    -1.3200 C.ar  1 <1>  -0.1500 
 18 C        6.5900     3.5520     0.0300 C.3   1 <1>   0.0000 
 19 C       -2.1810     3.9390    -0.2170 C.ar  1 <1>  -0.1500 
 20 C        6.5520     3.3740     1.5700 C.3   1 <1>  -0.0220 
 21 C        8.0230     3.8790    -0.4330 C.3   1 <1>  -0.2400 
 22 C        5.6730     4.7160    -0.4010 C.3   1 <1>  -0.2400 
 23 C        6.9730     4.6110     2.3500 C.2   1 <1>  -0.2880 
 24 C        6.1400     5.3300     3.1080 C.2   1 <1>  -0.3000 
 25 H        2.8940    -0.7360     0.7720 H     1 <1>   0.0800 
 26 H        2.0510     3.0980    -0.9360 H     1 <1>   0.0800 
 27 H        1.8250     1.7760    -2.0200 H     1 <1>   0.0800 
 28 H        0.4530     0.0180    -0.7540 H     1 <1>   0.0800 
 29 H        0.4330     0.1430     0.9690 H     1 <1>   0.0800 
 30 H        2.0720    -1.1140    -1.2820 H     1 <1>   0.4000 
 31 H        5.2030    -0.2210    -0.3900 H     1 <1>   0.0800 
 32 H        4.8120     0.4900     1.1570 H     1 <1>   0.0800 
 33 H        4.0850     3.1290    -2.0030 H     1 <1>   0.0800 
 34 H        4.0420     1.4140    -2.3560 H     1 <1>   0.0800 
 35 H        4.3640     2.5000     0.3210 H     1 <1>   0.4500 
 36 H       -0.1240     2.4520     2.0000 H     1 <1>   0.1500 
 37 H       -0.8470     1.4860    -2.0950 H     1 <1>   0.1500 
 38 H        6.8040     1.4390    -0.2690 H     1 <1>   0.0800 
 39 H        6.3630     2.3030    -1.7110 H     1 <1>   0.0800 
 40 H       -1.7140     4.3010     1.8380 H     1 <1>   0.1500 
 41 H       -2.4410     3.3370    -2.2480 H     1 <1>   0.1500 
 42 H       -2.8810     4.7540    -0.2840 H     1 <1>   0.1500 
 43 H        5.5540     3.1140     1.8770 H     1 <1>   0.0800 
 44 H        7.1890     2.5580     1.8610 H     1 <1>   0.0800 
 45 H        8.3460     4.8290    -0.0430 H     1 <1>   0.0800 
 46 H        8.0730     3.9360    -1.5060 H     1 <1>   0.0800 
 47 H        8.7150     3.1260    -0.0980 H     1 <1>   0.0800 
 48 H        6.0360     5.6490    -0.0060 H     1 <1>   0.0800 
 49 H        4.6730     4.5800    -0.0240 H     1 <1>   0.0800 
 50 H        5.6330     4.8010    -1.4720 H     1 <1>   0.0800 
 51 H        8.0150     4.8600     2.2440 H     1 <1>   0.1500 
 52 H        6.4280     6.2030     3.6660 H     1 <1>   0.1500 
 53 H        5.0930     5.1000     3.2300 H     1 <1>   0.1500 
@<TRIPOS>BOND
  1   1   2  ar  
  2   2   3  ar  
  3   2   4  1   
  4   4   5  1   
  5   4   6  1   
  6   4   7  1   
  7   5   8  1   
  8   5   9  1   
  9   5  25  1   
 10   6  10  1   
 11   6  26  1   
 12   6  27  1   
 13   7  11  1   
 14   7  28  1   
 15   7  29  1   
 16   8  30  1   
 17   9  12  1   
 18   9  31  1   
 19   9  32  1   
 20  10  12  1   
 21  10  33  1   
 22  10  34  1   
 23  11  13  ar  
 24  11  14  ar  
 25  12  15  1   
 26  12  35  1   
 27  13  16  ar  
 28  13  36  1   
 29  14  17  ar  
 30  14  37  1   
 31  15  18  1   
 32  15  38  1   
 33  15  39  1   
 34  16  19  ar  
 35  16  40  1   
 36  17  19  ar  
 37  17  41  1   
 38  18  20  1   
 39  18  21  1   
 40  18  22  1   
 41  19  42  1   
 42  20  23  1   
 43  20  43  1   
 44  20  44  1   
 45  21  45  1   
 46  21  46  1   
 47  21  47  1   
 48  22  48  1   
 49  22  49  1   
 50  22  50  1   
 51  23  24  2   
 52  23  51  1   
 53  24  52  1   
 54  24  53  1   
@<TRIPOS>SUBSTRUCTURE
  1 ****   1 GROUP 4 **** **** 0

# MOE 2024.06 (io_trps.svl 2023.06)
