@<TRIPOS>MOLECULE
NONAME
51 54 1 0 0 
SMALL
USER_CHARGES


@<TRIPOS>ATOM
  1 O       -0.4880     0.0000     1.2540 O.2   1 <1>  -0.5700 
  2 C       -1.3420     0.5250     0.5620 C.2   1 <1>   0.6160 
  3 N       -2.2330    -0.2940    -0.0950 N.am  1 <1>  -0.6600 
  4 C       -1.3920     1.9550     0.4530 C.2   1 <1>   0.0290 
  5 C       -3.2030     0.1410    -1.1350 C.3   1 <1>   0.1400 
  6 C       -2.7290    -1.5210     0.5770 C.3   1 <1>   0.1400 
  7 C       -2.5530     2.5820     1.0080 C.2   1 <1>   0.6160 
  8 C       -0.4150     2.7430    -0.1180 C.2   1 <1>  -0.1380 
  9 C       -4.5000    -0.5850    -0.7820 C.3   1 <1>   0.2000 
 10 C       -4.0420    -1.8910    -0.1280 C.3   1 <1>  -0.0800 
 11 O       -3.4950     1.9760     1.5040 O.2   1 <1>  -0.5700 
 12 N       -2.6510     3.9440     0.9580 N.am  1 <1>  -0.5390 
 13 C       -0.5780     4.1470    -0.1400 C.2   1 <1>  -0.1500 
 14 C        0.8620     2.1850    -0.7360 C.3   1 <1>  -0.1020 
 15 O       -5.1980     0.1630     0.1540 O.3   1 <1>  -0.6800 
 16 C       -3.8290    -2.9880    -1.1900 C.3   1 <1>  -0.0170 
 17 C       -1.6860     4.7300     0.3960 C.2   1 <1>  -0.0290 
 18 C       -3.4490    -4.3290    -0.5670 C.ar  1 <1>  -0.1440 
 19 C       -1.9190     6.2270     0.4080 C.3   1 <1>  -0.1020 
 20 C       -4.3960    -5.1660     0.0700 C.ar  1 <1>   0.0000 
 21 C       -2.1570    -4.7630    -0.6140 C.ar  1 <1>  -0.1500 
 22 C       -3.9300    -6.3860     0.6200 C.ar  1 <1>   0.3100 
 23 C       -5.7740    -4.8700     0.1920 C.ar  1 <1>  -0.1500 
 24 C       -1.8010    -5.9890    -0.0400 C.ar  1 <1>   0.1600 
 25 N       -2.6340    -6.7820     0.5560 N.ar  1 <1>  -0.6200 
 26 C       -4.8450    -7.2350     1.2640 C.ar  1 <1>  -0.1500 
 27 C       -6.6390    -5.7200     0.8250 C.ar  1 <1>  -0.1500 
 28 C       -6.1720    -6.9180     1.3690 C.ar  1 <1>  -0.1500 
 29 H       -3.3450     1.2060    -1.1680 H     1 <1>   0.0800 
 30 H       -2.8490    -0.1950    -2.0930 H     1 <1>   0.0800 
 31 H       -1.9910    -2.3010     0.5260 H     1 <1>   0.0800 
 32 H       -2.9220    -1.2970     1.6140 H     1 <1>   0.0800 
 33 H       -5.1430    -0.7340    -1.6310 H     1 <1>   0.0800 
 34 H       -4.7670    -2.2310     0.5900 H     1 <1>   0.0800 
 35 H       -3.4970     4.3300     1.3790 H     1 <1>   0.3700 
 36 H        0.1970     4.7460    -0.5870 H     1 <1>   0.1500 
 37 H        0.9920     2.5730    -1.7300 H     1 <1>   0.0800 
 38 H        0.8450     1.1120    -0.7970 H     1 <1>   0.0800 
 39 H        1.7080     2.4730    -0.1390 H     1 <1>   0.0800 
 40 H       -4.5720     0.6160     0.7730 H     1 <1>   0.4000 
 41 H       -3.0550    -2.6810    -1.8720 H     1 <1>   0.0800 
 42 H       -4.7240    -3.1150    -1.7740 H     1 <1>   0.0800 
 43 H       -2.8210     6.4640    -0.1270 H     1 <1>   0.0800 
 44 H       -1.0990     6.7430    -0.0590 H     1 <1>   0.0800 
 45 H       -2.0100     6.5770     1.4210 H     1 <1>   0.0800 
 46 H       -1.3830    -4.1820    -1.0830 H     1 <1>   0.1500 
 47 H       -6.1570    -3.9550    -0.2190 H     1 <1>   0.1500 
 48 H       -0.7690    -6.2900    -0.0980 H     1 <1>   0.1500 
 49 H       -4.4620    -8.1510     1.6730 H     1 <1>   0.1500 
 50 H       -7.6850    -5.4790     0.9120 H     1 <1>   0.1500 
 51 H       -6.8610    -7.5790     1.8650 H     1 <1>   0.1500 
@<TRIPOS>BOND
  1   1   2  2   
  2   2   3  am  
  3   2   4  1   
  4   3   5  1   
  5   3   6  1   
  6   4   7  1   
  7   4   8  2   
  8   5   9  1   
  9   5  29  1   
 10   5  30  1   
 11   6  10  1   
 12   6  31  1   
 13   6  32  1   
 14   7  11  2   
 15   7  12  am  
 16   8  13  1   
 17   8  14  1   
 18   9  10  1   
 19   9  15  1   
 20   9  33  1   
 21  10  16  1   
 22  10  34  1   
 23  12  17  1   
 24  12  35  1   
 25  13  17  2   
 26  13  36  1   
 27  14  37  1   
 28  14  38  1   
 29  14  39  1   
 30  15  40  1   
 31  16  18  1   
 32  16  41  1   
 33  16  42  1   
 34  17  19  1   
 35  18  20  ar  
 36  18  21  ar  
 37  19  43  1   
 38  19  44  1   
 39  19  45  1   
 40  20  22  ar  
 41  20  23  ar  
 42  21  24  ar  
 43  21  46  1   
 44  22  25  ar  
 45  22  26  ar  
 46  23  27  ar  
 47  23  47  1   
 48  24  25  ar  
 49  24  48  1   
 50  26  28  ar  
 51  26  49  1   
 52  27  28  ar  
 53  27  50  1   
 54  28  51  1   
@<TRIPOS>SUBSTRUCTURE
  1 ****   6 GROUP 4 **** **** 0

# MOE 2024.06 (io_trps.svl 2023.06)
