@<TRIPOS>MOLECULE
NONAME
52 54 1 0 0 
SMALL
USER_CHARGES


@<TRIPOS>ATOM
  1 O        0.1780    -0.8020    -0.9520 O.3   1 <1>  -0.3630 
  2 C        0.0750    -2.0630    -0.5400 C.ar  1 <1>   0.3920 
  3 C        1.3930    -0.1380    -1.2280 C.3   1 <1>   0.2000 
  4 N        1.1760    -2.7990    -0.3980 N.ar  1 <1>  -0.6200 
  5 C       -1.1910    -2.5430    -0.2810 C.ar  1 <1>  -0.1500 
  6 C        1.9590     0.4120     0.0820 C.3   1 <1>  -0.2400 
  7 C        1.0790     0.9870    -2.2110 C.3   1 <1>  -0.2400 
  8 C        0.9940    -4.0280     0.0140 C.ar  1 <1>   0.7710 
  9 C       -1.3480    -3.8440     0.1460 C.ar  1 <1>   0.4610 
 10 N       -0.2170    -4.5520     0.2820 N.ar  1 <1>  -0.1790 
 11 N        2.0920    -4.7720     0.1660 N.pl3 1 <1>  -0.9000 
 12 N       -2.5440    -4.4300     0.4360 N.pl3 1 <1>  -0.8380 
 13 C       -3.8390    -3.6780     0.4290 C.3   1 <1>   0.2090 
 14 C       -2.8260    -5.8730     0.7090 C.3   1 <1>   0.2090 
 15 C       -4.8850    -4.6710     0.9340 C.3   1 <1>  -0.0800 
 16 C       -4.3320    -6.0320     0.4910 C.3   1 <1>  -0.0800 
 17 C       -6.3390    -4.3780     0.4920 C.3   1 <1>   0.2800 
 18 C       -4.6330    -6.3430    -0.9910 C.3   1 <1>  -0.1600 
 19 O       -6.5470    -3.0210     0.6120 O.3   1 <1>  -0.6800 
 20 C       -6.5630    -4.7220    -0.9920 C.3   1 <1>  -0.1600 
 21 C       -7.3870    -5.0920     1.3810 C.3   1 <1>  -0.1600 
 22 C       -6.1120    -6.1500    -1.3350 C.3   1 <1>  -0.1600 
 23 C       -7.4700    -4.6270     2.8490 C.3   1 <1>  -0.2400 
 24 H        2.0800    -0.8320    -1.6840 H     1 <1>   0.0800 
 25 H       -2.0330    -1.8930    -0.4190 H     1 <1>   0.1500 
 26 H        1.2550     1.0810     0.5440 H     1 <1>   0.0800 
 27 H        2.8680     0.9520    -0.1110 H     1 <1>   0.0800 
 28 H        2.1860    -0.3920     0.7580 H     1 <1>   0.0800 
 29 H        0.3750     1.6770    -1.7820 H     1 <1>   0.0800 
 30 H        0.6710     0.5790    -3.1190 H     1 <1>   0.0800 
 31 H        1.9780     1.5230    -2.4560 H     1 <1>   0.0800 
 32 H       -0.2790    -5.4970     0.6200 H     1 <1>   0.4570 
 33 H        2.1690    -5.7440     0.4690 H     1 <1>   0.4000 
 34 H        2.9930    -4.3320    -0.0490 H     1 <1>   0.4000 
 35 H       -3.7990    -2.8130     1.0700 H     1 <1>   0.0800 
 36 H       -4.0690    -3.3660    -0.5760 H     1 <1>   0.0800 
 37 H       -2.2710    -6.5230     0.0540 H     1 <1>   0.0800 
 38 H       -2.5890    -6.0950     1.7360 H     1 <1>   0.0800 
 39 H       -4.8390    -4.6290     2.0060 H     1 <1>   0.0800 
 40 H       -4.7270    -6.8210     1.1080 H     1 <1>   0.0800 
 41 H       -4.0510    -5.6980    -1.6280 H     1 <1>   0.0800 
 42 H       -4.3480    -7.3580    -1.2120 H     1 <1>   0.0800 
 43 H       -7.4950    -2.8290     0.4880 H     1 <1>   0.4000 
 44 H       -7.6040    -4.6150    -1.2440 H     1 <1>   0.0800 
 45 H       -6.0080    -4.0360    -1.6080 H     1 <1>   0.0800 
 46 H       -8.3600    -4.9670     0.9390 H     1 <1>   0.0800 
 47 H       -7.1860    -6.1480     1.3790 H     1 <1>   0.0800 
 48 H       -6.7100    -6.8690    -0.8020 H     1 <1>   0.0800 
 49 H       -6.2590    -6.3250    -2.3880 H     1 <1>   0.0800 
 50 H       -7.6670    -3.5720     2.9100 H     1 <1>   0.0800 
 51 H       -6.5610    -4.8390     3.3810 H     1 <1>   0.0800 
 52 H       -8.2710    -5.1450     3.3460 H     1 <1>   0.0800 
@<TRIPOS>BOND
  1   1   2  1   
  2   1   3  1   
  3   2   4  ar  
  4   2   5  ar  
  5   3   6  1   
  6   3   7  1   
  7   3  24  1   
  8   4   8  ar  
  9   5   9  ar  
 10   5  25  1   
 11   6  26  1   
 12   6  27  1   
 13   6  28  1   
 14   7  29  1   
 15   7  30  1   
 16   7  31  1   
 17   8  10  ar  
 18   8  11  1   
 19   9  10  ar  
 20   9  12  1   
 21  10  32  1   
 22  11  33  1   
 23  11  34  1   
 24  12  13  1   
 25  12  14  1   
 26  13  15  1   
 27  13  35  1   
 28  13  36  1   
 29  14  16  1   
 30  14  37  1   
 31  14  38  1   
 32  15  16  1   
 33  15  17  1   
 34  15  39  1   
 35  16  18  1   
 36  16  40  1   
 37  17  19  1   
 38  17  20  1   
 39  17  21  1   
 40  18  22  1   
 41  18  41  1   
 42  18  42  1   
 43  19  43  1   
 44  20  22  1   
 45  20  44  1   
 46  20  45  1   
 47  21  23  1   
 48  21  46  1   
 49  21  47  1   
 50  22  48  1   
 51  22  49  1   
 52  23  50  1   
 53  23  51  1   
 54  23  52  1   
@<TRIPOS>SUBSTRUCTURE
  1 ****  12 GROUP 4 **** **** 0

# MOE 2024.06 (io_trps.svl 2023.06)
