@<TRIPOS>MOLECULE
NONAME
55 59 1 0 0 
SMALL
USER_CHARGES


@<TRIPOS>ATOM
  1 N       -0.0160     0.3370     0.4390 N.ar  1 <1>  -0.6200 
  2 C       -1.2940     0.6690     0.6830 C.ar  1 <1>   0.6200 
  3 C        0.6740     1.2210    -0.2380 C.ar  1 <1>   0.1660 
  4 N       -1.8740     1.8180     0.3090 N.ar  1 <1>  -0.6200 
  5 C       -2.1130    -0.2930     1.4070 C.ar  1 <1>   0.0000 
  6 C        0.1680     2.4110    -0.6550 C.ar  1 <1>  -0.1430 
  7 C        2.1200     1.0520    -0.6420 C.3   1 <1>   0.1440 
  8 C       -1.1420     2.6820    -0.3550 C.ar  1 <1>   0.1600 
  9 C       -1.5700    -1.1360     2.3810 C.ar  1 <1>  -0.1500 
 10 C       -3.4830    -0.4160     1.1590 C.ar  1 <1>  -0.1500 
 11 C        1.1980     3.2290    -1.3930 C.3   1 <1>  -0.0160 
 12 C        2.9160     0.5470     0.5750 C.3   1 <1>   0.3430 
 13 C        2.2290     0.0480    -1.8090 C.3   1 <1>  -0.1600 
 14 C        2.5140     2.4910    -1.0760 C.3   1 <1>  -0.1600 
 15 C       -2.3480    -2.0520     3.0660 C.ar  1 <1>  -0.1500 
 16 C       -4.2670    -1.3290     1.8410 C.ar  1 <1>  -0.1500 
 17 N        4.3410     0.2140     0.2260 N.4   1 <1>  -0.9590 
 18 C        3.6880    -0.3450    -2.0980 C.3   1 <1>  -0.1600 
 19 C       -3.7000    -2.1510     2.7970 C.ar  1 <1>  -0.1500 
 20 C        4.4130    -0.8320    -0.8410 C.3   1 <1>   0.3430 
 21 C        5.1120    -0.1790     1.4400 C.3   1 <1>   0.4860 
 22 C        6.5720    -0.3440     1.0660 C.ar  1 <1>  -0.1430 
 23 C        7.1840    -1.5960     1.0280 C.ar  1 <1>   0.1670 
 24 C        7.3190     0.7780     0.7530 C.ar  1 <1>  -0.1500 
 25 N        8.4430    -1.7840     0.6820 N.ar  1 <1>  -0.6200 
 26 C        6.4460    -2.8730     1.3970 C.3   1 <1>  -0.0970 
 27 C        8.6360     0.5810     0.4010 C.ar  1 <1>  -0.1500 
 28 C        9.1430    -0.7050     0.3790 C.ar  1 <1>   0.1600 
 29 H       -1.5960     3.6100    -0.6610 H     1 <1>   0.1500 
 30 H       -0.5210    -1.0730     2.6070 H     1 <1>   0.1500 
 31 H       -3.9420     0.2160     0.4190 H     1 <1>   0.1500 
 32 H        1.2180     4.2500    -1.0500 H     1 <1>   0.0800 
 33 H        0.9880     3.2050    -2.4490 H     1 <1>   0.0800 
 34 H        2.4250    -0.3360     0.9530 H     1 <1>   0.0800 
 35 H        2.8840     1.2970     1.3480 H     1 <1>   0.0800 
 36 H        1.7730     0.4570    -2.6950 H     1 <1>   0.0800 
 37 H        1.6760    -0.8420    -1.5530 H     1 <1>   0.0800 
 38 H        3.1790     2.5130    -1.9210 H     1 <1>   0.0800 
 39 H        2.9870     3.0020    -0.2550 H     1 <1>   0.0800 
 40 H       -1.9030    -2.6890     3.8110 H     1 <1>   0.1500 
 41 H       -5.3190    -1.3990     1.6270 H     1 <1>   0.1500 
 42 H        4.7940     1.0530    -0.1550 H     1 <1>   0.4500 
 43 H        4.2270     0.4830    -2.5230 H     1 <1>   0.0800 
 44 H        3.7000    -1.1350    -2.8300 H     1 <1>   0.0800 
 45 H       -4.3080    -2.8620     3.3280 H     1 <1>   0.1500 
 46 H        3.9500    -1.7410    -0.4930 H     1 <1>   0.0800 
 47 H        5.4430    -1.0470    -1.0830 H     1 <1>   0.0800 
 48 H        4.7200    -1.0940     1.8510 H     1 <1>   0.0800 
 49 H        5.0300     0.5880     2.1930 H     1 <1>   0.0800 
 50 H        6.9150     1.7750     0.7820 H     1 <1>   0.1500 
 51 H        5.4580    -2.9020     0.9800 H     1 <1>   0.0800 
 52 H        6.3900    -2.9620     2.4660 H     1 <1>   0.0800 
 53 H        6.9820    -3.7290     1.0220 H     1 <1>   0.0800 
 54 H        9.2730     1.4100     0.1480 H     1 <1>   0.1500 
 55 H       10.1730    -0.8540     0.1030 H     1 <1>   0.1500 
@<TRIPOS>BOND
  1   1   2  ar  
  2   1   3  ar  
  3   2   4  ar  
  4   2   5  1   
  5   3   6  ar  
  6   3   7  1   
  7   4   8  ar  
  8   5   9  ar  
  9   5  10  ar  
 10   6   8  ar  
 11   6  11  1   
 12   7  12  1   
 13   7  13  1   
 14   7  14  1   
 15   8  29  1   
 16   9  15  ar  
 17   9  30  1   
 18  10  16  ar  
 19  10  31  1   
 20  11  14  1   
 21  11  32  1   
 22  11  33  1   
 23  12  17  1   
 24  12  34  1   
 25  12  35  1   
 26  13  18  1   
 27  13  36  1   
 28  13  37  1   
 29  14  38  1   
 30  14  39  1   
 31  15  19  ar  
 32  15  40  1   
 33  16  19  ar  
 34  16  41  1   
 35  17  20  1   
 36  17  21  1   
 37  17  42  1   
 38  18  20  1   
 39  18  43  1   
 40  18  44  1   
 41  19  45  1   
 42  20  46  1   
 43  20  47  1   
 44  21  22  1   
 45  21  48  1   
 46  21  49  1   
 47  22  23  ar  
 48  22  24  ar  
 49  23  25  ar  
 50  23  26  1   
 51  24  27  ar  
 52  24  50  1   
 53  25  28  ar  
 54  26  51  1   
 55  26  52  1   
 56  26  53  1   
 57  27  28  ar  
 58  27  54  1   
 59  28  55  1   
@<TRIPOS>SUBSTRUCTURE
  1 ****  12 GROUP 4 **** **** 0

# MOE 2024.06 (io_trps.svl 2023.06)
