@<TRIPOS>MOLECULE
NONAME
39 40 1 0 0 
SMALL
USER_CHARGES


@<TRIPOS>ATOM
  1 CL       1.7650     2.8580    -3.8610 Cl    1 <1>  -0.1770 
  2 C        2.7380     2.8840    -2.4110 C.ar  1 <1>   0.1770 
  3 C        3.0620     4.0950    -1.8170 C.ar  1 <1>   0.1600 
  4 C        3.1790     1.6960    -1.8680 C.ar  1 <1>  -0.1500 
  5 N        3.7990     4.2290    -0.7120 N.ar  1 <1>  -0.6200 
  6 C        3.9340     1.8330    -0.7310 C.ar  1 <1>   0.1900 
  7 C        4.2240     3.0890    -0.1730 C.ar  1 <1>   0.4100 
  8 F        4.3950     0.7510    -0.1490 F     1 <1>  -0.1900 
  9 N        4.9980     3.2100     0.9700 N.pl3 1 <1>  -0.8690 
 10 C        4.6140     4.1580     2.0640 C.3   1 <1>   0.2090 
 11 C        5.5260     5.4040     2.0740 C.3   1 <1>   0.3430 
 12 N        5.6430     5.9780     0.6980 N.4   1 <1>  -0.9590 
 13 C        7.0460     6.0460     0.1640 C.3   1 <1>   0.4230 
 14 C        4.8970     7.2630     0.6050 C.3   1 <1>   0.3430 
 15 C        7.0180     6.5830    -1.2790 C.3   1 <1>  -0.1600 
 16 C        7.7610     4.6720     0.1950 C.3   1 <1>   0.1200 
 17 C        4.8540     7.7610    -0.8380 C.3   1 <1>  -0.1600 
 18 C        6.2630     7.9090    -1.4120 C.3   1 <1>  -0.1600 
 19 O        9.1000     4.8300    -0.1390 O.3   1 <1>  -0.6800 
 20 H        2.6910     4.9930    -2.2820 H     1 <1>   0.1500 
 21 H        2.9470     0.7410    -2.3050 H     1 <1>   0.1500 
 22 H        5.2520     2.2810     1.3380 H     1 <1>   0.4000 
 23 H        4.6860     3.6560     3.0140 H     1 <1>   0.0800 
 24 H        3.5900     4.4670     1.9380 H     1 <1>   0.0800 
 25 H        6.4960     5.1210     2.4440 H     1 <1>   0.0800 
 26 H        5.1220     6.1360     2.7530 H     1 <1>   0.0800 
 27 H        5.1440     5.2890     0.0920 H     1 <1>   0.4500 
 28 H        7.6120     6.7280     0.7770 H     1 <1>   0.0800 
 29 H        5.3770     8.0060     1.2210 H     1 <1>   0.0800 
 30 H        3.8880     7.1270     0.9590 H     1 <1>   0.0800 
 31 H        6.5670     5.8480    -1.9230 H     1 <1>   0.0800 
 32 H        8.0290     6.7280    -1.6210 H     1 <1>   0.0800 
 33 H        7.3150     3.9990    -0.5170 H     1 <1>   0.0800 
 34 H        7.7320     4.2300     1.1740 H     1 <1>   0.0800 
 35 H        4.3530     8.7130    -0.8680 H     1 <1>   0.0800 
 36 H        4.2810     7.0740    -1.4360 H     1 <1>   0.0800 
 37 H        6.2090     8.1960    -2.4500 H     1 <1>   0.0800 
 38 H        6.7950     8.6830    -0.8830 H     1 <1>   0.0800 
 39 H        9.5610     3.9660    -0.1970 H     1 <1>   0.4000 
@<TRIPOS>BOND
  1   1   2  1   
  2   2   3  ar  
  3   2   4  ar  
  4   3   5  ar  
  5   3  20  1   
  6   4   6  ar  
  7   4  21  1   
  8   5   7  ar  
  9   6   7  ar  
 10   6   8  1   
 11   7   9  1   
 12   9  10  1   
 13   9  22  1   
 14  10  11  1   
 15  10  23  1   
 16  10  24  1   
 17  11  12  1   
 18  11  25  1   
 19  11  26  1   
 20  12  13  1   
 21  12  14  1   
 22  12  27  1   
 23  13  15  1   
 24  13  16  1   
 25  13  28  1   
 26  14  17  1   
 27  14  29  1   
 28  14  30  1   
 29  15  18  1   
 30  15  31  1   
 31  15  32  1   
 32  16  19  1   
 33  16  33  1   
 34  16  34  1   
 35  17  18  1   
 36  17  35  1   
 37  17  36  1   
 38  18  37  1   
 39  18  38  1   
 40  19  39  1   
@<TRIPOS>SUBSTRUCTURE
  1 ****   5 GROUP 4 **** **** 0

# MOE 2024.06 (io_trps.svl 2023.06)
