@<TRIPOS>MOLECULE
NONAME
51 53 1 0 0 
SMALL
USER_CHARGES


@<TRIPOS>ATOM
  1 O        0.5820    -4.1600     1.0800 O.co2 1 <1>  -0.9000 
  2 C        0.0340    -3.6470     0.0930 C.2   1 <1>   1.0330 
  3 O       -1.2020    -3.5040     0.1480 O.co2 1 <1>  -0.9000 
  4 C        0.7500    -3.4530    -1.1160 C.2   1 <1>  -0.2330 
  5 C        0.6260    -4.2760    -2.2330 C.2   1 <1>   0.3720 
  6 C        1.6570    -2.5180    -1.4950 C.2   1 <1>   0.0870 
  7 N        1.3720    -3.8630    -3.1940 N.2   1 <1>  -0.4100 
  8 N       -0.1940    -5.4040    -2.3700 N.pl3 1 <1>  -0.8210 
  9 O        1.9890    -2.8050    -2.7330 O.3   1 <1>  -0.0190 
 10 C        2.2440    -1.3810    -0.8290 C.ar  1 <1>   0.0530 
 11 C       -0.1280    -6.4450    -1.3030 C.3   1 <1>   0.2090 
 12 C       -1.6120    -5.0830    -2.6250 C.3   1 <1>   0.2090 
 13 C        2.7410    -0.3010    -1.5610 C.ar  1 <1>  -0.1500 
 14 C        2.3460    -1.3050     0.5610 C.ar  1 <1>  -0.1500 
 15 C       -1.5790    -6.7520    -0.8560 C.3   1 <1>   0.4230 
 16 C       -2.3920    -6.2610    -2.0570 C.3   1 <1>  -0.1600 
 17 C        3.3050     0.7980    -0.9390 C.ar  1 <1>  -0.1500 
 18 C        2.9050    -0.2100     1.1920 C.ar  1 <1>  -0.1500 
 19 N       -2.0030    -6.0930     0.4350 N.4   1 <1>  -0.9590 
 20 C        3.3910     0.8560     0.4420 C.ar  1 <1>   0.0830 
 21 C       -1.1460    -6.5040     1.5890 C.3   1 <1>   0.3430 
 22 C       -3.4530    -6.2090     0.7310 C.3   1 <1>   0.3430 
 23 O        3.9530     1.9660     0.9780 O.3   1 <1>  -0.3630 
 24 C       -1.4970    -5.7420     2.8660 C.3   1 <1>  -0.2400 
 25 C       -4.0650    -4.8150     0.7540 C.3   1 <1>  -0.2400 
 26 C        4.0700     2.1250     2.3740 C.3   1 <1>   0.0400 
 27 H        0.5140    -6.1500    -0.4940 H     1 <1>   0.0800 
 28 H        0.2910    -7.3300    -1.7470 H     1 <1>   0.0800 
 29 H       -1.7820    -4.9690    -3.6830 H     1 <1>   0.0800 
 30 H       -1.8850    -4.1670    -2.1270 H     1 <1>   0.0800 
 31 H        2.6810    -0.3240    -2.6350 H     1 <1>   0.1500 
 32 H        1.9870    -2.1210     1.1640 H     1 <1>   0.1500 
 33 H       -1.6960    -7.8160    -0.7460 H     1 <1>   0.0800 
 34 H       -2.3930    -7.0340    -2.8050 H     1 <1>   0.0800 
 35 H       -3.4100    -5.9960    -1.8580 H     1 <1>   0.0800 
 36 H        3.6810     1.6200    -1.5200 H     1 <1>   0.1500 
 37 H        2.9540    -0.2080     2.2640 H     1 <1>   0.1500 
 38 H       -1.7960    -5.0630     0.3280 H     1 <1>   0.4500 
 39 H       -0.1140    -6.2940     1.3600 H     1 <1>   0.0800 
 40 H       -1.2420    -7.5620     1.7620 H     1 <1>   0.0800 
 41 H       -3.6040    -6.6870     1.6840 H     1 <1>   0.0800 
 42 H       -3.9420    -6.8080    -0.0190 H     1 <1>   0.0800 
 43 H       -1.4670    -4.6820     2.6830 H     1 <1>   0.0800 
 44 H       -0.7550    -5.9600     3.6120 H     1 <1>   0.0800 
 45 H       -2.4560    -6.0210     3.2600 H     1 <1>   0.0800 
 46 H       -3.6120    -4.2160     1.5240 H     1 <1>   0.0800 
 47 H       -5.1180    -4.8820     0.9540 H     1 <1>   0.0800 
 48 H       -3.9260    -4.3190    -0.1900 H     1 <1>   0.0800 
 49 H        4.5360     3.0750     2.5640 H     1 <1>   0.0800 
 50 H        4.6820     1.3320     2.7660 H     1 <1>   0.0800 
 51 H        3.0870     2.1060     2.8110 H     1 <1>   0.0800 
@<TRIPOS>BOND
  1   1   2  ar  
  2   2   3  ar  
  3   2   4  1   
  4   4   5  1   
  5   4   6  2   
  6   5   7  2   
  7   5   8  1   
  8   6   9  1   
  9   6  10  1   
 10   7   9  1   
 11   8  11  1   
 12   8  12  1   
 13  10  13  ar  
 14  10  14  ar  
 15  11  15  1   
 16  11  27  1   
 17  11  28  1   
 18  12  16  1   
 19  12  29  1   
 20  12  30  1   
 21  13  17  ar  
 22  13  31  1   
 23  14  18  ar  
 24  14  32  1   
 25  15  16  1   
 26  15  19  1   
 27  15  33  1   
 28  16  34  1   
 29  16  35  1   
 30  17  20  ar  
 31  17  36  1   
 32  18  20  ar  
 33  18  37  1   
 34  19  21  1   
 35  19  22  1   
 36  19  38  1   
 37  20  23  1   
 38  21  24  1   
 39  21  39  1   
 40  21  40  1   
 41  22  25  1   
 42  22  41  1   
 43  22  42  1   
 44  23  26  1   
 45  24  43  1   
 46  24  44  1   
 47  24  45  1   
 48  25  46  1   
 49  25  47  1   
 50  25  48  1   
 51  26  49  1   
 52  26  50  1   
 53  26  51  1   
@<TRIPOS>SUBSTRUCTURE
  1 ****   2 GROUP 4 **** **** 0

# MOE 2024.06 (io_trps.svl 2023.06)
