@<TRIPOS>MOLECULE
NONAME
35 37 1 0 0 
SMALL
USER_CHARGES


@<TRIPOS>ATOM
  1 CL       0.0310    -0.4800    -2.0460 Cl    1 <1>  -0.1770 
  2 C        1.3030    -1.2470    -1.1310 C.ar  1 <1>   0.1770 
  3 C        2.2990    -0.4630    -0.5850 C.ar  1 <1>  -0.1500 
  4 C        1.2900    -2.6180    -0.9750 C.ar  1 <1>  -0.1500 
  5 C        3.3160    -1.0790     0.1370 C.ar  1 <1>   0.0830 
  6 C        2.2980    -3.2510    -0.2500 C.ar  1 <1>   0.0860 
  7 O        4.3430    -0.4050     0.7100 O.3   1 <1>  -0.3630 
  8 C        3.3050    -2.4560     0.2930 C.ar  1 <1>  -0.1500 
  9 C        2.3120    -4.6900    -0.0830 C.2   1 <1>   0.5440 
 10 C        4.4740     0.9930     0.5730 C.3   1 <1>   0.0400 
 11 O        3.2520    -5.3250    -0.5230 O.2   1 <1>  -0.5700 
 12 N        1.2940    -5.3480     0.5540 N.am  1 <1>  -0.6600 
 13 C        0.1390    -4.7280     1.2660 C.3   1 <1>   0.2350 
 14 C        1.0220    -6.8000     0.3650 C.3   1 <1>   0.2350 
 15 C       -1.0440    -5.6200     0.9430 C.3   1 <1>  -0.2420 
 16 C       -0.4940    -6.9180     0.4010 C.3   1 <1>  -0.2420 
 17 C       -2.2150    -5.3050     1.8780 C.2   1 <1>   0.9470 
 18 C       -1.3480    -6.0360    -0.4760 C.3   1 <1>  -0.2000 
 19 C       -0.9200    -8.3660     0.6450 C.2   1 <1>   0.9470 
 20 O       -3.3090    -4.9790     1.3980 O.co2 1 <1>  -0.9000 
 21 O       -1.9970    -5.2050     3.0940 O.co2 1 <1>  -0.9000 
 22 O       -0.4260    -8.9820     1.5980 O.co2 1 <1>  -0.9000 
 23 O       -1.6220    -8.9450    -0.1970 O.co2 1 <1>  -0.9000 
 24 H        2.2620     0.5980    -0.7330 H     1 <1>   0.1500 
 25 H        0.5000    -3.2030    -1.4120 H     1 <1>   0.1500 
 26 H        4.0970    -2.9280     0.8460 H     1 <1>   0.1500 
 27 H        5.3650     1.2970     1.0930 H     1 <1>   0.0800 
 28 H        3.6160     1.4700     1.0110 H     1 <1>   0.0800 
 29 H        4.5610     1.2350    -0.4710 H     1 <1>   0.0800 
 30 H        0.3300    -4.7460     2.3260 H     1 <1>   0.0800 
 31 H       -0.0540    -3.7190     0.9550 H     1 <1>   0.0800 
 32 H        1.4140    -7.1570    -0.5710 H     1 <1>   0.0800 
 33 H        1.4600    -7.3540     1.1780 H     1 <1>   0.0800 
 34 H       -0.8970    -5.5140    -1.2970 H     1 <1>   0.1000 
 35 H       -2.3470    -6.3730    -0.6980 H     1 <1>   0.1000 
@<TRIPOS>BOND
  1   1   2  1   
  2   2   3  ar  
  3   2   4  ar  
  4   3   5  ar  
  5   3  24  1   
  6   4   6  ar  
  7   4  25  1   
  8   5   7  1   
  9   5   8  ar  
 10   6   8  ar  
 11   6   9  1   
 12   7  10  1   
 13   8  26  1   
 14   9  11  2   
 15   9  12  am  
 16  10  27  1   
 17  10  28  1   
 18  10  29  1   
 19  12  13  1   
 20  12  14  1   
 21  13  15  1   
 22  13  30  1   
 23  13  31  1   
 24  14  16  1   
 25  14  32  1   
 26  14  33  1   
 27  15  16  1   
 28  15  17  1   
 29  15  18  1   
 30  16  18  1   
 31  16  19  1   
 32  17  20  ar  
 33  17  21  ar  
 34  18  34  1   
 35  18  35  1   
 36  19  22  ar  
 37  19  23  ar  
@<TRIPOS>SUBSTRUCTURE
  1 ****  13 GROUP 4 **** **** 0

# MOE 2024.06 (io_trps.svl 2023.06)
