@<TRIPOS>MOLECULE
NONAME
55 57 1 0 0 
SMALL
USER_CHARGES


@<TRIPOS>ATOM
  1 O       -2.6830     0.1520     2.3430 O.2   1 <1>  -0.5700 
  2 C       -2.7020     0.7980     1.3110 C.2   1 <1>   0.5440 
  3 N       -3.1320     0.1880     0.1560 N.am  1 <1>  -0.6600 
  4 C       -2.3120     2.1960     1.3230 C.ar  1 <1>   0.0860 
  5 C       -2.9430    -1.2970     0.0130 C.3   1 <1>   0.3640 
  6 C       -4.2090     0.8340    -0.6480 C.3   1 <1>   0.1400 
  7 C       -1.6690     2.7840     0.2360 C.ar  1 <1>  -0.1500 
  8 C       -2.5620     3.0090     2.4270 C.ar  1 <1>  -0.1500 
  9 C       -1.4360    -1.5780    -0.0080 C.ar  1 <1>  -0.1430 
 10 C       -3.5900    -1.9370    -1.2550 C.3   1 <1>   0.2000 
 11 C       -4.4310     0.1270    -1.9850 C.3   1 <1>   0.1200 
 12 C       -1.3100     4.1180     0.2200 C.ar  1 <1>   0.0830 
 13 C       -2.2140     4.3480     2.4350 C.ar  1 <1>  -0.1500 
 14 C       -0.8740    -2.4350     0.9270 C.ar  1 <1>  -0.1500 
 15 C       -0.6100    -0.9840    -0.9550 C.ar  1 <1>  -0.1500 
 16 O       -4.6910    -1.2190    -1.7490 O.3   1 <1>  -0.5600 
 17 C       -4.0840    -3.3730    -1.0150 C.3   1 <1>   0.1200 
 18 O       -0.6960     4.5290    -0.9250 O.3   1 <1>  -0.3630 
 19 C       -1.5930     4.9290     1.3320 C.ar  1 <1>   0.0830 
 20 C        0.4830    -2.7060     0.9090 C.ar  1 <1>  -0.1500 
 21 C        0.7470    -1.2520    -0.9750 C.ar  1 <1>  -0.1500 
 22 O       -3.0990    -4.1780    -0.4520 O.3   1 <1>  -0.6800 
 23 C        0.2980     5.5280    -0.9000 C.3   1 <1>   0.1200 
 24 O       -1.2780     6.2530     1.3080 O.3   1 <1>  -0.3630 
 25 C        1.2950    -2.1170    -0.0430 C.ar  1 <1>  -0.1500 
 26 C        1.1430     5.3850    -2.1620 C.3   1 <1>  -0.2400 
 27 C       -1.5570     7.1240     2.3790 C.3   1 <1>   0.1200 
 28 C       -1.0660     8.5160     1.9910 C.3   1 <1>  -0.2400 
 29 H       -3.3750    -1.7690     0.8790 H     1 <1>   0.0800 
 30 H       -5.1260     0.8080    -0.0850 H     1 <1>   0.0800 
 31 H       -3.9650     1.8650    -0.8330 H     1 <1>   0.0800 
 32 H       -1.4350     2.1800    -0.6220 H     1 <1>   0.1500 
 33 H       -3.0380     2.5740     3.2890 H     1 <1>   0.1500 
 34 H       -2.8650    -1.9630    -2.0490 H     1 <1>   0.0800 
 35 H       -3.5710     0.2200    -2.6240 H     1 <1>   0.0800 
 36 H       -5.2870     0.5440    -2.4860 H     1 <1>   0.0800 
 37 H       -2.4400     4.9180     3.3160 H     1 <1>   0.1500 
 38 H       -1.4960    -2.8950     1.6770 H     1 <1>   0.1500 
 39 H       -1.0230    -0.3030    -1.6780 H     1 <1>   0.1500 
 40 H       -4.3860    -3.8190    -1.9460 H     1 <1>   0.0800 
 41 H       -4.9200    -3.3660    -0.3360 H     1 <1>   0.0800 
 42 H        0.9050    -3.3740     1.6400 H     1 <1>   0.1500 
 43 H        1.3780    -0.7860    -1.7110 H     1 <1>   0.1500 
 44 H       -2.2560    -4.1140    -0.9470 H     1 <1>   0.4000 
 45 H       -0.1870     6.4880    -0.8760 H     1 <1>   0.0800 
 46 H        0.9000     5.3940    -0.0180 H     1 <1>   0.0800 
 47 H        2.3500    -2.3260    -0.0560 H     1 <1>   0.1500 
 48 H        0.5260     5.5080    -3.0340 H     1 <1>   0.0800 
 49 H        1.6110     4.4170    -2.1850 H     1 <1>   0.0800 
 50 H        1.9090     6.1380    -2.1730 H     1 <1>   0.0800 
 51 H       -2.6200     7.1290     2.5480 H     1 <1>   0.0800 
 52 H       -1.0390     6.7690     3.2530 H     1 <1>   0.0800 
 53 H       -1.5760     8.8530     1.1070 H     1 <1>   0.0800 
 54 H       -0.0060     8.4970     1.8100 H     1 <1>   0.0800 
 55 H       -1.2660     9.2080     2.7880 H     1 <1>   0.0800 
@<TRIPOS>BOND
  1   1   2  2   
  2   2   3  am  
  3   2   4  1   
  4   3   5  1   
  5   3   6  1   
  6   4   7  ar  
  7   4   8  ar  
  8   5   9  1   
  9   5  10  1   
 10   5  29  1   
 11   6  11  1   
 12   6  30  1   
 13   6  31  1   
 14   7  12  ar  
 15   7  32  1   
 16   8  13  ar  
 17   8  33  1   
 18   9  14  ar  
 19   9  15  ar  
 20  10  16  1   
 21  10  17  1   
 22  10  34  1   
 23  11  16  1   
 24  11  35  1   
 25  11  36  1   
 26  12  18  1   
 27  12  19  ar  
 28  13  19  ar  
 29  13  37  1   
 30  14  20  ar  
 31  14  38  1   
 32  15  21  ar  
 33  15  39  1   
 34  17  22  1   
 35  17  40  1   
 36  17  41  1   
 37  18  23  1   
 38  19  24  1   
 39  20  25  ar  
 40  20  42  1   
 41  21  25  ar  
 42  21  43  1   
 43  22  44  1   
 44  23  26  1   
 45  23  45  1   
 46  23  46  1   
 47  24  27  1   
 48  25  47  1   
 49  26  48  1   
 50  26  49  1   
 51  26  50  1   
 52  27  28  1   
 53  27  51  1   
 54  27  52  1   
 55  28  53  1   
 56  28  54  1   
 57  28  55  1   
@<TRIPOS>SUBSTRUCTURE
  1 ****   7 GROUP 4 **** **** 0

# MOE 2024.06 (io_trps.svl 2023.06)
