@<TRIPOS>MOLECULE
NONAME
45 47 1 0 0 
SMALL
USER_CHARGES


@<TRIPOS>ATOM
  1 S       -0.2590     1.3760     0.3620 S.3   1 <1>  -0.0800 
  2 C        1.4810     1.5950     0.1220 C.2   1 <1>  -0.0450 
  3 C       -0.2110     2.2980     1.8630 C.2   1 <1>  -0.1100 
  4 C        2.2940     1.1240    -0.9380 C.2   1 <1>   0.8660 
  5 C        1.9910     2.3200     1.1420 C.2   1 <1>   0.0830 
  6 C        1.0400     2.7210     2.1290 C.2   1 <1>  -0.1500 
  7 O        1.8510     0.4690    -1.8710 O.2   1 <1>  -0.5700 
  8 N        3.6390     1.4130    -0.9250 N.2   1 <1>  -0.6610 
  9 N        3.3360     2.5740     1.0910 N.pl3 1 <1>  -0.5330 
 10 C        4.1030     2.1080     0.0580 C.2   1 <1>   0.4390 
 11 C        5.5910     2.4550     0.1070 C.3   1 <1>   0.2010 
 12 N        5.8350     3.9340    -0.0090 N.am  1 <1>  -0.6600 
 13 C        5.6910     4.7390     1.0990 C.2   1 <1>   0.5690 
 14 C        6.0880     4.3750    -1.4130 C.3   1 <1>   0.0600 
 15 O        5.3170     4.2630     2.1490 O.2   1 <1>  -0.5700 
 16 C        5.9400     6.2540     1.0910 C.3   1 <1>  -0.0190 
 17 C        4.8670     7.0300     0.2980 C.3   1 <1>  -0.1600 
 18 C        7.3930     6.6440     0.7160 C.3   1 <1>  -0.1600 
 19 C        5.0290     8.5540     0.4370 C.3   1 <1>   0.2000 
 20 C        7.4920     7.9920    -0.0210 C.3   1 <1>  -0.1600 
 21 O        4.4380     9.1160    -0.7080 O.3   1 <1>  -0.5600 
 22 C        6.5110     9.0100     0.5640 C.3   1 <1>   0.2000 
 23 C        3.5200    10.1340    -0.4540 C.3   1 <1>   0.0400 
 24 O        6.6930    10.2000    -0.1120 O.3   1 <1>  -0.6800 
 25 H       -1.1390     2.4240     2.3920 H     1 <1>   0.1500 
 26 H        1.3410     3.3020     2.9830 H     1 <1>   0.1500 
 27 H        3.8060     3.1700     1.7940 H     1 <1>   0.4000 
 28 H        6.1000     1.9380    -0.6870 H     1 <1>   0.0800 
 29 H        5.9980     2.0970     1.0360 H     1 <1>   0.0800 
 30 H        6.8730     3.7780    -1.8460 H     1 <1>   0.0800 
 31 H        6.3880     5.4030    -1.4660 H     1 <1>   0.0800 
 32 H        5.1930     4.2450    -1.9980 H     1 <1>   0.0800 
 33 H        5.8140     6.5680     2.1140 H     1 <1>   0.0800 
 34 H        3.8900     6.7520     0.6520 H     1 <1>   0.0800 
 35 H        4.9220     6.7720    -0.7420 H     1 <1>   0.0800 
 36 H        7.9680     6.7020     1.6250 H     1 <1>   0.0800 
 37 H        7.8580     5.8850     0.1130 H     1 <1>   0.0800 
 38 H        4.4990     8.8800     1.3160 H     1 <1>   0.0800 
 39 H        7.2620     7.8470    -1.0630 H     1 <1>   0.0800 
 40 H        8.4970     8.3680     0.0550 H     1 <1>   0.0800 
 41 H        6.7560     9.1790     1.5990 H     1 <1>   0.0800 
 42 H        3.1610    10.5070    -1.3970 H     1 <1>   0.0800 
 43 H        4.0050    10.9260     0.0900 H     1 <1>   0.0800 
 44 H        2.6960     9.7350     0.1130 H     1 <1>   0.0800 
 45 H        6.0540    10.1840    -0.8590 H     1 <1>   0.4000 
@<TRIPOS>BOND
  1   1   2  1   
  2   1   3  1   
  3   2   4  1   
  4   2   5  2   
  5   3   6  2   
  6   3  25  1   
  7   4   7  2   
  8   4   8  1   
  9   5   6  1   
 10   5   9  1   
 11   6  26  1   
 12   8  10  2   
 13   9  10  1   
 14   9  27  1   
 15  10  11  1   
 16  11  12  1   
 17  11  28  1   
 18  11  29  1   
 19  12  13  am  
 20  12  14  1   
 21  13  15  2   
 22  13  16  1   
 23  14  30  1   
 24  14  31  1   
 25  14  32  1   
 26  16  17  1   
 27  16  18  1   
 28  16  33  1   
 29  17  19  1   
 30  17  34  1   
 31  17  35  1   
 32  18  20  1   
 33  18  36  1   
 34  18  37  1   
 35  19  21  1   
 36  19  22  1   
 37  19  38  1   
 38  20  22  1   
 39  20  39  1   
 40  20  40  1   
 41  21  23  1   
 42  22  24  1   
 43  22  41  1   
 44  23  42  1   
 45  23  43  1   
 46  23  44  1   
 47  24  45  1   
@<TRIPOS>SUBSTRUCTURE
  1 ****  13 GROUP 4 **** **** 0

# MOE 2024.06 (io_trps.svl 2023.06)
