@<TRIPOS>MOLECULE
NONAME
46 48 1 0 0 
SMALL
USER_CHARGES


@<TRIPOS>ATOM
  1 O       -0.3220     0.1430    -0.2210 O.2   1 <1>  -0.5700 
  2 C       -1.3640     0.7520    -0.1660 C.2   1 <1>   0.5690 
  3 N       -2.5700     0.1150    -0.2430 N.am  1 <1>  -0.6600 
  4 C       -1.3310     2.2620    -0.0040 C.3   1 <1>  -0.0990 
  5 C       -3.9090     0.7460    -0.1420 C.3   1 <1>   0.1400 
  6 C       -2.6940    -1.3560    -0.3900 C.3   1 <1>   0.1400 
  7 C        0.0930     2.8160     0.0040 C.3   1 <1>   0.1200 
  8 C       -4.9050    -0.4100    -0.2510 C.3   1 <1>   0.2000 
  9 C       -4.1150    -1.6780     0.0730 C.3   1 <1>  -0.0800 
 10 O        0.0200     4.2170     0.1520 O.3   1 <1>  -0.3630 
 11 O       -5.9520    -0.2630     0.6450 O.3   1 <1>  -0.6800 
 12 C       -4.7210    -2.9330    -0.5780 C.3   1 <1>  -0.0170 
 13 C        1.1440     4.9760     0.1900 C.ar  1 <1>   0.0820 
 14 C       -3.9350    -4.1850    -0.2270 C.ar  1 <1>   0.1670 
 15 C        2.4330     4.4580     0.0910 C.ar  1 <1>  -0.1500 
 16 C        0.9700     6.3430     0.3350 C.ar  1 <1>  -0.1500 
 17 N       -2.8710    -4.4400    -0.9730 N.ar  1 <1>  -0.6200 
 18 C       -4.3500    -4.9830     0.8300 C.ar  1 <1>  -0.1500 
 19 C        3.5260     5.3060     0.1390 C.ar  1 <1>  -0.1500 
 20 C        2.0640     7.1900     0.3830 C.ar  1 <1>  -0.1500 
 21 C       -2.1930    -5.5300    -0.6530 C.ar  1 <1>   0.1600 
 22 C       -3.6350    -6.1170     1.1510 C.ar  1 <1>  -0.1500 
 23 C        3.3430     6.6710     0.2850 C.ar  1 <1>  -0.1500 
 24 C       -2.5250    -6.3890     0.3810 C.ar  1 <1>  -0.1500 
 25 H       -1.8710     2.7060    -0.8180 H     1 <1>   0.0800 
 26 H       -1.8090     2.5170     0.9230 H     1 <1>   0.0800 
 27 H       -3.9990     1.2450     0.8070 H     1 <1>   0.0800 
 28 H       -4.0530     1.4450    -0.9470 H     1 <1>   0.0800 
 29 H       -2.5570    -1.6180    -1.4260 H     1 <1>   0.0800 
 30 H       -1.9560    -1.8720     0.2030 H     1 <1>   0.0800 
 31 H        0.5910     2.5940    -0.9240 H     1 <1>   0.0800 
 32 H        0.6520     2.4120     0.8300 H     1 <1>   0.0800 
 33 H       -5.3130    -0.4450    -1.2470 H     1 <1>   0.0800 
 34 H       -4.0750    -1.8150     1.1390 H     1 <1>   0.0800 
 35 H       -5.6200    -0.2870     1.5630 H     1 <1>   0.4000 
 36 H       -4.7390    -2.8220    -1.6480 H     1 <1>   0.0800 
 37 H       -5.7380    -3.0470    -0.2480 H     1 <1>   0.0800 
 38 H        2.6060     3.4040    -0.0220 H     1 <1>   0.1500 
 39 H       -0.0260     6.7390     0.4110 H     1 <1>   0.1500 
 40 H       -5.2240    -4.7220     1.3970 H     1 <1>   0.1500 
 41 H        4.5210     4.9040     0.0630 H     1 <1>   0.1500 
 42 H        1.9190     8.2500     0.4960 H     1 <1>   0.1500 
 43 H       -1.3240    -5.7520    -1.2490 H     1 <1>   0.1500 
 44 H       -3.9280    -6.7580     1.9640 H     1 <1>   0.1500 
 45 H        4.1950     7.3280     0.3210 H     1 <1>   0.1500 
 46 H       -1.9210    -7.2560     0.5770 H     1 <1>   0.1500 
@<TRIPOS>BOND
  1   1   2  2   
  2   2   3  am  
  3   2   4  1   
  4   3   5  1   
  5   3   6  1   
  6   4   7  1   
  7   4  25  1   
  8   4  26  1   
  9   5   8  1   
 10   5  27  1   
 11   5  28  1   
 12   6   9  1   
 13   6  29  1   
 14   6  30  1   
 15   7  10  1   
 16   7  31  1   
 17   7  32  1   
 18   8   9  1   
 19   8  11  1   
 20   8  33  1   
 21   9  12  1   
 22   9  34  1   
 23  10  13  1   
 24  11  35  1   
 25  12  14  1   
 26  12  36  1   
 27  12  37  1   
 28  13  15  ar  
 29  13  16  ar  
 30  14  17  ar  
 31  14  18  ar  
 32  15  19  ar  
 33  15  38  1   
 34  16  20  ar  
 35  16  39  1   
 36  17  21  ar  
 37  18  22  ar  
 38  18  40  1   
 39  19  23  ar  
 40  19  41  1   
 41  20  23  ar  
 42  20  42  1   
 43  21  24  ar  
 44  21  43  1   
 45  22  24  ar  
 46  22  44  1   
 47  23  45  1   
 48  24  46  1   
@<TRIPOS>SUBSTRUCTURE
  1 ****   2 GROUP 4 **** **** 0

# MOE 2024.06 (io_trps.svl 2023.06)
