@<TRIPOS>MOLECULE
NONAME
43 44 1 0 0 
SMALL
USER_CHARGES


@<TRIPOS>ATOM
  1 N        0.3200     2.1430    -0.0410 N.ar  1 <1>  -0.6200 
  2 C        0.8740     1.5560     1.0180 C.ar  1 <1>   0.4100 
  3 C       -1.0010     2.0560    -0.0460 C.ar  1 <1>   0.1660 
  4 N        2.2700     1.5580     1.0840 N.pl3 1 <1>  -0.8380 
  5 C        0.0970     0.9670     2.0330 C.ar  1 <1>   0.1600 
  6 C       -1.7440     1.4520     0.9640 C.ar  1 <1>   0.1600 
  7 C       -1.7070     2.6620    -1.2440 C.3   1 <1>  -0.0960 
  8 C        3.0640     2.4850     0.2260 C.3   1 <1>   0.2090 
  9 C        2.9680     0.2750     1.4020 C.3   1 <1>   0.1290 
 10 N       -1.2180     0.8950     2.0420 N.ar  1 <1>  -0.6200 
 11 C        2.7200     3.9510     0.5580 C.3   1 <1>   0.3430 
 12 N        2.7840     4.8730    -0.6330 N.4   1 <1>  -0.9590 
 13 C        2.7780     6.2990    -0.2040 C.3   1 <1>   0.4230 
 14 C        1.6270     4.5630    -1.5380 C.3   1 <1>   0.2630 
 15 C        2.7880     7.2470    -1.4090 C.3   1 <1>  -0.1600 
 16 C        4.0370     6.6520     0.6050 C.3   1 <1>  -0.1600 
 17 C        3.6560     8.4300    -0.9930 C.3   1 <1>  -0.1600 
 18 C        4.7370     7.8020    -0.1250 C.3   1 <1>  -0.1600 
 19 H        0.6140     0.5440     2.8720 H     1 <1>   0.1500 
 20 H       -2.8170     1.4240     0.8840 H     1 <1>   0.1500 
 21 H       -1.3100     2.2380    -2.1480 H     1 <1>   0.0800 
 22 H       -1.5550     3.7250    -1.2580 H     1 <1>   0.0800 
 23 H       -2.7630     2.4650    -1.2100 H     1 <1>   0.0800 
 24 H        2.8490     2.2580    -0.8030 H     1 <1>   0.0800 
 25 H        4.1150     2.3260     0.3970 H     1 <1>   0.0800 
 26 H        2.2610    -0.5080     1.6180 H     1 <1>   0.0800 
 27 H        3.6060     0.4090     2.2580 H     1 <1>   0.0800 
 28 H        3.5660    -0.0420     0.5650 H     1 <1>   0.0800 
 29 H        3.3930     4.2850     1.3290 H     1 <1>   0.0800 
 30 H        1.7220     3.9790     0.9630 H     1 <1>   0.0800 
 31 H        3.6650     4.7180    -1.1390 H     1 <1>   0.4500 
 32 H        1.9070     6.5030     0.3990 H     1 <1>   0.0800 
 33 H        0.6960     4.7370    -1.0230 H     1 <1>   0.0800 
 34 H        1.6490     3.5280    -1.8420 H     1 <1>   0.0800 
 35 H        1.6560     5.1780    -2.4220 H     1 <1>   0.0800 
 36 H        1.7960     7.5720    -1.6680 H     1 <1>   0.0800 
 37 H        3.2510     6.7780    -2.2610 H     1 <1>   0.0800 
 38 H        4.7200     5.8310     0.7250 H     1 <1>   0.0800 
 39 H        3.7310     6.9950     1.5780 H     1 <1>   0.0800 
 40 H        3.0760     9.1230    -0.4050 H     1 <1>   0.0800 
 41 H        4.0700     8.9520    -1.8400 H     1 <1>   0.0800 
 42 H        5.5190     7.4120    -0.7560 H     1 <1>   0.0800 
 43 H        5.1680     8.5160     0.5580 H     1 <1>   0.0800 
@<TRIPOS>BOND
  1   1   2  ar  
  2   1   3  ar  
  3   2   4  1   
  4   2   5  ar  
  5   3   6  ar  
  6   3   7  1   
  7   4   8  1   
  8   4   9  1   
  9   5  10  ar  
 10   5  19  1   
 11   6  10  ar  
 12   6  20  1   
 13   7  21  1   
 14   7  22  1   
 15   7  23  1   
 16   8  11  1   
 17   8  24  1   
 18   8  25  1   
 19   9  26  1   
 20   9  27  1   
 21   9  28  1   
 22  11  12  1   
 23  11  29  1   
 24  11  30  1   
 25  12  13  1   
 26  12  14  1   
 27  12  31  1   
 28  13  15  1   
 29  13  16  1   
 30  13  32  1   
 31  14  33  1   
 32  14  34  1   
 33  14  35  1   
 34  15  17  1   
 35  15  36  1   
 36  15  37  1   
 37  16  18  1   
 38  16  38  1   
 39  16  39  1   
 40  17  18  1   
 41  17  40  1   
 42  17  41  1   
 43  18  42  1   
 44  18  43  1   
@<TRIPOS>SUBSTRUCTURE
  1 ****  11 GROUP 4 **** **** 0

# MOE 2024.06 (io_trps.svl 2023.06)
