@<TRIPOS>MOLECULE
NONAME
46 49 1 0 0 
SMALL
USER_CHARGES


@<TRIPOS>ATOM
  1 O       -0.2770    -2.3410     1.9270 O.co2 1 <1>  -0.9000 
  2 C       -0.6750    -3.3170     1.2530 C.2   1 <1>   0.9790 
  3 O        0.1180    -4.2730     1.1200 O.co2 1 <1>  -0.9000 
  4 C       -2.0260    -3.3130     0.6840 C.ar  1 <1>   0.1310 
  5 N       -2.4200    -4.2700    -0.1800 N.ar  1 <1>  -0.3100 
  6 C       -2.9160    -2.3060     1.0450 C.ar  1 <1>  -0.1500 
  7 N       -3.6380    -4.2910    -0.6590 N.ar  1 <1>  -0.3100 
  8 C       -4.1930    -2.3350     0.5480 C.ar  1 <1>  -0.1500 
  9 C       -4.5450    -3.3760    -0.2920 C.ar  1 <1>   0.4100 
 10 N       -5.8570    -3.5050    -0.7520 N.pl3 1 <1>  -0.8380 
 11 C       -6.1590    -4.4440    -1.8690 C.3   1 <1>   0.2090 
 12 C       -6.9790    -3.4400     0.2200 C.3   1 <1>   0.2090 
 13 C       -6.3470    -5.8590    -1.3170 C.3   1 <1>  -0.1600 
 14 C       -7.1490    -4.8110     0.8700 C.3   1 <1>  -0.1600 
 15 C       -7.3770    -5.9220    -0.1770 C.3   1 <1>   0.4240 
 16 O       -8.5980    -5.6150    -0.8160 O.3   1 <1>  -0.5600 
 17 C       -7.3860    -7.3480     0.4430 C.ar  1 <1>  -0.1430 
 18 C       -9.7690    -6.1040    -0.2480 C.3   1 <1>   0.1200 
 19 C       -6.2730    -7.8710     1.1130 C.ar  1 <1>   0.0830 
 20 C       -8.5130    -8.1580     0.3220 C.ar  1 <1>  -0.1430 
 21 C       -9.7550    -7.6230    -0.3580 C.3   1 <1>  -0.0170 
 22 O       -5.1760    -7.1020     1.3060 O.3   1 <1>  -0.3630 
 23 C       -6.2880    -9.1670     1.6130 C.ar  1 <1>  -0.1500 
 24 C       -8.5210    -9.4510     0.8220 C.ar  1 <1>  -0.1500 
 25 C       -3.8850    -7.6040     1.0340 C.3   1 <1>   0.0400 
 26 C       -7.4080    -9.9590     1.4640 C.ar  1 <1>  -0.1500 
 27 H       -2.5930    -1.5250     1.7110 H     1 <1>   0.1500 
 28 H       -4.9010    -1.5740     0.8010 H     1 <1>   0.1500 
 29 H       -5.3570    -4.4310    -2.5880 H     1 <1>   0.0800 
 30 H       -7.0580    -4.1230    -2.3680 H     1 <1>   0.0800 
 31 H       -7.8810    -3.1580    -0.2950 H     1 <1>   0.0800 
 32 H       -6.7830    -2.7020     0.9780 H     1 <1>   0.0800 
 33 H       -5.3950    -6.2090    -0.9780 H     1 <1>   0.0800 
 34 H       -6.6550    -6.5180    -2.1060 H     1 <1>   0.0800 
 35 H       -7.9620    -4.7920     1.5680 H     1 <1>   0.0800 
 36 H       -6.2610    -4.9980     1.4380 H     1 <1>   0.0800 
 37 H      -10.5990    -5.6920    -0.7950 H     1 <1>   0.0800 
 38 H       -9.8270    -5.7880     0.7780 H     1 <1>   0.0800 
 39 H       -9.7590    -7.9100    -1.3940 H     1 <1>   0.0800 
 40 H      -10.6370    -8.0190     0.1110 H     1 <1>   0.0800 
 41 H       -5.4310    -9.5550     2.1310 H     1 <1>   0.1500 
 42 H       -9.3950   -10.0690     0.7130 H     1 <1>   0.1500 
 43 H       -3.2080    -6.7680     0.9860 H     1 <1>   0.0800 
 44 H       -3.8990    -8.1130     0.0870 H     1 <1>   0.0800 
 45 H       -3.5880    -8.2670     1.8260 H     1 <1>   0.0800 
 46 H       -7.4180   -10.9620     1.8510 H     1 <1>   0.1500 
@<TRIPOS>BOND
  1   1   2  ar  
  2   2   3  ar  
  3   2   4  1   
  4   4   5  ar  
  5   4   6  ar  
  6   5   7  ar  
  7   6   8  ar  
  8   6  27  1   
  9   7   9  ar  
 10   8   9  ar  
 11   8  28  1   
 12   9  10  1   
 13  10  11  1   
 14  10  12  1   
 15  11  13  1   
 16  11  29  1   
 17  11  30  1   
 18  12  14  1   
 19  12  31  1   
 20  12  32  1   
 21  13  15  1   
 22  13  33  1   
 23  13  34  1   
 24  14  15  1   
 25  14  35  1   
 26  14  36  1   
 27  15  16  1   
 28  15  17  1   
 29  16  18  1   
 30  17  19  ar  
 31  17  20  ar  
 32  18  21  1   
 33  18  37  1   
 34  18  38  1   
 35  19  22  1   
 36  19  23  ar  
 37  20  21  1   
 38  20  24  ar  
 39  21  39  1   
 40  21  40  1   
 41  22  25  1   
 42  23  26  ar  
 43  23  41  1   
 44  24  26  ar  
 45  24  42  1   
 46  25  43  1   
 47  25  44  1   
 48  25  45  1   
 49  26  46  1   
@<TRIPOS>SUBSTRUCTURE
  1 ****  22 GROUP 4 **** **** 0

# MOE 2024.06 (io_trps.svl 2023.06)
