@<TRIPOS>MOLECULE
NONAME
38 38 1 0 0 
SMALL
USER_CHARGES


@<TRIPOS>ATOM
  1 S        0.9660     1.6970    -1.2790 S.3   1 <1>  -0.4600 
  2 C        0.7080     2.0180     0.5020 C.3   1 <1>   0.1310 
  3 C       -0.2850     0.4410    -1.6640 C.3   1 <1>  -0.0100 
  4 C        1.6270     3.1480     0.9550 C.2   1 <1>   0.5690 
  5 O        1.1320     4.2400     1.1230 O.2   1 <1>  -0.5700 
  6 N        2.9820     2.9540     1.1060 N.am  1 <1>  -0.6600 
  7 C        3.8800     4.0890     1.4760 C.3   1 <1>   0.1400 
  8 C        3.6210     1.6080     1.0110 C.3   1 <1>   0.0600 
  9 C        4.5250     4.7840     0.2470 C.3   1 <1>   0.0000 
 10 C        3.4680     5.1470    -0.8110 C.3   1 <1>   0.3430 
 11 C        5.0750     6.1520     0.6660 C.3   1 <1>  -0.1600 
 12 C        5.6450     3.9200    -0.3630 C.3   1 <1>  -0.2400 
 13 N        3.1410     6.5980    -0.6400 N.4   1 <1>  -0.9590 
 14 C        3.8840     7.0880     0.5470 C.3   1 <1>   0.3430 
 15 C        1.6670     6.8090    -0.5030 C.3   1 <1>   0.2630 
 16 H        0.9060     1.1080     1.0360 H     1 <1>   0.0800 
 17 H       -0.3200     2.3010     0.6290 H     1 <1>   0.0800 
 18 H       -0.1930     0.1970    -2.7070 H     1 <1>   0.0800 
 19 H       -1.2540     0.8570    -1.4540 H     1 <1>   0.0800 
 20 H       -0.0930    -0.4230    -1.0530 H     1 <1>   0.0800 
 21 H        4.6490     3.7340     2.1410 H     1 <1>   0.0800 
 22 H        3.3050     4.8080     2.0350 H     1 <1>   0.0800 
 23 H        3.1130     0.9120     1.6570 H     1 <1>   0.0800 
 24 H        4.6530     1.6530     1.3100 H     1 <1>   0.0800 
 25 H        3.5700     1.2490    -0.0030 H     1 <1>   0.0800 
 26 H        2.5890     4.5350    -0.7120 H     1 <1>   0.0800 
 27 H        3.8750     4.9850    -1.7950 H     1 <1>   0.0800 
 28 H        5.8410     6.4860    -0.0130 H     1 <1>   0.0800 
 29 H        5.4810     6.1520     1.6620 H     1 <1>   0.0800 
 30 H        5.2480     3.0000    -0.7530 H     1 <1>   0.0800 
 31 H        6.3870     3.6830     0.3800 H     1 <1>   0.0800 
 32 H        6.1330     4.4350    -1.1720 H     1 <1>   0.0800 
 33 H        3.4820     7.0950    -1.4740 H     1 <1>   0.4500 
 34 H        4.1880     8.1170     0.4330 H     1 <1>   0.0800 
 35 H        3.2660     6.9920     1.4260 H     1 <1>   0.0800 
 36 H        1.3070     6.3570     0.4060 H     1 <1>   0.0800 
 37 H        1.1450     6.3630    -1.3340 H     1 <1>   0.0800 
 38 H        1.4390     7.8620    -0.4750 H     1 <1>   0.0800 
@<TRIPOS>BOND
  1   1   2  1   
  2   1   3  1   
  3   2   4  1   
  4   2  16  1   
  5   2  17  1   
  6   3  18  1   
  7   3  19  1   
  8   3  20  1   
  9   4   5  2   
 10   4   6  am  
 11   6   7  1   
 12   6   8  1   
 13   7   9  1   
 14   7  21  1   
 15   7  22  1   
 16   8  23  1   
 17   8  24  1   
 18   8  25  1   
 19   9  10  1   
 20   9  11  1   
 21   9  12  1   
 22  10  13  1   
 23  10  26  1   
 24  10  27  1   
 25  11  14  1   
 26  11  28  1   
 27  11  29  1   
 28  12  30  1   
 29  12  31  1   
 30  12  32  1   
 31  13  14  1   
 32  13  15  1   
 33  13  33  1   
 34  14  34  1   
 35  14  35  1   
 36  15  36  1   
 37  15  37  1   
 38  15  38  1   
@<TRIPOS>SUBSTRUCTURE
  1 ****   6 GROUP 4 **** **** 0

# MOE 2024.06 (io_trps.svl 2023.06)
