@<TRIPOS>MOLECULE
NONAME
48 51 1 0 0 
SMALL
USER_CHARGES


@<TRIPOS>ATOM
  1 O       -0.9510     0.3120     1.0780 O.2   1 <1>  -0.5700 
  2 C       -1.7400     0.8360     0.3270 C.2   1 <1>   0.5690 
  3 N       -2.6800     0.0850    -0.3260 N.am  1 <1>  -0.6600 
  4 C       -1.6860     2.3550     0.1220 C.3   1 <1>  -0.0190 
  5 C       -3.7820     0.5730    -1.1940 C.3   1 <1>   0.1400 
  6 C       -2.7820    -1.3840    -0.1460 C.3   1 <1>   0.1400 
  7 C       -0.3050     2.9960     0.2970 C.3   1 <1>  -0.1600 
  8 C       -2.5540     3.1330     1.1140 C.3   1 <1>  -0.1600 
  9 C       -4.8190    -0.5460    -1.1440 C.3   1 <1>   0.2000 
 10 C       -3.9720    -1.8190    -1.0140 C.3   1 <1>  -0.0800 
 11 C       -0.5920     4.4830     0.5110 C.3   1 <1>  -0.1600 
 12 C       -2.0050     4.5630     1.1020 C.3   1 <1>  -0.1600 
 13 O       -5.5790    -0.3710     0.0030 O.3   1 <1>  -0.6800 
 14 C       -4.7370    -3.0450    -0.4710 C.3   1 <1>  -0.0170 
 15 C       -3.9870    -4.3830    -0.4690 C.ar  1 <1>  -0.1440 
 16 C       -4.5660    -5.5080     0.1720 C.ar  1 <1>   0.0000 
 17 C       -2.7730    -4.5730    -1.0690 C.ar  1 <1>  -0.1500 
 18 C       -3.8410    -6.7250     0.1650 C.ar  1 <1>   0.3100 
 19 C       -5.8260    -5.4980     0.8170 C.ar  1 <1>  -0.1500 
 20 C       -2.1430    -5.8220    -1.0210 C.ar  1 <1>   0.1600 
 21 N       -2.6330    -6.8650    -0.4330 N.ar  1 <1>  -0.6200 
 22 C       -4.3900    -7.8510     0.8010 C.ar  1 <1>  -0.1500 
 23 C       -6.3340    -6.6140     1.4250 C.ar  1 <1>  -0.1500 
 24 C       -5.6090    -7.8070     1.4200 C.ar  1 <1>  -0.1500 
 25 H       -2.0140     2.5860    -0.8750 H     1 <1>   0.0800 
 26 H       -4.1930     1.5060    -0.8520 H     1 <1>   0.0800 
 27 H       -3.4120     0.6850    -2.1990 H     1 <1>   0.0800 
 28 H       -1.8650    -1.8610    -0.4460 H     1 <1>   0.0800 
 29 H       -2.9640    -1.5970     0.8940 H     1 <1>   0.0800 
 30 H        0.1710     2.6020     1.1790 H     1 <1>   0.0800 
 31 H        0.3320     2.8200    -0.5520 H     1 <1>   0.0800 
 32 H       -3.5970     3.1000     0.8550 H     1 <1>   0.0800 
 33 H       -2.4250     2.7130     2.0970 H     1 <1>   0.0800 
 34 H       -5.4780    -0.5530    -1.9950 H     1 <1>   0.0800 
 35 H       -3.6040    -2.0470    -1.9980 H     1 <1>   0.0800 
 36 H        0.1380     4.9270     1.1650 H     1 <1>   0.0800 
 37 H       -0.5690     4.9960    -0.4360 H     1 <1>   0.0800 
 38 H       -2.6210     5.1950     0.4850 H     1 <1>   0.0800 
 39 H       -1.9850     4.9660     2.1000 H     1 <1>   0.0800 
 40 H       -4.9750    -0.2280     0.7600 H     1 <1>   0.4000 
 41 H       -5.6340    -3.1680    -1.0520 H     1 <1>   0.0800 
 42 H       -5.0360    -2.8300     0.5400 H     1 <1>   0.0800 
 43 H       -2.2550    -3.7970    -1.5960 H     1 <1>   0.1500 
 44 H       -6.4090    -4.5960     0.8310 H     1 <1>   0.1500 
 45 H       -1.1850    -5.9200    -1.5040 H     1 <1>   0.1500 
 46 H       -3.8140    -8.7570     0.7810 H     1 <1>   0.1500 
 47 H       -7.2940    -6.5880     1.9120 H     1 <1>   0.1500 
 48 H       -6.0170    -8.6780     1.9030 H     1 <1>   0.1500 
@<TRIPOS>BOND
  1   1   2  2   
  2   2   3  am  
  3   2   4  1   
  4   3   5  1   
  5   3   6  1   
  6   4   7  1   
  7   4   8  1   
  8   4  25  1   
  9   5   9  1   
 10   5  26  1   
 11   5  27  1   
 12   6  10  1   
 13   6  28  1   
 14   6  29  1   
 15   7  11  1   
 16   7  30  1   
 17   7  31  1   
 18   8  12  1   
 19   8  32  1   
 20   8  33  1   
 21   9  10  1   
 22   9  13  1   
 23   9  34  1   
 24  10  14  1   
 25  10  35  1   
 26  11  12  1   
 27  11  36  1   
 28  11  37  1   
 29  12  38  1   
 30  12  39  1   
 31  13  40  1   
 32  14  15  1   
 33  14  41  1   
 34  14  42  1   
 35  15  16  ar  
 36  15  17  ar  
 37  16  18  ar  
 38  16  19  ar  
 39  17  20  ar  
 40  17  43  1   
 41  18  21  ar  
 42  18  22  ar  
 43  19  23  ar  
 44  19  44  1   
 45  20  21  ar  
 46  20  45  1   
 47  22  24  ar  
 48  22  46  1   
 49  23  24  ar  
 50  23  47  1   
 51  24  48  1   
@<TRIPOS>SUBSTRUCTURE
  1 ****   6 GROUP 4 **** **** 0

# MOE 2024.06 (io_trps.svl 2023.06)
