@<TRIPOS>MOLECULE
NONAME
55 58 1 0 0 
SMALL
USER_CHARGES


@<TRIPOS>ATOM
  1 O       -0.0950    -0.4450     1.8000 O.2   1 <1>  -0.5700 
  2 C       -0.7630     0.4690     1.3770 C.2   1 <1>   0.5690 
  3 N       -1.8710     0.2190     0.5970 N.am  1 <1>  -0.6600 
  4 C       -0.3400     1.8840     1.7540 C.3   1 <1>   0.0440 
  5 C       -2.1650    -1.1580     0.1130 C.3   1 <1>   0.1400 
  6 C       -2.8570     1.2470     0.1540 C.3   1 <1>   0.1400 
  7 C       -0.0300     2.7610     0.5340 C.ar  1 <1>  -0.1440 
  8 C       -3.5690    -1.5950     0.5820 C.3   1 <1>   0.4230 
  9 C       -4.2530     0.8270     0.6310 C.3   1 <1>  -0.1600 
 10 C       -0.5490     4.0790     0.3860 C.ar  1 <1>   0.0000 
 11 C        0.7720     2.2220    -0.4400 C.ar  1 <1>  -0.1500 
 12 N       -3.8960    -3.0510     0.2700 N.4   1 <1>  -0.9590 
 13 C       -4.6780    -0.5900     0.1480 C.3   1 <1>   0.0000 
 14 C       -0.2690     4.7760    -0.8140 C.ar  1 <1>   0.0000 
 15 C       -1.3290     4.7590     1.3550 C.ar  1 <1>  -0.1500 
 16 C        1.0670     2.9290    -1.6070 C.ar  1 <1>  -0.1500 
 17 C       -5.3580    -3.3780     0.3280 C.3   1 <1>   0.3430 
 18 C       -3.3040    -3.5880    -1.0010 C.3   1 <1>   0.2630 
 19 C       -6.0170    -0.9730     0.8460 C.3   1 <1>  -0.1600 
 20 C       -4.8440    -0.6060    -1.3990 C.3   1 <1>   0.1200 
 21 C        0.5500     4.1770    -1.7900 C.ar  1 <1>  -0.1500 
 22 C       -0.8090     6.0630    -1.0160 C.ar  1 <1>  -0.1500 
 23 C       -1.8340     6.0100     1.1370 C.ar  1 <1>  -0.1500 
 24 C       -6.0890    -2.4460     1.2930 C.3   1 <1>  -0.1600 
 25 O       -5.6810     0.4070    -1.8340 O.3   1 <1>  -0.6800 
 26 C       -1.5780     6.6700    -0.0670 C.ar  1 <1>  -0.1500 
 27 H       -1.1200     2.2810     2.3670 H     1 <1>   0.0800 
 28 H        0.5440     1.8300     2.3640 H     1 <1>   0.0800 
 29 H       -2.0940    -1.1570    -0.9600 H     1 <1>   0.0800 
 30 H       -1.4360    -1.8500     0.4950 H     1 <1>   0.0800 
 31 H       -2.6270     2.2140     0.5650 H     1 <1>   0.0800 
 32 H       -2.8300     1.3380    -0.9190 H     1 <1>   0.0800 
 33 H       -3.5330    -1.5220     1.6570 H     1 <1>   0.0800 
 34 H       -4.2470     0.8630     1.7070 H     1 <1>   0.0800 
 35 H       -4.9630     1.5670     0.3040 H     1 <1>   0.0800 
 36 H        1.1930     1.2360    -0.3340 H     1 <1>   0.1500 
 37 H       -3.4590    -3.5800     1.0400 H     1 <1>   0.4500 
 38 H       -1.5350     4.3010     2.3010 H     1 <1>   0.1500 
 39 H        1.7000     2.4760    -2.3500 H     1 <1>   0.1500 
 40 H       -5.7960    -3.2670    -0.6500 H     1 <1>   0.0800 
 41 H       -5.4930    -4.4030     0.6370 H     1 <1>   0.0800 
 42 H       -3.6830    -3.0480    -1.8530 H     1 <1>   0.0800 
 43 H       -3.5540    -4.6300    -1.1180 H     1 <1>   0.0800 
 44 H       -2.2300    -3.5000    -0.9860 H     1 <1>   0.0800 
 45 H       -6.1760    -0.3650     1.7210 H     1 <1>   0.0800 
 46 H       -6.8460    -0.7680     0.1910 H     1 <1>   0.0800 
 47 H       -5.2610    -1.5350    -1.7430 H     1 <1>   0.0800 
 48 H       -3.9030    -0.4520    -1.8950 H     1 <1>   0.0800 
 49 H        0.7660     4.7260    -2.6880 H     1 <1>   0.1500 
 50 H       -0.5990     6.5660    -1.9430 H     1 <1>   0.1500 
 51 H       -2.4280     6.5070     1.8850 H     1 <1>   0.1500 
 52 H       -7.1220    -2.7440     1.3590 H     1 <1>   0.0800 
 53 H       -5.6670    -2.5570     2.2780 H     1 <1>   0.0800 
 54 H       -6.5910     0.3130    -1.4910 H     1 <1>   0.4000 
 55 H       -1.9870     7.6520    -0.2260 H     1 <1>   0.1500 
@<TRIPOS>BOND
  1   1   2  2   
  2   2   3  am  
  3   2   4  1   
  4   3   5  1   
  5   3   6  1   
  6   4   7  1   
  7   4  27  1   
  8   4  28  1   
  9   5   8  1   
 10   5  29  1   
 11   5  30  1   
 12   6   9  1   
 13   6  31  1   
 14   6  32  1   
 15   7  10  ar  
 16   7  11  ar  
 17   8  12  1   
 18   8  13  1   
 19   8  33  1   
 20   9  13  1   
 21   9  34  1   
 22   9  35  1   
 23  10  14  ar  
 24  10  15  ar  
 25  11  16  ar  
 26  11  36  1   
 27  12  17  1   
 28  12  18  1   
 29  12  37  1   
 30  13  19  1   
 31  13  20  1   
 32  14  21  ar  
 33  14  22  ar  
 34  15  23  ar  
 35  15  38  1   
 36  16  21  ar  
 37  16  39  1   
 38  17  24  1   
 39  17  40  1   
 40  17  41  1   
 41  18  42  1   
 42  18  43  1   
 43  18  44  1   
 44  19  24  1   
 45  19  45  1   
 46  19  46  1   
 47  20  25  1   
 48  20  47  1   
 49  20  48  1   
 50  21  49  1   
 51  22  26  ar  
 52  22  50  1   
 53  23  26  ar  
 54  23  51  1   
 55  24  52  1   
 56  24  53  1   
 57  25  54  1   
 58  26  55  1   
@<TRIPOS>SUBSTRUCTURE
  1 ****   6 GROUP 4 **** **** 0

# MOE 2024.06 (io_trps.svl 2023.06)
