@<TRIPOS>MOLECULE
NONAME
27 26 1 0 0 
SMALL
USER_CHARGES


@<TRIPOS>ATOM
  1 O        8.1440     1.6490    -0.0930 O.2   1 <1>  -0.5700 
  2 C        7.6320     0.5920     0.1650 C.2   1 <1>   0.6590 
  3 O        8.2980    -0.5500     0.3020 O.3   1 <1>  -0.4300 
  4 C        6.1190     0.4910     0.3640 C.3   1 <1>   0.2610 
  5 C        9.6900    -0.7550     0.1730 C.3   1 <1>   0.2800 
  6 O        5.5480    -0.5980    -0.3310 O.3   1 <1>  -0.6800 
  7 C        5.4360     1.7850    -0.1260 C.3   1 <1>   0.3430 
  8 C        9.9060    -2.2470     0.4270 C.3   1 <1>  -0.2400 
  9 C       10.1400    -0.4070    -1.2490 C.3   1 <1>  -0.2400 
 10 C       10.4380     0.0590     1.2350 C.3   1 <1>  -0.2400 
 11 N        4.0020     1.5370    -0.4740 N.4   1 <1>  -0.8530 
 12 H        5.9260     0.3450     1.4110 H     1 <1>   0.0800 
 13 H        6.1070    -1.4010    -0.2050 H     1 <1>   0.4000 
 14 H        5.9610     2.1200    -1.0070 H     1 <1>   0.0800 
 15 H        5.5300     2.5590     0.6180 H     1 <1>   0.0800 
 16 H        9.3710    -2.8340    -0.2980 H     1 <1>   0.0800 
 17 H        9.5720    -2.5140     1.4140 H     1 <1>   0.0800 
 18 H       10.9510    -2.4890     0.3500 H     1 <1>   0.0800 
 19 H        9.5570    -0.9460    -1.9740 H     1 <1>   0.0800 
 20 H       11.1720    -0.6780    -1.3800 H     1 <1>   0.0800 
 21 H       10.0590     0.6480    -1.4380 H     1 <1>   0.0800 
 22 H       10.0610    -0.1620     2.2170 H     1 <1>   0.0800 
 23 H       10.3550     1.1140     1.0480 H     1 <1>   0.0800 
 24 H       11.4840    -0.1900     1.2130 H     1 <1>   0.0800 
 25 H        3.9750     0.5930    -0.8990 H     1 <1>   0.4500 
 26 H        3.6360     2.2170    -1.1480 H     1 <1>   0.4500 
 27 H        3.3980     1.5090     0.3530 H     1 <1>   0.4500 
@<TRIPOS>BOND
  1   1   2  2   
  2   2   3  1   
  3   2   4  1   
  4   3   5  1   
  5   4   6  1   
  6   4   7  1   
  7   4  12  1   
  8   5   8  1   
  9   5   9  1   
 10   5  10  1   
 11   6  13  1   
 12   7  11  1   
 13   7  14  1   
 14   7  15  1   
 15   8  16  1   
 16   8  17  1   
 17   8  18  1   
 18   9  19  1   
 19   9  20  1   
 20   9  21  1   
 21  10  22  1   
 22  10  23  1   
 23  10  24  1   
 24  11  25  1   
 25  11  26  1   
 26  11  27  1   
@<TRIPOS>SUBSTRUCTURE
  1 ****   2 GROUP 4 **** **** 0

# MOE 2024.06 (io_trps.svl 2023.06)
