@<TRIPOS>MOLECULE
NONAME
43 45 1 0 0 
SMALL
USER_CHARGES


@<TRIPOS>ATOM
  1 N       -0.0880     0.6540     0.5100 N.2   1 <1>  -0.6210 
  2 C       -0.9420    -0.2350     0.1150 C.2   1 <1>   0.9190 
  3 C       -0.4320     1.9400     0.4460 C.2   1 <1>   0.2710 
  4 N       -2.1690     0.0750    -0.3580 N.pl3 1 <1>  -0.6690 
  5 N       -0.5850    -1.5150     0.1830 N.pl3 1 <1>  -0.8500 
  6 N        0.5380     2.7730     0.8860 N.pl3 1 <1>  -0.8690 
  7 C       -1.6600     2.3430    -0.0190 C.2   1 <1>  -0.1410 
  8 C       -2.5270     1.3560    -0.4230 C.cat 1 <1>   0.7910 
  9 C       -3.2430    -0.6380    -0.8280 C.2   1 <1>   0.5030 
 10 C        0.6220     4.2480     0.8660 C.3   1 <1>   0.2090 
 11 N       -3.7760     1.3740    -0.9170 N.pl3 1 <1>  -0.3930 
 12 N       -4.2210     0.1140    -1.1700 N.2   1 <1>  -0.2600 
 13 C        1.9930     4.6370     0.3210 C.3   1 <1>  -0.1600 
 14 C        2.1770     6.1620     0.3140 C.3   1 <1>   0.0960 
 15 N        3.4990     6.5860    -0.2140 N.pl3 1 <1>   0.0480 
 16 C        3.9530     7.8610    -0.3620 C.2   1 <1>   0.0060 
 17 C        4.5110     5.8120    -0.6580 C.2   1 <1>  -0.3020 
 18 N        5.1500     7.9260    -0.8580 N.2   1 <1>  -0.5650 
 19 C        3.1260     9.0950     0.0090 C.3   1 <1>   0.1000 
 20 C        5.5010     6.6430    -1.0420 C.2   1 <1>   0.0770 
 21 C        2.3160     9.5640    -1.2040 C.3   1 <1>  -0.2400 
 22 C        4.0090    10.2390     0.5240 C.3   1 <1>  -0.2400 
 23 H        0.3470    -1.7230     0.5450 H     1 <1>   0.4000 
 24 H       -1.1460    -2.3180    -0.0820 H     1 <1>   0.4000 
 25 H        1.3770     2.3070     1.2540 H     1 <1>   0.4000 
 26 H       -1.9400     3.3750    -0.0630 H     1 <1>   0.1500 
 27 H       -3.2430    -1.7150    -0.8930 H     1 <1>   0.1500 
 28 H        0.5000     4.6210     1.8700 H     1 <1>   0.0800 
 29 H       -0.1520     4.6630     0.2440 H     1 <1>   0.0800 
 30 H       -4.3450     2.2110    -1.0880 H     1 <1>   0.4500 
 31 H        2.0870     4.2620    -0.6830 H     1 <1>   0.0800 
 32 H        2.7530     4.1960     0.9420 H     1 <1>   0.0800 
 33 H        2.0840     6.5390     1.3170 H     1 <1>   0.0800 
 34 H        1.4160     6.6160    -0.2940 H     1 <1>   0.0800 
 35 H        4.4910     4.7390    -0.6830 H     1 <1>   0.1500 
 36 H        2.4450     8.8380     0.8000 H     1 <1>   0.0800 
 37 H        6.4630     6.3820    -1.4500 H     1 <1>   0.1500 
 38 H        2.9830     9.8350    -2.0050 H     1 <1>   0.0800 
 39 H        1.7140    10.4180    -0.9500 H     1 <1>   0.0800 
 40 H        1.6720     8.7780    -1.5530 H     1 <1>   0.0800 
 41 H        4.6850    10.5650    -0.2470 H     1 <1>   0.0800 
 42 H        4.5910     9.9000     1.3620 H     1 <1>   0.0800 
 43 H        3.4060    11.0730     0.8330 H     1 <1>   0.0800 
@<TRIPOS>BOND
  1   1   2  2   
  2   1   3  1   
  3   2   4  1   
  4   2   5  1   
  5   3   6  1   
  6   3   7  2   
  7   4   8  ar  
  8   4   9  1   
  9   5  23  1   
 10   5  24  1   
 11   6  10  1   
 12   6  25  1   
 13   7   8  1   
 14   7  26  1   
 15   8  11  ar  
 16   9  12  2   
 17   9  27  1   
 18  10  13  1   
 19  10  28  1   
 20  10  29  1   
 21  11  12  1   
 22  11  30  1   
 23  13  14  1   
 24  13  31  1   
 25  13  32  1   
 26  14  15  1   
 27  14  33  1   
 28  14  34  1   
 29  15  16  1   
 30  15  17  1   
 31  16  18  2   
 32  16  19  1   
 33  17  20  2   
 34  17  35  1   
 35  18  20  1   
 36  19  21  1   
 37  19  22  1   
 38  19  36  1   
 39  20  37  1   
 40  21  38  1   
 41  21  39  1   
 42  21  40  1   
 43  22  41  1   
 44  22  42  1   
 45  22  43  1   
@<TRIPOS>SUBSTRUCTURE
  1 ****  10 GROUP 4 **** **** 0

# MOE 2024.06 (io_trps.svl 2023.06)
