@<TRIPOS>MOLECULE
NONAME
38 40 1 0 0 
SMALL
USER_CHARGES


@<TRIPOS>ATOM
  1 CL       2.0090     4.0170     2.2450 Cl    1 <1>  -0.1770 
  2 C        0.8850     3.2180     1.1680 C.ar  1 <1>   0.1770 
  3 C        1.3320     2.3120     0.2130 C.ar  1 <1>  -0.1440 
  4 C       -0.4570     3.5220     1.3050 C.ar  1 <1>  -0.1500 
  5 C        0.3870     1.7100    -0.6120 C.ar  1 <1>  -0.1500 
  6 C        2.8170     1.9930     0.0600 C.3   1 <1>   0.3640 
  7 C       -1.3840     2.9130     0.4780 C.ar  1 <1>  -0.1500 
  8 C       -0.9590     2.0080    -0.4790 C.ar  1 <1>  -0.1500 
  9 N        2.9850     0.5220    -0.0300 N.am  1 <1>  -0.7300 
 10 C        3.4390     2.7030    -1.1680 C.3   1 <1>   0.2610 
 11 C        3.8410    -0.0810    -0.8840 C.2   1 <1>   0.5690 
 12 O        4.7090     2.1400    -1.4730 O.3   1 <1>  -0.5600 
 13 C        3.5610     4.2010    -0.8920 C.2   1 <1>   0.5690 
 14 O        3.9490    -1.2800    -0.9020 O.2   1 <1>  -0.5700 
 15 C        4.6590     0.7800    -1.8540 C.3   1 <1>   0.1810 
 16 O        2.6150     4.9170    -1.1190 O.2   1 <1>  -0.5700 
 17 N        4.7290     4.6810    -0.3930 N.am  1 <1>  -0.6550 
 18 C        4.9870     6.0800    -0.0050 C.3   1 <1>   0.2250 
 19 C        6.3880     6.5800    -0.4380 C.3   1 <1>   0.0000 
 20 C        5.4640     6.2170     1.4630 C.3   1 <1>   0.0000 
 21 C        6.4850     7.2640     0.9490 C.3   1 <1>   0.0000 
 22 H       -0.7690     4.2300     2.0510 H     1 <1>   0.1500 
 23 H        0.6910     1.0030    -1.3660 H     1 <1>   0.1500 
 24 H        3.3520     2.3180     0.9340 H     1 <1>   0.0800 
 25 H       -2.4310     3.1450     0.5760 H     1 <1>   0.1500 
 26 H       -1.6800     1.5350    -1.1240 H     1 <1>   0.1500 
 27 H        2.4490    -0.0550     0.6200 H     1 <1>   0.3700 
 28 H        2.8030     2.5750    -2.0250 H     1 <1>   0.0800 
 29 H        4.2290     0.7180    -2.8370 H     1 <1>   0.0800 
 30 H        5.6670     0.4120    -1.8940 H     1 <1>   0.0800 
 31 H        5.5260     4.0430    -0.3360 H     1 <1>   0.3700 
 32 H        4.1930     6.7600    -0.2590 H     1 <1>   0.0000 
 33 H        7.1100     5.7890    -0.5550 H     1 <1>   0.0000 
 34 H        6.3690     7.2800    -1.2550 H     1 <1>   0.0000 
 35 H        4.7250     6.6330     2.1250 H     1 <1>   0.0000 
 36 H        5.9440     5.3310     1.8440 H     1 <1>   0.0000 
 37 H        6.0860     8.2640     0.9470 H     1 <1>   0.0000 
 38 H        7.4550     7.1870     1.4070 H     1 <1>   0.0000 
@<TRIPOS>BOND
  1   1   2  1   
  2   2   3  ar  
  3   2   4  ar  
  4   3   5  ar  
  5   3   6  1   
  6   4   7  ar  
  7   4  22  1   
  8   5   8  ar  
  9   5  23  1   
 10   6   9  1   
 11   6  10  1   
 12   6  24  1   
 13   7   8  ar  
 14   7  25  1   
 15   8  26  1   
 16   9  11  am  
 17   9  27  1   
 18  10  12  1   
 19  10  13  1   
 20  10  28  1   
 21  11  14  2   
 22  11  15  1   
 23  12  15  1   
 24  13  16  2   
 25  13  17  am  
 26  15  29  1   
 27  15  30  1   
 28  17  18  1   
 29  17  31  1   
 30  18  19  1   
 31  18  20  1   
 32  18  32  1   
 33  19  21  1   
 34  19  33  1   
 35  19  34  1   
 36  20  21  1   
 37  20  35  1   
 38  20  36  1   
 39  21  37  1   
 40  21  38  1   
@<TRIPOS>SUBSTRUCTURE
  1 ****   6 GROUP 4 **** **** 0

# MOE 2024.06 (io_trps.svl 2023.06)
