@<TRIPOS>MOLECULE
NONAME
35 37 1 0 0 
SMALL
USER_CHARGES


@<TRIPOS>ATOM
  1 CL       0.3550    -0.0510     0.1480 Cl    1 <1>  -0.1770 
  2 C        0.1020    -1.7160    -0.3050 C.ar  1 <1>   0.1770 
  3 C        0.6410    -2.7230     0.4680 C.ar  1 <1>  -0.1500 
  4 C       -0.6330    -2.0040    -1.4410 C.ar  1 <1>  -0.1500 
  5 C        0.4420    -4.0450     0.1040 C.ar  1 <1>   0.0830 
  6 C       -0.8280    -3.3250    -1.8010 C.ar  1 <1>  -0.1500 
  7 O        1.0220    -4.9890     0.8710 O.3   1 <1>  -0.3630 
  8 C       -0.3020    -4.3730    -1.0410 C.ar  1 <1>   0.0860 
  9 C        0.2280    -5.6320     1.8540 C.3   1 <1>   0.0400 
 10 C       -0.5450    -5.7390    -1.4450 C.2   1 <1>   0.5440 
 11 O        0.1950    -6.2710    -2.2530 O.2   1 <1>  -0.5700 
 12 N       -1.6330    -6.4340    -0.9820 N.am  1 <1>  -0.6600 
 13 C       -2.6960    -5.8000    -0.1440 C.3   1 <1>   0.2350 
 14 C       -1.4640    -7.8720    -0.6260 C.3   1 <1>   0.2350 
 15 C       -3.1790    -6.8650     0.8200 C.3   1 <1>  -0.2420 
 16 C       -2.4110    -8.1350     0.5320 C.3   1 <1>  -0.2420 
 17 C       -3.6190    -6.2350     2.1450 C.2   1 <1>   0.9470 
 18 C       -3.8980    -8.0870     0.3140 C.3   1 <1>  -0.2000 
 19 C       -1.8150    -9.1420     1.5140 C.2   1 <1>   0.9470 
 20 O       -2.8560    -5.4370     2.7090 O.co2 1 <1>  -0.9000 
 21 O       -4.7830    -6.3910     2.5340 O.co2 1 <1>  -0.9000 
 22 O       -2.3220   -10.2690     1.6010 O.co2 1 <1>  -0.9000 
 23 O       -0.7550    -8.8640     2.0910 O.co2 1 <1>  -0.9000 
 24 H        1.2130    -2.4910     1.3470 H     1 <1>   0.1500 
 25 H       -1.0420    -1.2020    -2.0280 H     1 <1>   0.1500 
 26 H       -1.3960    -3.5670    -2.6820 H     1 <1>   0.1500 
 27 H        0.8740    -6.1660     2.5260 H     1 <1>   0.0800 
 28 H       -0.4320    -6.3340     1.3860 H     1 <1>   0.0800 
 29 H       -0.3460    -4.9000     2.3960 H     1 <1>   0.0800 
 30 H       -2.3000    -4.9610     0.4000 H     1 <1>   0.0800 
 31 H       -3.5100    -5.4680    -0.7620 H     1 <1>   0.0800 
 32 H       -1.7050    -8.4990    -1.4640 H     1 <1>   0.0800 
 33 H       -0.4440    -8.0530    -0.3280 H     1 <1>   0.0800 
 34 H       -4.2880    -8.0970    -0.6860 H     1 <1>   0.1000 
 35 H       -4.5200    -8.6300     1.0070 H     1 <1>   0.1000 
@<TRIPOS>BOND
  1   1   2  1   
  2   2   3  ar  
  3   2   4  ar  
  4   3   5  ar  
  5   3  24  1   
  6   4   6  ar  
  7   4  25  1   
  8   5   7  1   
  9   5   8  ar  
 10   6   8  ar  
 11   6  26  1   
 12   7   9  1   
 13   8  10  1   
 14   9  27  1   
 15   9  28  1   
 16   9  29  1   
 17  10  11  2   
 18  10  12  am  
 19  12  13  1   
 20  12  14  1   
 21  13  15  1   
 22  13  30  1   
 23  13  31  1   
 24  14  16  1   
 25  14  32  1   
 26  14  33  1   
 27  15  16  1   
 28  15  17  1   
 29  15  18  1   
 30  16  18  1   
 31  16  19  1   
 32  17  20  ar  
 33  17  21  ar  
 34  18  34  1   
 35  18  35  1   
 36  19  22  ar  
 37  19  23  ar  
@<TRIPOS>SUBSTRUCTURE
  1 ****  13 GROUP 4 **** **** 0

# MOE 2024.06 (io_trps.svl 2023.06)
