@<TRIPOS>MOLECULE
NONAME
44 48 1 0 0 
SMALL
USER_CHARGES


@<TRIPOS>ATOM
  1 S       -0.5240     0.0340    -2.0970 S.3   1 <1>  -0.0800 
  2 C       -1.2230     0.9940    -0.8020 C.2   1 <1>  -0.1400 
  3 C       -1.9770    -0.9540    -2.1920 C.2   1 <1>  -0.1100 
  4 C       -2.4600     0.5700    -0.5140 C.2   1 <1>  -0.1810 
  5 C       -0.4800     2.1460    -0.1320 C.3   1 <1>   0.4600 
  6 C       -2.8960    -0.5450    -1.2970 C.2   1 <1>  -0.1500 
  7 C       -3.2560     1.2690     0.5650 C.3   1 <1>   0.0210 
  8 O       -1.2500     2.5950     0.9680 O.3   1 <1>  -0.5600 
  9 C        0.8570     1.6750     0.4400 C.3   1 <1>  -0.1600 
 10 C       -0.2560     3.3120    -1.1000 C.3   1 <1>  -0.1600 
 11 C       -2.6480     2.6630     0.8150 C.3   1 <1>   0.1200 
 12 C        1.6210     2.8250     1.0920 C.3   1 <1>   0.2090 
 13 C        0.5160     4.4490    -0.4330 C.3   1 <1>   0.2090 
 14 N        1.8050     3.9310     0.1080 N.pl3 1 <1>  -0.8210 
 15 C        2.7970     4.8700     0.4070 C.2   1 <1>   0.5990 
 16 N        3.7620     4.6830     1.2320 N.2   1 <1>  -0.4100 
 17 N        2.8060     6.0750    -0.1780 N.2   1 <1>  -0.5650 
 18 O        4.4180     5.7900     1.1820 O.3   1 <1>  -0.0190 
 19 C        3.8490     6.6120     0.3440 C.2   1 <1>   0.4250 
 20 C        4.3960     7.9310     0.1040 C.ar  1 <1>   0.0530 
 21 C        5.5310     8.3940     0.7750 C.ar  1 <1>  -0.1500 
 22 C        3.8010     8.7970    -0.8160 C.ar  1 <1>  -0.1500 
 23 C        6.0440     9.6560     0.5400 C.ar  1 <1>  -0.1500 
 24 C        4.3100    10.0600    -1.0560 C.ar  1 <1>  -0.1500 
 25 C        5.4340    10.4930    -0.3770 C.ar  1 <1>  -0.1500 
 26 H       -1.9880    -1.7470    -2.9190 H     1 <1>   0.1500 
 27 H       -3.8690    -0.9840    -1.1530 H     1 <1>   0.1500 
 28 H       -3.2290     0.6900     1.4710 H     1 <1>   0.0800 
 29 H       -4.2810     1.3770     0.2590 H     1 <1>   0.0800 
 30 H        1.4660     1.2670    -0.3460 H     1 <1>   0.0800 
 31 H        0.6830     0.8960     1.1580 H     1 <1>   0.0800 
 32 H       -1.1940     3.6710    -1.4750 H     1 <1>   0.0800 
 33 H        0.3140     2.9670    -1.9430 H     1 <1>   0.0800 
 34 H       -3.0550     3.0890     1.7160 H     1 <1>   0.0800 
 35 H       -2.8700     3.3210    -0.0060 H     1 <1>   0.0800 
 36 H        2.5780     2.4610     1.4260 H     1 <1>   0.0800 
 37 H        1.0810     3.1940     1.9480 H     1 <1>   0.0800 
 38 H       -0.0630     4.8740     0.3690 H     1 <1>   0.0800 
 39 H        0.6980     5.2160    -1.1660 H     1 <1>   0.0800 
 40 H        6.0210     7.7590     1.4920 H     1 <1>   0.1500 
 41 H        2.9260     8.4720    -1.3520 H     1 <1>   0.1500 
 42 H        6.9200     9.9890     1.0700 H     1 <1>   0.1500 
 43 H        3.8320    10.7070    -1.7710 H     1 <1>   0.1500 
 44 H        5.8330    11.4760    -0.5610 H     1 <1>   0.1500 
@<TRIPOS>BOND
  1   1   2  1   
  2   1   3  1   
  3   2   4  2   
  4   2   5  1   
  5   3   6  2   
  6   3  26  1   
  7   4   6  1   
  8   4   7  1   
  9   5   8  1   
 10   5   9  1   
 11   5  10  1   
 12   6  27  1   
 13   7  11  1   
 14   7  28  1   
 15   7  29  1   
 16   8  11  1   
 17   9  12  1   
 18   9  30  1   
 19   9  31  1   
 20  10  13  1   
 21  10  32  1   
 22  10  33  1   
 23  11  34  1   
 24  11  35  1   
 25  12  14  1   
 26  12  36  1   
 27  12  37  1   
 28  13  14  1   
 29  13  38  1   
 30  13  39  1   
 31  14  15  1   
 32  15  16  2   
 33  15  17  1   
 34  16  18  1   
 35  17  19  2   
 36  18  19  1   
 37  19  20  1   
 38  20  21  ar  
 39  20  22  ar  
 40  21  23  ar  
 41  21  40  1   
 42  22  24  ar  
 43  22  41  1   
 44  23  25  ar  
 45  23  42  1   
 46  24  25  ar  
 47  24  43  1   
 48  25  44  1   
@<TRIPOS>SUBSTRUCTURE
  1 ****  14 GROUP 4 **** **** 0

# MOE 2024.06 (io_trps.svl 2023.06)
