@<TRIPOS>MOLECULE
NONAME
40 41 1 0 0 
SMALL
USER_CHARGES


@<TRIPOS>ATOM
  1 O        3.3180     2.3200     1.8200 O.co2 1 <1>  -0.9000 
  2 C        2.6220     1.3420     1.5050 C.2   1 <1>   0.9060 
  3 O        2.2450     0.5460     2.3730 O.co2 1 <1>  -0.9000 
  4 C        2.3340     1.0110     0.0280 C.3   1 <1>  -0.1060 
  5 C        3.2350    -0.1990    -0.2880 C.3   1 <1>   0.2000 
  6 C        2.7070     2.1620    -0.9510 C.3   1 <1>  -0.1600 
  7 C        0.8390     0.6260    -0.1470 C.3   1 <1>  -0.0160 
  8 O        3.0770    -0.5910    -1.6110 O.3   1 <1>  -0.6800 
  9 C        4.7130     0.1900    -0.1430 C.3   1 <1>   0.1100 
 10 C        4.2040     2.4970    -0.9860 C.3   1 <1>   0.1100 
 11 C       -0.1300     1.7990    -0.0160 C.ar  1 <1>  -0.1430 
 12 N        5.0810     1.3040    -1.0640 N.3   1 <1>  -0.8100 
 13 C       -0.4520     2.3050     1.2340 C.ar  1 <1>  -0.1500 
 14 C       -0.7000     2.3690    -1.1440 C.ar  1 <1>  -0.1500 
 15 C        6.5080     1.6970    -0.8540 C.3   1 <1>   0.1710 
 16 C       -1.3290     3.3690     1.3550 C.ar  1 <1>  -0.1500 
 17 C       -1.5780     3.4330    -1.0260 C.ar  1 <1>  -0.1500 
 18 C        6.9800     2.2030     0.5320 C.2   1 <1>   0.5690 
 19 C       -1.8930     3.9340     0.2250 C.ar  1 <1>  -0.1500 
 20 O        8.1680     2.3370     0.6990 O.2   1 <1>  -0.5700 
 21 N        6.1420     2.5050     1.5500 N.am  1 <1>  -0.8000 
 22 H        2.9920    -1.0340     0.3490 H     1 <1>   0.0800 
 23 H        2.1790     3.0540    -0.6630 H     1 <1>   0.0800 
 24 H        2.3880     1.9140    -1.9470 H     1 <1>   0.0800 
 25 H        0.6960     0.1760    -1.1130 H     1 <1>   0.0800 
 26 H        0.5750    -0.1240     0.5790 H     1 <1>   0.0800 
 27 H        3.6120     0.0580    -2.1180 H     1 <1>   0.4000 
 28 H        5.3160    -0.6720    -0.3650 H     1 <1>   0.0800 
 29 H        4.9060     0.4500     0.8810 H     1 <1>   0.0800 
 30 H        4.4360     3.0880    -0.1220 H     1 <1>   0.0800 
 31 H        4.3950     3.1220    -1.8410 H     1 <1>   0.0800 
 32 H       -0.0120     1.8710     2.1180 H     1 <1>   0.1500 
 33 H       -0.4570     1.9850    -2.1180 H     1 <1>   0.1500 
 34 H        7.1200     0.8470    -1.0960 H     1 <1>   0.0800 
 35 H        6.7540     2.4610    -1.5680 H     1 <1>   0.0800 
 36 H       -1.5630     3.7530     2.3310 H     1 <1>   0.1500 
 37 H       -2.0130     3.8690    -1.9060 H     1 <1>   0.1500 
 38 H       -2.5730     4.7620     0.3210 H     1 <1>   0.1500 
 39 H        6.4930     2.8130     2.4520 H     1 <1>   0.3700 
 40 H        5.1030     2.4020     1.5210 H     1 <1>   0.3700 
@<TRIPOS>BOND
  1   1   2  ar  
  2   2   3  ar  
  3   2   4  1   
  4   4   5  1   
  5   4   6  1   
  6   4   7  1   
  7   5   8  1   
  8   5   9  1   
  9   5  22  1   
 10   6  10  1   
 11   6  23  1   
 12   6  24  1   
 13   7  11  1   
 14   7  25  1   
 15   7  26  1   
 16   8  27  1   
 17   9  12  1   
 18   9  28  1   
 19   9  29  1   
 20  10  12  1   
 21  10  30  1   
 22  10  31  1   
 23  11  13  ar  
 24  11  14  ar  
 25  12  15  1   
 26  13  16  ar  
 27  13  32  1   
 28  14  17  ar  
 29  14  33  1   
 30  15  18  1   
 31  15  34  1   
 32  15  35  1   
 33  16  19  ar  
 34  16  36  1   
 35  17  19  ar  
 36  17  37  1   
 37  18  20  2   
 38  18  21  am  
 39  19  38  1   
 40  21  39  1   
 41  21  40  1   
@<TRIPOS>SUBSTRUCTURE
  1 ****   4 GROUP 4 **** **** 0

# MOE 2024.06 (io_trps.svl 2023.06)
