@<TRIPOS>MOLECULE
NONAME
43 46 1 0 0 
SMALL
USER_CHARGES


@<TRIPOS>ATOM
  1 O       -0.5610     0.3970     1.7550 O.2   1 <1>  -0.5700 
  2 C       -1.5540     0.9250     1.2580 C.2   1 <1>   0.5440 
  3 N       -2.7400     0.2090     1.3550 N.am  1 <1>  -0.6600 
  4 C       -1.4360     2.2570     0.7200 C.ar  1 <1>   0.0860 
  5 C       -2.7390    -1.2830     1.3990 C.3   1 <1>   0.1400 
  6 C       -4.0780     0.7880     1.0110 C.3   1 <1>   0.1400 
  7 C       -1.9610     2.7110    -0.5140 C.ar  1 <1>  -0.1710 
  8 C       -0.7350     3.2250     1.4350 C.ar  1 <1>  -0.1500 
  9 C       -3.4470    -1.8690     0.1650 C.3   1 <1>   0.3440 
 10 C       -4.7380     0.0450    -0.1700 C.3   1 <1>   0.2950 
 11 O       -2.5830     1.9560    -1.3010 O.3   1 <1>  -0.8290 
 12 C       -1.7660     4.0600    -0.8750 C.ar  1 <1>   0.1600 
 13 C       -0.6070     4.5130     0.9720 C.ar  1 <1>   0.1600 
 14 O       -4.7420    -1.3390     0.0590 O.3   1 <1>  -0.5600 
 15 C       -3.5220    -3.3930     0.2590 C.ar  1 <1>  -0.1440 
 16 C       -6.1950     0.4820    -0.3620 C.3   1 <1>  -0.1950 
 17 N       -1.1210     4.9590    -0.1760 N.ar  1 <1>  -0.6200 
 18 C       -4.5750    -4.0300     0.9010 C.ar  1 <1>  -0.1500 
 19 C       -2.5090    -4.1620    -0.2960 C.ar  1 <1>  -0.1500 
 20 C       -6.8800     0.3450    -1.6860 C.3   1 <1>  -0.2000 
 21 C       -6.5050     1.7050    -1.1670 C.3   1 <1>  -0.2000 
 22 C       -4.6150    -5.4110     0.9880 C.ar  1 <1>  -0.1500 
 23 C       -2.5470    -5.5430    -0.2110 C.ar  1 <1>  -0.1500 
 24 C       -3.6000    -6.1690     0.4320 C.ar  1 <1>  -0.1500 
 25 H       -1.7320    -1.6580     1.4290 H     1 <1>   0.0800 
 26 H       -3.2420    -1.6120     2.2900 H     1 <1>   0.0800 
 27 H       -4.7160     0.7100     1.8710 H     1 <1>   0.0800 
 28 H       -3.9960     1.8300     0.7660 H     1 <1>   0.0800 
 29 H       -0.2870     2.9450     2.3680 H     1 <1>   0.1500 
 30 H       -2.9020    -1.5930    -0.7230 H     1 <1>   0.0800 
 31 H       -4.1890     0.2330    -1.0760 H     1 <1>   0.0800 
 32 H       -2.1930     4.3510    -1.8170 H     1 <1>   0.1500 
 33 H       -0.0590     5.2300     1.5570 H     1 <1>   0.1500 
 34 H       -6.7860     0.3170     0.5210 H     1 <1>   0.1000 
 35 H       -5.3700    -3.4450     1.3320 H     1 <1>   0.1500 
 36 H       -1.6850    -3.6840    -0.7980 H     1 <1>   0.1500 
 37 H       -6.3220    -0.0680    -2.5090 H     1 <1>   0.1000 
 38 H       -7.9150     0.0530    -1.6980 H     1 <1>   0.1000 
 39 H       -7.2790     2.3680    -0.8230 H     1 <1>   0.1000 
 40 H       -5.6800     2.2310    -1.6230 H     1 <1>   0.1000 
 41 H       -5.4380    -5.8930     1.4870 H     1 <1>   0.1500 
 42 H       -1.7560    -6.1290    -0.6450 H     1 <1>   0.1500 
 43 H       -3.6300    -7.2430     0.4990 H     1 <1>   0.1500 
@<TRIPOS>BOND
  1   1   2  2   
  2   2   3  am  
  3   2   4  1   
  4   3   5  1   
  5   3   6  1   
  6   4   7  ar  
  7   4   8  ar  
  8   5   9  1   
  9   5  25  1   
 10   5  26  1   
 11   6  10  1   
 12   6  27  1   
 13   6  28  1   
 14   7  11  1   
 15   7  12  ar  
 16   8  13  ar  
 17   8  29  1   
 18   9  14  1   
 19   9  15  1   
 20   9  30  1   
 21  10  14  1   
 22  10  16  1   
 23  10  31  1   
 24  12  17  ar  
 25  12  32  1   
 26  13  17  ar  
 27  13  33  1   
 28  15  18  ar  
 29  15  19  ar  
 30  16  20  1   
 31  16  21  1   
 32  16  34  1   
 33  18  22  ar  
 34  18  35  1   
 35  19  23  ar  
 36  19  36  1   
 37  20  21  1   
 38  20  37  1   
 39  20  38  1   
 40  21  39  1   
 41  21  40  1   
 42  22  24  ar  
 43  22  41  1   
 44  23  24  ar  
 45  23  42  1   
 46  24  43  1   
@<TRIPOS>SUBSTRUCTURE
  1 ****   3 GROUP 4 **** **** 0

# MOE 2024.06 (io_trps.svl 2023.06)
