@<TRIPOS>MOLECULE
NONAME
47 49 1 0 0 
SMALL
USER_CHARGES


@<TRIPOS>ATOM
  1 O       -0.2590     0.6760     0.7410 O.2   1 <1>  -0.5700 
  2 C       -0.1820     1.8780     0.7550 C.2   1 <1>   0.5690 
  3 N       -1.2620     2.6340     1.0480 N.am  1 <1>  -0.7300 
  4 C        1.1390     2.5660     0.3980 C.3   1 <1>   0.1810 
  5 C       -1.2420     4.1170     1.0840 C.3   1 <1>   0.3640 
  6 O        1.1880     3.9190     0.7970 O.3   1 <1>  -0.5600 
  7 C       -2.4790     4.6420     0.3580 C.ar  1 <1>  -0.1440 
  8 C        0.0500     4.6900     0.4420 C.3   1 <1>   0.2610 
  9 C       -2.8970     4.0970    -0.8510 C.ar  1 <1>  -0.1500 
 10 C       -3.1990     5.6960     0.9030 C.ar  1 <1>  -0.1500 
 11 C        0.2500     6.1780     0.7930 C.2   1 <1>   0.5690 
 12 C       -4.0140     4.5950    -1.4980 C.ar  1 <1>  -0.1500 
 13 C       -4.3160     6.1950     0.2560 C.ar  1 <1>  -0.1500 
 14 O       -0.2670     6.5830     1.8140 O.2   1 <1>  -0.5700 
 15 N        0.9840     7.0010    -0.0460 N.am  1 <1>  -0.5090 
 16 C       -4.7250     5.6450    -0.9450 C.ar  1 <1>  -0.1500 
 17 C        0.8610     8.4930    -0.1190 C.3   1 <1>   0.0490 
 18 C        2.0240     6.4520    -0.9730 C.3   1 <1>   0.1400 
 19 C        0.8760     9.3150     1.1310 C.3   1 <1>  -0.2000 
 20 C       -0.3800     9.2060     0.3240 C.3   1 <1>  -0.2000 
 21 C        3.3700     6.2120    -0.2610 C.3   1 <1>  -0.0800 
 22 C        4.0170     7.5090     0.2470 C.3   1 <1>  -0.2400 
 23 C        4.3410     5.4990    -1.2120 C.3   1 <1>  -0.2400 
 24 H       -2.1420     2.1760     1.2860 H     1 <1>   0.3700 
 25 H        1.2880     2.5210    -0.6650 H     1 <1>   0.0800 
 26 H        1.9480     2.0520     0.8840 H     1 <1>   0.0800 
 27 H       -1.2850     4.4150     2.1180 H     1 <1>   0.0800 
 28 H       -0.0650     4.6210    -0.6230 H     1 <1>   0.0800 
 29 H       -2.3590     3.2780    -1.2970 H     1 <1>   0.1500 
 30 H       -2.8920     6.1410     1.8350 H     1 <1>   0.1500 
 31 H       -4.3320     4.1660    -2.4320 H     1 <1>   0.1500 
 32 H       -4.8650     7.0140     0.6880 H     1 <1>   0.1500 
 33 H       -5.5930     6.0340    -1.4480 H     1 <1>   0.1500 
 34 H        1.3600     8.9050    -0.9800 H     1 <1>   0.1000 
 35 H        1.6840     5.5260    -1.3960 H     1 <1>   0.0800 
 36 H        2.1720     7.1290    -1.7960 H     1 <1>   0.0800 
 37 H        0.9240     8.8200     2.0850 H     1 <1>   0.1000 
 38 H        1.4010    10.2540     1.1290 H     1 <1>   0.1000 
 39 H       -0.7020    10.0730    -0.2240 H     1 <1>   0.1000 
 40 H       -1.2070     8.6480     0.7240 H     1 <1>   0.1000 
 41 H        3.2030     5.5640     0.5830 H     1 <1>   0.0800 
 42 H        4.1420     8.2140    -0.5560 H     1 <1>   0.0800 
 43 H        4.9800     7.3030     0.6790 H     1 <1>   0.0800 
 44 H        3.4050     7.9570     1.0090 H     1 <1>   0.0800 
 45 H        4.5490     6.1090    -2.0730 H     1 <1>   0.0800 
 46 H        3.9230     4.5640    -1.5410 H     1 <1>   0.0800 
 47 H        5.2690     5.2900    -0.7080 H     1 <1>   0.0800 
@<TRIPOS>BOND
  1   1   2  2   
  2   2   3  am  
  3   2   4  1   
  4   3   5  1   
  5   3  24  1   
  6   4   6  1   
  7   4  25  1   
  8   4  26  1   
  9   5   7  1   
 10   5   8  1   
 11   5  27  1   
 12   6   8  1   
 13   7   9  ar  
 14   7  10  ar  
 15   8  11  1   
 16   8  28  1   
 17   9  12  ar  
 18   9  29  1   
 19  10  13  ar  
 20  10  30  1   
 21  11  14  2   
 22  11  15  am  
 23  12  16  ar  
 24  12  31  1   
 25  13  16  ar  
 26  13  32  1   
 27  15  17  1   
 28  15  18  1   
 29  16  33  1   
 30  17  19  1   
 31  17  20  1   
 32  17  34  1   
 33  18  21  1   
 34  18  35  1   
 35  18  36  1   
 36  19  20  1   
 37  19  37  1   
 38  19  38  1   
 39  20  39  1   
 40  20  40  1   
 41  21  22  1   
 42  21  23  1   
 43  21  41  1   
 44  22  42  1   
 45  22  43  1   
 46  22  44  1   
 47  23  45  1   
 48  23  46  1   
 49  23  47  1   
@<TRIPOS>SUBSTRUCTURE
  1 ****   8 GROUP 4 **** **** 0

# MOE 2024.06 (io_trps.svl 2023.06)
