@<TRIPOS>MOLECULE
NONAME
56 58 1 0 0 
SMALL
USER_CHARGES


@<TRIPOS>ATOM
  1 O        0.6730     0.9910    -0.4190 O.2   1 <1>  -0.5700 
  2 C       -0.3060     1.6950    -0.5760 C.2   1 <1>   0.5440 
  3 N       -1.4960     1.1160    -0.9620 N.am  1 <1>  -0.6600 
  4 C       -0.1760     3.1190    -0.3420 C.ar  1 <1>   0.0860 
  5 C       -1.5150    -0.3150    -1.3950 C.3   1 <1>   0.1400 
  6 C       -2.8200     1.7880    -0.7840 C.3   1 <1>   0.1400 
  7 C        0.4410     3.6160     0.7900 C.ar  1 <1>  -0.1500 
  8 C       -0.6290     4.0840    -1.2320 C.ar  1 <1>  -0.1500 
  9 C       -2.7660    -0.6150    -2.2270 C.3   1 <1>  -0.1600 
 10 C       -3.8940     0.7680    -0.3920 C.3   1 <1>  -0.1600 
 11 C        0.5680     4.9820     0.9920 C.ar  1 <1>   0.4100 
 12 C       -0.4530     5.4230    -0.9520 C.ar  1 <1>   0.1600 
 13 C       -4.0640    -0.3360    -1.4510 C.3   1 <1>  -0.1600 
 14 N        0.1400     5.8950     0.1340 N.ar  1 <1>  -0.6200 
 15 N        1.1990     5.4530     2.1170 N.pl3 1 <1>  -0.8690 
 16 C        0.5910     6.5450     2.9390 C.3   1 <1>   0.2090 
 17 C        1.3920     7.8650     2.8630 C.3   1 <1>  -0.0800 
 18 C        1.2850     8.4960     1.4830 C.3   1 <1>   0.3430 
 19 C        2.9070     7.6700     3.0360 C.3   1 <1>  -0.1600 
 20 N        2.3150     7.7720     0.7210 N.4   1 <1>  -0.9590 
 21 C        3.4810     7.5980     1.6190 C.3   1 <1>   0.3430 
 22 C        2.5820     8.3120    -0.6420 C.3   1 <1>   0.3430 
 23 C        3.3330     7.3010    -1.5120 C.3   1 <1>   0.1200 
 24 O        3.5500     7.8930    -2.7500 O.3   1 <1>  -0.5600 
 25 C        4.2070     7.0750    -3.6670 C.3   1 <1>   0.0400 
 26 H       -1.4940    -0.9440    -0.5220 H     1 <1>   0.0800 
 27 H       -0.6330    -0.5240    -1.9780 H     1 <1>   0.0800 
 28 H       -3.0990     2.2640    -1.7080 H     1 <1>   0.0800 
 29 H       -2.7520     2.5400    -0.0160 H     1 <1>   0.0800 
 30 H        0.8290     2.9260     1.5160 H     1 <1>   0.1500 
 31 H       -1.1100     3.7780    -2.1440 H     1 <1>   0.1500 
 32 H       -2.7490    -1.6430    -2.5450 H     1 <1>   0.0800 
 33 H       -2.7340    -0.0040    -3.1120 H     1 <1>   0.0800 
 34 H       -4.8330     1.2690    -0.2400 H     1 <1>   0.0800 
 35 H       -3.6090     0.3250     0.5470 H     1 <1>   0.0800 
 36 H       -0.8190     6.1460    -1.6640 H     1 <1>   0.1500 
 37 H       -4.3920    -1.2360    -0.9580 H     1 <1>   0.0800 
 38 H       -4.8310    -0.0530    -2.1520 H     1 <1>   0.0800 
 39 H        1.5450     4.6940     2.7170 H     1 <1>   0.4000 
 40 H        0.5560     6.2170     3.9650 H     1 <1>   0.0800 
 41 H       -0.4260     6.7160     2.6230 H     1 <1>   0.0800 
 42 H        1.0020     8.5430     3.6020 H     1 <1>   0.0800 
 43 H        1.5250     9.5460     1.5290 H     1 <1>   0.0800 
 44 H        0.3050     8.3560     1.0540 H     1 <1>   0.0800 
 45 H        3.1470     6.7850     3.5990 H     1 <1>   0.0800 
 46 H        3.3390     8.5170     3.5400 H     1 <1>   0.0800 
 47 H        1.8700     6.8280     0.6280 H     1 <1>   0.4500 
 48 H        3.9540     6.6450     1.4420 H     1 <1>   0.0800 
 49 H        4.1960     8.3900     1.4690 H     1 <1>   0.0800 
 50 H        3.1590     9.2190    -0.5700 H     1 <1>   0.0800 
 51 H        1.6450     8.5370    -1.1250 H     1 <1>   0.0800 
 52 H        2.7410     6.4130    -1.6540 H     1 <1>   0.0800 
 53 H        4.2880     7.0560    -1.0820 H     1 <1>   0.0800 
 54 H        4.3240     7.6260    -4.5840 H     1 <1>   0.0800 
 55 H        3.6160     6.1930    -3.8500 H     1 <1>   0.0800 
 56 H        5.1760     6.8080    -3.2810 H     1 <1>   0.0800 
@<TRIPOS>BOND
  1   1   2  2   
  2   2   3  am  
  3   2   4  1   
  4   3   5  1   
  5   3   6  1   
  6   4   7  ar  
  7   4   8  ar  
  8   5   9  1   
  9   5  26  1   
 10   5  27  1   
 11   6  10  1   
 12   6  28  1   
 13   6  29  1   
 14   7  11  ar  
 15   7  30  1   
 16   8  12  ar  
 17   8  31  1   
 18   9  13  1   
 19   9  32  1   
 20   9  33  1   
 21  10  13  1   
 22  10  34  1   
 23  10  35  1   
 24  11  14  ar  
 25  11  15  1   
 26  12  14  ar  
 27  12  36  1   
 28  13  37  1   
 29  13  38  1   
 30  15  16  1   
 31  15  39  1   
 32  16  17  1   
 33  16  40  1   
 34  16  41  1   
 35  17  18  1   
 36  17  19  1   
 37  17  42  1   
 38  18  20  1   
 39  18  43  1   
 40  18  44  1   
 41  19  21  1   
 42  19  45  1   
 43  19  46  1   
 44  20  21  1   
 45  20  22  1   
 46  20  47  1   
 47  21  48  1   
 48  21  49  1   
 49  22  23  1   
 50  22  50  1   
 51  22  51  1   
 52  23  24  1   
 53  23  52  1   
 54  23  53  1   
 55  24  25  1   
 56  25  54  1   
 57  25  55  1   
 58  25  56  1   
@<TRIPOS>SUBSTRUCTURE
  1 ****  11 GROUP 4 **** **** 0

# MOE 2024.06 (io_trps.svl 2023.06)
