@<TRIPOS>MOLECULE
NONAME
41 42 1 0 0 
SMALL
USER_CHARGES


@<TRIPOS>ATOM
  1 S        1.9450    -0.0930     2.0090 S.o2  1 <1>   1.3330 
  2 O        2.7100     1.0870     2.3460 O.2   1 <1>  -0.6500 
  3 O        1.7750    -1.1490     2.9750 O.2   1 <1>  -0.6500 
  4 N        2.6450    -0.7590     0.5720 N.am  1 <1>  -0.6930 
  5 C        0.3510     0.4290     1.4170 C.3   1 <1>  -0.1350 
  6 C        2.1130    -1.8740    -0.0730 C.ar  1 <1>   0.1990 
  7 C        3.7940    -0.0320    -0.0530 C.3   1 <1>   0.2570 
  8 C        1.9760    -3.0890     0.5890 C.ar  1 <1>  -0.1500 
  9 C        1.7030    -1.7960    -1.4000 C.ar  1 <1>  -0.1500 
 10 C        3.4060     1.2680    -0.7700 C.2   1 <1>   0.5690 
 11 C        1.4350    -4.1960    -0.0430 C.ar  1 <1>  -0.1440 
 12 C        1.1660    -2.8960    -2.0420 C.ar  1 <1>  -0.1500 
 13 O        3.2900     1.2690    -1.9720 O.2   1 <1>  -0.5700 
 14 N        3.2070     2.3980    -0.0460 N.am  1 <1>  -0.7300 
 15 C        1.0310    -4.0950    -1.3640 C.ar  1 <1>  -0.1500 
 16 C        1.2890    -5.5120     0.6990 C.3   1 <1>  -0.0970 
 17 C        2.9420     3.7350    -0.6020 C.3   1 <1>   0.3200 
 18 C        3.9800     4.6960    -0.0690 C.2   1 <1>  -0.1400 
 19 S        5.5910     4.5580    -0.6750 S.3   1 <1>   0.1810 
 20 C        3.9920     5.7040     0.8090 C.2   1 <1>   0.0460 
 21 N        6.1470     5.8460     0.2790 N.2   1 <1>  -0.2210 
 22 N        5.2140     6.3220     0.9770 N.2   1 <1>  -0.2270 
 23 C        2.8350     6.2340     1.6310 C.3   1 <1>  -0.0590 
 24 H       -0.2010     0.8960     2.2090 H     1 <1>   0.0800 
 25 H       -0.2060    -0.4180     1.0640 H     1 <1>   0.0800 
 26 H        0.4630     1.1280     0.6120 H     1 <1>   0.0800 
 27 H        4.2690    -0.6790    -0.7690 H     1 <1>   0.0800 
 28 H        4.5210     0.1940     0.7060 H     1 <1>   0.0800 
 29 H        2.3020    -3.1670     1.6110 H     1 <1>   0.1500 
 30 H        1.7990    -0.8700    -1.9370 H     1 <1>   0.1500 
 31 H        0.8530    -2.8220    -3.0690 H     1 <1>   0.1500 
 32 H        3.2640     2.3420     0.9830 H     1 <1>   0.3700 
 33 H        0.6120    -4.9490    -1.8680 H     1 <1>   0.1500 
 34 H        1.3410    -5.3580     1.7620 H     1 <1>   0.0800 
 35 H        2.0770    -6.1830     0.4080 H     1 <1>   0.0800 
 36 H        0.3420    -5.9660     0.4680 H     1 <1>   0.0800 
 37 H        1.9570     4.0510    -0.3050 H     1 <1>   0.0800 
 38 H        2.9820     3.7130    -1.6780 H     1 <1>   0.0800 
 39 H        1.9370     5.6780     1.4370 H     1 <1>   0.0800 
 40 H        2.6650     7.2680     1.3900 H     1 <1>   0.0800 
 41 H        3.0720     6.1570     2.6770 H     1 <1>   0.0800 
@<TRIPOS>BOND
  1   1   2  2   
  2   1   3  2   
  3   1   4  am  
  4   1   5  1   
  5   4   6  1   
  6   4   7  1   
  7   5  24  1   
  8   5  25  1   
  9   5  26  1   
 10   6   8  ar  
 11   6   9  ar  
 12   7  10  1   
 13   7  27  1   
 14   7  28  1   
 15   8  11  ar  
 16   8  29  1   
 17   9  12  ar  
 18   9  30  1   
 19  10  13  2   
 20  10  14  am  
 21  11  15  ar  
 22  11  16  1   
 23  12  15  ar  
 24  12  31  1   
 25  14  17  1   
 26  14  32  1   
 27  15  33  1   
 28  16  34  1   
 29  16  35  1   
 30  16  36  1   
 31  17  18  1   
 32  17  37  1   
 33  17  38  1   
 34  18  19  1   
 35  18  20  2   
 36  19  21  1   
 37  20  22  1   
 38  20  23  1   
 39  21  22  2   
 40  23  39  1   
 41  23  40  1   
 42  23  41  1   
@<TRIPOS>SUBSTRUCTURE
  1 ****  10 GROUP 4 **** **** 0

# MOE 2024.06 (io_trps.svl 2023.06)
