@<TRIPOS>MOLECULE
NONAME
45 48 1 0 0 
SMALL
USER_CHARGES


@<TRIPOS>ATOM
  1 O        3.1810     0.7930     1.8280 O.3   1 <1>  -0.6800 
  2 C        2.5480     0.2890     0.6950 C.3   1 <1>   0.2000 
  3 C        2.9190    -1.1870     0.5580 C.3   1 <1>  -0.0800 
  4 C        3.1900     0.9200    -0.5420 C.3   1 <1>   0.3430 
  5 C        4.3080    -1.1670    -0.1010 C.3   1 <1>   0.3430 
  6 C        1.8960    -1.9550    -0.3020 C.3   1 <1>  -0.0160 
  7 N        4.4670     0.1720    -0.7410 N.4   1 <1>  -0.9590 
  8 C        2.3680    -3.3760    -0.5650 C.ar  1 <1>  -0.1430 
  9 C        5.6000     0.9440    -0.1590 C.3   1 <1>   0.5230 
 10 C        2.4240    -4.3220     0.4390 C.ar  1 <1>  -0.1500 
 11 C        2.7640    -3.7960    -1.8200 C.ar  1 <1>  -0.1500 
 12 C        5.9190     2.0920    -1.1010 C.2   1 <1>   0.0070 
 13 C        2.8790    -5.5990     0.1530 C.ar  1 <1>   0.1600 
 14 C        3.2030    -5.0970    -2.0000 C.ar  1 <1>   0.1600 
 15 N        5.6270     2.0870    -2.3690 N.2   1 <1>  -0.5650 
 16 N        6.5390     3.2210    -0.6820 N.pl3 1 <1>   0.2940 
 17 N        3.2780    -6.0030    -1.0410 N.ar  1 <1>  -0.6200 
 18 C        6.0890     3.2760    -2.8010 C.2   1 <1>   0.0770 
 19 C        6.6450     3.9750    -1.7880 C.2   1 <1>  -0.3020 
 20 C        7.0120     3.5710     0.6780 C.3   1 <1>  -0.0910 
 21 C        6.0440     3.6100     1.8260 C.3   1 <1>  -0.2000 
 22 C        6.6060     4.8840     1.2790 C.3   1 <1>  -0.2000 
 23 H        2.6800     0.5680     2.6420 H     1 <1>   0.4000 
 24 H        1.4900     0.4830     0.7660 H     1 <1>   0.0800 
 25 H        2.9740    -1.6640     1.5220 H     1 <1>   0.0800 
 26 H        3.3490     1.9780    -0.4120 H     1 <1>   0.0800 
 27 H        2.5500     0.7650    -1.3940 H     1 <1>   0.0800 
 28 H        4.4030    -1.9570    -0.8280 H     1 <1>   0.0800 
 29 H        5.0620    -1.3060     0.6570 H     1 <1>   0.0800 
 30 H        1.7340    -1.4550    -1.2410 H     1 <1>   0.0800 
 31 H        0.9480    -1.9950     0.2090 H     1 <1>   0.0800 
 32 H        4.6820     0.1390    -1.7530 H     1 <1>   0.4500 
 33 H        5.3360     1.3140     0.8180 H     1 <1>   0.0800 
 34 H        6.4700     0.3160    -0.0700 H     1 <1>   0.0800 
 35 H        2.1170    -4.0890     1.4420 H     1 <1>   0.1500 
 36 H        2.7360    -3.1340    -2.6670 H     1 <1>   0.1500 
 37 H        2.9170    -6.3270     0.9470 H     1 <1>   0.1500 
 38 H        3.5070    -5.4120    -2.9850 H     1 <1>   0.1500 
 39 H        5.9980     3.5750    -3.8350 H     1 <1>   0.1500 
 40 H        7.1030     4.9470    -1.7910 H     1 <1>   0.1500 
 41 H        8.0220     3.2400     0.8490 H     1 <1>   0.1000 
 42 H        4.9920     3.4370     1.6730 H     1 <1>   0.1000 
 43 H        6.3700     3.3120     2.8080 H     1 <1>   0.1000 
 44 H        7.3120     5.4240     1.8860 H     1 <1>   0.1000 
 45 H        5.9540     5.5400     0.7270 H     1 <1>   0.1000 
@<TRIPOS>BOND
  1   1   2  1   
  2   1  23  1   
  3   2   3  1   
  4   2   4  1   
  5   2  24  1   
  6   3   5  1   
  7   3   6  1   
  8   3  25  1   
  9   4   7  1   
 10   4  26  1   
 11   4  27  1   
 12   5   7  1   
 13   5  28  1   
 14   5  29  1   
 15   6   8  1   
 16   6  30  1   
 17   6  31  1   
 18   7   9  1   
 19   7  32  1   
 20   8  10  ar  
 21   8  11  ar  
 22   9  12  1   
 23   9  33  1   
 24   9  34  1   
 25  10  13  ar  
 26  10  35  1   
 27  11  14  ar  
 28  11  36  1   
 29  12  15  2   
 30  12  16  1   
 31  13  17  ar  
 32  13  37  1   
 33  14  17  ar  
 34  14  38  1   
 35  15  18  1   
 36  16  19  1   
 37  16  20  1   
 38  18  19  2   
 39  18  39  1   
 40  19  40  1   
 41  20  21  1   
 42  20  22  1   
 43  20  41  1   
 44  21  22  1   
 45  21  42  1   
 46  21  43  1   
 47  22  44  1   
 48  22  45  1   
@<TRIPOS>SUBSTRUCTURE
  1 ****   7 GROUP 4 **** **** 0

# MOE 2024.06 (io_trps.svl 2023.06)
