@<TRIPOS>MOLECULE
NONAME
50 52 1 0 0 
SMALL
USER_CHARGES


@<TRIPOS>ATOM
  1 O        0.1780     1.8360     2.2840 O.2   1 <1>  -0.5700 
  2 C        0.0780     2.8650     1.6670 C.2   1 <1>   0.5690 
  3 N       -1.0340     3.6240     1.7610 N.am  1 <1>  -0.7300 
  4 C        1.2000     3.3160     0.7320 C.3   1 <1>   0.1810 
  5 C       -1.2720     4.8500     0.9560 C.3   1 <1>   0.3640 
  6 O        1.1560     4.7020     0.4810 O.3   1 <1>  -0.5600 
  7 C       -2.5840     4.6650     0.1960 C.ar  1 <1>  -0.1440 
  8 C       -0.0970     5.1820    -0.0070 C.3   1 <1>   0.2610 
  9 C       -3.5020     5.7050     0.1420 C.ar  1 <1>  -0.1500 
 10 C       -2.8850     3.4730    -0.4540 C.ar  1 <1>  -0.1500 
 11 C       -0.0290     6.6980    -0.2260 C.2   1 <1>   0.5690 
 12 C       -4.6970     5.5570    -0.5400 C.ar  1 <1>  -0.1500 
 13 C       -4.0800     3.3230    -1.1350 C.ar  1 <1>  -0.1500 
 14 O       -0.9380     7.2640    -0.7850 O.2   1 <1>  -0.5700 
 15 N        1.0600     7.3750     0.2230 N.am  1 <1>  -0.7300 
 16 C       -4.9880     4.3650    -1.1780 C.ar  1 <1>  -0.1500 
 17 C        1.3450     8.8190     0.0340 C.3   1 <1>   0.1400 
 18 C        2.6550     9.0580    -0.7610 C.3   1 <1>   0.0000 
 19 C        3.8840     8.4350    -0.0580 C.3   1 <1>  -0.1600 
 20 C        2.8900    10.5780    -0.9230 C.3   1 <1>  -0.1600 
 21 C        2.5200     8.4410    -2.1670 C.3   1 <1>  -0.2400 
 22 C        4.2240     9.1180     1.2760 C.3   1 <1>  -0.1600 
 23 C        3.2420    11.2860     0.3970 C.3   1 <1>  -0.1600 
 24 C        4.4430    10.6230     1.0820 C.3   1 <1>  -0.1600 
 25 H       -1.8080     3.2910     2.3370 H     1 <1>   0.3700 
 26 H        1.1230     2.7950    -0.2050 H     1 <1>   0.0800 
 27 H        2.1500     3.0930     1.1810 H     1 <1>   0.0800 
 28 H       -1.3840     5.6710     1.6440 H     1 <1>   0.0800 
 29 H       -0.2740     4.7170    -0.9600 H     1 <1>   0.0800 
 30 H       -3.2900     6.6450     0.6240 H     1 <1>   0.1500 
 31 H       -2.1930     2.6490    -0.4320 H     1 <1>   0.1500 
 32 H       -5.3990     6.3720    -0.5760 H     1 <1>   0.1500 
 33 H       -4.3030     2.3960    -1.6330 H     1 <1>   0.1500 
 34 H        1.8160     6.8170     0.6320 H     1 <1>   0.3700 
 35 H       -5.9170     4.2500    -1.7090 H     1 <1>   0.1500 
 36 H        0.5230     9.2770    -0.4910 H     1 <1>   0.0800 
 37 H        1.4020     9.2790     1.0030 H     1 <1>   0.0800 
 38 H        3.7320     7.3830     0.1060 H     1 <1>   0.0800 
 39 H        4.7390     8.5280    -0.7060 H     1 <1>   0.0800 
 40 H        3.7030    10.7360    -1.6100 H     1 <1>   0.0800 
 41 H        2.0170    11.0390    -1.3530 H     1 <1>   0.0800 
 42 H        3.3890     8.6540    -2.7630 H     1 <1>   0.0800 
 43 H        1.6560     8.8400    -2.6700 H     1 <1>   0.0800 
 44 H        2.4090     7.3730    -2.1070 H     1 <1>   0.0800 
 45 H        3.4330     8.9560     1.9870 H     1 <1>   0.0800 
 46 H        5.1190     8.6790     1.6830 H     1 <1>   0.0800 
 47 H        3.4740    12.3180     0.1940 H     1 <1>   0.0800 
 48 H        2.3960    11.2740     1.0610 H     1 <1>   0.0800 
 49 H        5.3210    10.7760     0.4780 H     1 <1>   0.0800 
 50 H        4.6170    11.0900     2.0370 H     1 <1>   0.0800 
@<TRIPOS>BOND
  1   1   2  2   
  2   2   3  am  
  3   2   4  1   
  4   3   5  1   
  5   3  25  1   
  6   4   6  1   
  7   4  26  1   
  8   4  27  1   
  9   5   7  1   
 10   5   8  1   
 11   5  28  1   
 12   6   8  1   
 13   7   9  ar  
 14   7  10  ar  
 15   8  11  1   
 16   8  29  1   
 17   9  12  ar  
 18   9  30  1   
 19  10  13  ar  
 20  10  31  1   
 21  11  14  2   
 22  11  15  am  
 23  12  16  ar  
 24  12  32  1   
 25  13  16  ar  
 26  13  33  1   
 27  15  17  1   
 28  15  34  1   
 29  16  35  1   
 30  17  18  1   
 31  17  36  1   
 32  17  37  1   
 33  18  19  1   
 34  18  20  1   
 35  18  21  1   
 36  19  22  1   
 37  19  38  1   
 38  19  39  1   
 39  20  23  1   
 40  20  40  1   
 41  20  41  1   
 42  21  42  1   
 43  21  43  1   
 44  21  44  1   
 45  22  24  1   
 46  22  45  1   
 47  22  46  1   
 48  23  24  1   
 49  23  47  1   
 50  23  48  1   
 51  24  49  1   
 52  24  50  1   
@<TRIPOS>SUBSTRUCTURE
  1 ****  11 GROUP 4 **** **** 0

# MOE 2024.06 (io_trps.svl 2023.06)
