@<TRIPOS>MOLECULE
NONAME
46 48 1 0 0 
SMALL
USER_CHARGES


@<TRIPOS>ATOM
  1 O       -1.4110     0.7570     1.9510 O.2   1 <1>  -0.5700 
  2 C       -1.4240     1.3780     0.9050 C.2   1 <1>   0.5440 
  3 N       -2.2690     0.9570    -0.1040 N.am  1 <1>  -0.6600 
  4 C       -0.5720     2.5400     0.7750 C.ar  1 <1>   0.0860 
  5 C       -2.9240    -0.3830    -0.0060 C.3   1 <1>   0.1400 
  6 C       -2.6670     1.8310    -1.2500 C.3   1 <1>   0.1400 
  7 C       -0.5520     3.5030     1.7820 C.ar  1 <1>   0.1600 
  8 C        0.2520     2.7500    -0.3230 C.ar  1 <1>  -0.1500 
  9 C       -4.2150    -0.3070     0.8220 C.3   1 <1>   0.1400 
 10 C       -4.1770     1.8540    -1.5290 C.3   1 <1>  -0.1600 
 11 N        0.1610     4.6220     1.7760 N.ar  1 <1>  -0.6200 
 12 C        1.0070     3.9000    -0.3510 C.ar  1 <1>   0.0820 
 13 N       -5.3170     0.3690     0.0730 N.am  1 <1>  -0.6600 
 14 C       -5.0640     1.7940    -0.2810 C.3   1 <1>   0.1400 
 15 C        0.9260     4.7960     0.7100 C.ar  1 <1>   0.1600 
 16 O        1.8050     4.1250    -1.4120 O.3   1 <1>  -0.5320 
 17 C       -6.5200    -0.2450    -0.2180 C.2   1 <1>   0.7160 
 18 O       -7.4710     0.4470    -0.5360 O.2   1 <1>  -0.5700 
 19 C       -6.6740    -1.6810    -0.1670 C.2   1 <1>  -0.0860 
 20 C       -7.7410    -2.3850     0.4050 C.2   1 <1>   0.1080 
 21 C       -5.8750    -2.6780    -0.6440 C.2   1 <1>  -0.3020 
 22 N       -7.6090    -3.6680     0.3050 N.2   1 <1>  -0.7070 
 23 C       -8.9390    -1.7530     1.0790 C.3   1 <1>  -0.0590 
 24 N       -6.4560    -3.8490    -0.3490 N.pl3 1 <1>   0.3140 
 25 C       -5.9710    -5.1940    -0.6720 C.3   1 <1>   0.0160 
 26 H       -2.2470    -1.0650     0.4780 H     1 <1>   0.0800 
 27 H       -3.1330    -0.7730    -0.9860 H     1 <1>   0.0800 
 28 H       -2.1450     1.5090    -2.1350 H     1 <1>   0.0800 
 29 H       -2.3630     2.8420    -1.0440 H     1 <1>   0.0800 
 30 H       -1.1730     3.3290     2.6460 H     1 <1>   0.1500 
 31 H        0.3050     2.0380    -1.1270 H     1 <1>   0.1500 
 32 H       -4.0200     0.2290     1.7350 H     1 <1>   0.0800 
 33 H       -4.5070    -1.3020     1.1030 H     1 <1>   0.0800 
 34 H       -4.4410     1.0540    -2.1990 H     1 <1>   0.0800 
 35 H       -4.3920     2.7690    -2.0500 H     1 <1>   0.0800 
 36 H       -5.9960     2.2920    -0.4880 H     1 <1>   0.0800 
 37 H       -4.6010     2.3050     0.5460 H     1 <1>   0.0800 
 38 H        1.5170     5.6940     0.6820 H     1 <1>   0.1500 
 39 H        2.3400     4.9380    -1.3510 H     1 <1>   0.4500 
 40 H       -4.9470    -2.5980    -1.1760 H     1 <1>   0.1500 
 41 H       -8.6150    -1.0250     1.8000 H     1 <1>   0.0800 
 42 H       -9.5200    -2.5060     1.5780 H     1 <1>   0.0800 
 43 H       -9.5530    -1.2690     0.3420 H     1 <1>   0.0800 
 44 H       -5.0250    -5.1280    -1.1760 H     1 <1>   0.0800 
 45 H       -6.6900    -5.6790    -1.3050 H     1 <1>   0.0800 
 46 H       -5.8620    -5.7520     0.2400 H     1 <1>   0.0800 
@<TRIPOS>BOND
  1   1   2  2   
  2   2   3  am  
  3   2   4  1   
  4   3   5  1   
  5   3   6  1   
  6   4   7  ar  
  7   4   8  ar  
  8   5   9  1   
  9   5  26  1   
 10   5  27  1   
 11   6  10  1   
 12   6  28  1   
 13   6  29  1   
 14   7  11  ar  
 15   7  30  1   
 16   8  12  ar  
 17   8  31  1   
 18   9  13  1   
 19   9  32  1   
 20   9  33  1   
 21  10  14  1   
 22  10  34  1   
 23  10  35  1   
 24  11  15  ar  
 25  12  15  ar  
 26  12  16  1   
 27  13  14  1   
 28  13  17  am  
 29  14  36  1   
 30  14  37  1   
 31  15  38  1   
 32  16  39  1   
 33  17  18  2   
 34  17  19  1   
 35  19  20  1   
 36  19  21  2   
 37  20  22  2   
 38  20  23  1   
 39  21  24  1   
 40  21  40  1   
 41  22  24  1   
 42  23  41  1   
 43  23  42  1   
 44  23  43  1   
 45  24  25  1   
 46  25  44  1   
 47  25  45  1   
 48  25  46  1   
@<TRIPOS>SUBSTRUCTURE
  1 ****   5 GROUP 4 **** **** 0

# MOE 2024.06 (io_trps.svl 2023.06)
