@<TRIPOS>MOLECULE
NONAME
55 58 1 0 0 
SMALL
USER_CHARGES


@<TRIPOS>ATOM
  1 O       -2.4430     0.8930     2.4550 O.2   1 <1>  -0.5700 
  2 C       -1.9730     1.3270     1.4320 C.2   1 <1>   0.5690 
  3 N       -2.6210     1.4470     0.2520 N.am  1 <1>  -0.6600 
  4 C       -0.5510     1.7980     1.3100 C.3   1 <1>  -0.0990 
  5 C       -1.7710     1.9890    -0.8200 C.3   1 <1>   0.1400 
  6 C       -4.0270     1.0670     0.0140 C.3   1 <1>   0.1400 
  7 C       -0.4950     2.4350    -0.0910 C.3   1 <1>  -0.1600 
  8 C       -4.0770    -0.3250    -0.6150 C.3   1 <1>  -0.1600 
  9 C       -5.5230    -0.8250    -0.7470 C.3   1 <1>  -0.0990 
 10 C       -5.5920    -2.1980    -1.3800 C.2   1 <1>   0.5690 
 11 O       -6.0270    -2.3120    -2.4980 O.2   1 <1>  -0.5700 
 12 N       -5.1740    -3.2660    -0.6610 N.am  1 <1>  -0.7300 
 13 C       -5.1460    -4.6640    -1.1530 C.3   1 <1>   0.2200 
 14 C       -6.2920    -5.4840    -0.5720 C.3   1 <1>  -0.0800 
 15 C       -3.9530    -5.3770    -0.5320 C.3   1 <1>   0.1200 
 16 C       -5.7490    -5.8800     0.8070 C.3   1 <1>   0.1200 
 17 C       -7.6590    -4.7690    -0.5440 C.3   1 <1>  -0.0170 
 18 O       -4.3600    -5.7180     0.7580 O.3   1 <1>  -0.5600 
 19 C       -8.8610    -5.5960    -0.0700 C.ar  1 <1>  -0.1440 
 20 C      -10.1040    -4.9540     0.1570 C.ar  1 <1>   0.0000 
 21 C       -8.8140    -6.9460     0.1460 C.ar  1 <1>  -0.1500 
 22 C      -11.1850    -5.7430     0.6210 C.ar  1 <1>   0.3100 
 23 C      -10.3400    -3.5750    -0.0570 C.ar  1 <1>  -0.1500 
 24 C       -9.9470    -7.6330     0.5970 C.ar  1 <1>   0.1600 
 25 N      -11.0900    -7.0780     0.8370 N.ar  1 <1>  -0.6200 
 26 C      -12.4220    -5.1260     0.8690 C.ar  1 <1>  -0.1500 
 27 C      -11.5590    -3.0050     0.1910 C.ar  1 <1>  -0.1500 
 28 C      -12.6150    -3.7870     0.6630 C.ar  1 <1>  -0.1500 
 29 H       -0.3220     2.5070     2.0830 H     1 <1>   0.0800 
 30 H        0.1030     0.9500     1.3800 H     1 <1>   0.0800 
 31 H       -1.5550     1.2130    -1.5360 H     1 <1>   0.0800 
 32 H       -2.2550     2.8180    -1.3090 H     1 <1>   0.0800 
 33 H       -4.5500     1.0600     0.9570 H     1 <1>   0.0800 
 34 H       -4.4960     1.7930    -0.6280 H     1 <1>   0.0800 
 35 H        0.3870     2.1410    -0.6310 H     1 <1>   0.0800 
 36 H       -0.5030     3.5070    -0.0020 H     1 <1>   0.0800 
 37 H       -3.6210    -0.2980    -1.5890 H     1 <1>   0.0800 
 38 H       -3.5200    -1.0070     0.0060 H     1 <1>   0.0800 
 39 H       -6.0890    -0.1410    -1.3540 H     1 <1>   0.0800 
 40 H       -5.9870    -0.8700     0.2220 H     1 <1>   0.0800 
 41 H       -4.8220    -3.1510     0.2920 H     1 <1>   0.3700 
 42 H       -5.1220    -4.6870    -2.2300 H     1 <1>   0.0800 
 43 H       -6.3790    -6.3730    -1.1710 H     1 <1>   0.0800 
 44 H       -3.0730    -4.7590    -0.4860 H     1 <1>   0.0800 
 45 H       -3.7350    -6.2880    -1.0610 H     1 <1>   0.0800 
 46 H       -5.9690    -6.9040     1.0540 H     1 <1>   0.0800 
 47 H       -6.1250    -5.2320     1.5800 H     1 <1>   0.0800 
 48 H       -7.8720    -4.4050    -1.5350 H     1 <1>   0.0800 
 49 H       -7.5760    -3.9150     0.1040 H     1 <1>   0.0800 
 50 H       -7.9310    -7.5310    -0.0160 H     1 <1>   0.1500 
 51 H       -9.5480    -2.9520    -0.4290 H     1 <1>   0.1500 
 52 H       -9.8600    -8.6940     0.7550 H     1 <1>   0.1500 
 53 H      -13.2200    -5.7490     1.2280 H     1 <1>   0.1500 
 54 H      -11.7220    -1.9540     0.0240 H     1 <1>   0.1500 
 55 H      -13.5690    -3.3290     0.8560 H     1 <1>   0.1500 
@<TRIPOS>BOND
  1   1   2  2   
  2   2   3  am  
  3   2   4  1   
  4   3   5  1   
  5   3   6  1   
  6   4   7  1   
  7   4  29  1   
  8   4  30  1   
  9   5   7  1   
 10   5  31  1   
 11   5  32  1   
 12   6   8  1   
 13   6  33  1   
 14   6  34  1   
 15   7  35  1   
 16   7  36  1   
 17   8   9  1   
 18   8  37  1   
 19   8  38  1   
 20   9  10  1   
 21   9  39  1   
 22   9  40  1   
 23  10  11  2   
 24  10  12  am  
 25  12  13  1   
 26  12  41  1   
 27  13  14  1   
 28  13  15  1   
 29  13  42  1   
 30  14  16  1   
 31  14  17  1   
 32  14  43  1   
 33  15  18  1   
 34  15  44  1   
 35  15  45  1   
 36  16  18  1   
 37  16  46  1   
 38  16  47  1   
 39  17  19  1   
 40  17  48  1   
 41  17  49  1   
 42  19  20  ar  
 43  19  21  ar  
 44  20  22  ar  
 45  20  23  ar  
 46  21  24  ar  
 47  21  50  1   
 48  22  25  ar  
 49  22  26  ar  
 50  23  27  ar  
 51  23  51  1   
 52  24  25  ar  
 53  24  52  1   
 54  26  28  ar  
 55  26  53  1   
 56  27  28  ar  
 57  27  54  1   
 58  28  55  1   
@<TRIPOS>SUBSTRUCTURE
  1 ****  12 GROUP 4 **** **** 0

# MOE 2024.06 (io_trps.svl 2023.06)
