@<TRIPOS>MOLECULE
NONAME
50 51 1 0 0 
SMALL
USER_CHARGES


@<TRIPOS>ATOM
  1 S       -0.3190     0.2180    -0.3040 S.o2  1 <1>   1.3330 
  2 O       -0.6470    -0.2190     1.0340 O.2   1 <1>  -0.6500 
  3 O       -0.8780     1.4530    -0.8060 O.2   1 <1>  -0.6500 
  4 N       -0.7410    -1.0310    -1.3740 N.am  1 <1>  -0.8490 
  5 C        1.4620     0.3090    -0.4960 C.3   1 <1>  -0.0550 
  6 C       -0.6100    -2.3690    -0.7870 C.3   1 <1>   0.1160 
  7 C       -2.0880    -0.8590    -1.9270 C.3   1 <1>   0.1160 
  8 C        2.1140     1.4440     0.3190 C.3   1 <1>  -0.0800 
  9 C        3.5740     1.6180    -0.0590 C.3   1 <1>   0.2200 
 10 C        2.2090     1.1030     1.8100 C.3   1 <1>   0.1200 
 11 N        4.0040     2.9910     0.2890 N.am  1 <1>  -0.7300 
 12 C        4.2600     0.6190     0.8650 C.3   1 <1>   0.1200 
 13 O        3.4800     0.5600     2.0230 O.3   1 <1>  -0.5600 
 14 C        4.5180     3.9050    -0.5850 C.2   1 <1>   0.5440 
 15 O        4.6510     3.5790    -1.7480 O.2   1 <1>  -0.5700 
 16 C        4.9130     5.2250    -0.1250 C.ar  1 <1>   0.0860 
 17 C        5.9370     5.9280    -0.7610 C.ar  1 <1>  -0.1500 
 18 C        4.2940     5.8410     0.9640 C.ar  1 <1>  -0.1500 
 19 C        6.3470     7.1810    -0.3360 C.ar  1 <1>  -0.1440 
 20 C        4.6910     7.0900     1.4020 C.ar  1 <1>  -0.1500 
 21 C        5.7160     7.7570     0.7560 C.ar  1 <1>  -0.1500 
 22 C        7.4770     7.9010    -1.0700 C.3   1 <1>   0.0630 
 23 C        8.6690     8.1390    -0.1370 C.3   1 <1>  -0.2400 
 24 C        6.9850     9.2200    -1.6730 C.3   1 <1>  -0.2400 
 25 H        1.9000    -0.6300    -0.2210 H     1 <1>   0.0800 
 26 H        1.6700     0.4750    -1.5360 H     1 <1>   0.0800 
 27 H       -0.7980    -3.1200    -1.5350 H     1 <1>   0.0800 
 28 H       -1.3120    -2.4960     0.0220 H     1 <1>   0.0800 
 29 H        0.3860    -2.5130    -0.4050 H     1 <1>   0.0800 
 30 H       -2.3160    -1.6580    -2.6110 H     1 <1>   0.0800 
 31 H       -2.1490     0.0720    -2.4670 H     1 <1>   0.0800 
 32 H       -2.8190    -0.8470    -1.1360 H     1 <1>   0.0800 
 33 H        1.5600     2.3530     0.1550 H     1 <1>   0.0800 
 34 H        3.7730     1.4100    -1.0980 H     1 <1>   0.0800 
 35 H        1.4710     0.3940     2.1420 H     1 <1>   0.0800 
 36 H        2.1350     1.9940     2.4090 H     1 <1>   0.0800 
 37 H        4.0320     3.1810     1.2920 H     1 <1>   0.3700 
 38 H        5.2640     0.9110     1.1180 H     1 <1>   0.0800 
 39 H        4.2660    -0.3620     0.4260 H     1 <1>   0.0800 
 40 H        6.4140     5.4680    -1.6090 H     1 <1>   0.1500 
 41 H        3.4870     5.3440     1.4700 H     1 <1>   0.1500 
 42 H        4.2030     7.5490     2.2450 H     1 <1>   0.1500 
 43 H        6.0160     8.7290     1.1070 H     1 <1>   0.1500 
 44 H        7.8150     7.2770    -1.8800 H     1 <1>   0.0800 
 45 H        8.4020     8.8000     0.6670 H     1 <1>   0.0800 
 46 H        9.4870     8.5750    -0.6830 H     1 <1>   0.0800 
 47 H        8.9970     7.2050     0.2820 H     1 <1>   0.0800 
 48 H        6.6800     9.9050    -0.9030 H     1 <1>   0.0800 
 49 H        6.1450     9.0340    -2.3180 H     1 <1>   0.0800 
 50 H        7.7660     9.6790    -2.2520 H     1 <1>   0.0800 
@<TRIPOS>BOND
  1   1   2  2   
  2   1   3  2   
  3   1   4  am  
  4   1   5  1   
  5   4   6  1   
  6   4   7  1   
  7   5   8  1   
  8   5  25  1   
  9   5  26  1   
 10   6  27  1   
 11   6  28  1   
 12   6  29  1   
 13   7  30  1   
 14   7  31  1   
 15   7  32  1   
 16   8   9  1   
 17   8  10  1   
 18   8  33  1   
 19   9  11  1   
 20   9  12  1   
 21   9  34  1   
 22  10  13  1   
 23  10  35  1   
 24  10  36  1   
 25  11  14  am  
 26  11  37  1   
 27  12  13  1   
 28  12  38  1   
 29  12  39  1   
 30  14  15  2   
 31  14  16  1   
 32  16  17  ar  
 33  16  18  ar  
 34  17  19  ar  
 35  17  40  1   
 36  18  20  ar  
 37  18  41  1   
 38  19  21  ar  
 39  19  22  1   
 40  20  21  ar  
 41  20  42  1   
 42  21  43  1   
 43  22  23  1   
 44  22  24  1   
 45  22  44  1   
 46  23  45  1   
 47  23  46  1   
 48  23  47  1   
 49  24  48  1   
 50  24  49  1   
 51  24  50  1   
@<TRIPOS>SUBSTRUCTURE
  1 ****  11 GROUP 4 **** **** 0

# MOE 2024.06 (io_trps.svl 2023.06)
