@<TRIPOS>MOLECULE
NONAME
51 54 1 0 0 
SMALL
USER_CHARGES


@<TRIPOS>ATOM
  1 O        0.6430     1.3520    -1.7960 O.2   1 <1>  -0.5700 
  2 C        1.7110     1.6450    -1.2920 C.2   1 <1>   0.6900 
  3 N        1.8480     2.6820    -0.3980 N.am  1 <1>  -0.6600 
  4 N        2.8010     0.9150    -1.6190 N.am  1 <1>  -0.7300 
  5 C        0.7730     3.1730     0.5400 C.3   1 <1>   0.2200 
  6 C        3.1830     3.2880    -0.1000 C.3   1 <1>   0.1400 
  7 C        2.7960    -0.2890    -2.4750 C.3   1 <1>   0.3200 
  8 C        0.6220     4.7280     0.5480 C.3   1 <1>   0.1380 
  9 C       -0.5950     2.4760     0.5030 C.3   1 <1>  -0.1600 
 10 C        3.1050     4.8160     0.0470 C.3   1 <1>  -0.1600 
 11 C        3.4630    -1.4470    -1.7530 C.2   1 <1>  -0.0400 
 12 C        0.2520     5.3950    -0.8080 C.2   1 <1>  -0.2760 
 13 C       -0.4920     5.1000     1.5670 C.3   1 <1>   0.1200 
 14 C        1.9950     5.2640     1.0150 C.3   1 <1>  -0.1600 
 15 C       -1.4940     2.9800     1.6460 C.3   1 <1>   0.1200 
 16 O        3.8490    -2.4890    -2.4650 O.3   1 <1>  -0.2800 
 17 C        3.7570    -1.6380    -0.4470 C.2   1 <1>  -0.1500 
 18 C       -0.0060     4.7650    -1.9620 C.2   1 <1>  -0.2880 
 19 C        0.1910     6.9270    -0.8180 C.3   1 <1>  -0.0220 
 20 O       -0.8730     4.0110     2.3600 O.3   1 <1>  -0.5600 
 21 C        4.3950    -3.3600    -1.6390 C.2   1 <1>  -0.0100 
 22 C        4.3710    -2.8950    -0.3730 C.2   1 <1>  -0.1500 
 23 C       -0.3330     5.4590    -3.2770 C.3   1 <1>   0.2580 
 24 C       -0.5650     7.4460    -2.0490 C.3   1 <1>   0.1200 
 25 O       -0.0670     6.8290    -3.1950 O.3   1 <1>  -0.5600 
 26 H        3.6560     1.0710    -1.0970 H     1 <1>   0.3700 
 27 H        1.1500     2.9190     1.5160 H     1 <1>   0.0800 
 28 H        3.5550     2.8620     0.8160 H     1 <1>   0.0800 
 29 H        3.8810     3.0640    -0.8870 H     1 <1>   0.0800 
 30 H        1.7910    -0.5660    -2.7440 H     1 <1>   0.0800 
 31 H        3.3400    -0.0730    -3.3780 H     1 <1>   0.0800 
 32 H       -0.4700     1.4140     0.6040 H     1 <1>   0.0800 
 33 H       -1.0950     2.6650    -0.4280 H     1 <1>   0.0800 
 34 H        4.0540     5.1820     0.3960 H     1 <1>   0.0800 
 35 H        2.9370     5.2440    -0.9270 H     1 <1>   0.0800 
 36 H       -1.3730     5.4430     1.0530 H     1 <1>   0.0800 
 37 H       -0.1600     5.8830     2.2250 H     1 <1>   0.0800 
 38 H        1.9880     6.3350     1.0890 H     1 <1>   0.0800 
 39 H        2.2110     4.8830     1.9990 H     1 <1>   0.0800 
 40 H       -1.6920     2.1840     2.3420 H     1 <1>   0.0800 
 41 H       -2.4320     3.3460     1.2630 H     1 <1>   0.0800 
 42 H        3.5660    -0.9880     0.3880 H     1 <1>   0.1500 
 43 H       -0.0010     3.7010    -2.0820 H     1 <1>   0.1500 
 44 H        1.1880     7.3300    -0.8400 H     1 <1>   0.0800 
 45 H       -0.3020     7.3070     0.0560 H     1 <1>   0.0800 
 46 H        4.7740    -4.2850    -2.0370 H     1 <1>   0.1500 
 47 H        4.7340    -3.3630     0.5240 H     1 <1>   0.1500 
 48 H       -1.3700     5.3240    -3.5300 H     1 <1>   0.0800 
 49 H        0.2780     5.0610    -4.0680 H     1 <1>   0.0800 
 50 H       -0.4280     8.5070    -2.1580 H     1 <1>   0.0800 
 51 H       -1.6170     7.2300    -1.9750 H     1 <1>   0.0800 
@<TRIPOS>BOND
  1   1   2  2   
  2   2   3  am  
  3   2   4  am  
  4   3   5  1   
  5   3   6  1   
  6   4   7  1   
  7   4  26  1   
  8   5   8  1   
  9   5   9  1   
 10   5  27  1   
 11   6  10  1   
 12   6  28  1   
 13   6  29  1   
 14   7  11  1   
 15   7  30  1   
 16   7  31  1   
 17   8  12  1   
 18   8  13  1   
 19   8  14  1   
 20   9  15  1   
 21   9  32  1   
 22   9  33  1   
 23  10  14  1   
 24  10  34  1   
 25  10  35  1   
 26  11  16  1   
 27  11  17  2   
 28  12  18  2   
 29  12  19  1   
 30  13  20  1   
 31  13  36  1   
 32  13  37  1   
 33  14  38  1   
 34  14  39  1   
 35  15  20  1   
 36  15  40  1   
 37  15  41  1   
 38  16  21  1   
 39  17  22  1   
 40  17  42  1   
 41  18  23  1   
 42  18  43  1   
 43  19  24  1   
 44  19  44  1   
 45  19  45  1   
 46  21  22  2   
 47  21  46  1   
 48  22  47  1   
 49  23  25  1   
 50  23  48  1   
 51  23  49  1   
 52  24  25  1   
 53  24  50  1   
 54  24  51  1   
@<TRIPOS>SUBSTRUCTURE
  1 ****   3 GROUP 4 **** **** 0

# MOE 2024.06 (io_trps.svl 2023.06)
