@<TRIPOS>MOLECULE
NONAME
53 56 1 0 0 
SMALL
USER_CHARGES


@<TRIPOS>ATOM
  1 O       -0.0710    -0.6250    -0.2090 O.2   1 <1>  -0.5700 
  2 C       -1.2260    -0.3090    -0.0700 C.2   1 <1>   0.5690 
  3 N       -1.7070     0.9490     0.0350 N.am  1 <1>  -0.6600 
  4 C       -2.3330    -1.3190     0.0190 C.3   1 <1>  -0.0990 
  5 C       -0.8480     2.1640     0.0120 C.3   1 <1>   0.2200 
  6 C       -3.1730     0.9810     0.1880 C.3   1 <1>   0.1400 
  7 C       -3.6130    -0.4670    -0.0890 C.3   1 <1>  -0.0800 
  8 C       -1.0190     2.9920     1.2830 C.3   1 <1>  -0.1600 
  9 C       -1.2510     3.1100    -1.1180 C.3   1 <1>  -0.1600 
 10 C       -4.7390    -0.9220     0.8440 C.3   1 <1>   0.2090 
 11 C       -2.1320     4.0050     1.0020 C.3   1 <1>  -0.1600 
 12 C       -2.2090     4.1500    -0.5220 C.3   1 <1>  -0.1600 
 13 N       -5.0960    -2.3290     0.5300 N.pl3 1 <1>  -0.8690 
 14 C       -6.2740    -2.9750     0.6640 C.ar  1 <1>   0.1000 
 15 C       -6.4090    -4.3350     0.2410 C.ar  1 <1>   0.0000 
 16 C       -7.3910    -2.3520     1.2200 C.ar  1 <1>  -0.1500 
 17 C       -7.6470    -4.9950     0.3920 C.ar  1 <1>   0.3610 
 18 C       -5.3570    -5.0690    -0.3330 C.ar  1 <1>  -0.1500 
 19 C       -8.5810    -3.0160     1.3540 C.ar  1 <1>   0.2110 
 20 N       -8.6940    -4.2930     0.9500 N.ar  1 <1>  -0.1790 
 21 C       -7.8150    -6.3370    -0.0140 C.ar  1 <1>  -0.1440 
 22 C       -5.5240    -6.3680    -0.7260 C.ar  1 <1>  -0.1500 
 23 C       -6.7500    -7.0180    -0.5730 C.ar  1 <1>  -0.1440 
 24 C       -9.1810    -7.0120     0.1730 C.3   1 <1>  -0.0970 
 25 C       -6.8270    -8.4670    -1.0440 C.3   1 <1>  -0.0970 
 26 H       -2.2570    -1.8170     0.9690 H     1 <1>   0.0800 
 27 H       -2.2540    -2.0310    -0.7810 H     1 <1>   0.0800 
 28 H        0.1800     1.8630    -0.1020 H     1 <1>   0.0800 
 29 H       -3.6190     1.6610    -0.5160 H     1 <1>   0.0800 
 30 H       -3.4140     1.2810     1.1930 H     1 <1>   0.0800 
 31 H       -3.9700    -0.5020    -1.1040 H     1 <1>   0.0800 
 32 H       -0.1030     3.5310     1.4540 H     1 <1>   0.0800 
 33 H       -1.2170     2.3790     2.1450 H     1 <1>   0.0800 
 34 H       -1.6780     2.5820    -1.9520 H     1 <1>   0.0800 
 35 H       -0.3660     3.6180    -1.4580 H     1 <1>   0.0800 
 36 H       -5.5930    -0.2820     0.7100 H     1 <1>   0.0800 
 37 H       -4.4140    -0.8600     1.8700 H     1 <1>   0.0800 
 38 H       -1.9240     4.9490     1.4760 H     1 <1>   0.0800 
 39 H       -3.0690     3.6340     1.3780 H     1 <1>   0.0800 
 40 H       -3.2160     3.9740    -0.8600 H     1 <1>   0.0800 
 41 H       -1.9160     5.1410    -0.8250 H     1 <1>   0.0800 
 42 H       -4.2880    -2.8450     0.1630 H     1 <1>   0.4000 
 43 H       -7.3190    -1.3350     1.5550 H     1 <1>   0.1500 
 44 H       -4.3960    -4.6090    -0.4720 H     1 <1>   0.1500 
 45 H       -9.4400    -2.5260     1.7860 H     1 <1>   0.1500 
 46 H       -9.5770    -4.7970     1.0470 H     1 <1>   0.4570 
 47 H       -4.6920    -6.8980    -1.1620 H     1 <1>   0.1500 
 48 H       -9.9380    -6.4900    -0.3860 H     1 <1>   0.0800 
 49 H       -9.4510    -7.0320     1.2140 H     1 <1>   0.0800 
 50 H       -9.1900    -8.0300    -0.1690 H     1 <1>   0.0800 
 51 H       -7.0790    -9.1140    -0.2220 H     1 <1>   0.0800 
 52 H       -5.8870    -8.8000    -1.4470 H     1 <1>   0.0800 
 53 H       -7.5690    -8.5700    -1.8160 H     1 <1>   0.0800 
@<TRIPOS>BOND
  1   1   2  2   
  2   2   3  am  
  3   2   4  1   
  4   3   5  1   
  5   3   6  1   
  6   4   7  1   
  7   4  26  1   
  8   4  27  1   
  9   5   8  1   
 10   5   9  1   
 11   5  28  1   
 12   6   7  1   
 13   6  29  1   
 14   6  30  1   
 15   7  10  1   
 16   7  31  1   
 17   8  11  1   
 18   8  32  1   
 19   8  33  1   
 20   9  12  1   
 21   9  34  1   
 22   9  35  1   
 23  10  13  1   
 24  10  36  1   
 25  10  37  1   
 26  11  12  1   
 27  11  38  1   
 28  11  39  1   
 29  12  40  1   
 30  12  41  1   
 31  13  14  1   
 32  13  42  1   
 33  14  15  ar  
 34  14  16  ar  
 35  15  17  ar  
 36  15  18  ar  
 37  16  19  ar  
 38  16  43  1   
 39  17  20  ar  
 40  17  21  ar  
 41  18  22  ar  
 42  18  44  1   
 43  19  20  ar  
 44  19  45  1   
 45  20  46  1   
 46  21  23  ar  
 47  21  24  1   
 48  22  23  ar  
 49  22  47  1   
 50  23  25  1   
 51  24  48  1   
 52  24  49  1   
 53  24  50  1   
 54  25  51  1   
 55  25  52  1   
 56  25  53  1   
@<TRIPOS>SUBSTRUCTURE
  1 ****  13 GROUP 4 **** **** 0

# MOE 2024.06 (io_trps.svl 2023.06)
