@<TRIPOS>MOLECULE
NONAME
42 45 1 0 0 
SMALL
USER_CHARGES


@<TRIPOS>ATOM
  1 O       -3.1410     0.7370    -1.9420 O.2   1 <1>  -0.5700 
  2 C       -2.8060     0.7090    -0.7840 C.2   1 <1>   0.6300 
  3 N       -2.4620    -0.4440    -0.1660 N.am  1 <1>  -0.7300 
  4 C       -2.7940     1.9950     0.0270 C.3   1 <1>  -0.1000 
  5 C       -2.3730    -1.7720    -0.8150 C.3   1 <1>   0.2200 
  6 C       -1.7730     3.0590    -0.2510 C.3   1 <1>  -0.2000 
  7 C       -1.7180     2.2930     1.0340 C.3   1 <1>  -0.2000 
  8 C       -3.5650    -2.6500    -0.4560 C.3   1 <1>  -0.0800 
  9 C       -1.2450    -2.5570    -0.1600 C.3   1 <1>   0.1200 
 10 C       -3.1640    -3.2070     0.9170 C.3   1 <1>   0.1200 
 11 C       -4.9350    -1.9410    -0.4890 C.3   1 <1>  -0.0170 
 12 O       -1.7820    -3.0300     1.0380 O.3   1 <1>  -0.5600 
 13 C       -6.1720    -2.8160    -0.2510 C.ar  1 <1>  -0.1440 
 14 C       -7.4410    -2.2030    -0.0980 C.ar  1 <1>   0.0000 
 15 C       -6.1330    -4.1810    -0.1810 C.ar  1 <1>  -0.1500 
 16 C       -8.5580    -3.0380     0.1490 C.ar  1 <1>   0.3100 
 17 C       -7.6680    -0.8090    -0.1820 C.ar  1 <1>  -0.1500 
 18 C       -7.3010    -4.9150     0.0570 C.ar  1 <1>   0.1600 
 19 N       -8.4710    -4.3890     0.2250 N.ar  1 <1>  -0.6200 
 20 C       -9.8230    -2.4530     0.3210 C.ar  1 <1>  -0.1500 
 21 C       -8.9150    -0.2700    -0.0140 C.ar  1 <1>  -0.1500 
 22 C      -10.0080    -1.1000     0.2440 C.ar  1 <1>  -0.1500 
 23 H       -2.2180    -0.4400     0.8270 H     1 <1>   0.3700 
 24 H       -3.7930     2.3280     0.2440 H     1 <1>   0.1000 
 25 H       -2.2370    -1.6660    -1.8790 H     1 <1>   0.0800 
 26 H       -1.0330     2.8660    -1.0090 H     1 <1>   0.1000 
 27 H       -2.0890     4.0870    -0.2370 H     1 <1>   0.1000 
 28 H       -1.9870     2.7980     1.9460 H     1 <1>   0.1000 
 29 H       -0.9040     1.6020     1.1700 H     1 <1>   0.1000 
 30 H       -3.5810    -3.4630    -1.1600 H     1 <1>   0.0800 
 31 H       -0.3770    -1.9540     0.0400 H     1 <1>   0.0800 
 32 H       -0.9730    -3.4080    -0.7600 H     1 <1>   0.0800 
 33 H       -3.3870    -4.2550     1.0130 H     1 <1>   0.0800 
 34 H       -3.6340    -2.6620     1.7170 H     1 <1>   0.0800 
 35 H       -5.0440    -1.4610    -1.4470 H     1 <1>   0.0800 
 36 H       -4.9310    -1.1700     0.2600 H     1 <1>   0.0800 
 37 H       -5.2300    -4.7450    -0.3050 H     1 <1>   0.1500 
 38 H       -6.8470    -0.1480    -0.3890 H     1 <1>   0.1500 
 39 H       -7.2190    -5.9870     0.1070 H     1 <1>   0.1500 
 40 H      -10.6490    -3.1130     0.5140 H     1 <1>   0.1500 
 41 H       -9.0710     0.7930    -0.0800 H     1 <1>   0.1500 
 42 H      -10.9840    -0.6650     0.3760 H     1 <1>   0.1500 
@<TRIPOS>BOND
  1   1   2  2   
  2   2   3  am  
  3   2   4  1   
  4   3   5  1   
  5   3  23  1   
  6   4   6  1   
  7   4   7  1   
  8   4  24  1   
  9   5   8  1   
 10   5   9  1   
 11   5  25  1   
 12   6   7  1   
 13   6  26  1   
 14   6  27  1   
 15   7  28  1   
 16   7  29  1   
 17   8  10  1   
 18   8  11  1   
 19   8  30  1   
 20   9  12  1   
 21   9  31  1   
 22   9  32  1   
 23  10  12  1   
 24  10  33  1   
 25  10  34  1   
 26  11  13  1   
 27  11  35  1   
 28  11  36  1   
 29  13  14  ar  
 30  13  15  ar  
 31  14  16  ar  
 32  14  17  ar  
 33  15  18  ar  
 34  15  37  1   
 35  16  19  ar  
 36  16  20  ar  
 37  17  21  ar  
 38  17  38  1   
 39  18  19  ar  
 40  18  39  1   
 41  20  22  ar  
 42  20  40  1   
 43  21  22  ar  
 44  21  41  1   
 45  22  42  1   
@<TRIPOS>SUBSTRUCTURE
  1 ****  11 GROUP 4 **** **** 0

# MOE 2024.06 (io_trps.svl 2023.06)
