@<TRIPOS>MOLECULE
NONAME
56 59 1 0 0 
SMALL
USER_CHARGES


@<TRIPOS>ATOM
  1 F       -0.7310    -0.6950     0.0390 F     1 <1>  -0.1900 
  2 C       -1.8140    -0.1540    -0.4500 C.ar  1 <1>   0.1900 
  3 C       -3.0240    -0.4090     0.1670 C.ar  1 <1>  -0.1500 
  4 C       -1.7090     0.6550    -1.5650 C.ar  1 <1>  -0.1500 
  5 C       -4.1760     0.1670    -0.3470 C.ar  1 <1>  -0.1440 
  6 C       -2.8610     1.2260    -2.0770 C.ar  1 <1>  -0.1500 
  7 C       -4.0850     0.9820    -1.4710 C.ar  1 <1>  -0.1500 
  8 C       -5.5200    -0.0890     0.3190 C.3   1 <1>   0.2640 
  9 O       -5.7930    -1.4730     0.2830 O.3   1 <1>  -0.3620 
 10 C       -6.8980    -1.9910     0.8710 C.ar  1 <1>   0.0830 
 11 C       -7.0010    -3.3710     0.8940 C.ar  1 <1>  -0.1500 
 12 C       -7.9080    -1.2190     1.4400 C.ar  1 <1>  -0.1500 
 13 C       -8.0940    -4.0160     1.4680 C.ar  1 <1>   0.0860 
 14 C       -8.9970    -1.8380     2.0250 C.ar  1 <1>  -0.1500 
 15 C       -8.1880    -5.4640     1.4710 C.2   1 <1>   0.5440 
 16 C       -9.0850    -3.2190     2.0400 C.ar  1 <1>  -0.1500 
 17 O       -7.2430    -6.1300     1.8490 O.2   1 <1>  -0.5700 
 18 N       -9.3240    -6.1070     1.0350 N.am  1 <1>  -0.6600 
 19 C      -10.3090    -5.5170     0.0910 C.3   1 <1>   0.1400 
 20 C       -9.4770    -7.5800     1.0520 C.3   1 <1>   0.1400 
 21 C      -11.0950    -6.7000    -0.4960 C.3   1 <1>   0.2000 
 22 C      -10.1790    -7.9060    -0.2660 C.3   1 <1>  -0.0800 
 23 O      -12.2800    -6.8890     0.2260 O.3   1 <1>  -0.5600 
 24 C      -10.8940    -9.2700    -0.2620 C.3   1 <1>   0.0200 
 25 C      -13.3660    -6.1310    -0.2060 C.3   1 <1>   0.0400 
 26 C       -9.9330   -10.4460    -0.2070 C.2   1 <1>  -0.0400 
 27 O      -10.4220   -11.6540    -0.1180 O.3   1 <1>  -0.0190 
 28 C       -8.5940   -10.5500    -0.2340 C.2   1 <1>  -0.1500 
 29 N       -9.4860   -12.5580    -0.0820 N.2   1 <1>  -0.4100 
 30 C       -8.3730   -11.9210    -0.1490 C.2   1 <1>   0.1080 
 31 C       -7.0120   -12.5800    -0.1350 C.3   1 <1>  -0.0590 
 32 H       -3.0600    -1.0510     1.0300 H     1 <1>   0.1500 
 33 H       -0.7490     0.8290    -2.0170 H     1 <1>   0.1500 
 34 H       -2.8080     1.8580    -2.9470 H     1 <1>   0.1500 
 35 H       -4.9710     1.4320    -1.8840 H     1 <1>   0.1500 
 36 H       -6.3090     0.4240    -0.2000 H     1 <1>   0.0800 
 37 H       -5.4890     0.2240     1.3480 H     1 <1>   0.0800 
 38 H       -6.2130    -3.9610     0.4610 H     1 <1>   0.1500 
 39 H       -7.8650    -0.1470     1.4400 H     1 <1>   0.1500 
 40 H       -9.7770    -1.2460     2.4720 H     1 <1>   0.1500 
 41 H       -9.9290    -3.6950     2.5080 H     1 <1>   0.1500 
 42 H      -10.9610    -4.8290     0.5980 H     1 <1>   0.0800 
 43 H       -9.7780    -5.0060    -0.6930 H     1 <1>   0.0800 
 44 H       -8.5270    -8.0780     1.1360 H     1 <1>   0.0800 
 45 H      -10.0980    -7.8530     1.8890 H     1 <1>   0.0800 
 46 H      -11.3300    -6.5690    -1.5390 H     1 <1>   0.0800 
 47 H       -9.4360    -7.9060    -1.0430 H     1 <1>   0.0800 
 48 H      -11.4900    -9.3620    -1.1520 H     1 <1>   0.0800 
 49 H      -11.5590    -9.3310     0.5830 H     1 <1>   0.0800 
 50 H      -14.2020    -6.3520     0.4350 H     1 <1>   0.0800 
 51 H      -13.6080    -6.4020    -1.2190 H     1 <1>   0.0800 
 52 H      -13.1270    -5.0840    -0.1390 H     1 <1>   0.0800 
 53 H       -7.8350    -9.7930    -0.3040 H     1 <1>   0.1500 
 54 H       -6.4200   -12.1780     0.6650 H     1 <1>   0.0800 
 55 H       -6.5140   -12.4040    -1.0700 H     1 <1>   0.0800 
 56 H       -7.1200   -13.6400     0.0090 H     1 <1>   0.0800 
@<TRIPOS>BOND
  1   1   2  1   
  2   2   3  ar  
  3   2   4  ar  
  4   3   5  ar  
  5   3  32  1   
  6   4   6  ar  
  7   4  33  1   
  8   5   7  ar  
  9   5   8  1   
 10   6   7  ar  
 11   6  34  1   
 12   7  35  1   
 13   8   9  1   
 14   8  36  1   
 15   8  37  1   
 16   9  10  1   
 17  10  11  ar  
 18  10  12  ar  
 19  11  13  ar  
 20  11  38  1   
 21  12  14  ar  
 22  12  39  1   
 23  13  15  1   
 24  13  16  ar  
 25  14  16  ar  
 26  14  40  1   
 27  15  17  2   
 28  15  18  am  
 29  16  41  1   
 30  18  19  1   
 31  18  20  1   
 32  19  21  1   
 33  19  42  1   
 34  19  43  1   
 35  20  22  1   
 36  20  44  1   
 37  20  45  1   
 38  21  22  1   
 39  21  23  1   
 40  21  46  1   
 41  22  24  1   
 42  22  47  1   
 43  23  25  1   
 44  24  26  1   
 45  24  48  1   
 46  24  49  1   
 47  25  50  1   
 48  25  51  1   
 49  25  52  1   
 50  26  27  1   
 51  26  28  2   
 52  27  29  1   
 53  28  30  1   
 54  28  53  1   
 55  29  30  2   
 56  30  31  1   
 57  31  54  1   
 58  31  55  1   
 59  31  56  1   
@<TRIPOS>SUBSTRUCTURE
  1 ****  15 GROUP 4 **** **** 0

# MOE 2024.06 (io_trps.svl 2023.06)
