@<TRIPOS>MOLECULE
NONAME
56 58 1 0 0 
SMALL
USER_CHARGES


@<TRIPOS>ATOM
  1 O       -3.7120     2.7100    -1.4330 O.2   1 <1>  -0.5700 
  2 C       -2.8970     1.8130    -1.4740 C.2   1 <1>   0.5690 
  3 N       -3.3330     0.5200    -1.2840 N.am  1 <1>  -0.6600 
  4 C       -1.4230     2.1820    -1.7200 C.3   1 <1>   0.2370 
  5 C       -2.4520    -0.6940    -1.1260 C.3   1 <1>   0.3210 
  6 C       -4.8100     0.2290    -1.3590 C.3   1 <1>   0.1400 
  7 N       -0.6820     2.2220    -0.4340 N.pl3 1 <1>   0.0480 
  8 C       -1.2190     3.5100    -2.4740 C.3   1 <1>  -0.2400 
  9 C       -2.7960    -1.5560     0.0970 C.2   1 <1>   0.0460 
 10 C       -5.5550     0.3920    -0.0120 C.3   1 <1>   0.3430 
 11 C       -1.0680     2.8190     0.7340 C.ar  1 <1>  -0.1520 
 12 C        0.4600     1.5410    -0.1250 C.2   1 <1>   0.0060 
 13 N       -3.9680    -2.2260     0.1740 N.2   1 <1>  -0.5650 
 14 C       -2.0410    -1.8090     1.1950 C.2   1 <1>  -0.3320 
 15 N       -5.0610     1.5600     0.7860 N.4   1 <1>  -0.9590 
 16 C       -0.1660     2.3820     1.6850 C.ar  1 <1>   0.2270 
 17 C       -2.0790     3.7230     1.0830 C.ar  1 <1>  -0.1500 
 18 N        0.7770     1.5870     1.1180 N.2   1 <1>  -0.5650 
 19 C        1.3130     0.8050    -1.1440 C.3   1 <1>  -0.0600 
 20 C       -3.8980    -2.8670     1.2950 C.2   1 <1>   0.0360 
 21 N       -2.7530    -2.6490     1.9680 N.pl3 1 <1>   0.0330 
 22 C       -0.6480    -1.3560     1.6010 C.3   1 <1>  -0.0600 
 23 C       -4.0080     1.1290     1.7570 C.3   1 <1>   0.2630 
 24 C       -6.1640     2.2970     1.4620 C.3   1 <1>   0.2630 
 25 C       -0.2920     2.7790     3.0150 C.ar  1 <1>  -0.1500 
 26 C       -2.1930     4.1220     2.3960 C.ar  1 <1>  -0.1500 
 27 C       -1.3060     3.6420     3.3660 C.ar  1 <1>  -0.1500 
 28 H       -1.0020     1.4060    -2.3290 H     1 <1>   0.0800 
 29 H       -1.4250    -0.3990    -1.0460 H     1 <1>   0.0800 
 30 H       -2.5460    -1.3080    -2.0050 H     1 <1>   0.0800 
 31 H       -4.9710    -0.7670    -1.7340 H     1 <1>   0.0800 
 32 H       -5.2620     0.8950    -2.0740 H     1 <1>   0.0800 
 33 H       -1.6070     4.3350    -1.9030 H     1 <1>   0.0800 
 34 H       -1.7380     3.4800    -3.4160 H     1 <1>   0.0800 
 35 H       -0.1740     3.6760    -2.6650 H     1 <1>   0.0800 
 36 H       -5.4550    -0.5080     0.5680 H     1 <1>   0.0800 
 37 H       -6.6030     0.5130    -0.2280 H     1 <1>   0.0800 
 38 H       -4.6060     2.1910     0.0900 H     1 <1>   0.4500 
 39 H       -2.7450     4.1190     0.3380 H     1 <1>   0.1500 
 40 H        1.5960     1.4720    -1.9380 H     1 <1>   0.0800 
 41 H        0.7910    -0.0380    -1.5520 H     1 <1>   0.0800 
 42 H        2.2120     0.4490    -0.6700 H     1 <1>   0.0800 
 43 H       -4.6650    -3.5230     1.6710 H     1 <1>   0.1500 
 44 H       -2.4720    -3.0680     2.8610 H     1 <1>   0.2700 
 45 H       -0.1090    -0.9820     0.7540 H     1 <1>   0.0800 
 46 H       -0.0870    -2.1810     2.0040 H     1 <1>   0.0800 
 47 H       -0.7040    -0.5820     2.3460 H     1 <1>   0.0800 
 48 H       -4.4020     0.3930     2.4380 H     1 <1>   0.0800 
 49 H       -3.6490     1.9730     2.3230 H     1 <1>   0.0800 
 50 H       -3.1720     0.6960     1.2330 H     1 <1>   0.0800 
 51 H       -6.6620     1.6560     2.1710 H     1 <1>   0.0800 
 52 H       -6.8820     2.6400     0.7350 H     1 <1>   0.0800 
 53 H       -5.7700     3.1530     1.9850 H     1 <1>   0.0800 
 54 H        0.4180     2.4100     3.7320 H     1 <1>   0.1500 
 55 H       -2.9570     4.8220     2.6890 H     1 <1>   0.1500 
 56 H       -1.4110     3.9670     4.3880 H     1 <1>   0.1500 
@<TRIPOS>BOND
  1   1   2  2   
  2   2   3  am  
  3   2   4  1   
  4   3   5  1   
  5   3   6  1   
  6   4   7  1   
  7   4   8  1   
  8   4  28  1   
  9   5   9  1   
 10   5  29  1   
 11   5  30  1   
 12   6  10  1   
 13   6  31  1   
 14   6  32  1   
 15   7  11  1   
 16   7  12  1   
 17   8  33  1   
 18   8  34  1   
 19   8  35  1   
 20   9  13  1   
 21   9  14  2   
 22  10  15  1   
 23  10  36  1   
 24  10  37  1   
 25  11  16  ar  
 26  11  17  ar  
 27  12  18  2   
 28  12  19  1   
 29  13  20  2   
 30  14  21  1   
 31  14  22  1   
 32  15  23  1   
 33  15  24  1   
 34  15  38  1   
 35  16  18  1   
 36  16  25  ar  
 37  17  26  ar  
 38  17  39  1   
 39  19  40  1   
 40  19  41  1   
 41  19  42  1   
 42  20  21  1   
 43  20  43  1   
 44  21  44  1   
 45  22  45  1   
 46  22  46  1   
 47  22  47  1   
 48  23  48  1   
 49  23  49  1   
 50  23  50  1   
 51  24  51  1   
 52  24  52  1   
 53  24  53  1   
 54  25  27  ar  
 55  25  54  1   
 56  26  27  ar  
 57  26  55  1   
 58  27  56  1   
@<TRIPOS>SUBSTRUCTURE
  1 ****   3 GROUP 4 **** **** 0

# MOE 2024.06 (io_trps.svl 2023.06)
