@<TRIPOS>MOLECULE
NONAME
66 68 1 0 0 
SMALL
USER_CHARGES


@<TRIPOS>ATOM
  1 O        0.9410     5.3150     1.4380 O.2   1 <1>  -0.5700 
  2 C        0.4700     4.7870     0.4530 C.2   1 <1>   0.5690 
  3 N       -0.9030     4.6450     0.3720 N.am  1 <1>  -0.6600 
  4 C        1.4580     4.2880    -0.6560 C.3   1 <1>   0.3410 
  5 C       -1.7440     4.6910     1.5970 C.3   1 <1>   0.1400 
  6 C       -1.7300     4.6070    -0.8590 C.3   1 <1>   0.1400 
  7 O        2.7540     4.0230    -0.1130 O.3   1 <1>  -0.3630 
  8 C        1.7070     5.4190    -1.6660 C.3   1 <1>  -0.2400 
  9 C        1.0370     3.0120    -1.4250 C.3   1 <1>  -0.2400 
 10 C       -2.5970     3.4200     1.6570 C.3   1 <1>  -0.1600 
 11 C       -2.5720     3.3290    -0.8510 C.3   1 <1>  -0.1600 
 12 C        3.1030     2.9280     0.6210 C.ar  1 <1>   0.0830 
 13 C       -3.4720     3.2380     0.3940 C.3   1 <1>   0.2800 
 14 C        4.4050     2.4300     0.5020 C.ar  1 <1>  -0.1430 
 15 C        2.2030     2.3010     1.4810 C.ar  1 <1>  -0.1500 
 16 O       -4.3750     4.3050     0.2830 O.3   1 <1>  -0.5600 
 17 C       -4.2450     1.8990     0.3580 C.3   1 <1>  -0.1600 
 18 C        4.7530     1.3000     1.2310 C.ar  1 <1>  -0.1500 
 19 C        5.4840     3.0560    -0.3920 C.3   1 <1>   0.0630 
 20 C        2.5650     1.1780     2.2010 C.ar  1 <1>  -0.1430 
 21 C       -5.4480     4.3810     1.1750 C.3   1 <1>   0.1200 
 22 C       -5.5060     1.8530     1.2270 C.3   1 <1>   0.2800 
 23 C        3.8460     0.6760     2.0680 C.ar  1 <1>  -0.1500 
 24 C        5.8130     4.4970     0.0150 C.3   1 <1>  -0.2400 
 25 C        5.1270     2.9600    -1.8790 C.3   1 <1>  -0.2400 
 26 C        1.5680     0.5090     3.1290 C.3   1 <1>  -0.0970 
 27 C       -6.3210     3.1330     1.0450 C.3   1 <1>  -0.1600 
 28 O       -5.1330     1.7640     2.5450 O.3   1 <1>  -0.6800 
 29 C       -6.3420     0.6080     0.9410 C.3   1 <1>  -0.2400 
 30 H       -2.3740     5.5640     1.5650 H     1 <1>   0.0800 
 31 H       -1.1310     4.7520     2.4800 H     1 <1>   0.0800 
 32 H       -1.1310     4.6690    -1.7440 H     1 <1>   0.0800 
 33 H       -2.3840     5.4640    -0.8620 H     1 <1>   0.0800 
 34 H        2.1000     6.2780    -1.1510 H     1 <1>   0.0800 
 35 H        0.7940     5.7090    -2.1490 H     1 <1>   0.0800 
 36 H        2.4090     5.1070    -2.4170 H     1 <1>   0.0800 
 37 H        0.6390     2.2800    -0.7480 H     1 <1>   0.0800 
 38 H        1.8870     2.5920    -1.9320 H     1 <1>   0.0800 
 39 H        0.2950     3.2180    -2.1680 H     1 <1>   0.0800 
 40 H       -3.1860     3.4490     2.5500 H     1 <1>   0.0800 
 41 H       -1.9340     2.5790     1.7480 H     1 <1>   0.0800 
 42 H       -1.9150     2.4790    -0.8850 H     1 <1>   0.0800 
 43 H       -3.1810     3.3050    -1.7370 H     1 <1>   0.0800 
 44 H        1.2130     2.6840     1.6090 H     1 <1>   0.1500 
 45 H       -3.5920     1.0850     0.6170 H     1 <1>   0.0800 
 46 H       -4.5550     1.7310    -0.6570 H     1 <1>   0.0800 
 47 H        5.7440     0.8910     1.1540 H     1 <1>   0.1500 
 48 H        6.3910     2.4920    -0.2600 H     1 <1>   0.0800 
 49 H       -6.0180     5.2570     0.9190 H     1 <1>   0.0800 
 50 H       -5.0730     4.5040     2.1750 H     1 <1>   0.0800 
 51 H        4.1460    -0.1980     2.6180 H     1 <1>   0.1500 
 52 H        4.9860     5.1550    -0.1800 H     1 <1>   0.0800 
 53 H        6.6670     4.8530    -0.5330 H     1 <1>   0.0800 
 54 H        6.0360     4.5360     1.0660 H     1 <1>   0.0800 
 55 H        4.2820     3.5790    -2.1110 H     1 <1>   0.0800 
 56 H        4.8870     1.9430    -2.1320 H     1 <1>   0.0800 
 57 H        5.9580     3.2790    -2.4820 H     1 <1>   0.0800 
 58 H        0.9120     1.2430     3.5630 H     1 <1>   0.0800 
 59 H        2.0780    -0.0010     3.9260 H     1 <1>   0.0800 
 60 H        0.9800    -0.2030     2.5790 H     1 <1>   0.0800 
 61 H       -6.7630     3.1380     0.0640 H     1 <1>   0.0800 
 62 H       -7.1230     3.1640     1.7600 H     1 <1>   0.0800 
 63 H       -4.6140     2.5500     2.7840 H     1 <1>   0.4000 
 64 H       -6.6830     0.6120    -0.0780 H     1 <1>   0.0800 
 65 H       -7.2030     0.5820     1.5860 H     1 <1>   0.0800 
 66 H       -5.7570    -0.2790     1.1020 H     1 <1>   0.0800 
@<TRIPOS>BOND
  1   1   2  2   
  2   2   3  am  
  3   2   4  1   
  4   3   5  1   
  5   3   6  1   
  6   4   7  1   
  7   4   8  1   
  8   4   9  1   
  9   5  10  1   
 10   5  30  1   
 11   5  31  1   
 12   6  11  1   
 13   6  32  1   
 14   6  33  1   
 15   7  12  1   
 16   8  34  1   
 17   8  35  1   
 18   8  36  1   
 19   9  37  1   
 20   9  38  1   
 21   9  39  1   
 22  10  13  1   
 23  10  40  1   
 24  10  41  1   
 25  11  13  1   
 26  11  42  1   
 27  11  43  1   
 28  12  14  ar  
 29  12  15  ar  
 30  13  16  1   
 31  13  17  1   
 32  14  18  ar  
 33  14  19  1   
 34  15  20  ar  
 35  15  44  1   
 36  16  21  1   
 37  17  22  1   
 38  17  45  1   
 39  17  46  1   
 40  18  23  ar  
 41  18  47  1   
 42  19  24  1   
 43  19  25  1   
 44  19  48  1   
 45  20  23  ar  
 46  20  26  1   
 47  21  27  1   
 48  21  49  1   
 49  21  50  1   
 50  22  27  1   
 51  22  28  1   
 52  22  29  1   
 53  23  51  1   
 54  24  52  1   
 55  24  53  1   
 56  24  54  1   
 57  25  55  1   
 58  25  56  1   
 59  25  57  1   
 60  26  58  1   
 61  26  59  1   
 62  26  60  1   
 63  27  61  1   
 64  27  62  1   
 65  28  63  1   
 66  29  64  1   
 67  29  65  1   
 68  29  66  1   
@<TRIPOS>SUBSTRUCTURE
  1 ****   3 GROUP 4 **** **** 0

# MOE 2024.06 (io_trps.svl 2023.06)
