@<TRIPOS>MOLECULE
NONAME
47 49 1 0 0 
SMALL
USER_CHARGES


@<TRIPOS>ATOM
  1 O        0.6220    -0.1490    -0.6900 O.2   1 <1>  -0.5700 
  2 C        1.3370    -1.0250    -0.2670 C.2   1 <1>   0.5690 
  3 N        0.9840    -1.8650     0.7520 N.am  1 <1>  -0.6600 
  4 C        2.7020    -1.2330    -0.8920 C.3   1 <1>  -0.0990 
  5 C        1.9190    -2.9280     1.1930 C.3   1 <1>   0.1400 
  6 C       -0.2820    -1.7150     1.5160 C.3   1 <1>   0.0600 
  7 C        2.9420    -2.7290    -1.1810 C.3   1 <1>  -0.0800 
  8 C        2.4700    -3.6670    -0.0440 C.3   1 <1>  -0.0800 
  9 C        4.4140    -3.0530    -1.4530 C.3   1 <1>  -0.1600 
 10 C        3.6500    -4.5930     0.2910 C.3   1 <1>  -0.1600 
 11 C        4.6250    -4.4500    -0.8810 C.3   1 <1>   0.4230 
 12 N        6.0700    -4.7500    -0.5950 N.4   1 <1>  -0.9590 
 13 C        6.6190    -4.3390     0.7530 C.3   1 <1>   0.5230 
 14 C        6.3130    -6.2100    -0.8030 C.3   1 <1>   0.2630 
 15 C        6.5840    -2.8410     0.9960 C.2   1 <1>   0.0060 
 16 N        5.6270    -2.2570     1.6280 N.2   1 <1>  -0.3380 
 17 N        7.5090    -1.9590     0.6000 N.pl3 1 <1>   0.0330 
 18 N        5.8980    -0.9560     1.6360 N.2   1 <1>  -0.3380 
 19 C        7.0190    -0.7950     1.0250 C.2   1 <1>   0.0060 
 20 C        7.7010     0.5460     0.8120 C.3   1 <1>   0.0200 
 21 C        7.7410     0.9250    -0.6710 C.3   1 <1>  -0.2400 
 22 H        2.7740    -0.6590    -1.7980 H     1 <1>   0.0800 
 23 H        3.4300    -0.8560    -0.1960 H     1 <1>   0.0800 
 24 H        2.7210    -2.4660     1.7460 H     1 <1>   0.0800 
 25 H        1.4130    -3.6220     1.8430 H     1 <1>   0.0800 
 26 H       -0.8670    -2.6140     1.4330 H     1 <1>   0.0800 
 27 H       -0.8590    -0.8920     1.1300 H     1 <1>   0.0800 
 28 H       -0.0610    -1.5240     2.5520 H     1 <1>   0.0800 
 29 H        2.3670    -2.9830    -2.0580 H     1 <1>   0.0800 
 30 H        1.6670    -4.2720    -0.4320 H     1 <1>   0.0800 
 31 H        5.0320    -2.3240    -0.9690 H     1 <1>   0.0800 
 32 H        4.6140    -3.0290    -2.5090 H     1 <1>   0.0800 
 33 H        3.3140    -5.6100     0.3880 H     1 <1>   0.0800 
 34 H        4.0750    -4.2810     1.2240 H     1 <1>   0.0800 
 35 H        4.2820    -5.1280    -1.6460 H     1 <1>   0.0800 
 36 H        6.5970    -4.2310    -1.3060 H     1 <1>   0.4500 
 37 H        6.0530    -4.8200     1.5330 H     1 <1>   0.0800 
 38 H        7.6390    -4.6750     0.8450 H     1 <1>   0.0800 
 39 H        5.7560    -6.7890    -0.0830 H     1 <1>   0.0800 
 40 H        7.3610    -6.4400    -0.6930 H     1 <1>   0.0800 
 41 H        6.0030    -6.5050    -1.7920 H     1 <1>   0.0800 
 42 H        8.3900    -2.0940     0.0990 H     1 <1>   0.2700 
 43 H        7.1570     1.3010     1.3540 H     1 <1>   0.0800 
 44 H        8.6990     0.5120     1.2130 H     1 <1>   0.0800 
 45 H        6.7410     0.9580    -1.0690 H     1 <1>   0.0800 
 46 H        8.3200     0.2170    -1.2360 H     1 <1>   0.0800 
 47 H        8.1840     1.8990    -0.7870 H     1 <1>   0.0800 
@<TRIPOS>BOND
  1   1   2  2   
  2   2   3  am  
  3   2   4  1   
  4   3   5  1   
  5   3   6  1   
  6   4   7  1   
  7   4  22  1   
  8   4  23  1   
  9   5   8  1   
 10   5  24  1   
 11   5  25  1   
 12   6  26  1   
 13   6  27  1   
 14   6  28  1   
 15   7   8  1   
 16   7   9  1   
 17   7  29  1   
 18   8  10  1   
 19   8  30  1   
 20   9  11  1   
 21   9  31  1   
 22   9  32  1   
 23  10  11  1   
 24  10  33  1   
 25  10  34  1   
 26  11  12  1   
 27  11  35  1   
 28  12  13  1   
 29  12  14  1   
 30  12  36  1   
 31  13  15  1   
 32  13  37  1   
 33  13  38  1   
 34  14  39  1   
 35  14  40  1   
 36  14  41  1   
 37  15  16  2   
 38  15  17  1   
 39  16  18  1   
 40  17  19  1   
 41  17  42  1   
 42  18  19  2   
 43  19  20  1   
 44  20  21  1   
 45  20  43  1   
 46  20  44  1   
 47  21  45  1   
 48  21  46  1   
 49  21  47  1   
@<TRIPOS>SUBSTRUCTURE
  1 ****   9 GROUP 4 **** **** 0

# MOE 2024.06 (io_trps.svl 2023.06)
