@<TRIPOS>MOLECULE
NONAME
51 54 1 0 0 
SMALL
USER_CHARGES


@<TRIPOS>ATOM
  1 S       -0.9190     0.0460     0.0420 S.3   1 <1>  -0.4600 
  2 C       -0.7960    -1.6320     0.6850 C.3   1 <1>   0.1500 
  3 C        0.8210     0.2290    -0.3750 C.3   1 <1>   0.0700 
  4 C        0.3660    -2.2760    -0.1100 C.3   1 <1>   0.2200 
  5 C       -2.1700    -2.3210     0.5810 C.3   1 <1>  -0.1600 
  6 C        1.3120    -1.1890    -0.7030 C.3   1 <1>   0.2200 
  7 N       -0.0870    -3.0030    -1.3210 N.am  1 <1>  -0.7300 
  8 C       -3.2100    -1.7190     1.5380 C.3   1 <1>  -0.1600 
  9 N        1.2350    -1.4430    -2.1580 N.am  1 <1>  -0.7300 
 10 C        0.3480    -2.4040    -2.4330 C.2   1 <1>   0.6900 
 11 C       -4.5660    -2.4190     1.3820 C.3   1 <1>  -0.1600 
 12 O       -0.0920    -2.6280    -3.5370 O.2   1 <1>  -0.5700 
 13 C       -5.6290    -1.7960     2.3020 C.3   1 <1>  -0.0990 
 14 C       -6.9900    -2.4400     2.1220 C.2   1 <1>   0.5690 
 15 O       -7.4110    -3.1540     2.9970 O.2   1 <1>  -0.5700 
 16 N       -7.6560    -2.1760     0.9560 N.am  1 <1>  -0.5470 
 17 C       -8.8990    -2.6020     0.4750 C.ar  1 <1>   0.1170 
 18 C       -9.1730    -2.4610    -0.8770 C.ar  1 <1>  -0.1500 
 19 C       -9.8890    -3.1550     1.2860 C.ar  1 <1>  -0.1500 
 20 C      -10.3870    -2.8610    -1.4060 C.ar  1 <1>   0.0820 
 21 C      -11.1010    -3.5570     0.7650 C.ar  1 <1>  -0.1500 
 22 O      -10.5880    -2.6960    -2.7340 O.3   1 <1>  -0.2320 
 23 C      -11.3870    -3.4230    -0.5960 C.ar  1 <1>   0.0280 
 24 C      -11.7230    -3.0510    -3.3410 C.2   1 <1>   0.7060 
 25 C      -12.6200    -3.8170    -1.2170 C.2   1 <1>  -0.1670 
 26 O      -11.8210    -2.8680    -4.5370 O.2   1 <1>  -0.5700 
 27 C      -12.7590    -3.6270    -2.5490 C.2   1 <1>  -0.1360 
 28 C      -13.7360    -4.4330    -0.3850 C.3   1 <1>  -0.1020 
 29 H       -0.5040    -1.5280     1.7150 H     1 <1>   0.0800 
 30 H        0.9130     0.9160    -1.1970 H     1 <1>   0.0800 
 31 H        1.3070     0.6170     0.5030 H     1 <1>   0.0800 
 32 H        0.9120    -2.9530     0.5230 H     1 <1>   0.0800 
 33 H       -2.5300    -2.2400    -0.4310 H     1 <1>   0.0800 
 34 H       -2.0510    -3.3660     0.8120 H     1 <1>   0.0800 
 35 H        2.3250    -1.3270    -0.3670 H     1 <1>   0.0800 
 36 H       -0.9980    -3.4560    -1.3580 H     1 <1>   0.3700 
 37 H       -2.8680    -1.8170     2.5540 H     1 <1>   0.0800 
 38 H       -3.3310    -0.6690     1.3280 H     1 <1>   0.0800 
 39 H        1.3480    -0.6980    -2.8440 H     1 <1>   0.3700 
 40 H       -4.4640    -3.4650     1.6210 H     1 <1>   0.0800 
 41 H       -4.8860    -2.3440     0.3570 H     1 <1>   0.0800 
 42 H       -5.7170    -0.7430     2.1080 H     1 <1>   0.0800 
 43 H       -5.3280    -1.9150     3.3280 H     1 <1>   0.0800 
 44 H       -7.1270    -1.6010     0.3030 H     1 <1>   0.3700 
 45 H       -8.4370    -2.0390    -1.5350 H     1 <1>   0.1500 
 46 H       -9.7130    -3.2710     2.3400 H     1 <1>   0.1500 
 47 H      -11.8320    -3.9800     1.4290 H     1 <1>   0.1500 
 48 H      -13.6490    -3.8940    -3.0850 H     1 <1>   0.1500 
 49 H      -13.3920    -5.3390     0.0820 H     1 <1>   0.0800 
 50 H      -14.5860    -4.6710    -0.9980 H     1 <1>   0.0800 
 51 H      -14.0520    -3.7430     0.3780 H     1 <1>   0.0800 
@<TRIPOS>BOND
  1   1   2  1   
  2   1   3  1   
  3   2   4  1   
  4   2   5  1   
  5   2  29  1   
  6   3   6  1   
  7   3  30  1   
  8   3  31  1   
  9   4   6  1   
 10   4   7  1   
 11   4  32  1   
 12   5   8  1   
 13   5  33  1   
 14   5  34  1   
 15   6   9  1   
 16   6  35  1   
 17   7  10  am  
 18   7  36  1   
 19   8  11  1   
 20   8  37  1   
 21   8  38  1   
 22   9  10  am  
 23   9  39  1   
 24  10  12  2   
 25  11  13  1   
 26  11  40  1   
 27  11  41  1   
 28  13  14  1   
 29  13  42  1   
 30  13  43  1   
 31  14  15  2   
 32  14  16  am  
 33  16  17  1   
 34  16  44  1   
 35  17  18  ar  
 36  17  19  ar  
 37  18  20  ar  
 38  18  45  1   
 39  19  21  ar  
 40  19  46  1   
 41  20  22  1   
 42  20  23  ar  
 43  21  23  ar  
 44  21  47  1   
 45  22  24  1   
 46  23  25  1   
 47  24  26  2   
 48  24  27  1   
 49  25  27  2   
 50  25  28  1   
 51  27  48  1   
 52  28  49  1   
 53  28  50  1   
 54  28  51  1   
@<TRIPOS>SUBSTRUCTURE
  1 ****  16 GROUP 4 **** **** 0

# MOE 2024.06 (io_trps.svl 2023.06)
