@<TRIPOS>MOLECULE
NONAME
46 48 1 0 0 
SMALL
USER_CHARGES


@<TRIPOS>ATOM
  1 O        1.3440    -0.4230    -2.7490 O.2   1 <1>  -0.5700 
  2 C        1.6060    -0.6040    -1.5860 C.2   1 <1>   0.5690 
  3 N        1.8910     0.4100    -0.7340 N.am  1 <1>  -0.7300 
  4 C        1.6020    -2.0190    -1.0470 C.3   1 <1>  -0.0990 
  5 C        1.9060     1.8370    -1.0900 C.3   1 <1>   0.2200 
  6 C        0.2990    -2.3290    -0.2910 C.3   1 <1>  -0.1600 
  7 C        3.2910     2.4080    -0.7740 C.3   1 <1>  -0.1600 
  8 C        0.8040     2.5530    -0.3050 C.3   1 <1>  -0.1600 
  9 C        0.2730    -3.7770     0.2160 C.3   1 <1>   0.0960 
 10 C        3.3110     3.9190    -0.9980 C.3   1 <1>   0.2090 
 11 C        0.8720     4.0630    -0.5300 C.3   1 <1>   0.2090 
 12 N       -0.9460    -4.0290     1.0060 N.pl3 1 <1>   0.3140 
 13 N        2.2360     4.5250    -0.1770 N.pl3 1 <1>  -0.8380 
 14 N       -1.0420    -3.7230     2.2920 N.2   1 <1>  -0.7070 
 15 C       -2.1020    -4.5670     0.6080 C.2   1 <1>   0.0360 
 16 C        2.4130     5.8010     0.3230 C.ar  1 <1>   0.4100 
 17 C       -2.2450    -4.0990     2.5770 C.2   1 <1>   0.3660 
 18 N       -2.9500    -4.6300     1.5700 N.2   1 <1>  -0.5650 
 19 N        1.7710     6.7630    -0.3340 N.ar  1 <1>  -0.6200 
 20 C        3.2220     6.0320     1.4460 C.ar  1 <1>   0.0730 
 21 C        1.9320     7.9920     0.1190 C.ar  1 <1>   0.1600 
 22 C        3.8720     4.9480     2.1150 C.1   1 <1>   0.4840 
 23 C        3.3710     7.3310     1.8970 C.ar  1 <1>  -0.1500 
 24 C        2.7090     8.3280     1.2130 C.ar  1 <1>  -0.1500 
 25 N        4.4190     4.1050     2.6570 N.1   1 <1>  -0.5570 
 26 H        2.0920     0.2140     0.2470 H     1 <1>   0.3700 
 27 H        2.4490    -2.1460    -0.3970 H     1 <1>   0.0800 
 28 H        1.7140    -2.6950    -1.8750 H     1 <1>   0.0800 
 29 H        1.7140     1.9510    -2.1450 H     1 <1>   0.0800 
 30 H       -0.5370    -2.1640    -0.9510 H     1 <1>   0.0800 
 31 H        0.2070    -1.6580     0.5470 H     1 <1>   0.0800 
 32 H        4.0240     1.9470    -1.4110 H     1 <1>   0.0800 
 33 H        3.5510     2.2120     0.2510 H     1 <1>   0.0800 
 34 H        0.9130     2.3610     0.7470 H     1 <1>   0.0800 
 35 H       -0.1570     2.1920    -0.6240 H     1 <1>   0.0800 
 36 H        1.1220    -3.9630     0.8500 H     1 <1>   0.0800 
 37 H        0.3010    -4.4660    -0.6090 H     1 <1>   0.0800 
 38 H        3.1380     4.1470    -2.0360 H     1 <1>   0.0800 
 39 H        4.2690     4.3220    -0.7160 H     1 <1>   0.0800 
 40 H        0.1440     4.5630     0.0880 H     1 <1>   0.0800 
 41 H        0.6670     4.3040    -1.5590 H     1 <1>   0.0800 
 42 H       -2.2810    -4.8990    -0.3990 H     1 <1>   0.1500 
 43 H       -2.6790    -4.0010     3.5600 H     1 <1>   0.1500 
 44 H        1.4160     8.7750    -0.4100 H     1 <1>   0.1500 
 45 H        3.9820     7.5580     2.7540 H     1 <1>   0.1500 
 46 H        2.7910     9.3550     1.5220 H     1 <1>   0.1500 
@<TRIPOS>BOND
  1   1   2  2   
  2   2   3  am  
  3   2   4  1   
  4   3   5  1   
  5   3  26  1   
  6   4   6  1   
  7   4  27  1   
  8   4  28  1   
  9   5   7  1   
 10   5   8  1   
 11   5  29  1   
 12   6   9  1   
 13   6  30  1   
 14   6  31  1   
 15   7  10  1   
 16   7  32  1   
 17   7  33  1   
 18   8  11  1   
 19   8  34  1   
 20   8  35  1   
 21   9  12  1   
 22   9  36  1   
 23   9  37  1   
 24  10  13  1   
 25  10  38  1   
 26  10  39  1   
 27  11  13  1   
 28  11  40  1   
 29  11  41  1   
 30  12  14  1   
 31  12  15  1   
 32  13  16  1   
 33  14  17  2   
 34  15  18  2   
 35  15  42  1   
 36  16  19  ar  
 37  16  20  ar  
 38  17  18  1   
 39  17  43  1   
 40  19  21  ar  
 41  20  22  1   
 42  20  23  ar  
 43  21  24  ar  
 44  21  44  1   
 45  22  25  3   
 46  23  24  ar  
 47  23  45  1   
 48  24  46  1   
@<TRIPOS>SUBSTRUCTURE
  1 ****   8 GROUP 4 **** **** 0

# MOE 2024.06 (io_trps.svl 2023.06)
