@<TRIPOS>MOLECULE
NONAME
40 42 1 0 0 
SMALL
USER_CHARGES


@<TRIPOS>ATOM
  1 CL       0.8170    -3.3200     2.4640 Cl    1 <1>  -0.1240 
  2 C       -0.3910    -3.4070     1.2130 C.2   1 <1>   0.1640 
  3 S       -1.9740    -2.7720     1.6030 S.3   1 <1>  -0.0800 
  4 C       -0.3370    -3.8890    -0.0390 C.2   1 <1>  -0.1500 
  5 C       -2.5760    -3.1860    -0.0060 C.2   1 <1>  -0.0220 
  6 C       -1.5860    -3.7610    -0.7270 C.2   1 <1>  -0.1500 
  7 S       -4.3040    -2.8070    -0.3960 S.o2  1 <1>   1.5000 
  8 O       -4.4120    -2.5480    -1.8160 O.2   1 <1>  -0.6500 
  9 O       -4.8000    -1.8020     0.5210 O.2   1 <1>  -0.6500 
 10 N       -5.1690    -4.2320    -0.0840 N.am  1 <1>  -0.8490 
 11 C       -4.7980    -5.3390    -0.9890 C.3   1 <1>   0.1960 
 12 C       -6.6150    -3.9610    -0.1730 C.3   1 <1>   0.1960 
 13 C       -5.4480    -6.6910    -0.5960 C.3   1 <1>  -0.1060 
 14 C       -7.4790    -5.2300    -0.1650 C.3   1 <1>  -0.1600 
 15 C       -5.8170    -7.3510    -1.9300 C.2   1 <1>   0.9060 
 16 C       -6.6760    -6.4310     0.3180 C.3   1 <1>   0.2000 
 17 C       -4.4490    -7.6470     0.1130 C.3   1 <1>  -0.0650 
 18 O       -4.9580    -7.3820    -2.8200 O.co2 1 <1>  -0.9000 
 19 O       -6.9410    -7.8420    -2.1110 O.co2 1 <1>  -0.9000 
 20 O       -7.5120    -7.5260     0.3650 O.3   1 <1>  -0.6800 
 21 C       -3.7530    -7.1050     1.3730 C.3   1 <1>  -0.1950 
 22 C       -2.3760    -6.5260     1.3170 C.3   1 <1>  -0.2000 
 23 C       -2.6000    -7.8690     1.9430 C.3   1 <1>  -0.2000 
 24 H        0.5260    -4.3310    -0.5040 H     1 <1>   0.1500 
 25 H       -1.6930    -4.1080    -1.7420 H     1 <1>   0.1500 
 26 H       -5.1000    -5.0660    -1.9890 H     1 <1>   0.0800 
 27 H       -3.7310    -5.4670    -1.0130 H     1 <1>   0.0800 
 28 H       -6.8950    -3.3450     0.6650 H     1 <1>   0.0800 
 29 H       -6.8310    -3.4070    -1.0730 H     1 <1>   0.0800 
 30 H       -7.8360    -5.4170    -1.1630 H     1 <1>   0.0800 
 31 H       -8.3300    -5.0770     0.4720 H     1 <1>   0.0800 
 32 H       -6.3640    -6.2330     1.3270 H     1 <1>   0.0800 
 33 H       -4.9830    -8.5420     0.3840 H     1 <1>   0.0800 
 34 H       -3.6930    -7.9470    -0.5930 H     1 <1>   0.0800 
 35 H       -7.5600    -7.8590    -0.5830 H     1 <1>   0.4000 
 36 H       -4.4360    -6.6920     2.0930 H     1 <1>   0.1000 
 37 H       -1.8640    -6.4820     0.3720 H     1 <1>   0.1000 
 38 H       -2.1400    -5.6980     1.9600 H     1 <1>   0.1000 
 39 H       -2.5280    -7.9640     3.0120 H     1 <1>   0.1000 
 40 H       -2.2500    -8.7450     1.4250 H     1 <1>   0.1000 
@<TRIPOS>BOND
  1   1   2  1   
  2   2   3  1   
  3   2   4  2   
  4   3   5  1   
  5   4   6  1   
  6   4  24  1   
  7   5   6  2   
  8   5   7  1   
  9   6  25  1   
 10   7   8  2   
 11   7   9  2   
 12   7  10  am  
 13  10  11  1   
 14  10  12  1   
 15  11  13  1   
 16  11  26  1   
 17  11  27  1   
 18  12  14  1   
 19  12  28  1   
 20  12  29  1   
 21  13  15  1   
 22  13  16  1   
 23  13  17  1   
 24  14  16  1   
 25  14  30  1   
 26  14  31  1   
 27  15  18  ar  
 28  15  19  ar  
 29  16  20  1   
 30  16  32  1   
 31  17  21  1   
 32  17  33  1   
 33  17  34  1   
 34  20  35  1   
 35  21  22  1   
 36  21  23  1   
 37  21  36  1   
 38  22  23  1   
 39  22  37  1   
 40  22  38  1   
 41  23  39  1   
 42  23  40  1   
@<TRIPOS>SUBSTRUCTURE
  1 ****  11 GROUP 4 **** **** 0

# MOE 2024.06 (io_trps.svl 2023.06)
