@<TRIPOS>MOLECULE
NONAME
46 48 1 0 0 
SMALL
USER_CHARGES


@<TRIPOS>ATOM
  1 S        2.9750     1.5260     0.1970 S.o2  1 <1>   1.0900 
  2 O        4.0420     1.2570     1.1320 O.2   1 <1>  -0.6500 
  3 O        2.1400     0.4730    -0.3310 O.2   1 <1>  -0.6500 
  4 C        1.9210     2.7990     0.8320 C.3   1 <1>  -0.0550 
  5 C        3.5740     2.5020    -1.1690 C.3   1 <1>  -0.0550 
  6 C        1.4860     3.6250    -0.3790 C.3   1 <1>   0.1900 
  7 C        2.7590     3.8050    -1.2300 C.3   1 <1>  -0.1600 
  8 N        0.9350     4.9360     0.0220 N.3   1 <1>  -0.8100 
  9 C        0.4260     5.7330    -1.1480 C.3   1 <1>   0.1710 
 10 C       -0.1490     4.8190     1.0200 C.3   1 <1>   0.0300 
 11 C        0.3570     7.2440    -0.8960 C.2   1 <1>   0.5690 
 12 O       -0.3330     7.9390    -1.6020 O.2   1 <1>  -0.5700 
 13 N        1.1000     7.7600     0.1100 N.am  1 <1>  -0.7300 
 14 C        1.2790     9.1880     0.4170 C.3   1 <1>   0.3200 
 15 C        2.7590     9.4730     0.5650 C.2   1 <1>  -0.0400 
 16 O        3.4290     8.9290     1.5420 O.3   1 <1>  -0.0190 
 17 C        3.6110    10.2220    -0.1460 C.2   1 <1>  -0.1500 
 18 N        4.6820     9.2710     1.5230 N.2   1 <1>  -0.4100 
 19 C        4.8410    10.0620     0.5040 C.2   1 <1>   0.2350 
 20 C        6.0960    10.6780     0.1140 C.ar  1 <1>   0.0540 
 21 C        6.3180    11.1420    -1.1840 C.ar  1 <1>  -0.1500 
 22 C        7.1350    10.8280     1.0330 C.ar  1 <1>  -0.1500 
 23 C        7.5150    11.7350    -1.5440 C.ar  1 <1>  -0.1500 
 24 C        8.3340    11.4190     0.6800 C.ar  1 <1>  -0.1500 
 25 C        8.5260    11.8760    -0.6110 C.ar  1 <1>  -0.1500 
 26 H        2.4780     3.4250     1.5030 H     1 <1>   0.0800 
 27 H        1.0810     2.3730     1.3440 H     1 <1>   0.0800 
 28 H        3.4530     1.9500    -2.0820 H     1 <1>   0.0800 
 29 H        4.6160     2.7280    -1.0440 H     1 <1>   0.0800 
 30 H        0.7510     3.0670    -0.9380 H     1 <1>   0.0800 
 31 H        2.5250     4.0360    -2.2540 H     1 <1>   0.0800 
 32 H        3.3510     4.6020    -0.8130 H     1 <1>   0.0800 
 33 H       -0.5520     5.3860    -1.4320 H     1 <1>   0.0800 
 34 H        1.0680     5.6090    -1.9980 H     1 <1>   0.0800 
 35 H        0.2310     4.4370     1.9510 H     1 <1>   0.0800 
 36 H       -0.9260     4.1640     0.6600 H     1 <1>   0.0800 
 37 H       -0.5810     5.7850     1.2220 H     1 <1>   0.0800 
 38 H        1.6580     7.0980     0.6600 H     1 <1>   0.3700 
 39 H        0.7680     9.4250     1.3340 H     1 <1>   0.0800 
 40 H        0.8660     9.7900    -0.3740 H     1 <1>   0.0800 
 41 H        3.4230    10.8200    -1.0170 H     1 <1>   0.1500 
 42 H        5.5510    11.0340    -1.9280 H     1 <1>   0.1500 
 43 H        6.9970    10.4750     2.0400 H     1 <1>   0.1500 
 44 H        7.6630    12.0860    -2.5500 H     1 <1>   0.1500 
 45 H        9.1180    11.5240     1.4100 H     1 <1>   0.1500 
 46 H        9.4590    12.3370    -0.8890 H     1 <1>   0.1500 
@<TRIPOS>BOND
  1   1   2  2   
  2   1   3  2   
  3   1   4  1   
  4   1   5  1   
  5   4   6  1   
  6   4  26  1   
  7   4  27  1   
  8   5   7  1   
  9   5  28  1   
 10   5  29  1   
 11   6   7  1   
 12   6   8  1   
 13   6  30  1   
 14   7  31  1   
 15   7  32  1   
 16   8   9  1   
 17   8  10  1   
 18   9  11  1   
 19   9  33  1   
 20   9  34  1   
 21  10  35  1   
 22  10  36  1   
 23  10  37  1   
 24  11  12  2   
 25  11  13  am  
 26  13  14  1   
 27  13  38  1   
 28  14  15  1   
 29  14  39  1   
 30  14  40  1   
 31  15  16  1   
 32  15  17  2   
 33  16  18  1   
 34  17  19  1   
 35  17  41  1   
 36  18  19  2   
 37  19  20  1   
 38  20  21  ar  
 39  20  22  ar  
 40  21  23  ar  
 41  21  42  1   
 42  22  24  ar  
 43  22  43  1   
 44  23  25  ar  
 45  23  44  1   
 46  24  25  ar  
 47  24  45  1   
 48  25  46  1   
@<TRIPOS>SUBSTRUCTURE
  1 ****  16 GROUP 4 **** **** 0

# MOE 2024.06 (io_trps.svl 2023.06)
