@<TRIPOS>MOLECULE
NONAME
53 55 1 0 0 
SMALL
USER_CHARGES


@<TRIPOS>ATOM
  1 O       -0.5530    -0.7960     0.3240 O.2   1 <1>  -0.5700 
  2 C       -1.1720     0.1190    -0.1710 C.2   1 <1>   0.5690 
  3 N       -2.5300     0.2590     0.0360 N.am  1 <1>  -0.6600 
  4 C       -0.3610     1.0880    -1.0280 C.3   1 <1>   0.0820 
  5 C       -3.3370     1.3730    -0.5530 C.3   1 <1>   0.2200 
  6 C       -3.2400    -0.7340     0.9030 C.3   1 <1>   0.0600 
  7 C       -0.3590     2.5180    -0.4970 C.2   1 <1>  -0.1810 
  8 C       -3.7250     2.4290     0.4750 C.3   1 <1>  -0.1600 
  9 C       -4.6750     0.9530    -1.1570 C.3   1 <1>  -0.1600 
 10 C       -0.6520     3.6720    -1.1200 C.2   1 <1>  -0.0400 
 11 C       -0.0470     2.9270     0.8010 C.2   1 <1>   0.1080 
 12 C       -4.8550     3.2150    -0.2040 C.3   1 <1>  -0.0800 
 13 C       -5.4780     2.2610    -1.2390 C.3   1 <1>  -0.0800 
 14 O       -0.5320     4.6390    -0.2520 O.3   1 <1>  -0.0190 
 15 C       -1.0650     4.0090    -2.5380 C.3   1 <1>  -0.0600 
 16 N       -0.1690     4.2000     0.9170 N.2   1 <1>  -0.4100 
 17 C        0.3740     2.0250     1.9430 C.3   1 <1>  -0.0590 
 18 C       -5.9800     3.6260     0.7520 C.3   1 <1>  -0.1600 
 19 C       -6.9570     2.1110    -0.8580 C.3   1 <1>  -0.1600 
 20 C       -7.0220     2.5170     0.6120 C.3   1 <1>   0.4230 
 21 N       -8.4000     2.8930     1.0580 N.4   1 <1>  -0.9590 
 22 C       -8.9870     4.0990     0.3840 C.3   1 <1>   0.2630 
 23 C       -8.4390     3.0710     2.5430 C.3   1 <1>   0.2630 
 24 H        0.6550     0.7420    -1.0650 H     1 <1>   0.0800 
 25 H       -0.7420     1.0580    -2.0300 H     1 <1>   0.0800 
 26 H       -2.7820     1.8580    -1.3350 H     1 <1>   0.0800 
 27 H       -3.9800    -0.2500     1.5120 H     1 <1>   0.0800 
 28 H       -2.5480    -1.2330     1.5600 H     1 <1>   0.0800 
 29 H       -3.7150    -1.4770     0.2860 H     1 <1>   0.0800 
 30 H       -4.0750     1.9580     1.3740 H     1 <1>   0.0800 
 31 H       -2.8980     3.0720     0.7150 H     1 <1>   0.0800 
 32 H       -4.5390     0.5110    -2.1280 H     1 <1>   0.0800 
 33 H       -5.1800     0.2550    -0.5160 H     1 <1>   0.0800 
 34 H       -4.4380     4.0790    -0.6970 H     1 <1>   0.0800 
 35 H       -5.3820     2.6790    -2.2290 H     1 <1>   0.0800 
 36 H       -1.1160     3.1240    -3.1440 H     1 <1>   0.0800 
 37 H       -0.3480     4.6840    -2.9700 H     1 <1>   0.0800 
 38 H       -2.0280     4.4860    -2.5320 H     1 <1>   0.0800 
 39 H        1.1090     1.3170     1.6060 H     1 <1>   0.0800 
 40 H       -0.4800     1.4920     2.3200 H     1 <1>   0.0800 
 41 H        0.7970     2.6110     2.7380 H     1 <1>   0.0800 
 42 H       -6.3680     4.5690     0.4150 H     1 <1>   0.0800 
 43 H       -5.6260     3.7280     1.7630 H     1 <1>   0.0800 
 44 H       -7.3140     1.1080    -1.0140 H     1 <1>   0.0800 
 45 H       -7.5240     2.7860    -1.4710 H     1 <1>   0.0800 
 46 H       -6.6790     1.6740     1.1930 H     1 <1>   0.0800 
 47 H       -9.0020     2.0900     0.8260 H     1 <1>   0.4500 
 48 H       -8.4090     4.9790     0.6110 H     1 <1>   0.0800 
 49 H       -9.9980     4.2590     0.7230 H     1 <1>   0.0800 
 50 H       -9.0070     3.9660    -0.6850 H     1 <1>   0.0800 
 51 H       -7.8260     3.9080     2.8360 H     1 <1>   0.0800 
 52 H       -8.0710     2.1860     3.0370 H     1 <1>   0.0800 
 53 H       -9.4490     3.2530     2.8730 H     1 <1>   0.0800 
@<TRIPOS>BOND
  1   1   2  2   
  2   2   3  am  
  3   2   4  1   
  4   3   5  1   
  5   3   6  1   
  6   4   7  1   
  7   4  24  1   
  8   4  25  1   
  9   5   8  1   
 10   5   9  1   
 11   5  26  1   
 12   6  27  1   
 13   6  28  1   
 14   6  29  1   
 15   7  10  2   
 16   7  11  1   
 17   8  12  1   
 18   8  30  1   
 19   8  31  1   
 20   9  13  1   
 21   9  32  1   
 22   9  33  1   
 23  10  14  1   
 24  10  15  1   
 25  11  16  2   
 26  11  17  1   
 27  12  13  1   
 28  12  18  1   
 29  12  34  1   
 30  13  19  1   
 31  13  35  1   
 32  14  16  1   
 33  15  36  1   
 34  15  37  1   
 35  15  38  1   
 36  17  39  1   
 37  17  40  1   
 38  17  41  1   
 39  18  20  1   
 40  18  42  1   
 41  18  43  1   
 42  19  20  1   
 43  19  44  1   
 44  19  45  1   
 45  20  21  1   
 46  20  46  1   
 47  21  22  1   
 48  21  23  1   
 49  21  47  1   
 50  22  48  1   
 51  22  49  1   
 52  22  50  1   
 53  23  51  1   
 54  23  52  1   
 55  23  53  1   
@<TRIPOS>SUBSTRUCTURE
  1 ****   8 GROUP 4 **** **** 0

# MOE 2024.06 (io_trps.svl 2023.06)
