@<TRIPOS>MOLECULE
NONAME
55 57 1 0 0 
SMALL
USER_CHARGES


@<TRIPOS>ATOM
  1 F        1.0640    -1.0790     1.7700 F     1 <1>  -0.3400 
  2 C        1.6650    -0.7410     0.6320 C.3   1 <1>   1.1640 
  3 F        0.7880    -0.9810    -0.3380 F     1 <1>  -0.3400 
  4 F        1.7940     0.5840     0.6760 F     1 <1>  -0.3400 
  5 C        3.0170    -1.4740     0.4220 C.ar  1 <1>   0.1660 
  6 N        3.0290    -2.7950     0.2940 N.ar  1 <1>  -0.6200 
  7 C        4.1960    -0.7690     0.3710 C.ar  1 <1>  -0.1500 
  8 C        4.2130    -3.3720     0.1260 C.ar  1 <1>   0.7200 
  9 C        5.3770    -1.4590     0.1850 C.ar  1 <1>   0.4100 
 10 N        5.3870    -2.7640     0.0690 N.ar  1 <1>  -0.6200 
 11 N        4.2160    -4.7420     0.0070 N.pl3 1 <1>  -0.8380 
 12 N        6.5850    -0.7900     0.1220 N.pl3 1 <1>  -0.8380 
 13 C        5.4330    -5.5140    -0.3210 C.3   1 <1>   0.2090 
 14 C        2.9950    -5.5490    -0.2080 C.3   1 <1>   0.2090 
 15 C        6.7520     0.3730    -0.8020 C.3   1 <1>   0.2090 
 16 C        7.8290    -1.5240     0.4860 C.3   1 <1>   0.2090 
 17 C        4.9470    -6.9490    -0.4760 C.3   1 <1>  -0.1600 
 18 C        3.4850    -6.8180    -0.8960 C.3   1 <1>  -0.1600 
 19 C        7.0470     1.6730    -0.0330 C.3   1 <1>   0.1100 
 20 C        9.0390    -0.6120     0.7220 C.3   1 <1>  -0.1600 
 21 N        8.4200     1.7650     0.5240 N.3   1 <1>  -0.8100 
 22 C        8.7190     0.6830     1.4740 C.3   1 <1>   0.1100 
 23 C        8.6140     3.0950     1.1790 C.3   1 <1>   0.1710 
 24 C        8.4660     4.3250     0.2650 C.2   1 <1>   0.5690 
 25 O        7.4880     5.0190     0.4380 O.2   1 <1>  -0.5700 
 26 N        9.4060     4.6310    -0.6970 N.am  1 <1>  -0.6600 
 27 C       10.5520     3.7510    -1.0600 C.3   1 <1>   0.0600 
 28 C        9.2880     5.8540    -1.5390 C.3   1 <1>   0.0600 
 29 H        4.2330     0.2960     0.4810 H     1 <1>   0.1500 
 30 H        6.1660    -5.4220     0.4640 H     1 <1>   0.0800 
 31 H        5.8450    -5.1480    -1.2470 H     1 <1>   0.0800 
 32 H        2.2790    -5.0250    -0.8190 H     1 <1>   0.0800 
 33 H        2.5570    -5.7780     0.7480 H     1 <1>   0.0800 
 34 H        5.8470     0.5060    -1.3680 H     1 <1>   0.0800 
 35 H        7.5430     0.1810    -1.5050 H     1 <1>   0.0800 
 36 H        8.0590    -2.2350    -0.2900 H     1 <1>   0.0800 
 37 H        7.6340    -2.0790     1.3880 H     1 <1>   0.0800 
 38 H        5.0100    -7.4400     0.4790 H     1 <1>   0.0800 
 39 H        5.5350    -7.4940    -1.1930 H     1 <1>   0.0800 
 40 H        3.4230    -6.6790    -1.9610 H     1 <1>   0.0800 
 41 H        2.8980    -7.6740    -0.6170 H     1 <1>   0.0800 
 42 H        6.3230     1.7860     0.7550 H     1 <1>   0.0800 
 43 H        6.9040     2.4850    -0.7240 H     1 <1>   0.0800 
 44 H        9.5160    -0.3820    -0.2140 H     1 <1>   0.0800 
 45 H        9.7480    -1.1750     1.3000 H     1 <1>   0.0800 
 46 H        9.5920     0.9510     2.0440 H     1 <1>   0.0800 
 47 H        7.9010     0.5390     2.1620 H     1 <1>   0.0800 
 48 H        9.5970     3.1370     1.6090 H     1 <1>   0.0800 
 49 H        7.9080     3.1940     1.9850 H     1 <1>   0.0800 
 50 H       10.5820     2.8640    -0.4550 H     1 <1>   0.0800 
 51 H       11.4750     4.2880    -0.9300 H     1 <1>   0.0800 
 52 H       10.4620     3.4520    -2.0900 H     1 <1>   0.0800 
 53 H        8.4830     6.4810    -1.1970 H     1 <1>   0.0800 
 54 H        9.0960     5.5740    -2.5600 H     1 <1>   0.0800 
 55 H       10.2030     6.4180    -1.4910 H     1 <1>   0.0800 
@<TRIPOS>BOND
  1   1   2  1   
  2   2   3  1   
  3   2   4  1   
  4   2   5  1   
  5   5   6  ar  
  6   5   7  ar  
  7   6   8  ar  
  8   7   9  ar  
  9   7  29  1   
 10   8  10  ar  
 11   8  11  1   
 12   9  10  ar  
 13   9  12  1   
 14  11  13  1   
 15  11  14  1   
 16  12  15  1   
 17  12  16  1   
 18  13  17  1   
 19  13  30  1   
 20  13  31  1   
 21  14  18  1   
 22  14  32  1   
 23  14  33  1   
 24  15  19  1   
 25  15  34  1   
 26  15  35  1   
 27  16  20  1   
 28  16  36  1   
 29  16  37  1   
 30  17  18  1   
 31  17  38  1   
 32  17  39  1   
 33  18  40  1   
 34  18  41  1   
 35  19  21  1   
 36  19  42  1   
 37  19  43  1   
 38  20  22  1   
 39  20  44  1   
 40  20  45  1   
 41  21  22  1   
 42  21  23  1   
 43  22  46  1   
 44  22  47  1   
 45  23  24  1   
 46  23  48  1   
 47  23  49  1   
 48  24  25  2   
 49  24  26  am  
 50  26  27  1   
 51  26  28  1   
 52  27  50  1   
 53  27  51  1   
 54  27  52  1   
 55  28  53  1   
 56  28  54  1   
 57  28  55  1   
@<TRIPOS>SUBSTRUCTURE
  1 ****  12 GROUP 4 **** **** 0

# MOE 2024.06 (io_trps.svl 2023.06)
