@<TRIPOS>MOLECULE
NONAME
46 50 1 0 0 
SMALL
USER_CHARGES


@<TRIPOS>ATOM
  1 S        0.5600     0.5300    -1.1270 S.3   1 <1>  -0.0800 
  2 C       -0.9780     1.2060    -0.6150 C.2   1 <1>  -0.1400 
  3 C       -0.2520    -0.8610    -1.8350 C.2   1 <1>  -0.1100 
  4 C       -1.9900     0.4010    -0.9630 C.2   1 <1>  -0.1810 
  5 C       -1.0910     2.5350     0.1240 C.3   1 <1>   0.4600 
  6 C       -1.5860    -0.7780    -1.6650 C.2   1 <1>  -0.1500 
  7 C       -3.4070     0.7860    -0.6020 C.3   1 <1>   0.0210 
  8 O       -2.4600     2.8710     0.2410 O.3   1 <1>  -0.5600 
  9 C       -0.4700     2.4590     1.5250 C.3   1 <1>  -0.1600 
 10 C       -0.4440     3.6640    -0.6850 C.3   1 <1>  -0.1600 
 11 C       -3.3740     1.8360     0.5260 C.3   1 <1>   0.1200 
 12 C       -0.5460     3.8060     2.2440 C.3   1 <1>   0.1400 
 13 C       -0.5160     5.0010     0.0530 C.3   1 <1>   0.1400 
 14 N        0.1040     4.8510     1.4020 N.am  1 <1>  -0.6600 
 15 C        1.2860     5.4510     1.7840 C.2   1 <1>   0.5440 
 16 O        1.9230     4.9780     2.7030 O.2   1 <1>  -0.5700 
 17 C        1.8020     6.6200     1.1180 C.ar  1 <1>   0.0860 
 18 C        3.1120     6.6980     0.6920 C.ar  1 <1>   0.1600 
 19 C        1.0330     7.7390     0.8690 C.ar  1 <1>   0.1600 
 20 N        3.6050     7.7450     0.0640 N.ar  1 <1>  -0.6200 
 21 N        1.4880     8.8030     0.2440 N.ar  1 <1>  -0.6200 
 22 C        2.7610     8.7480    -0.1240 C.ar  1 <1>   0.5880 
 23 C        3.3100     9.9690    -0.8500 C.3   1 <1>  -0.0680 
 24 C        4.5370    10.6810    -0.3530 C.3   1 <1>  -0.2000 
 25 C        3.1990    11.3450    -0.2550 C.3   1 <1>  -0.2000 
 26 H        0.3640    -1.6030    -2.3090 H     1 <1>   0.1500 
 27 H       -2.3070    -1.5000    -2.0060 H     1 <1>   0.1500 
 28 H       -3.9520    -0.0790    -0.2680 H     1 <1>   0.0800 
 29 H       -3.9050     1.1910    -1.4650 H     1 <1>   0.0800 
 30 H        0.5640     2.1780     1.4410 H     1 <1>   0.0800 
 31 H       -0.9570     1.7000     2.1080 H     1 <1>   0.0800 
 32 H       -0.9360     3.7420    -1.6370 H     1 <1>   0.0800 
 33 H        0.5880     3.4300    -0.8700 H     1 <1>   0.0800 
 34 H       -3.0890     1.3760     1.4550 H     1 <1>   0.0800 
 35 H       -4.3460     2.2810     0.6470 H     1 <1>   0.0800 
 36 H       -0.0650     3.7350     3.2040 H     1 <1>   0.0800 
 37 H       -1.5750     4.0780     2.4080 H     1 <1>   0.0800 
 38 H       -1.5440     5.3030     0.1680 H     1 <1>   0.0800 
 39 H       -0.0090     5.7490    -0.5310 H     1 <1>   0.0800 
 40 H        3.7680     5.8630     0.8790 H     1 <1>   0.1500 
 41 H        0.0070     7.7500     1.1980 H     1 <1>   0.1500 
 42 H        3.1890     9.8790    -1.9130 H     1 <1>   0.1000 
 43 H        5.2480    11.0380    -1.0770 H     1 <1>   0.1000 
 44 H        5.0070    10.3200     0.5450 H     1 <1>   0.1000 
 45 H        2.7400    11.4480     0.7130 H     1 <1>   0.1000 
 46 H        2.9720    12.1680    -0.9090 H     1 <1>   0.1000 
@<TRIPOS>BOND
  1   1   2  1   
  2   1   3  1   
  3   2   4  2   
  4   2   5  1   
  5   3   6  2   
  6   3  26  1   
  7   4   6  1   
  8   4   7  1   
  9   5   8  1   
 10   5   9  1   
 11   5  10  1   
 12   6  27  1   
 13   7  11  1   
 14   7  28  1   
 15   7  29  1   
 16   8  11  1   
 17   9  12  1   
 18   9  30  1   
 19   9  31  1   
 20  10  13  1   
 21  10  32  1   
 22  10  33  1   
 23  11  34  1   
 24  11  35  1   
 25  12  14  1   
 26  12  36  1   
 27  12  37  1   
 28  13  14  1   
 29  13  38  1   
 30  13  39  1   
 31  14  15  am  
 32  15  16  2   
 33  15  17  1   
 34  17  18  ar  
 35  17  19  ar  
 36  18  20  ar  
 37  18  40  1   
 38  19  21  ar  
 39  19  41  1   
 40  20  22  ar  
 41  21  22  ar  
 42  22  23  1   
 43  23  24  1   
 44  23  25  1   
 45  23  42  1   
 46  24  25  1   
 47  24  43  1   
 48  24  44  1   
 49  25  45  1   
 50  25  46  1   
@<TRIPOS>SUBSTRUCTURE
  1 ****  13 GROUP 4 **** **** 0

# MOE 2024.06 (io_trps.svl 2023.06)
