@<TRIPOS>MOLECULE
NONAME
50 53 1 0 0 
SMALL
USER_CHARGES


@<TRIPOS>ATOM
  1 S        0.6460     0.1790    -1.2660 S.o2  1 <1>   1.4470 
  2 O        1.2020    -0.5800    -2.3660 O.2   1 <1>  -0.6500 
  3 O        0.2930     1.5700    -1.4740 O.2   1 <1>  -0.6500 
  4 N        1.7560     0.1220     0.0260 N.am  1 <1>  -0.8490 
  5 C       -0.8110    -0.6860    -0.5790 C.ar  1 <1>  -0.0090 
  6 C        1.6330     1.1990     1.0300 C.3   1 <1>   0.1960 
  7 C        3.1180    -0.3930    -0.2410 C.3   1 <1>   0.1960 
  8 C       -0.8900    -2.0710    -0.3720 C.ar  1 <1>  -0.1440 
  9 C       -1.9130     0.0840    -0.2220 C.ar  1 <1>  -0.1500 
 10 C        2.4540     2.4960     0.7730 C.3   1 <1>   0.2200 
 11 C        4.1850     0.6330    -0.6820 C.3   1 <1>  -0.0190 
 12 C       -2.0490    -2.6450     0.1570 C.ar  1 <1>  -0.1440 
 13 C        0.3010    -2.9590    -0.7510 C.3   1 <1>  -0.0160 
 14 C       -3.0550    -0.4710     0.3160 C.ar  1 <1>  -0.1500 
 15 N        2.8290     2.6970    -0.6510 N.am  1 <1>  -0.7300 
 16 C        3.7170     2.5450     1.6570 C.3   1 <1>   0.1200 
 17 C        3.6030     1.8520    -1.3590 C.2   1 <1>   0.5690 
 18 C        5.1270     1.0540     0.4570 C.3   1 <1>   0.1200 
 19 C       -3.1300    -1.8420     0.5110 C.ar  1 <1>   0.0830 
 20 C       -2.1770    -4.1550     0.3800 C.3   1 <1>  -0.0160 
 21 C        0.2530    -4.3650    -0.1490 C.3   1 <1>  -0.1600 
 22 O        4.4350     1.3430     1.6350 O.3   1 <1>  -0.5600 
 23 O        3.8430     2.0640    -2.5200 O.2   1 <1>  -0.5700 
 24 O       -4.2280    -2.4390     1.0470 O.3   1 <1>  -0.3630 
 25 C       -1.1260    -4.9770    -0.3670 C.3   1 <1>  -0.1600 
 26 C       -5.3840    -1.7110     1.3990 C.3   1 <1>   0.0400 
 27 H        0.5960     1.4720     1.1170 H     1 <1>   0.0800 
 28 H        1.9130     0.7980     1.9890 H     1 <1>   0.0800 
 29 H        3.4680    -0.8830     0.6520 H     1 <1>   0.0800 
 30 H        3.0630    -1.1600    -0.9940 H     1 <1>   0.0800 
 31 H       -1.8860     1.1510    -0.3700 H     1 <1>   0.1500 
 32 H        1.8430     3.3320     1.0640 H     1 <1>   0.0800 
 33 H        4.8050     0.1470    -1.4130 H     1 <1>   0.0800 
 34 H        0.3310    -3.0440    -1.8240 H     1 <1>   0.0800 
 35 H        1.2190    -2.5090    -0.4300 H     1 <1>   0.0800 
 36 H       -3.8690     0.1780     0.5720 H     1 <1>   0.1500 
 37 H        2.2110     3.2890    -1.2140 H     1 <1>   0.3700 
 38 H        3.4240     2.7060     2.6790 H     1 <1>   0.0800 
 39 H        4.3650     3.3530     1.3630 H     1 <1>   0.0800 
 40 H        5.7220     1.9080     0.1780 H     1 <1>   0.0800 
 41 H        5.7940     0.2410     0.6850 H     1 <1>   0.0800 
 42 H       -2.0920    -4.3450     1.4350 H     1 <1>   0.0800 
 43 H       -3.1500    -4.4910     0.0660 H     1 <1>   0.0800 
 44 H        1.0060    -4.9800    -0.6100 H     1 <1>   0.0800 
 45 H        0.4610    -4.3110     0.9060 H     1 <1>   0.0800 
 46 H       -1.1430    -5.9930    -0.0120 H     1 <1>   0.0800 
 47 H       -1.3570    -4.9840    -1.4190 H     1 <1>   0.0800 
 48 H       -6.1110    -2.4050     1.7800 H     1 <1>   0.0800 
 49 H       -5.7690    -1.2220     0.5220 H     1 <1>   0.0800 
 50 H       -5.1280    -0.9960     2.1610 H     1 <1>   0.0800 
@<TRIPOS>BOND
  1   1   2  2   
  2   1   3  2   
  3   1   4  am  
  4   1   5  1   
  5   4   6  1   
  6   4   7  1   
  7   5   8  ar  
  8   5   9  ar  
  9   6  10  1   
 10   6  27  1   
 11   6  28  1   
 12   7  11  1   
 13   7  29  1   
 14   7  30  1   
 15   8  12  ar  
 16   8  13  1   
 17   9  14  ar  
 18   9  31  1   
 19  10  15  1   
 20  10  16  1   
 21  10  32  1   
 22  11  17  1   
 23  11  18  1   
 24  11  33  1   
 25  12  19  ar  
 26  12  20  1   
 27  13  21  1   
 28  13  34  1   
 29  13  35  1   
 30  14  19  ar  
 31  14  36  1   
 32  15  17  am  
 33  15  37  1   
 34  16  22  1   
 35  16  38  1   
 36  16  39  1   
 37  17  23  2   
 38  18  22  1   
 39  18  40  1   
 40  18  41  1   
 41  19  24  1   
 42  20  25  1   
 43  20  42  1   
 44  20  43  1   
 45  21  25  1   
 46  21  44  1   
 47  21  45  1   
 48  24  26  1   
 49  25  46  1   
 50  25  47  1   
 51  26  48  1   
 52  26  49  1   
 53  26  50  1   
@<TRIPOS>SUBSTRUCTURE
  1 ****   1 GROUP 4 **** **** 0

# MOE 2024.06 (io_trps.svl 2023.06)
