@<TRIPOS>MOLECULE
NONAME
54 59 1 0 0 
SMALL
USER_CHARGES


@<TRIPOS>ATOM
  1 O       -0.7310    -1.0700     1.4540 O.3   1 <1>  -0.0190 
  2 N        0.2530    -0.2630     1.7080 N.2   1 <1>  -0.4100 
  3 C       -0.2960    -1.8020     0.4590 C.2   1 <1>   0.2980 
  4 C        1.1890    -0.5490     0.8930 C.2   1 <1>   0.4300 
  5 N        0.8890    -1.5420     0.0680 N.2   1 <1>  -0.5650 
  6 C       -1.2070    -2.8900    -0.1070 C.3   1 <1>   0.2900 
  7 C        2.5410     0.1430     0.8190 C.3   1 <1>  -0.0140 
  8 N       -2.2480    -2.3870    -1.0390 N.3   1 <1>  -0.8100 
  9 C        3.7480    -0.4870     1.4470 C.3   1 <1>  -0.2000 
 10 C        3.1750     0.7710     2.0250 C.3   1 <1>  -0.2000 
 11 C       -3.2910    -1.5920    -0.3470 C.3   1 <1>   0.1100 
 12 C       -2.8480    -3.4910    -1.8020 C.3   1 <1>   0.1100 
 13 C       -4.2840    -0.9650    -1.3450 C.3   1 <1>   0.1430 
 14 C       -3.8140    -2.9440    -2.8590 C.3   1 <1>  -0.1600 
 15 C       -5.3270    -0.1830    -0.5670 C.ar  1 <1>   0.1670 
 16 C       -4.9060    -2.0710    -2.2220 C.3   1 <1>  -0.1600 
 17 C       -3.6010     0.1410    -2.1930 C.3   1 <1>  -0.1600 
 18 N       -6.3070    -0.7030     0.1330 N.ar  1 <1>  -0.6200 
 19 C       -5.1190     1.1590    -0.6630 C.ar  1 <1>  -0.1440 
 20 C       -3.9130     1.4830    -1.5090 C.3   1 <1>  -0.0170 
 21 C       -7.1160     0.1710     0.7470 C.ar  1 <1>   0.6200 
 22 C       -5.9860     1.9880    -0.0020 C.ar  1 <1>   0.1600 
 23 N       -6.9860     1.5060     0.7010 N.ar  1 <1>  -0.6200 
 24 C       -8.2210    -0.3710     1.5280 C.ar  1 <1>   0.0000 
 25 C       -9.3990     0.3530     1.7330 C.ar  1 <1>  -0.1500 
 26 C       -8.1560    -1.6420     2.1080 C.ar  1 <1>  -0.1500 
 27 C      -10.4500    -0.1580     2.4730 C.ar  1 <1>  -0.1500 
 28 C       -9.2030    -2.1600     2.8490 C.ar  1 <1>  -0.1500 
 29 C      -10.3540    -1.4180     3.0340 C.ar  1 <1>  -0.1500 
 30 H       -1.6690    -3.4230     0.7050 H     1 <1>   0.0800 
 31 H       -0.5760    -3.5810    -0.6380 H     1 <1>   0.0800 
 32 H        2.6800     0.6340    -0.1270 H     1 <1>   0.1000 
 33 H        4.6830    -0.4430     0.9160 H     1 <1>   0.1000 
 34 H        3.6200    -1.4110     1.9850 H     1 <1>   0.1000 
 35 H        2.6550     0.7200     2.9660 H     1 <1>   0.1000 
 36 H        3.7110     1.6960     1.8990 H     1 <1>   0.1000 
 37 H       -2.8390    -0.7950     0.2150 H     1 <1>   0.0800 
 38 H       -3.8310    -2.2210     0.3410 H     1 <1>   0.0800 
 39 H       -3.3760    -4.1530    -1.1350 H     1 <1>   0.0800 
 40 H       -2.0730    -4.0520    -2.2980 H     1 <1>   0.0800 
 41 H       -4.2710    -3.7660    -3.3820 H     1 <1>   0.0800 
 42 H       -3.2540    -2.3710    -3.5770 H     1 <1>   0.0800 
 43 H       -5.5330    -1.6380    -2.9820 H     1 <1>   0.0800 
 44 H       -5.5300    -2.6940    -1.6050 H     1 <1>   0.0800 
 45 H       -4.0330     0.1580    -3.1770 H     1 <1>   0.0800 
 46 H       -2.5410    -0.0160    -2.2930 H     1 <1>   0.0800 
 47 H       -4.1230     2.2550    -2.2290 H     1 <1>   0.0800 
 48 H       -3.0960     1.7830    -0.8760 H     1 <1>   0.0800 
 49 H       -5.8610     3.0560    -0.0490 H     1 <1>   0.1500 
 50 H       -9.4930     1.3350     1.3040 H     1 <1>   0.1500 
 51 H       -7.2680    -2.2340     1.9770 H     1 <1>   0.1500 
 52 H      -11.3430     0.4260     2.6130 H     1 <1>   0.1500 
 53 H       -9.1210    -3.1420     3.2820 H     1 <1>   0.1500 
 54 H      -11.1700    -1.8180     3.6100 H     1 <1>   0.1500 
@<TRIPOS>BOND
  1   1   2  1   
  2   1   3  1   
  3   2   4  2   
  4   3   5  2   
  5   3   6  1   
  6   4   5  1   
  7   4   7  1   
  8   6   8  1   
  9   6  30  1   
 10   6  31  1   
 11   7   9  1   
 12   7  10  1   
 13   7  32  1   
 14   8  11  1   
 15   8  12  1   
 16   9  10  1   
 17   9  33  1   
 18   9  34  1   
 19  10  35  1   
 20  10  36  1   
 21  11  13  1   
 22  11  37  1   
 23  11  38  1   
 24  12  14  1   
 25  12  39  1   
 26  12  40  1   
 27  13  15  1   
 28  13  16  1   
 29  13  17  1   
 30  14  16  1   
 31  14  41  1   
 32  14  42  1   
 33  15  18  ar  
 34  15  19  ar  
 35  16  43  1   
 36  16  44  1   
 37  17  20  1   
 38  17  45  1   
 39  17  46  1   
 40  18  21  ar  
 41  19  20  1   
 42  19  22  ar  
 43  20  47  1   
 44  20  48  1   
 45  21  23  ar  
 46  21  24  1   
 47  22  23  ar  
 48  22  49  1   
 49  24  25  ar  
 50  24  26  ar  
 51  25  27  ar  
 52  25  50  1   
 53  26  28  ar  
 54  26  51  1   
 55  27  29  ar  
 56  27  52  1   
 57  28  29  ar  
 58  28  53  1   
 59  29  54  1   
@<TRIPOS>SUBSTRUCTURE
  1 ****  11 GROUP 4 **** **** 0

# MOE 2024.06 (io_trps.svl 2023.06)
