@<TRIPOS>MOLECULE
NONAME
47 49 1 0 0 
SMALL
USER_CHARGES


@<TRIPOS>ATOM
  1 O        0.1010     1.0940     0.4490 O.2   1 <1>  -0.5700 
  2 C       -0.0780     2.2780     0.2830 C.2   1 <1>   0.5690 
  3 N       -1.0520     2.9750     0.9450 N.am  1 <1>  -0.6600 
  4 C        0.8090     3.0060    -0.7260 C.3   1 <1>   0.1810 
  5 C       -1.2810     4.4350     0.6830 C.3   1 <1>   0.3640 
  6 C       -1.9090     2.3510     1.9940 C.3   1 <1>   0.0600 
  7 O        0.9100     4.3820    -0.4550 O.3   1 <1>  -0.5600 
  8 C       -2.7600     4.7080     0.3570 C.ar  1 <1>  -0.1440 
  9 C       -0.3400     5.0570    -0.3840 C.3   1 <1>   0.2610 
 10 C       -3.5010     4.0340    -0.6210 C.ar  1 <1>  -0.1440 
 11 C       -3.3860     5.7020     1.1010 C.ar  1 <1>  -0.1500 
 12 C       -0.1110     6.5370    -0.0610 C.2   1 <1>   0.5690 
 13 C       -4.8340     4.3660    -0.8150 C.ar  1 <1>  -0.1500 
 14 C       -2.9320     2.9280    -1.5020 C.3   1 <1>  -0.0960 
 15 C       -4.7140     6.0250     0.8960 C.ar  1 <1>  -0.1500 
 16 O       -0.9920     7.3400    -0.2520 O.2   1 <1>  -0.5700 
 17 N        1.0900     6.9180     0.4420 N.am  1 <1>  -0.7300 
 18 C       -5.4420     5.3530    -0.0640 C.ar  1 <1>  -0.1500 
 19 C        1.5270     8.3090     0.6790 C.3   1 <1>   0.3200 
 20 C        2.8830     8.5470     0.0390 C.2   1 <1>  -0.0400 
 21 O        3.5260     9.6590     0.3400 O.3   1 <1>  -0.2800 
 22 C        3.6080     7.8070    -0.8290 C.2   1 <1>  -0.1500 
 23 C        4.6660     9.6570    -0.3200 C.2   1 <1>  -0.0400 
 24 C        4.7800     8.5370    -1.0640 C.2   1 <1>  -0.1500 
 25 C        5.6020    10.8320    -0.1510 C.3   1 <1>  -0.0600 
 26 H        0.4170     2.8770    -1.7170 H     1 <1>   0.0800 
 27 H        1.8000     2.5920    -0.6880 H     1 <1>   0.0800 
 28 H       -1.0560     4.9360     1.6080 H     1 <1>   0.0800 
 29 H       -1.8480     2.9210     2.9040 H     1 <1>   0.0800 
 30 H       -1.5890     1.3440     2.1980 H     1 <1>   0.0800 
 31 H       -2.9330     2.3250     1.6640 H     1 <1>   0.0800 
 32 H       -0.7980     5.0030    -1.3540 H     1 <1>   0.0800 
 33 H       -2.8400     6.2490     1.8500 H     1 <1>   0.1500 
 34 H       -5.4190     3.8530    -1.5590 H     1 <1>   0.1500 
 35 H       -3.5990     2.7030    -2.3150 H     1 <1>   0.0800 
 36 H       -2.8000     2.0290    -0.9270 H     1 <1>   0.0800 
 37 H       -1.9920     3.2160    -1.9280 H     1 <1>   0.0800 
 38 H       -5.1780     6.8000     1.4810 H     1 <1>   0.1500 
 39 H        1.8260     6.2090     0.5050 H     1 <1>   0.3700 
 40 H       -6.4760     5.5990    -0.2290 H     1 <1>   0.1500 
 41 H        0.8110     9.0040     0.2740 H     1 <1>   0.0800 
 42 H        1.6020     8.4770     1.7390 H     1 <1>   0.0800 
 43 H        3.3690     6.8570    -1.2730 H     1 <1>   0.1500 
 44 H        5.5850     8.2360    -1.7110 H     1 <1>   0.1500 
 45 H        6.4850    10.6920    -0.7470 H     1 <1>   0.0800 
 46 H        5.8850    10.9230     0.8820 H     1 <1>   0.0800 
 47 H        5.1090    11.7350    -0.4610 H     1 <1>   0.0800 
@<TRIPOS>BOND
  1   1   2  2   
  2   2   3  am  
  3   2   4  1   
  4   3   5  1   
  5   3   6  1   
  6   4   7  1   
  7   4  26  1   
  8   4  27  1   
  9   5   8  1   
 10   5   9  1   
 11   5  28  1   
 12   6  29  1   
 13   6  30  1   
 14   6  31  1   
 15   7   9  1   
 16   8  10  ar  
 17   8  11  ar  
 18   9  12  1   
 19   9  32  1   
 20  10  13  ar  
 21  10  14  1   
 22  11  15  ar  
 23  11  33  1   
 24  12  16  2   
 25  12  17  am  
 26  13  18  ar  
 27  13  34  1   
 28  14  35  1   
 29  14  36  1   
 30  14  37  1   
 31  15  18  ar  
 32  15  38  1   
 33  17  19  1   
 34  17  39  1   
 35  18  40  1   
 36  19  20  1   
 37  19  41  1   
 38  19  42  1   
 39  20  21  1   
 40  20  22  2   
 41  21  23  1   
 42  22  24  1   
 43  22  43  1   
 44  23  24  2   
 45  23  25  1   
 46  24  44  1   
 47  25  45  1   
 48  25  46  1   
 49  25  47  1   
@<TRIPOS>SUBSTRUCTURE
  1 ****   9 GROUP 4 **** **** 0

# MOE 2024.06 (io_trps.svl 2023.06)
