@<TRIPOS>MOLECULE
NONAME
58 61 1 0 0 
SMALL
USER_CHARGES


@<TRIPOS>ATOM
  1 O       -1.2880    -0.2120     1.4430 O.2   1 <1>  -0.5700 
  2 C       -2.2410     0.4170     1.0230 C.2   1 <1>   0.5440 
  3 N       -2.3390     1.7560     1.3400 N.am  1 <1>  -0.6600 
  4 C       -3.2320    -0.2620     0.2240 C.ar  1 <1>   0.0860 
  5 C       -1.2030     2.4990     1.9640 C.3   1 <1>   0.1400 
  6 C       -3.6030     2.5510     1.3070 C.3   1 <1>   0.1400 
  7 C       -3.7920    -1.4590     0.6630 C.ar  1 <1>   0.1600 
  8 C       -3.6660     0.2170    -1.0080 C.ar  1 <1>  -0.1500 
  9 C       -1.0800     3.9080     1.3590 C.3   1 <1>   0.1200 
 10 C       -3.3430     3.9520     0.7270 C.3   1 <1>   0.1200 
 11 N       -4.7190    -2.1610     0.0360 N.ar  1 <1>  -0.6200 
 12 C       -4.6240    -0.5040    -1.6790 C.ar  1 <1>  -0.1500 
 13 O       -2.3050     4.5860     1.4180 O.3   1 <1>  -0.5600 
 14 C       -5.1380    -1.6790    -1.1320 C.ar  1 <1>   0.4100 
 15 N       -6.1120    -2.3900    -1.8010 N.pl3 1 <1>  -0.8380 
 16 C       -6.2050    -3.8670    -1.6600 C.3   1 <1>   0.2090 
 17 C       -7.3650    -1.7290    -2.2440 C.3   1 <1>   0.2090 
 18 C       -7.3220    -4.2240    -0.6760 C.3   1 <1>  -0.1600 
 19 C       -8.4930    -2.0640    -1.2660 C.3   1 <1>  -0.1600 
 20 C       -8.6710    -3.5860    -1.0800 C.3   1 <1>  -0.0800 
 21 C       -9.8270    -3.9040    -0.1020 C.3   1 <1>   0.2000 
 22 O       -9.5380    -3.3490     1.1350 O.3   1 <1>  -0.6800 
 23 C      -10.0960    -5.4100     0.0660 C.3   1 <1>  -0.0170 
 24 C      -11.4740    -5.6980     0.6500 C.ar  1 <1>  -0.1430 
 25 C      -12.4960    -6.1700    -0.1610 C.ar  1 <1>  -0.1500 
 26 C      -11.7210    -5.4950     1.9990 C.ar  1 <1>  -0.1500 
 27 C      -13.7460    -6.4380     0.3710 C.ar  1 <1>  -0.1500 
 28 C      -12.9700    -5.7620     2.5320 C.ar  1 <1>  -0.1500 
 29 C      -13.9840    -6.2350     1.7180 C.ar  1 <1>  -0.1500 
 30 H       -0.2790     1.9680     1.8110 H     1 <1>   0.0800 
 31 H       -1.3700     2.5770     3.0240 H     1 <1>   0.0800 
 32 H       -3.9750     2.6550     2.3110 H     1 <1>   0.0800 
 33 H       -4.3600     2.0560     0.7280 H     1 <1>   0.0800 
 34 H       -3.4400    -1.8510     1.6020 H     1 <1>   0.1500 
 35 H       -3.2510     1.1210    -1.4170 H     1 <1>   0.1500 
 36 H       -0.7670     3.8500     0.3310 H     1 <1>   0.0800 
 37 H       -0.3580     4.4840     1.9090 H     1 <1>   0.0800 
 38 H       -4.2220     4.5630     0.8240 H     1 <1>   0.0800 
 39 H       -3.0770     3.8900    -0.3140 H     1 <1>   0.0800 
 40 H       -4.9810    -0.1820    -2.6370 H     1 <1>   0.1500 
 41 H       -5.2660    -4.2660    -1.3130 H     1 <1>   0.0800 
 42 H       -6.4110    -4.2980    -2.6250 H     1 <1>   0.0800 
 43 H       -7.6150    -2.0750    -3.2320 H     1 <1>   0.0800 
 44 H       -7.2330    -0.6610    -2.2830 H     1 <1>   0.0800 
 45 H       -7.0210    -3.8840     0.2990 H     1 <1>   0.0800 
 46 H       -7.4060    -5.2940    -0.6400 H     1 <1>   0.0800 
 47 H       -9.4090    -1.6330    -1.6260 H     1 <1>   0.0800 
 48 H       -8.2630    -1.5990    -0.3230 H     1 <1>   0.0800 
 49 H       -8.9470    -3.9930    -2.0380 H     1 <1>   0.0800 
 50 H      -10.7300    -3.4340    -0.4560 H     1 <1>   0.0800 
 51 H       -8.5850    -3.4480     1.3220 H     1 <1>   0.4000 
 52 H       -9.3410    -5.8550     0.6890 H     1 <1>   0.0800 
 53 H      -10.0320    -5.8820    -0.8980 H     1 <1>   0.0800 
 54 H      -12.3270    -6.3330    -1.2100 H     1 <1>   0.1500 
 55 H      -10.9400    -5.1200     2.6370 H     1 <1>   0.1500 
 56 H      -14.5340    -6.8050    -0.2640 H     1 <1>   0.1500 
 57 H      -13.1520    -5.5990     3.5800 H     1 <1>   0.1500 
 58 H      -14.9550    -6.4420     2.1320 H     1 <1>   0.1500 
@<TRIPOS>BOND
  1   1   2  2   
  2   2   3  am  
  3   2   4  1   
  4   3   5  1   
  5   3   6  1   
  6   4   7  ar  
  7   4   8  ar  
  8   5   9  1   
  9   5  30  1   
 10   5  31  1   
 11   6  10  1   
 12   6  32  1   
 13   6  33  1   
 14   7  11  ar  
 15   7  34  1   
 16   8  12  ar  
 17   8  35  1   
 18   9  13  1   
 19   9  36  1   
 20   9  37  1   
 21  10  13  1   
 22  10  38  1   
 23  10  39  1   
 24  11  14  ar  
 25  12  14  ar  
 26  12  40  1   
 27  14  15  1   
 28  15  16  1   
 29  15  17  1   
 30  16  18  1   
 31  16  41  1   
 32  16  42  1   
 33  17  19  1   
 34  17  43  1   
 35  17  44  1   
 36  18  20  1   
 37  18  45  1   
 38  18  46  1   
 39  19  20  1   
 40  19  47  1   
 41  19  48  1   
 42  20  21  1   
 43  20  49  1   
 44  21  22  1   
 45  21  23  1   
 46  21  50  1   
 47  22  51  1   
 48  23  24  1   
 49  23  52  1   
 50  23  53  1   
 51  24  25  ar  
 52  24  26  ar  
 53  25  27  ar  
 54  25  54  1   
 55  26  28  ar  
 56  26  55  1   
 57  27  29  ar  
 58  27  56  1   
 59  28  29  ar  
 60  28  57  1   
 61  29  58  1   
@<TRIPOS>SUBSTRUCTURE
  1 ****  11 GROUP 4 **** **** 0

# MOE 2024.06 (io_trps.svl 2023.06)
