@<TRIPOS>MOLECULE
NONAME
49 52 1 0 0 
SMALL
USER_CHARGES


@<TRIPOS>ATOM
  1 O        0.8570     0.1860     0.5480 O.2   1 <1>  -0.5700 
  2 C        1.8690    -0.4480     0.2850 C.2   1 <1>   0.7160 
  3 N        3.0800     0.0790     0.7160 N.am  1 <1>  -0.6600 
  4 C        1.7430    -1.7180    -0.4370 C.2   1 <1>   0.1410 
  5 C        4.3510    -0.7030     0.6950 C.3   1 <1>   0.1400 
  6 C        3.1380     1.4330     1.3390 C.3   1 <1>   0.1400 
  7 N        2.6350    -2.1580    -1.3830 N.2   1 <1>  -0.5650 
  8 C        0.7460    -2.6540    -0.3300 C.2   1 <1>  -0.3320 
  9 C        5.1970    -0.3660    -0.5440 C.3   1 <1>   0.1100 
 10 C        4.4620     2.1740     1.1050 C.3   1 <1>  -0.1600 
 11 C        2.1640    -3.2820    -1.7990 C.2   1 <1>   0.0360 
 12 N        1.0150    -3.6380    -1.1970 N.pl3 1 <1>   0.0330 
 13 C       -0.4870    -2.6800     0.5620 C.3   1 <1>  -0.0600 
 14 N        5.9120     0.9270    -0.4560 N.3   1 <1>  -0.8100 
 15 C        4.9880     2.0700    -0.3290 C.3   1 <1>   0.1100 
 16 C        6.7720     1.0910    -1.6450 C.3   1 <1>   0.2900 
 17 C        7.8570     2.1290    -1.4120 C.2   1 <1>  -0.0400 
 18 O        8.5480     2.5710    -2.4250 O.3   1 <1>  -0.0190 
 19 C        8.3110     2.7450    -0.3130 C.2   1 <1>  -0.1500 
 20 N        9.4330     3.4510    -2.0680 N.2   1 <1>  -0.4100 
 21 C        9.3290     3.5870    -0.7800 C.2   1 <1>   0.2350 
 22 C       10.1420     4.4760     0.0250 C.ar  1 <1>   0.0540 
 23 C       10.9360     5.4630    -0.5420 C.ar  1 <1>  -0.1500 
 24 C       10.1980     4.4170     1.4110 C.ar  1 <1>  -0.1500 
 25 C       11.6980     6.2970     0.2530 C.ar  1 <1>   0.1600 
 26 C       10.9940     5.2990     2.1190 C.ar  1 <1>   0.1600 
 27 N       11.7460     6.2400     1.5740 N.ar  1 <1>  -0.6200 
 28 H        4.1230    -1.7530     0.6830 H     1 <1>   0.0800 
 29 H        4.9220    -0.5160     1.5870 H     1 <1>   0.0800 
 30 H        2.9590     1.3380     2.3960 H     1 <1>   0.0800 
 31 H        2.3450     2.0370     0.9290 H     1 <1>   0.0800 
 32 H        4.5700    -0.3850    -1.4190 H     1 <1>   0.0800 
 33 H        5.9260    -1.1500    -0.6500 H     1 <1>   0.0800 
 34 H        5.2110     1.8340     1.7980 H     1 <1>   0.0800 
 35 H        4.2850     3.2110     1.3240 H     1 <1>   0.0800 
 36 H        2.6250    -3.8940    -2.5550 H     1 <1>   0.1500 
 37 H        0.4660    -4.4830    -1.3750 H     1 <1>   0.2700 
 38 H       -0.4720    -1.8670     1.2640 H     1 <1>   0.0800 
 39 H       -0.5260    -3.6000     1.1170 H     1 <1>   0.0800 
 40 H       -1.3760    -2.5930    -0.0360 H     1 <1>   0.0800 
 41 H        5.5170     2.9810    -0.5480 H     1 <1>   0.0800 
 42 H        4.1750     1.9840    -1.0320 H     1 <1>   0.0800 
 43 H        6.1720     1.3760    -2.4930 H     1 <1>   0.0800 
 44 H        7.2580     0.1600    -1.8780 H     1 <1>   0.0800 
 45 H        7.9740     2.6240     0.6980 H     1 <1>   0.1500 
 46 H       10.9590     5.5810    -1.6100 H     1 <1>   0.1500 
 47 H        9.6280     3.6840     1.9480 H     1 <1>   0.1500 
 48 H       12.3020     7.0520    -0.2210 H     1 <1>   0.1500 
 49 H       11.0170     5.2270     3.1930 H     1 <1>   0.1500 
@<TRIPOS>BOND
  1   1   2  2   
  2   2   3  am  
  3   2   4  1   
  4   3   5  1   
  5   3   6  1   
  6   4   7  1   
  7   4   8  2   
  8   5   9  1   
  9   5  28  1   
 10   5  29  1   
 11   6  10  1   
 12   6  30  1   
 13   6  31  1   
 14   7  11  2   
 15   8  12  1   
 16   8  13  1   
 17   9  14  1   
 18   9  32  1   
 19   9  33  1   
 20  10  15  1   
 21  10  34  1   
 22  10  35  1   
 23  11  12  1   
 24  11  36  1   
 25  12  37  1   
 26  13  38  1   
 27  13  39  1   
 28  13  40  1   
 29  14  15  1   
 30  14  16  1   
 31  15  41  1   
 32  15  42  1   
 33  16  17  1   
 34  16  43  1   
 35  16  44  1   
 36  17  18  1   
 37  17  19  2   
 38  18  20  1   
 39  19  21  1   
 40  19  45  1   
 41  20  21  2   
 42  21  22  1   
 43  22  23  ar  
 44  22  24  ar  
 45  23  25  ar  
 46  23  46  1   
 47  24  26  ar  
 48  24  47  1   
 49  25  27  ar  
 50  25  48  1   
 51  26  27  ar  
 52  26  49  1   
@<TRIPOS>SUBSTRUCTURE
  1 ****  14 GROUP 4 **** **** 0

# MOE 2024.06 (io_trps.svl 2023.06)
