@<TRIPOS>MOLECULE
NONAME
57 60 1 0 0 
SMALL
USER_CHARGES


@<TRIPOS>ATOM
  1 O       -0.3710     0.1680     0.3250 O.2   1 <1>  -0.5700 
  2 C       -1.3690     0.8270     0.5330 C.2   1 <1>   0.5690 
  3 N       -2.5930     0.1870     0.4150 N.am  1 <1>  -0.6600 
  4 C       -1.1730     2.3550     0.9080 C.3   1 <1>   0.3310 
  5 C       -3.9730     0.7280     0.5380 C.3   1 <1>   0.1400 
  6 C       -2.6560    -1.2470     0.0220 C.3   1 <1>   0.1400 
  7 N       -1.0800     3.2530    -0.2970 N.3   1 <1>  -0.8100 
  8 C       -2.2510     2.8900     1.8760 C.3   1 <1>  -0.2400 
  9 C        0.1740     2.4880     1.6530 C.3   1 <1>  -0.2400 
 10 C       -4.8940    -0.3870     0.0470 C.3   1 <1>   0.2000 
 11 C       -4.1070    -1.6770     0.2410 C.3   1 <1>  -0.0800 
 12 C       -1.0090     4.7170    -0.0610 C.3   1 <1>   0.1100 
 13 C       -2.0440     2.9670    -1.3820 C.3   1 <1>   0.1100 
 14 O       -6.0720    -0.4320     0.7760 O.3   1 <1>  -0.6800 
 15 C       -4.5710    -2.8060    -0.6950 C.3   1 <1>  -0.0170 
 16 C       -0.7390     5.4790    -1.3700 C.3   1 <1>   0.1200 
 17 C       -1.7310     3.7960    -2.6390 C.3   1 <1>   0.1200 
 18 C       -3.7410    -4.0620    -0.4980 C.ar  1 <1>   0.1670 
 19 O       -1.7010     5.1600    -2.3330 O.3   1 <1>  -0.5600 
 20 N       -2.6460    -4.1660    -1.1850 N.ar  1 <1>  -0.6200 
 21 C       -4.1820    -5.0340     0.4140 C.ar  1 <1>  -0.1500 
 22 C       -1.8830    -5.2730    -0.9990 C.ar  1 <1>   0.3100 
 23 C       -3.4410    -6.1580     0.6160 C.ar  1 <1>  -0.1500 
 24 C       -2.2430    -6.3040    -0.1030 C.ar  1 <1>   0.0000 
 25 C       -0.6850    -5.4020    -1.7190 C.ar  1 <1>  -0.1500 
 26 C       -1.3950    -7.4210     0.0310 C.ar  1 <1>  -0.1500 
 27 C        0.1270    -6.4950    -1.5730 C.ar  1 <1>  -0.1500 
 28 C       -0.2340    -7.5160    -0.6870 C.ar  1 <1>  -0.1500 
 29 H       -4.1770     0.9480     1.5700 H     1 <1>   0.0800 
 30 H       -4.1000     1.6030    -0.0700 H     1 <1>   0.0800 
 31 H       -2.3800    -1.3360    -1.0160 H     1 <1>   0.0800 
 32 H       -1.9770    -1.8410     0.6130 H     1 <1>   0.0800 
 33 H       -2.4320     2.1670     2.6500 H     1 <1>   0.0800 
 34 H       -3.1680     3.0980     1.3620 H     1 <1>   0.0800 
 35 H       -1.9300     3.7970     2.3540 H     1 <1>   0.0800 
 36 H        0.2160     1.7750     2.4560 H     1 <1>   0.0800 
 37 H        0.3210     3.4640     2.0740 H     1 <1>   0.0800 
 38 H        0.9850     2.2760     0.9790 H     1 <1>   0.0800 
 39 H       -5.1390    -0.2290    -0.9890 H     1 <1>   0.0800 
 40 H       -4.1890    -2.0020     1.2630 H     1 <1>   0.0800 
 41 H       -1.9360     5.0730     0.3530 H     1 <1>   0.0800 
 42 H       -0.2190     4.9480     0.6270 H     1 <1>   0.0800 
 43 H       -2.0010     1.9280    -1.6560 H     1 <1>   0.0800 
 44 H       -3.0410     3.2010    -1.0580 H     1 <1>   0.0800 
 45 H       -5.8860    -0.6250     1.7150 H     1 <1>   0.4000 
 46 H       -4.4860    -2.4900    -1.7200 H     1 <1>   0.0800 
 47 H       -5.6080    -3.0240    -0.5100 H     1 <1>   0.0800 
 48 H        0.2340     5.2280    -1.7570 H     1 <1>   0.0800 
 49 H       -0.7830     6.5400    -1.2000 H     1 <1>   0.0800 
 50 H       -2.4890     3.6430    -3.3860 H     1 <1>   0.0800 
 51 H       -0.7770     3.5120    -3.0480 H     1 <1>   0.0800 
 52 H       -5.1040    -4.8790     0.9450 H     1 <1>   0.1500 
 53 H       -3.7450    -6.9260     1.3050 H     1 <1>   0.1500 
 54 H       -0.4250    -4.6050    -2.3920 H     1 <1>   0.1500 
 55 H       -1.6770    -8.2020     0.7150 H     1 <1>   0.1500 
 56 H        1.0430    -6.5800    -2.1310 H     1 <1>   0.1500 
 57 H        0.4130    -8.3700    -0.5820 H     1 <1>   0.1500 
@<TRIPOS>BOND
  1   1   2  2   
  2   2   3  am  
  3   2   4  1   
  4   3   5  1   
  5   3   6  1   
  6   4   7  1   
  7   4   8  1   
  8   4   9  1   
  9   5  10  1   
 10   5  29  1   
 11   5  30  1   
 12   6  11  1   
 13   6  31  1   
 14   6  32  1   
 15   7  12  1   
 16   7  13  1   
 17   8  33  1   
 18   8  34  1   
 19   8  35  1   
 20   9  36  1   
 21   9  37  1   
 22   9  38  1   
 23  10  11  1   
 24  10  14  1   
 25  10  39  1   
 26  11  15  1   
 27  11  40  1   
 28  12  16  1   
 29  12  41  1   
 30  12  42  1   
 31  13  17  1   
 32  13  43  1   
 33  13  44  1   
 34  14  45  1   
 35  15  18  1   
 36  15  46  1   
 37  15  47  1   
 38  16  19  1   
 39  16  48  1   
 40  16  49  1   
 41  17  19  1   
 42  17  50  1   
 43  17  51  1   
 44  18  20  ar  
 45  18  21  ar  
 46  20  22  ar  
 47  21  23  ar  
 48  21  52  1   
 49  22  24  ar  
 50  22  25  ar  
 51  23  24  ar  
 52  23  53  1   
 53  24  26  ar  
 54  25  27  ar  
 55  25  54  1   
 56  26  28  ar  
 57  26  55  1   
 58  27  28  ar  
 59  27  56  1   
 60  28  57  1   
@<TRIPOS>SUBSTRUCTURE
  1 ****   6 GROUP 4 **** **** 0

# MOE 2024.06 (io_trps.svl 2023.06)
