@<TRIPOS>MOLECULE
NONAME
39 42 1 0 0 
SMALL
USER_CHARGES


@<TRIPOS>ATOM
  1 S       -0.1860     0.2790     1.4940 S.3   1 <1>  -0.0800 
  2 C       -0.0860     1.7100     0.4900 C.2   1 <1>  -0.1400 
  3 C        1.4230     0.5910     2.1310 C.2   1 <1>  -0.1100 
  4 C        1.0850     2.3430     0.6360 C.2   1 <1>  -0.1810 
  5 C       -1.2060     2.1500    -0.4140 C.3   1 <1>   0.0200 
  6 C        1.9520     1.7040     1.5850 C.2   1 <1>  -0.1500 
  7 C        1.4020     3.6140    -0.1570 C.3   1 <1>   0.4610 
  8 C       -0.9500     3.6230    -0.7700 C.3   1 <1>   0.1200 
  9 O        0.3950     3.8340    -1.1310 O.3   1 <1>  -0.5600 
 10 C        1.4830     4.8320     0.7710 C.3   1 <1>  -0.1600 
 11 C        2.7110     3.4450    -0.9310 C.3   1 <1>  -0.1600 
 12 C        1.8500     6.0980     0.0020 C.3   1 <1>   0.2090 
 13 C        3.1020     4.7230    -1.6720 C.3   1 <1>   0.2090 
 14 N        3.1240     5.8760    -0.7300 N.pl3 1 <1>  -0.8380 
 15 C        4.3200     6.3190    -0.1900 C.ar  1 <1>   0.4100 
 16 N        5.1260     5.3630     0.2680 N.ar  1 <1>  -0.6200 
 17 C        4.6390     7.6850    -0.1380 C.ar  1 <1>   0.0730 
 18 C        6.2700     5.7540     0.7950 C.ar  1 <1>   0.1600 
 19 C        3.7440     8.6750    -0.6530 C.1   1 <1>   0.4840 
 20 C        5.8460     8.0640     0.4210 C.ar  1 <1>  -0.1500 
 21 C        6.6750     7.0710     0.8970 C.ar  1 <1>  -0.1500 
 22 N        3.0480     9.5000    -1.0250 N.1   1 <1>  -0.5570 
 23 H        1.8080    -0.1020     2.8570 H     1 <1>   0.1500 
 24 H       -2.1520     2.0540     0.0860 H     1 <1>   0.0800 
 25 H       -1.2180     1.5470    -1.3030 H     1 <1>   0.0800 
 26 H        2.9240     2.1070     1.8120 H     1 <1>   0.1500 
 27 H       -1.1810     4.2570     0.0670 H     1 <1>   0.0800 
 28 H       -1.5630     3.9160    -1.6040 H     1 <1>   0.0800 
 29 H        2.2410     4.6570     1.5120 H     1 <1>   0.0800 
 30 H        0.5550     4.9680     1.2910 H     1 <1>   0.0800 
 31 H        2.6110     2.6330    -1.6260 H     1 <1>   0.0800 
 32 H        3.5040     3.1940    -0.2520 H     1 <1>   0.0800 
 33 H        1.9540     6.9200     0.6890 H     1 <1>   0.0800 
 34 H        1.0740     6.3440    -0.7050 H     1 <1>   0.0800 
 35 H        2.3910     4.9240    -2.4560 H     1 <1>   0.0800 
 36 H        4.0730     4.6010    -2.1220 H     1 <1>   0.0800 
 37 H        6.9230     4.9810     1.1660 H     1 <1>   0.1500 
 38 H        6.1310     9.1010     0.4830 H     1 <1>   0.1500 
 39 H        7.6250     7.3120     1.3400 H     1 <1>   0.1500 
@<TRIPOS>BOND
  1   1   2  1   
  2   1   3  1   
  3   2   4  2   
  4   2   5  1   
  5   3   6  2   
  6   3  23  1   
  7   4   6  1   
  8   4   7  1   
  9   5   8  1   
 10   5  24  1   
 11   5  25  1   
 12   6  26  1   
 13   7   9  1   
 14   7  10  1   
 15   7  11  1   
 16   8   9  1   
 17   8  27  1   
 18   8  28  1   
 19  10  12  1   
 20  10  29  1   
 21  10  30  1   
 22  11  13  1   
 23  11  31  1   
 24  11  32  1   
 25  12  14  1   
 26  12  33  1   
 27  12  34  1   
 28  13  14  1   
 29  13  35  1   
 30  13  36  1   
 31  14  15  1   
 32  15  16  ar  
 33  15  17  ar  
 34  16  18  ar  
 35  17  19  1   
 36  17  20  ar  
 37  18  21  ar  
 38  18  37  1   
 39  19  22  3   
 40  20  21  ar  
 41  20  38  1   
 42  21  39  1   
@<TRIPOS>SUBSTRUCTURE
  1 ****  10 GROUP 4 **** **** 0

# MOE 2024.06 (io_trps.svl 2023.06)
