@<TRIPOS>MOLECULE
NONAME
56 59 1 0 0 
SMALL
USER_CHARGES


@<TRIPOS>ATOM
  1 S       -0.1340    -1.7920    -3.0700 S.3   1 <1>  -0.3320 
  2 C       -0.1970    -2.8350    -1.6040 C.ar  1 <1>   0.1020 
  3 C        1.3990    -0.7700    -2.9430 C.3   1 <1>  -0.0100 
  4 C       -1.2590    -3.6850    -1.4750 C.ar  1 <1>  -0.1500 
  5 C        0.7990    -2.7860    -0.6230 C.ar  1 <1>  -0.1500 
  6 C       -1.3840    -4.5310    -0.3650 C.ar  1 <1>   0.3100 
  7 C        0.7010    -3.6020     0.4730 C.ar  1 <1>  -0.1500 
  8 N       -2.4650    -5.3440    -0.3120 N.ar  1 <1>  -0.6200 
  9 C       -0.3820    -4.4930     0.6360 C.ar  1 <1>   0.0000 
 10 C       -2.5810    -6.1220     0.7270 C.ar  1 <1>   0.4100 
 11 C       -0.5320    -5.3600     1.7420 C.ar  1 <1>  -0.1430 
 12 N       -3.6960    -6.9350     0.7930 N.pl3 1 <1>  -0.8380 
 13 C       -1.6310    -6.1610     1.7650 C.ar  1 <1>  -0.1500 
 14 C        0.4920    -5.4080     2.8670 C.3   1 <1>  -0.0970 
 15 C       -4.3120    -7.3420    -0.5040 C.3   1 <1>   0.2090 
 16 C       -4.6480    -6.6810     1.9060 C.3   1 <1>   0.2090 
 17 C       -5.2440    -8.5530    -0.3100 C.3   1 <1>   0.4230 
 18 C       -5.6170    -7.8650     2.0570 C.3   1 <1>  -0.1600 
 19 N       -5.7090    -9.2100    -1.6040 N.4   1 <1>  -0.9590 
 20 C       -6.3530    -8.2540     0.7460 C.3   1 <1>   0.0000 
 21 C       -6.9480   -10.0350    -1.4400 C.3   1 <1>   0.3430 
 22 C       -5.8990    -8.2590    -2.7460 C.3   1 <1>   0.2630 
 23 C       -7.1940    -9.5350     1.0300 C.3   1 <1>  -0.1600 
 24 C       -7.2800    -7.0580     0.3770 C.3   1 <1>   0.1200 
 25 C       -7.0290   -10.6320    -0.0370 C.3   1 <1>  -0.1600 
 26 O       -8.0600    -7.3150    -0.7410 O.3   1 <1>  -0.6800 
 27 H        1.4430    -0.1430    -3.8150 H     1 <1>   0.0800 
 28 H        2.2420    -1.4370    -2.9100 H     1 <1>   0.0800 
 29 H        1.3290    -0.1760    -2.0500 H     1 <1>   0.0800 
 30 H       -2.0220    -3.7180    -2.2290 H     1 <1>   0.1500 
 31 H        1.6320    -2.1190    -0.7240 H     1 <1>   0.1500 
 32 H        1.4670    -3.5630     1.2250 H     1 <1>   0.1500 
 33 H       -1.8040    -6.8520     2.5660 H     1 <1>   0.1500 
 34 H        0.2090    -6.1280     3.6130 H     1 <1>   0.0800 
 35 H        0.5670    -4.4450     3.3390 H     1 <1>   0.0800 
 36 H        1.4550    -5.6860     2.4780 H     1 <1>   0.0800 
 37 H       -4.8480    -6.5040    -0.9140 H     1 <1>   0.0800 
 38 H       -3.5220    -7.6100    -1.1840 H     1 <1>   0.0800 
 39 H       -4.1060    -6.5450     2.8270 H     1 <1>   0.0800 
 40 H       -5.1840    -5.7670     1.7100 H     1 <1>   0.0800 
 41 H       -4.6190    -9.2880     0.1680 H     1 <1>   0.0800 
 42 H       -5.0420    -8.7020     2.4160 H     1 <1>   0.0800 
 43 H       -6.3320    -7.6250     2.8240 H     1 <1>   0.0800 
 44 H       -4.9560    -9.8590    -1.8660 H     1 <1>   0.4500 
 45 H       -7.8190    -9.4200    -1.5990 H     1 <1>   0.0800 
 46 H       -6.9620   -10.8230    -2.1750 H     1 <1>   0.0800 
 47 H       -6.6400    -7.5180    -2.5010 H     1 <1>   0.0800 
 48 H       -6.2260    -8.7910    -3.6240 H     1 <1>   0.0800 
 49 H       -4.9740    -7.7560    -2.9780 H     1 <1>   0.0800 
 50 H       -6.9380    -9.9660     1.9830 H     1 <1>   0.0800 
 51 H       -8.2370    -9.2730     1.0930 H     1 <1>   0.0800 
 52 H       -6.7200    -6.1600     0.1800 H     1 <1>   0.0800 
 53 H       -7.9520    -6.8580     1.1950 H     1 <1>   0.0800 
 54 H       -7.8730   -11.2970     0.0140 H     1 <1>   0.0800 
 55 H       -6.1470   -11.2190     0.1560 H     1 <1>   0.0800 
 56 H       -8.7650    -6.6370    -0.8250 H     1 <1>   0.4000 
@<TRIPOS>BOND
  1   1   2  1   
  2   1   3  1   
  3   2   4  ar  
  4   2   5  ar  
  5   3  27  1   
  6   3  28  1   
  7   3  29  1   
  8   4   6  ar  
  9   4  30  1   
 10   5   7  ar  
 11   5  31  1   
 12   6   8  ar  
 13   6   9  ar  
 14   7   9  ar  
 15   7  32  1   
 16   8  10  ar  
 17   9  11  ar  
 18  10  12  1   
 19  10  13  ar  
 20  11  13  ar  
 21  11  14  1   
 22  12  15  1   
 23  12  16  1   
 24  13  33  1   
 25  14  34  1   
 26  14  35  1   
 27  14  36  1   
 28  15  17  1   
 29  15  37  1   
 30  15  38  1   
 31  16  18  1   
 32  16  39  1   
 33  16  40  1   
 34  17  19  1   
 35  17  20  1   
 36  17  41  1   
 37  18  20  1   
 38  18  42  1   
 39  18  43  1   
 40  19  21  1   
 41  19  22  1   
 42  19  44  1   
 43  20  23  1   
 44  20  24  1   
 45  21  25  1   
 46  21  45  1   
 47  21  46  1   
 48  22  47  1   
 49  22  48  1   
 50  22  49  1   
 51  23  25  1   
 52  23  50  1   
 53  23  51  1   
 54  24  26  1   
 55  24  52  1   
 56  24  53  1   
 57  25  54  1   
 58  25  55  1   
 59  26  56  1   
@<TRIPOS>SUBSTRUCTURE
  1 ****  10 GROUP 4 **** **** 0

# MOE 2024.06 (io_trps.svl 2023.06)
