@<TRIPOS>MOLECULE
NONAME
44 46 1 0 0 
SMALL
USER_CHARGES


@<TRIPOS>ATOM
  1 S       -0.3540    -0.5640    -0.7350 S.o2  1 <1>   1.5010 
  2 O       -1.0040    -1.8540    -0.8350 O.2   1 <1>  -0.6500 
  3 O       -0.4000     0.3340    -1.8690 O.2   1 <1>  -0.6500 
  4 N       -1.0110     0.2350     0.6140 N.am  1 <1>  -0.8490 
  5 C        1.3640    -0.8300    -0.2120 C.2   1 <1>  -0.0630 
  6 C       -2.3800    -0.1320     1.0160 C.3   1 <1>   0.1960 
  7 C       -0.7320     1.6670     0.7290 C.3   1 <1>   0.1960 
  8 C        2.4490    -0.0570    -0.4600 C.2   1 <1>  -0.1400 
  9 C        1.6940    -1.9690     0.6030 C.2   1 <1>  -0.1500 
 10 C       -3.4850     0.6500     0.2710 C.3   1 <1>   0.0000 
 11 C       -1.7630     2.5210    -0.0230 C.3   1 <1>  -0.1600 
 12 S        3.8890    -0.7180     0.2950 S.3   1 <1>  -0.0800 
 13 C        2.6660     1.2280    -1.2380 C.3   1 <1>  -0.0600 
 14 C        2.9870    -2.0600     0.9570 C.2   1 <1>  -0.1400 
 15 C       -4.8650     0.2460     0.8300 C.3   1 <1>   0.2000 
 16 C       -3.2020     2.1730     0.3880 C.3   1 <1>  -0.1600 
 17 C       -3.6480     0.2400    -1.2060 C.3   1 <1>  -0.1600 
 18 C        3.7500    -3.0700     1.7860 C.3   1 <1>  -0.0600 
 19 O       -5.1890     0.8980     2.0050 O.3   1 <1>  -0.6800 
 20 C       -5.8870     0.5730    -0.2560 C.3   1 <1>  -0.1600 
 21 C       -5.1050     0.5430    -1.5750 C.3   1 <1>  -0.1600 
 22 H       -2.5320    -1.1920     0.9010 H     1 <1>   0.0800 
 23 H       -2.4800     0.0780     2.0670 H     1 <1>   0.0800 
 24 H       -0.7600     1.9320     1.7720 H     1 <1>   0.0800 
 25 H        0.2600     1.8810     0.3670 H     1 <1>   0.0800 
 26 H        0.9250    -2.6710     0.8810 H     1 <1>   0.1500 
 27 H       -1.5750     3.5570     0.1940 H     1 <1>   0.0800 
 28 H       -1.6350     2.3990    -1.0830 H     1 <1>   0.0800 
 29 H        1.7510     1.5950    -1.6620 H     1 <1>   0.0800 
 30 H        3.3640     1.0530    -2.0370 H     1 <1>   0.0800 
 31 H        3.0700     1.9830    -0.5880 H     1 <1>   0.0800 
 32 H       -4.8830    -0.8140     1.0250 H     1 <1>   0.0800 
 33 H       -3.8950     2.7390    -0.2110 H     1 <1>   0.0800 
 34 H       -3.3220     2.4840     1.4110 H     1 <1>   0.0800 
 35 H       -2.9690     0.7430    -1.8700 H     1 <1>   0.0800 
 36 H       -3.4860    -0.8200    -1.3030 H     1 <1>   0.0800 
 37 H        3.0880    -3.8430     2.1330 H     1 <1>   0.0800 
 38 H        4.1960    -2.5860     2.6360 H     1 <1>   0.0800 
 39 H        4.5270    -3.5180     1.1920 H     1 <1>   0.0800 
 40 H       -5.2760     1.8540     1.8330 H     1 <1>   0.4000 
 41 H       -6.6750    -0.1590    -0.2590 H     1 <1>   0.0800 
 42 H       -6.3060     1.5530    -0.1110 H     1 <1>   0.0800 
 43 H       -5.4910    -0.2060    -2.2450 H     1 <1>   0.0800 
 44 H       -5.1700     1.5030    -2.0580 H     1 <1>   0.0800 
@<TRIPOS>BOND
  1   1   2  2   
  2   1   3  2   
  3   1   4  am  
  4   1   5  1   
  5   4   6  1   
  6   4   7  1   
  7   5   8  2   
  8   5   9  1   
  9   6  10  1   
 10   6  22  1   
 11   6  23  1   
 12   7  11  1   
 13   7  24  1   
 14   7  25  1   
 15   8  12  1   
 16   8  13  1   
 17   9  14  2   
 18   9  26  1   
 19  10  15  1   
 20  10  16  1   
 21  10  17  1   
 22  11  16  1   
 23  11  27  1   
 24  11  28  1   
 25  12  14  1   
 26  13  29  1   
 27  13  30  1   
 28  13  31  1   
 29  14  18  1   
 30  15  19  1   
 31  15  20  1   
 32  15  32  1   
 33  16  33  1   
 34  16  34  1   
 35  17  21  1   
 36  17  35  1   
 37  17  36  1   
 38  18  37  1   
 39  18  38  1   
 40  18  39  1   
 41  19  40  1   
 42  20  21  1   
 43  20  41  1   
 44  20  42  1   
 45  21  43  1   
 46  21  44  1   
@<TRIPOS>SUBSTRUCTURE
  1 ****   4 GROUP 4 **** **** 0

# MOE 2024.06 (io_trps.svl 2023.06)
