@<TRIPOS>MOLECULE
NONAME
55 57 1 0 0 
SMALL
USER_CHARGES


@<TRIPOS>ATOM
  1 O       -0.1190     1.9060     2.1370 O.2   1 <1>  -0.5700 
  2 C        0.0160     2.7130     1.2330 C.2   1 <1>   0.5440 
  3 N       -1.0990     3.3470     0.7240 N.am  1 <1>  -0.6600 
  4 C        1.3420     2.9910     0.7370 C.ar  1 <1>   0.0860 
  5 C       -2.4800     3.0340     1.1950 C.3   1 <1>   0.1400 
  6 C       -1.0650     4.3160    -0.4040 C.3   1 <1>   0.1400 
  7 C        1.8310     2.4580    -0.4610 C.ar  1 <1>   0.0830 
  8 C        2.1840     3.8410     1.4500 C.ar  1 <1>  -0.1500 
  9 C       -3.3070     2.4020     0.0600 C.3   1 <1>   0.0000 
 10 C       -1.8590     3.7540    -1.5880 C.3   1 <1>  -0.1600 
 11 O        1.0950     1.6170    -1.2190 O.3   1 <1>  -0.3630 
 12 C        3.0910     2.7890    -0.9300 C.ar  1 <1>  -0.1500 
 13 C        3.4440     4.1810     0.9960 C.ar  1 <1>   0.0830 
 14 C       -4.7320     2.0880     0.5510 C.3   1 <1>   0.2000 
 15 C       -3.2860     3.3410    -1.1800 C.3   1 <1>  -0.1600 
 16 C       -2.8020     0.9960    -0.3130 C.3   1 <1>  -0.1600 
 17 C        0.8940     0.3100    -0.7240 C.3   1 <1>   0.0400 
 18 C        3.9200     3.6450    -0.2130 C.ar  1 <1>   0.0830 
 19 O        4.1390     5.0370     1.7990 O.3   1 <1>  -0.3630 
 20 O       -5.5520     3.2190     0.5310 O.3   1 <1>  -0.5600 
 21 C       -5.2560     0.9950    -0.3830 C.3   1 <1>  -0.1600 
 22 C       -4.0120     0.2540    -0.8940 C.3   1 <1>  -0.1600 
 23 O        5.1730     3.9510    -0.6460 O.3   1 <1>  -0.3630 
 24 C        4.9310     6.0580     1.2330 C.3   1 <1>   0.0400 
 25 C       -6.7490     3.0900     1.2300 C.3   1 <1>   0.0400 
 26 C        5.7500     3.3450    -1.7820 C.3   1 <1>   0.0400 
 27 H       -2.4510     2.3710     2.0420 H     1 <1>   0.0800 
 28 H       -2.9530     3.9470     1.5130 H     1 <1>   0.0800 
 29 H       -1.5090     5.2410    -0.0780 H     1 <1>   0.0800 
 30 H       -0.0560     4.5230    -0.7120 H     1 <1>   0.0800 
 31 H        1.8380     4.2500     2.3820 H     1 <1>   0.1500 
 32 H       -1.9130     4.5010    -2.3600 H     1 <1>   0.0800 
 33 H       -1.3260     2.9140    -1.9960 H     1 <1>   0.0800 
 34 H        3.3980     2.3560    -1.8620 H     1 <1>   0.1500 
 35 H       -4.6810     1.7110     1.5590 H     1 <1>   0.0800 
 36 H       -3.7800     2.8770    -2.0140 H     1 <1>   0.0800 
 37 H       -3.8310     4.2390    -0.9470 H     1 <1>   0.0800 
 38 H       -1.9780     1.0130    -1.0010 H     1 <1>   0.0800 
 39 H       -2.4780     0.4870     0.5800 H     1 <1>   0.0800 
 40 H        0.4560    -0.2820    -1.5070 H     1 <1>   0.0800 
 41 H        0.2280     0.3420     0.1190 H     1 <1>   0.0800 
 42 H        1.8430    -0.1060    -0.4340 H     1 <1>   0.0800 
 43 H       -5.9140     0.3260     0.1420 H     1 <1>   0.0800 
 44 H       -5.7740     1.4410    -1.2130 H     1 <1>   0.0800 
 45 H       -4.0120    -0.7760    -0.5830 H     1 <1>   0.0800 
 46 H       -3.9860     0.2920    -1.9700 H     1 <1>   0.0800 
 47 H        5.0490     6.8350     1.9650 H     1 <1>   0.0800 
 48 H        4.4380     6.4450     0.3590 H     1 <1>   0.0800 
 49 H        5.8930     5.6510     0.9790 H     1 <1>   0.0800 
 50 H       -7.2750     4.0260     1.1640 H     1 <1>   0.0800 
 51 H       -6.5370     2.8660     2.2610 H     1 <1>   0.0800 
 52 H       -7.3430     2.3110     0.7850 H     1 <1>   0.0800 
 53 H        6.7540     3.7140    -1.8840 H     1 <1>   0.0800 
 54 H        5.1740     3.6100    -2.6510 H     1 <1>   0.0800 
 55 H        5.7670     2.2790    -1.6390 H     1 <1>   0.0800 
@<TRIPOS>BOND
  1   1   2  2   
  2   2   3  am  
  3   2   4  1   
  4   3   5  1   
  5   3   6  1   
  6   4   7  ar  
  7   4   8  ar  
  8   5   9  1   
  9   5  27  1   
 10   5  28  1   
 11   6  10  1   
 12   6  29  1   
 13   6  30  1   
 14   7  11  1   
 15   7  12  ar  
 16   8  13  ar  
 17   8  31  1   
 18   9  14  1   
 19   9  15  1   
 20   9  16  1   
 21  10  15  1   
 22  10  32  1   
 23  10  33  1   
 24  11  17  1   
 25  12  18  ar  
 26  12  34  1   
 27  13  18  ar  
 28  13  19  1   
 29  14  20  1   
 30  14  21  1   
 31  14  35  1   
 32  15  36  1   
 33  15  37  1   
 34  16  22  1   
 35  16  38  1   
 36  16  39  1   
 37  17  40  1   
 38  17  41  1   
 39  17  42  1   
 40  18  23  1   
 41  19  24  1   
 42  20  25  1   
 43  21  22  1   
 44  21  43  1   
 45  21  44  1   
 46  22  45  1   
 47  22  46  1   
 48  23  26  1   
 49  24  47  1   
 50  24  48  1   
 51  24  49  1   
 52  25  50  1   
 53  25  51  1   
 54  25  52  1   
 55  26  53  1   
 56  26  54  1   
 57  26  55  1   
@<TRIPOS>SUBSTRUCTURE
  1 ****   2 GROUP 4 **** **** 0

# MOE 2024.06 (io_trps.svl 2023.06)
