@<TRIPOS>MOLECULE
NONAME
36 37 1 0 0 
SMALL
USER_CHARGES


@<TRIPOS>ATOM
  1 F       -1.4840    -0.2060     1.6190 F     1 <1>  -0.3400 
  2 C       -1.7070    -0.2200     0.3060 C.3   1 <1>   0.2600 
  3 C       -2.2990     1.1370    -0.0680 C.3   1 <1>   0.2000 
  4 C       -2.8370    -1.2200     0.0320 C.3   1 <1>   0.2090 
  5 O       -2.2370     1.2990    -1.4530 O.3   1 <1>  -0.6800 
  6 C       -3.7700     1.0000     0.3350 C.3   1 <1>   0.2090 
  7 N       -4.1140    -0.4290     0.0590 N.pl3 1 <1>  -0.8380 
  8 C       -5.3400    -0.9690    -0.0820 C.ar  1 <1>   0.4100 
  9 N       -5.3980    -2.2770    -0.3670 N.ar  1 <1>  -0.6200 
 10 C       -6.5170    -0.2250     0.0590 C.ar  1 <1>  -0.1500 
 11 C       -6.5650    -2.8320    -0.4990 C.ar  1 <1>   0.5280 
 12 C       -7.7260    -0.8380    -0.0890 C.ar  1 <1>   0.2180 
 13 N       -7.7260    -2.1560    -0.3700 N.ar  1 <1>  -0.1790 
 14 C       -6.6260    -4.3200    -0.8150 C.3   1 <1>  -0.0170 
 15 C       -9.0510    -0.1070     0.0510 C.3   1 <1>  -0.0970 
 16 C       -7.1390    -5.1510     0.3740 C.3   1 <1>  -0.1600 
 17 C       -7.1770    -6.6430     0.0300 C.3   1 <1>  -0.2400 
 18 H       -0.7700    -0.4500    -0.1690 H     1 <1>   0.0800 
 19 H       -1.7900     1.9640     0.3960 H     1 <1>   0.0800 
 20 H       -2.8480    -2.0080     0.7650 H     1 <1>   0.0800 
 21 H       -2.7140    -1.6470    -0.9480 H     1 <1>   0.0800 
 22 H       -2.8580     0.6710    -1.8770 H     1 <1>   0.4000 
 23 H       -4.3880     1.6870    -0.2170 H     1 <1>   0.0800 
 24 H       -3.8710     1.1880     1.3910 H     1 <1>   0.0800 
 25 H       -6.4510     0.8210     0.2870 H     1 <1>   0.1500 
 26 H       -8.6030    -2.6650    -0.4840 H     1 <1>   0.4570 
 27 H       -7.2530    -4.4790    -1.6750 H     1 <1>   0.0800 
 28 H       -5.6370    -4.6590    -1.0750 H     1 <1>   0.0800 
 29 H       -8.8860     0.9320     0.2750 H     1 <1>   0.0800 
 30 H       -9.6330    -0.5320     0.8500 H     1 <1>   0.0800 
 31 H       -9.6130    -0.1660    -0.8640 H     1 <1>   0.0800 
 32 H       -6.4850    -5.0060     1.2190 H     1 <1>   0.0800 
 33 H       -8.1270    -4.8370     0.6610 H     1 <1>   0.0800 
 34 H       -6.1940    -7.0010    -0.2240 H     1 <1>   0.0800 
 35 H       -7.8390    -6.8330    -0.7970 H     1 <1>   0.0800 
 36 H       -7.5280    -7.2070     0.8780 H     1 <1>   0.0800 
@<TRIPOS>BOND
  1   1   2  1   
  2   2   3  1   
  3   2   4  1   
  4   2  18  1   
  5   3   5  1   
  6   3   6  1   
  7   3  19  1   
  8   4   7  1   
  9   4  20  1   
 10   4  21  1   
 11   5  22  1   
 12   6   7  1   
 13   6  23  1   
 14   6  24  1   
 15   7   8  1   
 16   8   9  ar  
 17   8  10  ar  
 18   9  11  ar  
 19  10  12  ar  
 20  10  25  1   
 21  11  13  ar  
 22  11  14  1   
 23  12  13  ar  
 24  12  15  1   
 25  13  26  1   
 26  14  16  1   
 27  14  27  1   
 28  14  28  1   
 29  15  29  1   
 30  15  30  1   
 31  15  31  1   
 32  16  17  1   
 33  16  32  1   
 34  16  33  1   
 35  17  34  1   
 36  17  35  1   
 37  17  36  1   
@<TRIPOS>SUBSTRUCTURE
  1 ****   8 GROUP 4 **** **** 0

# MOE 2024.06 (io_trps.svl 2023.06)
