@<TRIPOS>MOLECULE
NONAME
44 45 1 0 0 
SMALL
USER_CHARGES


@<TRIPOS>ATOM
  1 CL       0.6800     0.4390     0.4600 Cl    1 <1>  -0.1770 
  2 C        1.4460    -1.0360    -0.1020 C.ar  1 <1>   0.1770 
  3 C        1.0060    -2.2810     0.3320 C.ar  1 <1>   0.4100 
  4 C        2.4920    -0.9880    -0.9800 C.ar  1 <1>   0.1600 
  5 N        1.5890    -3.3870    -0.1000 N.ar  1 <1>  -0.6200 
  6 N       -0.0490    -2.4140     1.2120 N.pl3 1 <1>  -0.8690 
  7 N        3.0850    -2.0870    -1.4150 N.ar  1 <1>  -0.6200 
  8 C        2.5970    -3.2220    -0.9420 C.ar  1 <1>   0.4770 
  9 C       -0.3840    -3.6610     1.9200 C.3   1 <1>   0.2090 
 10 C        3.2720    -4.4800    -1.4320 C.3   1 <1>  -0.0970 
 11 C       -1.3640    -4.4460     1.0510 C.3   1 <1>  -0.1600 
 12 C       -1.4980    -5.8780     1.5560 C.3   1 <1>   0.3430 
 13 N       -2.2800    -6.6910     0.5850 N.4   1 <1>  -0.9590 
 14 C       -3.7410    -6.3360     0.6110 C.3   1 <1>   0.3430 
 15 C       -2.0690    -8.1460     0.8350 C.3   1 <1>   0.3430 
 16 C       -4.5420    -7.1350    -0.4280 C.3   1 <1>  -0.0190 
 17 C       -2.7960    -8.9650    -0.2330 C.3   1 <1>  -0.1600 
 18 C       -6.0150    -6.7940    -0.2690 C.2   1 <1>   0.5690 
 19 C       -4.2980    -8.6480    -0.2670 C.3   1 <1>  -0.1600 
 20 O       -6.3960    -6.2880     0.7540 O.2   1 <1>  -0.5700 
 21 N       -6.8830    -7.0550    -1.2610 N.am  1 <1>  -0.8000 
 22 H        2.8540    -0.0390    -1.3350 H     1 <1>   0.1500 
 23 H       -0.4290    -1.5460     1.6090 H     1 <1>   0.4000 
 24 H       -0.8180    -3.4290     2.8790 H     1 <1>   0.0800 
 25 H        0.5190    -4.2280     2.0840 H     1 <1>   0.0800 
 26 H        3.1670    -5.2660    -0.7090 H     1 <1>   0.0800 
 27 H        4.3190    -4.2960    -1.5920 H     1 <1>   0.0800 
 28 H        2.8250    -4.7860    -2.3580 H     1 <1>   0.0800 
 29 H       -0.9840    -4.4660     0.0450 H     1 <1>   0.0800 
 30 H       -2.3130    -3.9420     1.0650 H     1 <1>   0.0800 
 31 H       -1.9720    -5.8910     2.5250 H     1 <1>   0.0800 
 32 H       -0.5090    -6.2980     1.6570 H     1 <1>   0.0800 
 33 H       -1.9180    -6.4820    -0.3550 H     1 <1>   0.4500 
 34 H       -3.8740    -5.2840     0.4170 H     1 <1>   0.0800 
 35 H       -4.1440    -6.5410     1.5900 H     1 <1>   0.0800 
 36 H       -2.4500    -8.4090     1.8100 H     1 <1>   0.0800 
 37 H       -1.0150    -8.3770     0.8090 H     1 <1>   0.0800 
 38 H       -4.2340    -6.8210    -1.4080 H     1 <1>   0.0800 
 39 H       -2.6620   -10.0120    -0.0210 H     1 <1>   0.0800 
 40 H       -2.3540    -8.7750    -1.1960 H     1 <1>   0.0800 
 41 H       -4.7650    -9.1840    -1.0760 H     1 <1>   0.0800 
 42 H       -4.7530    -8.9850     0.6510 H     1 <1>   0.0800 
 43 H       -7.8720    -6.8280    -1.1270 H     1 <1>   0.3700 
 44 H       -6.6510    -7.4970    -2.1510 H     1 <1>   0.3700 
@<TRIPOS>BOND
  1   1   2  1   
  2   2   3  ar  
  3   2   4  ar  
  4   3   5  ar  
  5   3   6  1   
  6   4   7  ar  
  7   4  22  1   
  8   5   8  ar  
  9   6   9  1   
 10   6  23  1   
 11   7   8  ar  
 12   8  10  1   
 13   9  11  1   
 14   9  24  1   
 15   9  25  1   
 16  10  26  1   
 17  10  27  1   
 18  10  28  1   
 19  11  12  1   
 20  11  29  1   
 21  11  30  1   
 22  12  13  1   
 23  12  31  1   
 24  12  32  1   
 25  13  14  1   
 26  13  15  1   
 27  13  33  1   
 28  14  16  1   
 29  14  34  1   
 30  14  35  1   
 31  15  17  1   
 32  15  36  1   
 33  15  37  1   
 34  16  18  1   
 35  16  19  1   
 36  16  38  1   
 37  17  19  1   
 38  17  39  1   
 39  17  40  1   
 40  18  20  2   
 41  18  21  am  
 42  19  41  1   
 43  19  42  1   
 44  21  43  1   
 45  21  44  1   
@<TRIPOS>SUBSTRUCTURE
  1 ****  11 GROUP 4 **** **** 0

# MOE 2024.06 (io_trps.svl 2023.06)
