@<TRIPOS>MOLECULE
NONAME
52 54 1 0 0 
SMALL
USER_CHARGES


@<TRIPOS>ATOM
  1 O        0.5290    -0.5600    -1.7340 O.2   1 <1>  -0.5700 
  2 C        1.3710    -0.9790    -0.9760 C.2   1 <1>   0.5690 
  3 N        1.8980    -0.1550    -0.0020 N.am  1 <1>  -0.6600 
  4 C        1.8420    -2.4160    -1.2050 C.3   1 <1>   0.1810 
  5 C        3.2010    -0.3880     0.6890 C.3   1 <1>   0.1400 
  6 C        1.2050     1.1080     0.3760 C.3   1 <1>   0.1400 
  7 O        1.9710    -3.1350     0.0120 O.3   1 <1>  -0.3620 
  8 C        4.3690     0.1020    -0.1850 C.3   1 <1>   0.3430 
  9 C        2.0610     2.3440     0.0740 C.3   1 <1>  -0.1600 
 10 C        1.3860    -4.3500     0.0550 C.ar  1 <1>   0.0820 
 11 N        4.3520     1.5800    -0.4770 N.4   1 <1>  -0.9590 
 12 C        3.0870     2.1380    -1.0420 C.3   1 <1>   0.3430 
 13 C        0.0110    -4.4860     0.2560 C.ar  1 <1>  -0.1440 
 14 C        2.1960    -5.4600    -0.1080 C.ar  1 <1>  -0.1500 
 15 C        5.5530     1.9730    -1.2610 C.3   1 <1>   0.5230 
 16 C       -0.5440    -5.7640     0.2470 C.ar  1 <1>  -0.1440 
 17 C       -0.8590    -3.2490     0.4830 C.3   1 <1>  -0.0970 
 18 C        1.6400    -6.7240    -0.1000 C.ar  1 <1>  -0.1500 
 19 C        6.7190     2.0840    -0.2860 C.2   1 <1>   0.0060 
 20 C        0.2760    -6.8700     0.0720 C.ar  1 <1>  -0.1500 
 21 C       -2.0380    -5.9970     0.4260 C.3   1 <1>  -0.0970 
 22 N        6.5700     2.0620     1.0050 N.2   1 <1>  -0.5650 
 23 N        8.0090     2.2250    -0.6750 N.pl3 1 <1>   0.0330 
 24 C        7.8240     2.1940     1.4800 C.2   1 <1>   0.0770 
 25 C        8.7120     2.2930     0.4690 C.2   1 <1>  -0.3020 
 26 H        2.7960    -2.4210    -1.6950 H     1 <1>   0.0800 
 27 H        1.1290    -2.9220    -1.8340 H     1 <1>   0.0800 
 28 H        3.3350    -1.4320     0.9000 H     1 <1>   0.0800 
 29 H        3.2140     0.1230     1.6370 H     1 <1>   0.0800 
 30 H        0.9570     1.0790     1.4240 H     1 <1>   0.0800 
 31 H        0.2740     1.1880    -0.1610 H     1 <1>   0.0800 
 32 H        4.3530    -0.4490    -1.1090 H     1 <1>   0.0800 
 33 H        5.2890    -0.1400     0.3240 H     1 <1>   0.0800 
 34 H        2.5440     2.6880     0.9710 H     1 <1>   0.0800 
 35 H        1.3870     3.1260    -0.2280 H     1 <1>   0.0800 
 36 H        4.5450     2.0390     0.4320 H     1 <1>   0.4500 
 37 H        3.2910     3.0970    -1.4890 H     1 <1>   0.0800 
 38 H        2.6850     1.4870    -1.8040 H     1 <1>   0.0800 
 39 H        3.2540    -5.3350    -0.2410 H     1 <1>   0.1500 
 40 H        5.3960     2.9340    -1.7230 H     1 <1>   0.0800 
 41 H        5.7600     1.2440    -2.0270 H     1 <1>   0.0800 
 42 H       -0.2900    -2.4580     0.9370 H     1 <1>   0.0800 
 43 H       -1.6770    -3.4640     1.1440 H     1 <1>   0.0800 
 44 H       -1.2510    -2.9000    -0.4550 H     1 <1>   0.0800 
 45 H        2.2630    -7.5910    -0.2280 H     1 <1>   0.1500 
 46 H       -0.1450    -7.8600     0.0700 H     1 <1>   0.1500 
 47 H       -2.5960    -5.3610    -0.2370 H     1 <1>   0.0800 
 48 H       -2.3230    -5.7860     1.4410 H     1 <1>   0.0800 
 49 H       -2.2990    -7.0160     0.2060 H     1 <1>   0.0800 
 50 H        8.3990     2.2780    -1.6240 H     1 <1>   0.2700 
 51 H        8.0290     2.2130     2.5400 H     1 <1>   0.1500 
 52 H        9.7820     2.4070     0.5060 H     1 <1>   0.1500 
@<TRIPOS>BOND
  1   1   2  2   
  2   2   3  am  
  3   2   4  1   
  4   3   5  1   
  5   3   6  1   
  6   4   7  1   
  7   4  26  1   
  8   4  27  1   
  9   5   8  1   
 10   5  28  1   
 11   5  29  1   
 12   6   9  1   
 13   6  30  1   
 14   6  31  1   
 15   7  10  1   
 16   8  11  1   
 17   8  32  1   
 18   8  33  1   
 19   9  12  1   
 20   9  34  1   
 21   9  35  1   
 22  10  13  ar  
 23  10  14  ar  
 24  11  12  1   
 25  11  15  1   
 26  11  36  1   
 27  12  37  1   
 28  12  38  1   
 29  13  16  ar  
 30  13  17  1   
 31  14  18  ar  
 32  14  39  1   
 33  15  19  1   
 34  15  40  1   
 35  15  41  1   
 36  16  20  ar  
 37  16  21  1   
 38  17  42  1   
 39  17  43  1   
 40  17  44  1   
 41  18  20  ar  
 42  18  45  1   
 43  19  22  2   
 44  19  23  1   
 45  20  46  1   
 46  21  47  1   
 47  21  48  1   
 48  21  49  1   
 49  22  24  1   
 50  23  25  1   
 51  23  50  1   
 52  24  25  2   
 53  24  51  1   
 54  25  52  1   
@<TRIPOS>SUBSTRUCTURE
  1 ****   5 GROUP 4 **** **** 0

# MOE 2024.06 (io_trps.svl 2023.06)
