@<TRIPOS>MOLECULE
NONAME
40 42 1 0 0 
SMALL
USER_CHARGES


@<TRIPOS>ATOM
  1 S        0.0870    -0.1740     1.8470 S.3   1 <1>  -0.0800 
  2 C        1.2250    -0.9900     0.7630 C.2   1 <1>  -0.0450 
  3 C        0.7670     1.3980     1.5050 C.2   1 <1>  -0.1100 
  4 C        2.0480    -0.0510     0.2170 C.2   1 <1>  -0.1810 
  5 C        1.1550    -2.4290     0.6370 C.2   1 <1>   0.7150 
  6 C        1.7850     1.2880     0.6350 C.2   1 <1>  -0.1500 
  7 C        3.1810    -0.3170    -0.7590 C.3   1 <1>  -0.0590 
  8 O        2.1830    -3.0820     0.5910 O.2   1 <1>  -0.5700 
  9 N       -0.0430    -3.1040     0.5360 N.am  1 <1>  -0.6600 
 10 C       -1.3170    -2.4970     0.0730 C.3   1 <1>   0.1400 
 11 C       -0.1110    -4.5850     0.4410 C.3   1 <1>   0.1400 
 12 C       -2.0700    -3.6430    -0.5990 C.3   1 <1>   0.2000 
 13 C       -1.5650    -4.9060     0.0900 C.3   1 <1>  -0.0800 
 14 O       -3.4400    -3.5200    -0.4390 O.3   1 <1>  -0.6800 
 15 C       -1.7270    -6.1700    -0.7660 C.3   1 <1>   0.0210 
 16 C       -1.1180    -7.3760    -0.0770 C.2   1 <1>   0.1080 
 17 N       -1.5340    -7.8140     1.0710 N.2   1 <1>  -0.7070 
 18 C       -0.0610    -8.1300    -0.5760 C.2   1 <1>  -0.1500 
 19 N       -0.7460    -8.8730     1.3360 N.pl3 1 <1>   0.3000 
 20 C        0.1560    -9.0830     0.3540 C.2   1 <1>  -0.3320 
 21 C        1.1840   -10.1990     0.3650 C.3   1 <1>  -0.0600 
 22 H        0.3320     2.2490     1.9980 H     1 <1>   0.1500 
 23 H        2.3720     2.1110     0.2650 H     1 <1>   0.1500 
 24 H        3.0420     0.2660    -1.6520 H     1 <1>   0.0800 
 25 H        3.2230    -1.3550    -1.0340 H     1 <1>   0.0800 
 26 H        4.1190    -0.0470    -0.3090 H     1 <1>   0.0800 
 27 H       -1.8640    -2.1360     0.9270 H     1 <1>   0.0800 
 28 H       -1.1330    -1.6960    -0.6210 H     1 <1>   0.0800 
 29 H        0.5570    -4.9200    -0.3350 H     1 <1>   0.0800 
 30 H        0.1760    -5.0410     1.3740 H     1 <1>   0.0800 
 31 H       -1.8490    -3.6520    -1.6530 H     1 <1>   0.0800 
 32 H       -2.0880    -5.0440     1.0210 H     1 <1>   0.0800 
 33 H       -3.6850    -3.6590     0.4970 H     1 <1>   0.4000 
 34 H       -1.2570    -6.0320    -1.7230 H     1 <1>   0.0800 
 35 H       -2.7720    -6.3600    -0.9310 H     1 <1>   0.0800 
 36 H        0.4540    -7.9660    -1.5050 H     1 <1>   0.1500 
 37 H       -0.8480    -9.4290     2.1940 H     1 <1>   0.2700 
 38 H        1.7850   -10.1560    -0.5260 H     1 <1>   0.0800 
 39 H        0.6950   -11.1560     0.4030 H     1 <1>   0.0800 
 40 H        1.8320   -10.1000     1.2190 H     1 <1>   0.0800 
@<TRIPOS>BOND
  1   1   2  1   
  2   1   3  1   
  3   2   4  2   
  4   2   5  1   
  5   3   6  2   
  6   3  22  1   
  7   4   6  1   
  8   4   7  1   
  9   5   8  2   
 10   5   9  am  
 11   6  23  1   
 12   7  24  1   
 13   7  25  1   
 14   7  26  1   
 15   9  10  1   
 16   9  11  1   
 17  10  12  1   
 18  10  27  1   
 19  10  28  1   
 20  11  13  1   
 21  11  29  1   
 22  11  30  1   
 23  12  13  1   
 24  12  14  1   
 25  12  31  1   
 26  13  15  1   
 27  13  32  1   
 28  14  33  1   
 29  15  16  1   
 30  15  34  1   
 31  15  35  1   
 32  16  17  2   
 33  16  18  1   
 34  17  19  1   
 35  18  20  2   
 36  18  36  1   
 37  19  20  1   
 38  19  37  1   
 39  20  21  1   
 40  21  38  1   
 41  21  39  1   
 42  21  40  1   
@<TRIPOS>SUBSTRUCTURE
  1 ****  11 GROUP 4 **** **** 0

# MOE 2024.06 (io_trps.svl 2023.06)
