@<TRIPOS>MOLECULE
NONAME
33 34 1 0 0 
SMALL
USER_CHARGES


@<TRIPOS>ATOM
  1 O        0.3770     0.1220    -1.0420 O.2   1 <1>  -0.5700 
  2 C        1.2900     0.5810    -0.3800 C.2   1 <1>   0.5440 
  3 N        1.0970     1.7810     0.2540 N.am  1 <1>  -0.7300 
  4 C        2.5580    -0.1010    -0.2650 C.ar  1 <1>   0.0860 
  5 C       -0.1470     2.5920     0.2110 C.3   1 <1>   0.0600 
  6 C        2.6350    -1.4890    -0.0390 C.ar  1 <1>   0.4100 
  7 C        3.7510     0.6040    -0.3680 C.ar  1 <1>  -0.1500 
  8 N        3.7840    -2.1540     0.0930 N.ar  1 <1>  -0.6200 
  9 N        1.4930    -2.2470     0.0670 N.pl3 1 <1>  -0.8690 
 10 C        4.9330    -0.0860    -0.2330 C.ar  1 <1>  -0.1500 
 11 C        4.8920    -1.4490    -0.0050 C.ar  1 <1>   0.1600 
 12 C        1.4750    -3.7220     0.0350 C.3   1 <1>   0.2090 
 13 C        0.0330    -4.2140     0.1200 C.3   1 <1>  -0.1600 
 14 C       -0.0220    -5.7500     0.1100 C.3   1 <1>   0.0080 
 15 C       -1.4400    -6.2690     0.1750 C.2   1 <1>   0.5690 
 16 N       -2.0460    -6.5340     1.2760 N.2   1 <1>  -0.6190 
 17 N       -2.1560    -6.5030    -0.8700 N.2   1 <1>  -0.6190 
 18 N       -3.2100    -6.9560     0.9200 N.2   1 <1>  -0.2500 
 19 N       -3.2770    -6.9370    -0.3820 N.2   1 <1>  -0.2500 
 20 H        1.8200     2.1150     0.8950 H     1 <1>   0.3700 
 21 H       -0.8500     2.1700    -0.4870 H     1 <1>   0.0800 
 22 H        0.0840     3.5970    -0.0980 H     1 <1>   0.0800 
 23 H       -0.6010     2.6150     1.1870 H     1 <1>   0.0800 
 24 H        3.7500     1.6640    -0.5550 H     1 <1>   0.1500 
 25 H        0.6410    -1.8020    -0.3100 H     1 <1>   0.4000 
 26 H        5.8800     0.4190    -0.3060 H     1 <1>   0.1500 
 27 H        5.8210    -1.9840     0.1000 H     1 <1>   0.1500 
 28 H        2.0460    -4.1000     0.8670 H     1 <1>   0.0800 
 29 H        1.9310    -4.0620    -0.8800 H     1 <1>   0.0800 
 30 H       -0.5320    -3.8410    -0.7160 H     1 <1>   0.0800 
 31 H       -0.4210    -3.8570     1.0290 H     1 <1>   0.0800 
 32 H        0.5140    -6.1450     0.9520 H     1 <1>   0.0800 
 33 H        0.4270    -6.1300    -0.7890 H     1 <1>   0.0800 
@<TRIPOS>BOND
  1   1   2  2   
  2   2   3  am  
  3   2   4  1   
  4   3   5  1   
  5   3  20  1   
  6   4   6  ar  
  7   4   7  ar  
  8   5  21  1   
  9   5  22  1   
 10   5  23  1   
 11   6   8  ar  
 12   6   9  1   
 13   7  10  ar  
 14   7  24  1   
 15   8  11  ar  
 16   9  12  1   
 17   9  25  1   
 18  10  11  ar  
 19  10  26  1   
 20  11  27  1   
 21  12  13  1   
 22  12  28  1   
 23  12  29  1   
 24  13  14  1   
 25  13  30  1   
 26  13  31  1   
 27  14  15  1   
 28  14  32  1   
 29  14  33  1   
 30  15  16  1   
 31  15  17  2   
 32  16  18  1   
 33  17  19  1   
 34  18  19  2   
@<TRIPOS>SUBSTRUCTURE
  1 ****   9 GROUP 4 **** **** 0

# MOE 2024.06 (io_trps.svl 2023.06)
