@<TRIPOS>MOLECULE
NONAME
47 49 1 0 0 
SMALL
USER_CHARGES


@<TRIPOS>ATOM
  1 CL      -0.5630    -0.7920    -1.7020 Cl    1 <1>  -0.1770 
  2 C       -2.0120     0.1320    -1.4160 C.ar  1 <1>   0.1770 
  3 C       -2.3030     1.2050    -2.2330 C.ar  1 <1>  -0.1500 
  4 C       -2.8480    -0.2320    -0.3750 C.ar  1 <1>  -0.1500 
  5 C       -3.4600     1.9140    -1.9800 C.ar  1 <1>   0.1770 
  6 C       -4.0190     0.4780    -0.1250 C.ar  1 <1>  -0.0090 
  7 CL      -3.8650     3.2770    -2.9880 Cl    1 <1>  -0.1770 
  8 C       -4.3080     1.5650    -0.9440 C.ar  1 <1>  -0.1500 
  9 S       -5.1300     0.0130     1.2320 S.o2  1 <1>   1.4470 
 10 O       -5.1590     1.0610     2.2230 O.2   1 <1>  -0.6500 
 11 O       -4.8930    -1.3560     1.6420 O.2   1 <1>  -0.6500 
 12 N       -6.6600    -0.0120     0.4940 N.am  1 <1>  -0.8490 
 13 C       -6.9280    -1.2320    -0.2930 C.3   1 <1>   0.1960 
 14 C       -7.7230     0.2690     1.4700 C.3   1 <1>   0.1960 
 15 C       -8.0180    -2.0840     0.4090 C.3   1 <1>   0.4230 
 16 C       -9.1120    -0.1630     0.9160 C.3   1 <1>  -0.1600 
 17 N       -7.6880    -3.5520     0.4880 N.4   1 <1>  -0.9590 
 18 C       -9.4490    -1.4840     0.0200 C.3   1 <1>   0.0000 
 19 C       -7.7800    -4.1900    -0.8120 C.3   1 <1>   0.3430 
 20 C       -6.3920    -3.8440     1.1840 C.3   1 <1>   0.2630 
 21 C       -9.8530    -2.7250    -0.9470 C.3   1 <1>  -0.1600 
 22 C      -10.8980    -0.8430    -0.2770 C.3   1 <1>   0.1200 
 23 C       -9.2540    -4.1440    -1.0630 C.3   1 <1>  -0.1600 
 24 O      -11.7810    -1.3230     0.6870 O.3   1 <1>  -0.6800 
 25 H       -1.6490     1.4820    -3.0390 H     1 <1>   0.1500 
 26 H       -2.5760    -1.0720     0.2420 H     1 <1>   0.1500 
 27 H       -5.1980     2.1480    -0.7770 H     1 <1>   0.1500 
 28 H       -7.2950    -0.9320    -1.2590 H     1 <1>   0.0800 
 29 H       -6.0250    -1.7910    -0.4620 H     1 <1>   0.0800 
 30 H       -7.5240    -0.2510     2.3950 H     1 <1>   0.0800 
 31 H       -7.7270     1.3240     1.7020 H     1 <1>   0.0800 
 32 H       -7.9250    -1.8680     1.4550 H     1 <1>   0.0800 
 33 H       -9.7810    -0.1190     1.7620 H     1 <1>   0.0800 
 34 H       -9.2860     0.7220     0.3250 H     1 <1>   0.0800 
 35 H       -8.4410    -3.9620     1.0600 H     1 <1>   0.4500 
 36 H       -7.2300    -3.6430    -1.5610 H     1 <1>   0.0800 
 37 H       -7.4350    -5.2120    -0.7730 H     1 <1>   0.0800 
 38 H       -5.5560    -3.4960     0.6000 H     1 <1>   0.0800 
 39 H       -6.2800    -4.9050     1.3420 H     1 <1>   0.0800 
 40 H       -6.3600    -3.3500     2.1420 H     1 <1>   0.0800 
 41 H      -10.8910    -3.0090    -0.8370 H     1 <1>   0.0800 
 42 H       -9.7570    -2.3340    -1.9490 H     1 <1>   0.0800 
 43 H      -11.3200    -1.0700    -1.2450 H     1 <1>   0.0800 
 44 H      -11.0120     0.2280    -0.2570 H     1 <1>   0.0800 
 45 H       -9.4550    -4.5400    -2.0440 H     1 <1>   0.0800 
 46 H       -9.7450    -4.8010    -0.3640 H     1 <1>   0.0800 
 47 H      -12.6830    -0.9640     0.5540 H     1 <1>   0.4000 
@<TRIPOS>BOND
  1   1   2  1   
  2   2   3  ar  
  3   2   4  ar  
  4   3   5  ar  
  5   3  25  1   
  6   4   6  ar  
  7   4  26  1   
  8   5   7  1   
  9   5   8  ar  
 10   6   8  ar  
 11   6   9  1   
 12   8  27  1   
 13   9  10  2   
 14   9  11  2   
 15   9  12  am  
 16  12  13  1   
 17  12  14  1   
 18  13  15  1   
 19  13  28  1   
 20  13  29  1   
 21  14  16  1   
 22  14  30  1   
 23  14  31  1   
 24  15  17  1   
 25  15  18  1   
 26  15  32  1   
 27  16  18  1   
 28  16  33  1   
 29  16  34  1   
 30  17  19  1   
 31  17  20  1   
 32  17  35  1   
 33  18  21  1   
 34  18  22  1   
 35  19  23  1   
 36  19  36  1   
 37  19  37  1   
 38  20  38  1   
 39  20  39  1   
 40  20  40  1   
 41  21  23  1   
 42  21  41  1   
 43  21  42  1   
 44  22  24  1   
 45  22  43  1   
 46  22  44  1   
 47  23  45  1   
 48  23  46  1   
 49  24  47  1   
@<TRIPOS>SUBSTRUCTURE
  1 ****  13 GROUP 4 **** **** 0

# MOE 2024.06 (io_trps.svl 2023.06)
