@<TRIPOS>MOLECULE
NONAME
23 24 1 0 0 
SMALL
USER_CHARGES


@<TRIPOS>ATOM
  1 O        0.6210     0.0460     0.0060 O.3   1 <1>  -0.4280 
  2 C        1.4230     0.6150    -0.9800 C.3   1 <1>   0.2000 
  3 C       -0.0160    -1.1260    -0.3750 C.3   1 <1>   0.0480 
  4 C        2.8570     0.1390    -0.7730 C.3   1 <1>   0.3430 
  5 C        1.5300     2.0970    -0.6550 C.3   1 <1>  -0.1600 
  6 C       -0.4220    -2.0450     0.7270 C.3   1 <1>  -0.2000 
  7 C        0.7040    -2.4240    -0.1840 C.3   1 <1>  -0.2000 
  8 N        3.3140     0.8850     0.4340 N.4   1 <1>  -0.9060 
  9 C        2.5780     2.1830     0.4540 C.3   1 <1>   0.3430 
 10 H        1.0200     0.4170    -1.9600 H     1 <1>   0.0800 
 11 H       -0.7010    -0.9680    -1.1930 H     1 <1>   0.1000 
 12 H        3.4520     0.4220    -1.6260 H     1 <1>   0.0800 
 13 H        2.9070    -0.9280    -0.6390 H     1 <1>   0.0800 
 14 H        0.5850     2.5170    -0.3540 H     1 <1>   0.0800 
 15 H        1.8830     2.6360    -1.5160 H     1 <1>   0.0800 
 16 H       -1.3460    -2.5910     0.6390 H     1 <1>   0.1000 
 17 H       -0.2120    -1.7500     1.7410 H     1 <1>   0.1000 
 18 H        1.6850    -2.4640     0.2530 H     1 <1>   0.1000 
 19 H        0.5280    -3.2290    -0.8760 H     1 <1>   0.1000 
 20 H        4.3340     0.9990     0.4770 H     1 <1>   0.4500 
 21 H        3.0080     0.3460     1.2560 H     1 <1>   0.4500 
 22 H        2.0940     2.3140     1.4090 H     1 <1>   0.0800 
 23 H        3.2450     3.0130     0.2790 H     1 <1>   0.0800 
@<TRIPOS>BOND
  1   1   2  1   
  2   1   3  1   
  3   2   4  1   
  4   2   5  1   
  5   2  10  1   
  6   3   6  1   
  7   3   7  1   
  8   3  11  1   
  9   4   8  1   
 10   4  12  1   
 11   4  13  1   
 12   5   9  1   
 13   5  14  1   
 14   5  15  1   
 15   6   7  1   
 16   6  16  1   
 17   6  17  1   
 18   7  18  1   
 19   7  19  1   
 20   8   9  1   
 21   8  20  1   
 22   8  21  1   
 23   9  22  1   
 24   9  23  1   
@<TRIPOS>SUBSTRUCTURE
  1 ****   1 GROUP 4 **** **** 0

# MOE 2024.06 (io_trps.svl 2023.06)
