@<TRIPOS>MOLECULE
NONAME
61 64 1 0 0 
SMALL
USER_CHARGES


@<TRIPOS>ATOM
  1 F        2.0460    -0.6730    -1.0090 F     1 <1>  -0.3400 
  2 C        1.2570    -1.6040    -0.4940 C.3   1 <1>   0.6800 
  3 F        0.0240    -1.1660    -0.7130 F     1 <1>  -0.3400 
  4 C        1.4970    -1.7040     1.0140 C.3   1 <1>  -0.1600 
  5 C        1.4660    -2.9260    -1.2390 C.3   1 <1>  -0.1600 
  6 C        0.7010    -2.8650     1.6400 C.3   1 <1>  -0.1600 
  7 C        0.6760    -4.0780    -0.5880 C.3   1 <1>  -0.1600 
  8 C        0.9720    -4.2040     0.9230 C.3   1 <1>  -0.0800 
  9 C        0.1290    -5.3150     1.5790 C.3   1 <1>   0.1400 
 10 N        0.4710    -6.6750     1.0540 N.am  1 <1>  -0.6600 
 11 C       -0.3750    -7.2900     0.1600 C.2   1 <1>   0.5690 
 12 C        1.6660    -7.2980     1.7090 C.3   1 <1>   0.1400 
 13 O       -1.2850    -6.6850    -0.3510 O.2   1 <1>  -0.5700 
 14 C       -0.2450    -8.7370    -0.2720 C.3   1 <1>  -0.0990 
 15 C        2.5650    -8.1670     0.7850 C.3   1 <1>   0.2800 
 16 C        0.6300    -9.6360     0.5950 C.3   1 <1>   0.1200 
 17 O        1.9840    -9.3750     0.3690 O.3   1 <1>  -0.5600 
 18 C        3.8300    -8.5820     1.5480 C.3   1 <1>  -0.1600 
 19 C        2.9840    -7.4150    -0.4880 C.3   1 <1>  -0.1600 
 20 C        4.7540    -9.4230     0.6700 C.3   1 <1>   0.3430 
 21 C        3.9100    -8.2660    -1.3510 C.3   1 <1>   0.3430 
 22 N        5.1050    -8.6600    -0.5590 N.4   1 <1>  -0.9590 
 23 C        6.1340    -9.3730    -1.3710 C.3   1 <1>   0.4860 
 24 C        7.4990    -9.1700    -0.7150 C.ar  1 <1>   0.1670 
 25 N        7.7060    -7.9830    -0.1490 N.ar  1 <1>  -0.6200 
 26 C        8.4290   -10.2000    -0.7260 C.ar  1 <1>  -0.1500 
 27 C        8.8940    -7.8190     0.4160 C.ar  1 <1>   0.1600 
 28 C        9.6560   -10.0120    -0.1280 C.ar  1 <1>  -0.1500 
 29 C        9.8850    -8.7840     0.4550 C.ar  1 <1>  -0.1500 
 30 H        1.2270    -0.7740     1.4800 H     1 <1>   0.0800 
 31 H        2.5450    -1.8760     1.1800 H     1 <1>   0.0800 
 32 H        2.5120    -3.1670    -1.2110 H     1 <1>   0.0800 
 33 H        1.1690    -2.8070    -2.2660 H     1 <1>   0.0800 
 34 H       -0.3510    -2.6370     1.5820 H     1 <1>   0.0800 
 35 H        0.9600    -2.9470     2.6820 H     1 <1>   0.0800 
 36 H        0.9180    -4.9960    -1.0920 H     1 <1>   0.0800 
 37 H       -0.3790    -3.9070    -0.7290 H     1 <1>   0.0800 
 38 H        2.0130    -4.4420     1.0540 H     1 <1>   0.0800 
 39 H       -0.9160    -5.1080     1.4150 H     1 <1>   0.0800 
 40 H        0.2830    -5.3050     2.6450 H     1 <1>   0.0800 
 41 H        1.3490    -7.8670     2.5640 H     1 <1>   0.0800 
 42 H        2.2820    -6.5030     2.0910 H     1 <1>   0.0800 
 43 H        0.0970    -8.7710    -1.2890 H     1 <1>   0.0800 
 44 H       -1.2370    -9.1490    -0.2640 H     1 <1>   0.0800 
 45 H        0.4640   -10.6610     0.3100 H     1 <1>   0.0800 
 46 H        0.3970    -9.5480     1.6420 H     1 <1>   0.0800 
 47 H        3.5530    -9.1550     2.4140 H     1 <1>   0.0800 
 48 H        4.3650    -7.7150     1.8920 H     1 <1>   0.0800 
 49 H        3.4740    -6.4930    -0.2310 H     1 <1>   0.0800 
 50 H        2.1170    -7.1590    -1.0670 H     1 <1>   0.0800 
 51 H        4.2500   -10.3380     0.4010 H     1 <1>   0.0800 
 52 H        5.6490    -9.6700     1.2200 H     1 <1>   0.0800 
 53 H        4.2090    -7.7050    -2.2230 H     1 <1>   0.0800 
 54 H        3.3790    -9.1480    -1.6740 H     1 <1>   0.0800 
 55 H        5.6230    -7.8160    -0.2530 H     1 <1>   0.4500 
 56 H        6.1730    -8.9510    -2.3600 H     1 <1>   0.0800 
 57 H        5.9000   -10.4210    -1.4490 H     1 <1>   0.0800 
 58 H        8.2110   -11.1430    -1.1960 H     1 <1>   0.1500 
 59 H        9.0930    -6.8640     0.8750 H     1 <1>   0.1500 
 60 H       10.4060   -10.7860    -0.1160 H     1 <1>   0.1500 
 61 H       10.8250    -8.5750     0.9350 H     1 <1>   0.1500 
@<TRIPOS>BOND
  1   1   2  1   
  2   2   3  1   
  3   2   4  1   
  4   2   5  1   
  5   4   6  1   
  6   4  30  1   
  7   4  31  1   
  8   5   7  1   
  9   5  32  1   
 10   5  33  1   
 11   6   8  1   
 12   6  34  1   
 13   6  35  1   
 14   7   8  1   
 15   7  36  1   
 16   7  37  1   
 17   8   9  1   
 18   8  38  1   
 19   9  10  1   
 20   9  39  1   
 21   9  40  1   
 22  10  11  am  
 23  10  12  1   
 24  11  13  2   
 25  11  14  1   
 26  12  15  1   
 27  12  41  1   
 28  12  42  1   
 29  14  16  1   
 30  14  43  1   
 31  14  44  1   
 32  15  17  1   
 33  15  18  1   
 34  15  19  1   
 35  16  17  1   
 36  16  45  1   
 37  16  46  1   
 38  18  20  1   
 39  18  47  1   
 40  18  48  1   
 41  19  21  1   
 42  19  49  1   
 43  19  50  1   
 44  20  22  1   
 45  20  51  1   
 46  20  52  1   
 47  21  22  1   
 48  21  53  1   
 49  21  54  1   
 50  22  23  1   
 51  22  55  1   
 52  23  24  1   
 53  23  56  1   
 54  23  57  1   
 55  24  25  ar  
 56  24  26  ar  
 57  25  27  ar  
 58  26  28  ar  
 59  26  58  1   
 60  27  29  ar  
 61  27  59  1   
 62  28  29  ar  
 63  28  60  1   
 64  29  61  1   
@<TRIPOS>SUBSTRUCTURE
  1 ****  19 GROUP 4 **** **** 0

# MOE 2024.06 (io_trps.svl 2023.06)
