@<TRIPOS>MOLECULE
NONAME
38 39 1 0 0 
SMALL
USER_CHARGES


@<TRIPOS>ATOM
  1 S        2.2050     0.4490     0.2120 S.3   1 <1>  -0.3320 
  2 C        1.7120    -1.2630     0.0140 C.ar  1 <1>   0.4120 
  3 C        0.8420     1.2410     1.2130 C.3   1 <1>   0.2110 
  4 N        0.5500    -1.6130     0.5370 N.ar  1 <1>  -0.6200 
  5 C        2.5780    -2.0970    -0.6720 C.ar  1 <1>  -0.1500 
  6 C        0.7680     2.7430     0.9200 C.2   1 <1>   0.5690 
  7 C        1.1350     0.9420     2.6900 C.3   1 <1>  -0.2400 
  8 C        0.2330    -2.8870     0.3620 C.ar  1 <1>   0.1600 
  9 C        2.2280    -3.4190    -0.8430 C.ar  1 <1>  -0.1500 
 10 O       -0.2310     3.3450     1.2400 O.2   1 <1>  -0.5700 
 11 N        1.8410     3.3450     0.3170 N.am  1 <1>  -0.4940 
 12 C        1.0190    -3.8130    -0.3070 C.ar  1 <1>  -0.1500 
 13 C        2.0570     4.7060    -0.0130 C.2   1 <1>  -0.0880 
 14 N        3.1300     5.1780    -0.7030 N.pl3 1 <1>   0.3140 
 15 C        1.2920     5.7850     0.2710 C.2   1 <1>  -0.1500 
 16 N        3.0710     6.5190    -0.8620 N.2   1 <1>  -0.7070 
 17 C        4.2430     4.3890    -1.2700 C.3   1 <1>   0.0960 
 18 C        1.9670     6.8680    -0.2750 C.2   1 <1>   0.1390 
 19 C        5.2560     3.9970    -0.1830 C.3   1 <1>  -0.1600 
 20 C        6.3840     3.1350    -0.7580 C.3   1 <1>  -0.2400 
 21 H       -0.0860     0.7910     0.9090 H     1 <1>   0.0800 
 22 H        3.5020    -1.7120    -1.0590 H     1 <1>   0.1500 
 23 H        2.0790     1.3680     2.9790 H     1 <1>   0.0800 
 24 H        1.1600    -0.1200     2.8560 H     1 <1>   0.0800 
 25 H        0.3610     1.3660     3.3050 H     1 <1>   0.0800 
 26 H       -0.7080    -3.2130     0.7730 H     1 <1>   0.1500 
 27 H        2.8650    -4.1100    -1.3690 H     1 <1>   0.1500 
 28 H        2.5850     2.6900     0.0680 H     1 <1>   0.3700 
 29 H        0.6850    -4.8310    -0.4040 H     1 <1>   0.1500 
 30 H        0.3590     5.8170     0.8040 H     1 <1>   0.1500 
 31 H        4.7260     4.9850    -2.0230 H     1 <1>   0.0800 
 32 H        3.8350     3.5140    -1.7400 H     1 <1>   0.0800 
 33 H        1.6220     7.8870    -0.2230 H     1 <1>   0.1500 
 34 H        4.7610     3.4510     0.6010 H     1 <1>   0.0800 
 35 H        5.6760     4.8930     0.2420 H     1 <1>   0.0800 
 36 H        5.9930     2.2230    -1.1730 H     1 <1>   0.0800 
 37 H        7.0850     2.8820     0.0190 H     1 <1>   0.0800 
 38 H        6.9120     3.6690    -1.5300 H     1 <1>   0.0800 
@<TRIPOS>BOND
  1   1   2  1   
  2   1   3  1   
  3   2   4  ar  
  4   2   5  ar  
  5   3   6  1   
  6   3   7  1   
  7   3  21  1   
  8   4   8  ar  
  9   5   9  ar  
 10   5  22  1   
 11   6  10  2   
 12   6  11  am  
 13   7  23  1   
 14   7  24  1   
 15   7  25  1   
 16   8  12  ar  
 17   8  26  1   
 18   9  12  ar  
 19   9  27  1   
 20  11  13  1   
 21  11  28  1   
 22  12  29  1   
 23  13  14  1   
 24  13  15  2   
 25  14  16  1   
 26  14  17  1   
 27  15  18  1   
 28  15  30  1   
 29  16  18  2   
 30  17  19  1   
 31  17  31  1   
 32  17  32  1   
 33  18  33  1   
 34  19  20  1   
 35  19  34  1   
 36  19  35  1   
 37  20  36  1   
 38  20  37  1   
 39  20  38  1   
@<TRIPOS>SUBSTRUCTURE
  1 ****   1 GROUP 4 **** **** 0

# MOE 2024.06 (io_trps.svl 2023.06)
