@<TRIPOS>MOLECULE
NONAME
47 50 1 0 0 
SMALL
USER_CHARGES


@<TRIPOS>ATOM
  1 S        1.5590    -1.5820     0.9860 S.3   1 <1>  -0.0800 
  2 C       -0.0630    -1.0530     1.3720 C.2   1 <1>   0.4620 
  3 C        0.9110    -3.1300     0.5420 C.2   1 <1>  -0.1100 
  4 N       -0.9650    -1.9350     1.1850 N.2   1 <1>  -0.5650 
  5 N       -0.2490     0.2070     1.8290 N.pl3 1 <1>  -0.8840 
  6 C       -0.4320    -3.1420     0.7000 C.2   1 <1>   0.1410 
  7 C       -1.2650    -4.3130     0.4200 C.2   1 <1>   0.7160 
  8 O       -0.7520    -5.4160     0.5170 O.2   1 <1>  -0.5700 
  9 N       -2.5970    -4.2540     0.0360 N.am  1 <1>  -0.6600 
 10 C       -3.4670    -5.4710     0.0680 C.3   1 <1>   0.1400 
 11 C       -3.2260    -3.0290    -0.5340 C.3   1 <1>   0.1400 
 12 C       -4.7450    -5.2590     0.8930 C.3   1 <1>   0.1400 
 13 C       -4.1410    -2.3800     0.5090 C.3   1 <1>  -0.1600 
 14 N       -5.7130    -4.3520     0.2010 N.am  1 <1>  -0.6600 
 15 C       -5.5880    -2.8900     0.4820 C.3   1 <1>   0.1400 
 16 C       -6.7590    -4.8300    -0.5620 C.2   1 <1>   0.5440 
 17 O       -7.6190    -4.0630    -0.9490 O.2   1 <1>  -0.5700 
 18 C       -6.8730    -6.2360    -0.8970 C.ar  1 <1>   0.0860 
 19 C       -7.7260    -7.0820    -0.1960 C.ar  1 <1>  -0.1430 
 20 C       -6.1310    -6.8010    -1.9350 C.ar  1 <1>  -0.1500 
 21 C       -7.8330    -8.4270    -0.4880 C.ar  1 <1>   0.0860 
 22 C       -8.6510    -6.7030     0.9490 C.3   1 <1>  -0.0160 
 23 C       -6.2240    -8.1500    -2.2400 C.ar  1 <1>  -0.1500 
 24 C       -8.7740    -9.0590     0.3820 C.2   1 <1>   0.4230 
 25 C       -7.0730    -8.9680    -1.5170 C.ar  1 <1>  -0.1500 
 26 C       -9.3540    -8.0250     1.3250 C.3   1 <1>  -0.0990 
 27 O       -9.0920   -10.2170     0.4170 O.2   1 <1>  -0.5700 
 28 H        1.5930    -3.8920     0.2090 H     1 <1>   0.1500 
 29 H       -1.1730     0.4890     2.1580 H     1 <1>   0.4000 
 30 H        0.5350     0.8160     2.0640 H     1 <1>   0.4000 
 31 H       -2.9300    -6.2940     0.5060 H     1 <1>   0.0800 
 32 H       -3.7210    -5.7530    -0.9370 H     1 <1>   0.0800 
 33 H       -3.7850    -3.2810    -1.4200 H     1 <1>   0.0800 
 34 H       -2.4620    -2.3310    -0.8290 H     1 <1>   0.0800 
 35 H       -4.4880    -4.8580     1.8580 H     1 <1>   0.0800 
 36 H       -5.2060    -6.2160     1.0620 H     1 <1>   0.0800 
 37 H       -4.1690    -1.3220     0.3220 H     1 <1>   0.0800 
 38 H       -3.7230    -2.5050     1.4920 H     1 <1>   0.0800 
 39 H       -6.1140    -2.3410    -0.2810 H     1 <1>   0.0800 
 40 H       -6.0650    -2.6700     1.4210 H     1 <1>   0.0800 
 41 H       -5.4780    -6.1670    -2.5100 H     1 <1>   0.1500 
 42 H       -9.3650    -5.9650     0.6240 H     1 <1>   0.0800 
 43 H       -8.0860    -6.3150     1.7790 H     1 <1>   0.0800 
 44 H       -5.6380    -8.5620    -3.0450 H     1 <1>   0.1500 
 45 H       -7.1590   -10.0190    -1.7390 H     1 <1>   0.1500 
 46 H      -10.4160    -7.9550     1.1770 H     1 <1>   0.0800 
 47 H       -9.1470    -8.3020     2.3430 H     1 <1>   0.0800 
@<TRIPOS>BOND
  1   1   2  1   
  2   1   3  1   
  3   2   4  2   
  4   2   5  1   
  5   3   6  2   
  6   3  28  1   
  7   4   6  1   
  8   5  29  1   
  9   5  30  1   
 10   6   7  1   
 11   7   8  2   
 12   7   9  am  
 13   9  10  1   
 14   9  11  1   
 15  10  12  1   
 16  10  31  1   
 17  10  32  1   
 18  11  13  1   
 19  11  33  1   
 20  11  34  1   
 21  12  14  1   
 22  12  35  1   
 23  12  36  1   
 24  13  15  1   
 25  13  37  1   
 26  13  38  1   
 27  14  15  1   
 28  14  16  am  
 29  15  39  1   
 30  15  40  1   
 31  16  17  2   
 32  16  18  1   
 33  18  19  ar  
 34  18  20  ar  
 35  19  21  ar  
 36  19  22  1   
 37  20  23  ar  
 38  20  41  1   
 39  21  24  1   
 40  21  25  ar  
 41  22  26  1   
 42  22  42  1   
 43  22  43  1   
 44  23  25  ar  
 45  23  44  1   
 46  24  26  1   
 47  24  27  2   
 48  25  45  1   
 49  26  46  1   
 50  26  47  1   
@<TRIPOS>SUBSTRUCTURE
  1 ****  12 GROUP 4 **** **** 0

# MOE 2024.06 (io_trps.svl 2023.06)
