@<TRIPOS>MOLECULE
NONAME
46 49 1 0 0 
SMALL
USER_CHARGES


@<TRIPOS>ATOM
  1 S       -0.8740    -0.8360     2.1370 S.3   1 <1>  -0.0800 
  2 C       -1.4170     0.3000     0.9170 C.2   1 <1>   0.1980 
  3 C        0.7450    -0.2330     1.9400 C.2   1 <1>  -0.1100 
  4 N       -0.4910     1.0300     0.4320 N.2   1 <1>  -0.5650 
  5 C       -2.8990     0.2940     0.5690 C.3   1 <1>   0.3200 
  6 C        0.7340     0.7330     1.0090 C.2   1 <1>   0.0770 
  7 N       -3.2740    -0.9290    -0.2130 N.am  1 <1>  -0.6600 
  8 C       -4.0750    -1.8970     0.3470 C.2   1 <1>   0.5690 
  9 C       -2.5390    -1.0830    -1.5020 C.3   1 <1>   0.0600 
 10 O       -4.5620    -1.7320     1.4440 O.2   1 <1>  -0.5700 
 11 C       -4.3770    -3.2060    -0.4070 C.3   1 <1>   0.2610 
 12 O       -3.1970    -3.9670    -0.5760 O.3   1 <1>  -0.5600 
 13 C       -5.4870    -4.0380     0.2900 C.3   1 <1>   0.3640 
 14 C       -3.3590    -5.1060    -1.3830 C.3   1 <1>   0.1810 
 15 N       -5.4710    -5.4870    -0.0920 N.am  1 <1>  -0.5090 
 16 C       -6.8550    -3.4360    -0.0350 C.ar  1 <1>  -0.1430 
 17 C       -4.5200    -5.9940    -0.9390 C.2   1 <1>   0.5690 
 18 C       -6.5470    -6.3240     0.4950 C.3   1 <1>   0.0490 
 19 C       -7.5120    -2.6600     0.9100 C.ar  1 <1>   0.1600 
 20 C       -7.4660    -3.6400    -1.2600 C.ar  1 <1>  -0.1500 
 21 O       -4.5660    -7.1180    -1.3850 O.2   1 <1>  -0.5700 
 22 C       -6.6620    -6.4060     1.9860 C.3   1 <1>  -0.2000 
 23 C       -6.1910    -7.5910     1.2060 C.3   1 <1>  -0.2000 
 24 N       -8.6950    -2.0930     0.7360 N.ar  1 <1>  -0.6200 
 25 C       -8.6980    -3.0560    -1.4560 C.ar  1 <1>  -0.1500 
 26 C       -9.2600    -2.3040    -0.4400 C.ar  1 <1>   0.1600 
 27 H        1.5250    -0.6640     2.5400 H     1 <1>   0.1500 
 28 H       -3.1190     1.1650    -0.0220 H     1 <1>   0.0800 
 29 H       -3.4700     0.3660     1.4770 H     1 <1>   0.0800 
 30 H        1.5930     1.2910     0.6750 H     1 <1>   0.1500 
 31 H       -2.3560    -0.1180    -1.9420 H     1 <1>   0.0800 
 32 H       -3.1020    -1.6730    -2.2020 H     1 <1>   0.0800 
 33 H       -1.5930    -1.5640    -1.3190 H     1 <1>   0.0800 
 34 H       -4.7260    -2.9360    -1.3870 H     1 <1>   0.0800 
 35 H       -5.3260    -3.9960     1.3530 H     1 <1>   0.0800 
 36 H       -3.5160    -4.7890    -2.3980 H     1 <1>   0.0800 
 37 H       -2.4450    -5.6710    -1.3350 H     1 <1>   0.0800 
 38 H       -7.4510    -6.3110    -0.0920 H     1 <1>   0.1000 
 39 H       -7.0400    -2.4900     1.8640 H     1 <1>   0.1500 
 40 H       -7.0110    -4.2380    -2.0320 H     1 <1>   0.1500 
 41 H       -5.9450    -5.9070     2.6130 H     1 <1>   0.1000 
 42 H       -7.6420    -6.4440     2.4260 H     1 <1>   0.1000 
 43 H       -6.8490    -8.4360     1.1040 H     1 <1>   0.1000 
 44 H       -5.1560    -7.8790     1.2540 H     1 <1>   0.1000 
 45 H       -9.2230    -3.1820    -2.3860 H     1 <1>   0.1500 
 46 H      -10.2250    -1.8530    -0.6030 H     1 <1>   0.1500 
@<TRIPOS>BOND
  1   1   2  1   
  2   1   3  1   
  3   2   4  2   
  4   2   5  1   
  5   3   6  2   
  6   3  27  1   
  7   4   6  1   
  8   5   7  1   
  9   5  28  1   
 10   5  29  1   
 11   6  30  1   
 12   7   8  am  
 13   7   9  1   
 14   8  10  2   
 15   8  11  1   
 16   9  31  1   
 17   9  32  1   
 18   9  33  1   
 19  11  12  1   
 20  11  13  1   
 21  11  34  1   
 22  12  14  1   
 23  13  15  1   
 24  13  16  1   
 25  13  35  1   
 26  14  17  1   
 27  14  36  1   
 28  14  37  1   
 29  15  17  am  
 30  15  18  1   
 31  16  19  ar  
 32  16  20  ar  
 33  17  21  2   
 34  18  22  1   
 35  18  23  1   
 36  18  38  1   
 37  19  24  ar  
 38  19  39  1   
 39  20  25  ar  
 40  20  40  1   
 41  22  23  1   
 42  22  41  1   
 43  22  42  1   
 44  23  43  1   
 45  23  44  1   
 46  24  26  ar  
 47  25  26  ar  
 48  25  45  1   
 49  26  46  1   
@<TRIPOS>SUBSTRUCTURE
  1 ****  11 GROUP 4 **** **** 0

# MOE 2024.06 (io_trps.svl 2023.06)
