@<TRIPOS>MOLECULE
NONAME
46 49 1 0 0 
SMALL
USER_CHARGES


@<TRIPOS>ATOM
  1 O       -1.8600     0.3950     2.8900 O.2   1 <1>  -0.5700 
  2 C       -2.0900     0.8970     1.8070 C.2   1 <1>   0.5440 
  3 N       -2.8410     0.1870     0.9000 N.am  1 <1>  -0.6600 
  4 C       -1.6070     2.2250     1.4990 C.ar  1 <1>   0.0860 
  5 C       -3.4420     0.7450    -0.3390 C.3   1 <1>   0.1400 
  6 C       -3.3580    -1.1800     1.1610 C.3   1 <1>   0.1400 
  7 C       -0.6610     2.4450     0.4570 C.ar  1 <1>   0.0000 
  8 C       -2.0860     3.3030     2.2110 C.ar  1 <1>  -0.1500 
  9 C       -4.6050    -0.1960    -0.6570 C.3   1 <1>   0.2000 
 10 C       -4.1640    -1.5490    -0.0920 C.3   1 <1>  -0.0800 
 11 C       -0.2970     3.7720     0.1290 C.ar  1 <1>   0.0000 
 12 C       -0.0500     1.3980    -0.2710 C.ar  1 <1>  -0.1500 
 13 C       -1.7050     4.6090     1.9040 C.ar  1 <1>  -0.1500 
 14 O       -5.7160     0.2300     0.0530 O.3   1 <1>  -0.6800 
 15 C       -3.3010    -2.3160    -1.1120 C.3   1 <1>   0.0210 
 16 C       -0.8350     4.8360     0.8760 C.ar  1 <1>  -0.1500 
 17 C        0.6050     3.9960    -0.9310 C.ar  1 <1>  -0.1500 
 18 C        0.8300     1.6430    -1.2890 C.ar  1 <1>  -0.1500 
 19 C       -2.8530    -3.6560    -0.5640 C.2   1 <1>   0.1080 
 20 C        1.1560     2.9590    -1.6280 C.ar  1 <1>  -0.1500 
 21 N       -3.6750    -4.6340    -0.3460 N.2   1 <1>  -0.7070 
 22 C       -1.5430    -3.9860    -0.2330 C.2   1 <1>  -0.1500 
 23 N       -2.9030    -5.6270     0.1350 N.pl3 1 <1>   0.3000 
 24 C       -1.6070    -5.2570     0.2140 C.2   1 <1>  -0.3320 
 25 C       -0.4930    -6.1550     0.7210 C.3   1 <1>  -0.0600 
 26 H       -3.7770     1.7600    -0.2030 H     1 <1>   0.0800 
 27 H       -2.7140     0.7100    -1.1300 H     1 <1>   0.0800 
 28 H       -2.5490    -1.8620     1.3570 H     1 <1>   0.0800 
 29 H       -4.0000    -1.1520     2.0250 H     1 <1>   0.0800 
 30 H       -2.7770     3.1380     3.0200 H     1 <1>   0.1500 
 31 H       -4.8610    -0.2200    -1.7020 H     1 <1>   0.0800 
 32 H       -5.0120    -2.1620     0.1610 H     1 <1>   0.0800 
 33 H       -0.2800     0.3790    -0.0140 H     1 <1>   0.1500 
 34 H       -2.1060     5.4250     2.4810 H     1 <1>   0.1500 
 35 H       -5.4730     0.3120     0.9970 H     1 <1>   0.4000 
 36 H       -2.4350    -1.7400    -1.3830 H     1 <1>   0.0800 
 37 H       -3.8760    -2.4960    -2.0020 H     1 <1>   0.0800 
 38 H       -0.5420     5.8400     0.6270 H     1 <1>   0.1500 
 39 H        0.8590     5.0100    -1.1810 H     1 <1>   0.1500 
 40 H        1.2830     0.8340    -1.8360 H     1 <1>   0.1500 
 41 H        1.8470     3.1380    -2.4350 H     1 <1>   0.1500 
 42 H       -0.6840    -3.3440    -0.3210 H     1 <1>   0.1500 
 43 H       -3.2900    -6.5400     0.4000 H     1 <1>   0.2700 
 44 H        0.4460    -5.6330     0.6890 H     1 <1>   0.0800 
 45 H       -0.4170    -7.0360     0.1090 H     1 <1>   0.0800 
 46 H       -0.6860    -6.4480     1.7380 H     1 <1>   0.0800 
@<TRIPOS>BOND
  1   1   2  2   
  2   2   3  am  
  3   2   4  1   
  4   3   5  1   
  5   3   6  1   
  6   4   7  ar  
  7   4   8  ar  
  8   5   9  1   
  9   5  26  1   
 10   5  27  1   
 11   6  10  1   
 12   6  28  1   
 13   6  29  1   
 14   7  11  ar  
 15   7  12  ar  
 16   8  13  ar  
 17   8  30  1   
 18   9  10  1   
 19   9  14  1   
 20   9  31  1   
 21  10  15  1   
 22  10  32  1   
 23  11  16  ar  
 24  11  17  ar  
 25  12  18  ar  
 26  12  33  1   
 27  13  16  ar  
 28  13  34  1   
 29  14  35  1   
 30  15  19  1   
 31  15  36  1   
 32  15  37  1   
 33  16  38  1   
 34  17  20  ar  
 35  17  39  1   
 36  18  20  ar  
 37  18  40  1   
 38  19  21  2   
 39  19  22  1   
 40  20  41  1   
 41  21  23  1   
 42  22  24  2   
 43  22  42  1   
 44  23  24  1   
 45  23  43  1   
 46  24  25  1   
 47  25  44  1   
 48  25  45  1   
 49  25  46  1   
@<TRIPOS>SUBSTRUCTURE
  1 ****   3 GROUP 4 **** **** 0

# MOE 2024.06 (io_trps.svl 2023.06)
