@<TRIPOS>MOLECULE
NONAME
53 57 1 0 0 
SMALL
USER_CHARGES


@<TRIPOS>ATOM
  1 S       -0.4730    -0.3460    -1.0840 S.3   1 <1>  -0.0800 
  2 C       -2.0720     0.3490    -0.7870 C.2   1 <1>  -0.0450 
  3 C        0.3130     1.2140    -0.8270 C.ar  1 <1>   0.0400 
  4 C       -3.2880    -0.4090    -0.8280 C.2   1 <1>   0.7150 
  5 C       -1.9660     1.6680    -0.5220 C.2   1 <1>  -0.1810 
  6 C       -0.6290     2.1890    -0.5270 C.ar  1 <1>   0.0000 
  7 C        1.6660     1.4720    -0.9070 C.ar  1 <1>  -0.1500 
  8 O       -3.3540    -1.6080    -1.0010 O.2   1 <1>  -0.5700 
  9 N       -4.4440     0.2900    -0.6720 N.am  1 <1>  -0.7300 
 10 C       -3.2270     2.4740    -0.2230 C.3   1 <1>   0.0210 
 11 C       -0.1690     3.4800    -0.2840 C.ar  1 <1>  -0.1500 
 12 C        2.0940     2.7630    -0.6650 C.ar  1 <1>  -0.1500 
 13 C       -4.5130     1.7810    -0.7450 C.3   1 <1>   0.1400 
 14 C        1.1920     3.7880    -0.3400 C.ar  1 <1>   0.0860 
 15 C        1.6710     5.1290    -0.0700 C.2   1 <1>   0.5440 
 16 O        2.5500     5.6150    -0.7550 O.2   1 <1>  -0.5700 
 17 N        1.1260     5.8360     0.9790 N.am  1 <1>  -0.4940 
 18 C        1.1600     7.2060     1.3460 C.2   1 <1>  -0.0880 
 19 N        2.1840     8.1080     1.2610 N.pl3 1 <1>   0.3140 
 20 C        0.1160     7.8790     1.8880 C.2   1 <1>  -0.1500 
 21 N        1.8000     9.3280     1.7180 N.2   1 <1>  -0.7070 
 22 C        3.5760     7.9030     0.7860 C.3   1 <1>   0.1760 
 23 C        0.5690     9.1740     2.0890 C.2   1 <1>   0.1390 
 24 C        4.6110     8.5210     1.7400 C.3   1 <1>  -0.1600 
 25 C        3.7330     8.5030    -0.6190 C.3   1 <1>  -0.1600 
 26 C        6.0220     8.3270     1.1920 C.3   1 <1>   0.3430 
 27 C        5.1490     8.2840    -1.1300 C.3   1 <1>   0.3430 
 28 N        6.1180     8.9090    -0.1800 N.4   1 <1>  -0.9590 
 29 C        7.5130     8.8120    -0.7060 C.3   1 <1>   0.2630 
 30 H        2.3560     0.6830    -1.1520 H     1 <1>   0.1500 
 31 H       -5.3060    -0.2470    -0.7810 H     1 <1>   0.3700 
 32 H       -3.1570     3.4490    -0.6700 H     1 <1>   0.0800 
 33 H       -3.3060     2.6050     0.8410 H     1 <1>   0.0800 
 34 H       -0.8840     4.2500    -0.0630 H     1 <1>   0.1500 
 35 H        3.1440     2.9940    -0.7260 H     1 <1>   0.1500 
 36 H       -5.3620     2.1290    -0.1820 H     1 <1>   0.0800 
 37 H       -4.6610     2.0560    -1.7760 H     1 <1>   0.0800 
 38 H        0.4500     5.2920     1.5180 H     1 <1>   0.3700 
 39 H       -0.8690     7.5210     2.1210 H     1 <1>   0.1500 
 40 H        3.7640     6.8480     0.7630 H     1 <1>   0.0800 
 41 H       -0.0270     9.9700     2.5050 H     1 <1>   0.1500 
 42 H        4.5370     8.0460     2.7020 H     1 <1>   0.0800 
 43 H        4.4260     9.5730     1.8730 H     1 <1>   0.0800 
 44 H        3.5110     9.5560    -0.6020 H     1 <1>   0.0800 
 45 H        3.0430     8.0340    -1.2970 H     1 <1>   0.0800 
 46 H        6.2530     7.2740     1.1580 H     1 <1>   0.0800 
 47 H        6.7290     8.8090     1.8490 H     1 <1>   0.0800 
 48 H        5.2490     8.7270    -2.1080 H     1 <1>   0.0800 
 49 H        5.3410     7.2260    -1.2140 H     1 <1>   0.0800 
 50 H        5.8640     9.9060    -0.1050 H     1 <1>   0.4500 
 51 H        7.8070     7.7790    -0.8000 H     1 <1>   0.0800 
 52 H        8.2000     9.3080    -0.0390 H     1 <1>   0.0800 
 53 H        7.5800     9.2790    -1.6760 H     1 <1>   0.0800 
@<TRIPOS>BOND
  1   1   2  1   
  2   1   3  1   
  3   2   4  1   
  4   2   5  2   
  5   3   6  ar  
  6   3   7  ar  
  7   4   8  2   
  8   4   9  am  
  9   5   6  1   
 10   5  10  1   
 11   6  11  ar  
 12   7  12  ar  
 13   7  30  1   
 14   9  13  1   
 15   9  31  1   
 16  10  13  1   
 17  10  32  1   
 18  10  33  1   
 19  11  14  ar  
 20  11  34  1   
 21  12  14  ar  
 22  12  35  1   
 23  13  36  1   
 24  13  37  1   
 25  14  15  1   
 26  15  16  2   
 27  15  17  am  
 28  17  18  1   
 29  17  38  1   
 30  18  19  1   
 31  18  20  2   
 32  19  21  1   
 33  19  22  1   
 34  20  23  1   
 35  20  39  1   
 36  21  23  2   
 37  22  24  1   
 38  22  25  1   
 39  22  40  1   
 40  23  41  1   
 41  24  26  1   
 42  24  42  1   
 43  24  43  1   
 44  25  27  1   
 45  25  44  1   
 46  25  45  1   
 47  26  28  1   
 48  26  46  1   
 49  26  47  1   
 50  27  28  1   
 51  27  48  1   
 52  27  49  1   
 53  28  29  1   
 54  28  50  1   
 55  29  51  1   
 56  29  52  1   
 57  29  53  1   
@<TRIPOS>SUBSTRUCTURE
  1 ****  15 GROUP 4 **** **** 0

# MOE 2024.06 (io_trps.svl 2023.06)
