@<TRIPOS>MOLECULE
NONAME
43 45 1 0 0 
SMALL
USER_CHARGES


@<TRIPOS>ATOM
  1 O       -0.3210     0.8810     2.0430 O.2   1 <1>  -0.5700 
  2 C        0.4800     0.0580     1.6730 C.2   1 <1>   0.5690 
  3 N        1.5820     0.3990     0.9530 N.am  1 <1>  -0.5100 
  4 C        0.2260    -1.3990     2.0220 C.3   1 <1>  -0.0990 
  5 C        2.9330    -0.2400     0.8410 C.3   1 <1>   0.2250 
  6 C        2.1710     1.7610     0.7530 C.3   1 <1>   0.2250 
  7 C       -0.1590    -2.2270     0.7850 C.3   1 <1>  -0.1600 
  8 C        3.5580     1.1550     1.0830 C.3   1 <1>   0.2580 
  9 C       -0.4980    -3.6750     1.1600 C.3   1 <1>   0.0960 
 10 O        4.5310     1.4520     0.1000 O.3   1 <1>  -0.3400 
 11 N       -0.8170    -4.4560    -0.0500 N.pl3 1 <1>   0.0480 
 12 C        5.1160     2.6770     0.0240 C.ar  1 <1>   0.0820 
 13 C        0.0030    -5.2730    -0.7490 C.2   1 <1>   0.0360 
 14 C       -1.9880    -4.5030    -0.7090 C.2   1 <1>  -0.3020 
 15 C        5.9440     2.9280    -1.0680 C.ar  1 <1>  -0.1440 
 16 C        4.9190     3.6720     0.9810 C.ar  1 <1>  -0.1500 
 17 N       -0.5540    -5.8220    -1.7800 N.2   1 <1>  -0.5650 
 18 C       -1.8090    -5.3380    -1.7570 C.2   1 <1>   0.0770 
 19 C        6.5600     4.1630    -1.1920 C.ar  1 <1>  -0.1500 
 20 C        6.1780     1.8600    -2.1270 C.3   1 <1>  -0.0970 
 21 C        5.5390     4.9010     0.8460 C.ar  1 <1>  -0.1500 
 22 C        6.3590     5.1470    -0.2400 C.ar  1 <1>  -0.1500 
 23 H       -0.5750    -1.4350     2.7400 H     1 <1>   0.0800 
 24 H        1.1020    -1.8080     2.4890 H     1 <1>   0.0800 
 25 H        3.0920    -0.6310    -0.1480 H     1 <1>   0.0000 
 26 H        3.1130    -0.9390     1.6370 H     1 <1>   0.0000 
 27 H        1.8170     2.4620     1.4880 H     1 <1>   0.0000 
 28 H        2.0620     2.0830    -0.2670 H     1 <1>   0.0000 
 29 H        0.6570    -2.2210     0.0820 H     1 <1>   0.0800 
 30 H       -1.0150    -1.7740     0.3130 H     1 <1>   0.0800 
 31 H        3.9220     1.3100     2.0840 H     1 <1>   0.0000 
 32 H       -1.3490    -3.7010     1.8180 H     1 <1>   0.0800 
 33 H        0.3350    -4.1380     1.6580 H     1 <1>   0.0800 
 34 H        1.0250    -5.4410    -0.4590 H     1 <1>   0.1500 
 35 H       -2.8630    -3.9560    -0.4100 H     1 <1>   0.1500 
 36 H        4.2940     3.5130     1.8380 H     1 <1>   0.1500 
 37 H       -2.5290    -5.6190    -2.5080 H     1 <1>   0.1500 
 38 H        7.2010     4.3680    -2.0310 H     1 <1>   0.1500 
 39 H        6.6160     0.9890    -1.6750 H     1 <1>   0.0800 
 40 H        6.8380     2.2140    -2.8980 H     1 <1>   0.0800 
 41 H        5.2420     1.5830    -2.5780 H     1 <1>   0.0800 
 42 H        5.3850     5.6670     1.5860 H     1 <1>   0.1500 
 43 H        6.8420     6.1030    -0.3450 H     1 <1>   0.1500 
@<TRIPOS>BOND
  1   1   2  2   
  2   2   3  am  
  3   2   4  1   
  4   3   5  1   
  5   3   6  1   
  6   4   7  1   
  7   4  23  1   
  8   4  24  1   
  9   5   8  1   
 10   5  25  1   
 11   5  26  1   
 12   6   8  1   
 13   6  27  1   
 14   6  28  1   
 15   7   9  1   
 16   7  29  1   
 17   7  30  1   
 18   8  10  1   
 19   8  31  1   
 20   9  11  1   
 21   9  32  1   
 22   9  33  1   
 23  10  12  1   
 24  11  13  1   
 25  11  14  1   
 26  12  15  ar  
 27  12  16  ar  
 28  13  17  2   
 29  13  34  1   
 30  14  18  2   
 31  14  35  1   
 32  15  19  ar  
 33  15  20  1   
 34  16  21  ar  
 35  16  36  1   
 36  17  18  1   
 37  18  37  1   
 38  19  22  ar  
 39  19  38  1   
 40  20  39  1   
 41  20  40  1   
 42  20  41  1   
 43  21  22  ar  
 44  21  42  1   
 45  22  43  1   
@<TRIPOS>SUBSTRUCTURE
  1 ****   5 GROUP 4 **** **** 0

# MOE 2024.06 (io_trps.svl 2023.06)
