@<TRIPOS>MOLECULE
NONAME
45 47 1 0 0 
SMALL
USER_CHARGES


@<TRIPOS>ATOM
  1 O        0.0340     1.1390     1.7140 O.2   1 <1>  -0.5700 
  2 C       -0.0680     1.6890     0.6360 C.2   1 <1>   0.5440 
  3 N       -1.2910     1.6540     0.0260 N.am  1 <1>  -0.7300 
  4 C        1.0730     2.3250     0.0000 C.ar  1 <1>   0.0860 
  5 C       -2.5360     1.1260     0.6380 C.3   1 <1>   0.2200 
  6 C        0.9260     3.4060    -0.8730 C.ar  1 <1>  -0.1500 
  7 C        2.3690     1.8700     0.2410 C.ar  1 <1>  -0.1500 
  8 C       -2.5740    -0.4180     0.6050 C.3   1 <1>   0.2000 
  9 C       -3.7320     1.7330    -0.0990 C.3   1 <1>  -0.1600 
 10 C        2.0190     3.9910    -1.4860 C.ar  1 <1>  -0.1500 
 11 C        3.4660     2.4510    -0.3680 C.ar  1 <1>  -0.1500 
 12 O       -1.6530    -0.9330     1.4990 O.3   1 <1>  -0.6800 
 13 C       -3.9470    -0.9660     1.0180 C.3   1 <1>   0.3430 
 14 C       -5.0510     1.1900     0.4500 C.3   1 <1>   0.3430 
 15 C        3.2920     3.5130    -1.2370 C.ar  1 <1>  -0.1500 
 16 N       -5.0870    -0.2910     0.3010 N.4   1 <1>  -0.9590 
 17 C       -6.3830    -0.8560     0.7550 C.3   1 <1>   0.5240 
 18 C       -6.4790    -2.2710     0.2170 C.2   1 <1>  -0.1810 
 19 C       -6.2570    -3.4370     0.8830 C.2   1 <1>  -0.3020 
 20 C       -6.8270    -2.6190    -1.0930 C.2   1 <1>  -0.1500 
 21 N       -6.4530    -4.4820     0.0360 N.pl3 1 <1>   0.0330 
 22 C       -6.8050    -3.9810    -1.1820 C.2   1 <1>  -0.1320 
 23 C       -7.0910    -4.8270    -2.3010 C.1   1 <1>   0.5370 
 24 N       -7.3100    -5.5150    -3.1810 N.1   1 <1>  -0.5570 
 25 H       -1.3530     1.9920    -0.9370 H     1 <1>   0.3700 
 26 H       -2.5730     1.4430     1.6690 H     1 <1>   0.0800 
 27 H       -0.0520     3.8050    -1.0710 H     1 <1>   0.1500 
 28 H        2.5160     1.0460     0.9190 H     1 <1>   0.1500 
 29 H       -2.3160    -0.7760    -0.3770 H     1 <1>   0.0800 
 30 H       -3.7200     2.8010     0.0350 H     1 <1>   0.0800 
 31 H       -3.6720     1.5240    -1.1530 H     1 <1>   0.0800 
 32 H        1.8840     4.8230    -2.1570 H     1 <1>   0.1500 
 33 H        4.4560     2.0780    -0.1660 H     1 <1>   0.1500 
 34 H       -0.8900    -0.2960     1.6030 H     1 <1>   0.4000 
 35 H       -4.0570    -0.8170     2.0800 H     1 <1>   0.0800 
 36 H       -3.9660    -2.0250     0.8220 H     1 <1>   0.0800 
 37 H       -5.8730     1.6360    -0.0880 H     1 <1>   0.0800 
 38 H       -5.1440     1.4570     1.4920 H     1 <1>   0.0800 
 39 H        4.1440     3.9660    -1.7130 H     1 <1>   0.1500 
 40 H       -5.0150    -0.5400    -0.6940 H     1 <1>   0.4500 
 41 H       -6.4370    -0.8640     1.8320 H     1 <1>   0.0800 
 42 H       -7.2060    -0.2750     0.3710 H     1 <1>   0.0800 
 43 H       -5.9760    -3.5910     1.9130 H     1 <1>   0.1500 
 44 H       -7.0780    -1.9370    -1.8900 H     1 <1>   0.1500 
 45 H       -6.3670    -5.4810     0.2650 H     1 <1>   0.2700 
@<TRIPOS>BOND
  1   1   2  2   
  2   2   3  am  
  3   2   4  1   
  4   3   5  1   
  5   3  25  1   
  6   4   6  ar  
  7   4   7  ar  
  8   5   8  1   
  9   5   9  1   
 10   5  26  1   
 11   6  10  ar  
 12   6  27  1   
 13   7  11  ar  
 14   7  28  1   
 15   8  12  1   
 16   8  13  1   
 17   8  29  1   
 18   9  14  1   
 19   9  30  1   
 20   9  31  1   
 21  10  15  ar  
 22  10  32  1   
 23  11  15  ar  
 24  11  33  1   
 25  12  34  1   
 26  13  16  1   
 27  13  35  1   
 28  13  36  1   
 29  14  16  1   
 30  14  37  1   
 31  14  38  1   
 32  15  39  1   
 33  16  17  1   
 34  16  40  1   
 35  17  18  1   
 36  17  41  1   
 37  17  42  1   
 38  18  19  2   
 39  18  20  1   
 40  19  21  1   
 41  19  43  1   
 42  20  22  2   
 43  20  44  1   
 44  21  22  1   
 45  21  45  1   
 46  22  23  1   
 47  23  24  3   
@<TRIPOS>SUBSTRUCTURE
  1 ****   8 GROUP 4 **** **** 0

# MOE 2024.06 (io_trps.svl 2023.06)
