@<TRIPOS>MOLECULE
NONAME
42 43 1 0 0 
SMALL
USER_CHARGES


@<TRIPOS>ATOM
  1 O       -0.9120    -1.9300     0.4410 O.2   1 <1>  -0.5700 
  2 C       -1.7520    -1.0700     0.4330 C.2   1 <1>   0.4230 
  3 C       -3.1310    -1.3500     0.1510 C.ar  1 <1>   0.0860 
  4 C       -1.2770     0.3500     0.6730 C.3   1 <1>  -0.1790 
  5 C       -4.2340    -0.8540     0.8450 C.ar  1 <1>   0.1660 
  6 C       -3.4400    -2.1980    -0.9000 C.ar  1 <1>   0.1600 
  7 N       -5.4650    -1.1270     0.4920 N.ar  1 <1>  -0.6200 
  8 C       -4.1000     0.0190     2.0830 C.3   1 <1>  -0.0960 
  9 N       -4.6620    -2.4900    -1.2660 N.ar  1 <1>  -0.6200 
 10 C       -5.6250    -1.9230    -0.5530 C.ar  1 <1>   0.7200 
 11 N       -6.9020    -2.1860    -0.8700 N.pl3 1 <1>  -0.8690 
 12 C       -7.3820    -3.2730    -1.7290 C.3   1 <1>   0.3890 
 13 C       -8.3270    -4.1340    -0.9180 C.2   1 <1>  -0.3320 
 14 N       -8.0100    -4.8170     0.2070 N.pl3 1 <1>   0.0480 
 15 C       -9.6300    -4.3920    -1.1670 C.2   1 <1>   0.0770 
 16 C       -9.1580    -5.4410     0.5550 C.2   1 <1>   0.0360 
 17 C       -6.7360    -4.8710     0.9650 C.3   1 <1>   0.0960 
 18 N      -10.1510    -5.2140    -0.2410 N.2   1 <1>  -0.5650 
 19 C       -5.6510    -5.6990     0.2500 C.3   1 <1>  -0.0800 
 20 C       -6.0680    -7.1660     0.0730 C.3   1 <1>  -0.2400 
 21 C       -4.3370    -5.6250     1.0380 C.3   1 <1>  -0.2400 
 22 H       -1.9940     1.0620     0.3080 H     1 <1>   0.0800 
 23 H       -0.3490     0.5050     0.1540 H     1 <1>   0.0800 
 24 H       -1.1090     0.5070     1.7220 H     1 <1>   0.0800 
 25 H       -2.6300    -2.6430    -1.4560 H     1 <1>   0.1500 
 26 H       -3.2490    -0.2720     2.6710 H     1 <1>   0.0800 
 27 H       -4.9750    -0.0830     2.7000 H     1 <1>   0.0800 
 28 H       -4.0080     1.0500     1.7970 H     1 <1>   0.0800 
 29 H       -7.6020    -1.7890    -0.2470 H     1 <1>   0.4000 
 30 H       -6.5680    -3.8670    -2.1050 H     1 <1>   0.0800 
 31 H       -7.9020    -2.8500    -2.5710 H     1 <1>   0.0800 
 32 H      -10.2340    -4.0240    -1.9800 H     1 <1>   0.1500 
 33 H       -9.2210    -6.0680     1.4270 H     1 <1>   0.1500 
 34 H       -6.9330    -5.2980     1.9310 H     1 <1>   0.0800 
 35 H       -6.3890    -3.8670     1.1210 H     1 <1>   0.0800 
 36 H       -5.4700    -5.2700    -0.7200 H     1 <1>   0.0800 
 37 H       -6.2710    -7.6230     1.0260 H     1 <1>   0.0800 
 38 H       -5.2840    -7.7200    -0.4120 H     1 <1>   0.0800 
 39 H       -6.9510    -7.2390    -0.5380 H     1 <1>   0.0800 
 40 H       -4.4550    -6.0470     2.0210 H     1 <1>   0.0800 
 41 H       -4.0190    -4.6020     1.1370 H     1 <1>   0.0800 
 42 H       -3.5630    -6.1660     0.5230 H     1 <1>   0.0800 
@<TRIPOS>BOND
  1   1   2  2   
  2   2   3  1   
  3   2   4  1   
  4   3   5  ar  
  5   3   6  ar  
  6   4  22  1   
  7   4  23  1   
  8   4  24  1   
  9   5   7  ar  
 10   5   8  1   
 11   6   9  ar  
 12   6  25  1   
 13   7  10  ar  
 14   8  26  1   
 15   8  27  1   
 16   8  28  1   
 17   9  10  ar  
 18  10  11  1   
 19  11  12  1   
 20  11  29  1   
 21  12  13  1   
 22  12  30  1   
 23  12  31  1   
 24  13  14  1   
 25  13  15  2   
 26  14  16  1   
 27  14  17  1   
 28  15  18  1   
 29  15  32  1   
 30  16  18  2   
 31  16  33  1   
 32  17  19  1   
 33  17  34  1   
 34  17  35  1   
 35  19  20  1   
 36  19  21  1   
 37  19  36  1   
 38  20  37  1   
 39  20  38  1   
 40  20  39  1   
 41  21  40  1   
 42  21  41  1   
 43  21  42  1   
@<TRIPOS>SUBSTRUCTURE
  1 ****  10 GROUP 4 **** **** 0

# MOE 2024.06 (io_trps.svl 2023.06)
