@<TRIPOS>MOLECULE
NONAME
56 58 1 0 0 
SMALL
USER_CHARGES


@<TRIPOS>ATOM
  1 O        0.4260     0.0010    -1.1810 O.3   1 <1>  -0.5600 
  2 C        1.6450    -0.6930    -1.3210 C.3   1 <1>   0.2000 
  3 C        0.5070     1.3890    -1.3130 C.3   1 <1>   0.1200 
  4 C        2.7140    -0.1610    -0.3280 C.3   1 <1>   0.5660 
  5 C        1.3850    -2.1890    -1.0750 C.3   1 <1>   0.1200 
  6 C        1.4390     1.9690    -0.2360 C.3   1 <1>   0.3430 
  7 N        2.7930     1.3320    -0.2920 N.4   1 <1>  -0.9590 
  8 C        4.0990    -0.7020    -0.6600 C.ar  1 <1>  -0.1430 
  9 O        1.2090    -2.4290     0.2860 O.3   1 <1>  -0.6800 
 10 C        3.7040     1.8140     0.7750 C.3   1 <1>   0.4870 
 11 C        4.7330    -1.5290     0.2560 C.ar  1 <1>  -0.1500 
 12 C        4.7450    -0.3870    -1.8500 C.ar  1 <1>  -0.1500 
 13 C        3.9020     3.3070     0.5960 C.ar  1 <1>  -0.1430 
 14 C        5.9980    -2.0290     0.0030 C.ar  1 <1>   0.0830 
 15 C        6.0150    -0.8750    -2.1050 C.ar  1 <1>  -0.1500 
 16 C        4.4490     3.8010    -0.5870 C.ar  1 <1>   0.0830 
 17 C        3.5360     4.1830     1.6080 C.ar  1 <1>  -0.1500 
 18 O        6.5330    -2.8470     0.9400 O.3   1 <1>  -0.3620 
 19 C        6.6580    -1.6790    -1.1790 C.ar  1 <1>   0.0830 
 20 O        4.7900     2.9020    -1.5520 O.3   1 <1>  -0.3630 
 21 C        4.6190     5.1730    -0.7510 C.ar  1 <1>  -0.1500 
 22 C        3.7110     5.5450     1.4320 C.ar  1 <1>   0.0830 
 23 C        6.7820    -4.1820     0.5510 C.3   1 <1>   0.0400 
 24 O        7.9140    -2.0870    -1.4790 O.3   1 <1>  -0.3630 
 25 C        5.7430     3.2470    -2.5390 C.3   1 <1>   0.0400 
 26 C        4.2480     6.0410     0.2590 C.ar  1 <1>  -0.1500 
 27 O        3.3630     6.4090     2.3990 O.3   1 <1>  -0.5330 
 28 C        8.9510    -1.6270    -0.6400 C.3   1 <1>   0.0400 
 29 H        1.9750    -0.5610    -2.3360 H     1 <1>   0.0800 
 30 H        0.8550     1.6290    -2.3020 H     1 <1>   0.0800 
 31 H       -0.4870     1.7850    -1.1930 H     1 <1>   0.0800 
 32 H        2.4390    -0.5120     0.6520 H     1 <1>   0.0800 
 33 H        2.2220    -2.7790    -1.4090 H     1 <1>   0.0800 
 34 H        0.4990    -2.5020    -1.6020 H     1 <1>   0.0800 
 35 H        0.9920     1.7970     0.7300 H     1 <1>   0.0800 
 36 H        1.5280     3.0340    -0.3770 H     1 <1>   0.0800 
 37 H        3.2630     1.6380    -1.1570 H     1 <1>   0.4500 
 38 H        0.8150    -3.3150     0.4320 H     1 <1>   0.4000 
 39 H        3.2890     1.6030     1.7470 H     1 <1>   0.0800 
 40 H        4.6620     1.3250     0.6950 H     1 <1>   0.0800 
 41 H        4.2530    -1.8090     1.1790 H     1 <1>   0.1500 
 42 H        4.2810     0.2390    -2.5920 H     1 <1>   0.1500 
 43 H        6.5230    -0.6340    -3.0230 H     1 <1>   0.1500 
 44 H        3.1200     3.8190     2.5300 H     1 <1>   0.1500 
 45 H        5.0310     5.5870    -1.6530 H     1 <1>   0.1500 
 46 H        7.0980    -4.7320     1.4190 H     1 <1>   0.0800 
 47 H        7.5570    -4.2010    -0.1940 H     1 <1>   0.0800 
 48 H        5.8750    -4.6050     0.1560 H     1 <1>   0.0800 
 49 H        6.0130     2.3560    -3.0770 H     1 <1>   0.0800 
 50 H        6.6140     3.6580    -2.0590 H     1 <1>   0.0800 
 51 H        5.3080     3.9610    -3.2160 H     1 <1>   0.0800 
 52 H        4.3740     7.1050     0.1450 H     1 <1>   0.1500 
 53 H        3.0590     5.9890     3.2230 H     1 <1>   0.4500 
 54 H        9.8880    -1.9450    -1.0590 H     1 <1>   0.0800 
 55 H        8.8310    -2.0450     0.3430 H     1 <1>   0.0800 
 56 H        8.9140    -0.5530    -0.5960 H     1 <1>   0.0800 
@<TRIPOS>BOND
  1   1   2  1   
  2   1   3  1   
  3   2   4  1   
  4   2   5  1   
  5   2  29  1   
  6   3   6  1   
  7   3  30  1   
  8   3  31  1   
  9   4   7  1   
 10   4   8  1   
 11   4  32  1   
 12   5   9  1   
 13   5  33  1   
 14   5  34  1   
 15   6   7  1   
 16   6  35  1   
 17   6  36  1   
 18   7  10  1   
 19   7  37  1   
 20   8  11  ar  
 21   8  12  ar  
 22   9  38  1   
 23  10  13  1   
 24  10  39  1   
 25  10  40  1   
 26  11  14  ar  
 27  11  41  1   
 28  12  15  ar  
 29  12  42  1   
 30  13  16  ar  
 31  13  17  ar  
 32  14  18  1   
 33  14  19  ar  
 34  15  19  ar  
 35  15  43  1   
 36  16  20  1   
 37  16  21  ar  
 38  17  22  ar  
 39  17  44  1   
 40  18  23  1   
 41  19  24  1   
 42  20  25  1   
 43  21  26  ar  
 44  21  45  1   
 45  22  26  ar  
 46  22  27  1   
 47  23  46  1   
 48  23  47  1   
 49  23  48  1   
 50  24  28  1   
 51  25  49  1   
 52  25  50  1   
 53  25  51  1   
 54  26  52  1   
 55  27  53  1   
 56  28  54  1   
 57  28  55  1   
 58  28  56  1   
@<TRIPOS>SUBSTRUCTURE
  1 ****   7 GROUP 4 **** **** 0

# MOE 2024.06 (io_trps.svl 2023.06)
