@<TRIPOS>MOLECULE
NONAME
48 51 1 0 0 
SMALL
USER_CHARGES


@<TRIPOS>ATOM
  1 O        0.1080    -0.5330    -1.3730 O.2   1 <1>  -0.5700 
  2 C        1.1000    -1.0930    -0.9480 C.2   1 <1>   0.5440 
  3 N        2.1160    -0.3320    -0.4170 N.am  1 <1>  -0.6600 
  4 C        1.1810    -2.5390    -1.0000 C.ar  1 <1>   0.0860 
  5 C        2.0440     1.1460    -0.3670 C.3   1 <1>   0.1400 
  6 C        3.1670    -0.8390     0.4950 C.3   1 <1>   0.1400 
  7 C        0.1470    -3.3460    -0.5680 C.ar  1 <1>  -0.1500 
  8 C        2.2880    -3.2180    -1.4920 C.ar  1 <1>  -0.1500 
  9 C        3.2470     1.5710     0.4690 C.3   1 <1>  -0.1600 
 10 C        3.5510     0.3620     1.3490 C.3   1 <1>  -0.1600 
 11 C        0.2490    -4.7290    -0.6150 C.ar  1 <1>   0.4100 
 12 C        2.3050    -4.5970    -1.5020 C.ar  1 <1>   0.1600 
 13 N        1.3200    -5.3650    -1.0720 N.ar  1 <1>  -0.6200 
 14 N       -0.8020    -5.4940    -0.1690 N.pl3 1 <1>  -0.8690 
 15 C       -0.8750    -6.9430    -0.4350 C.3   1 <1>   0.2090 
 16 C       -2.2360    -7.4630     0.0220 C.3   1 <1>  -0.1600 
 17 C       -2.3550    -8.9810    -0.1860 C.3   1 <1>   0.0200 
 18 C       -3.7090    -9.5360     0.2420 C.2   1 <1>   0.0060 
 19 N       -4.7290    -8.8260     0.6060 N.2   1 <1>  -0.3380 
 20 N       -3.9790   -10.8470     0.2760 N.pl3 1 <1>   0.3340 
 21 N       -5.7180    -9.6620     0.8970 N.2   1 <1>  -0.3380 
 22 C       -5.2660   -10.8720     0.6980 C.2   1 <1>   0.1410 
 23 C       -3.2850   -12.0220    -0.0040 C.2   1 <1>  -0.1810 
 24 C       -5.9170   -12.1220     0.8600 C.2   1 <1>  -0.1050 
 25 C       -3.8990   -13.2260     0.1470 C.2   1 <1>  -0.1500 
 26 C       -5.2480   -13.2790     0.5900 C.2   1 <1>  -0.1500 
 27 H        1.1260     1.4370     0.1140 H     1 <1>   0.0800 
 28 H        2.0770     1.5610    -1.3590 H     1 <1>   0.0800 
 29 H        4.0110    -1.1650    -0.0870 H     1 <1>   0.0800 
 30 H        2.8020    -1.6520     1.1010 H     1 <1>   0.0800 
 31 H       -0.7490    -2.8960    -0.1860 H     1 <1>   0.1500 
 32 H        3.1280    -2.6630    -1.8680 H     1 <1>   0.1500 
 33 H        3.0390     2.4570     1.0430 H     1 <1>   0.0800 
 34 H        4.0760     1.7650    -0.1880 H     1 <1>   0.0800 
 35 H        4.5810     0.3250     1.6550 H     1 <1>   0.0800 
 36 H        2.9250     0.3830     2.2250 H     1 <1>   0.0800 
 37 H        3.1760    -5.1010    -1.8860 H     1 <1>   0.1500 
 38 H       -1.7120    -5.0300    -0.1440 H     1 <1>   0.4000 
 39 H       -0.0830    -7.4370     0.1030 H     1 <1>   0.0800 
 40 H       -0.7390    -7.1200    -1.4890 H     1 <1>   0.0800 
 41 H       -3.0100    -6.9690    -0.5380 H     1 <1>   0.0800 
 42 H       -2.3700    -7.2400     1.0660 H     1 <1>   0.0800 
 43 H       -1.5850    -9.4730     0.3820 H     1 <1>   0.0800 
 44 H       -2.2050    -9.2100    -1.2270 H     1 <1>   0.0800 
 45 H       -2.2690   -11.9180    -0.3360 H     1 <1>   0.1500 
 46 H       -6.9380   -12.1100     1.1980 H     1 <1>   0.1500 
 47 H       -3.3930   -14.1550    -0.0600 H     1 <1>   0.1500 
 48 H       -5.7170   -14.2420     0.7040 H     1 <1>   0.1500 
@<TRIPOS>BOND
  1   1   2  2   
  2   2   3  am  
  3   2   4  1   
  4   3   5  1   
  5   3   6  1   
  6   4   7  ar  
  7   4   8  ar  
  8   5   9  1   
  9   5  27  1   
 10   5  28  1   
 11   6  10  1   
 12   6  29  1   
 13   6  30  1   
 14   7  11  ar  
 15   7  31  1   
 16   8  12  ar  
 17   8  32  1   
 18   9  10  1   
 19   9  33  1   
 20   9  34  1   
 21  10  35  1   
 22  10  36  1   
 23  11  13  ar  
 24  11  14  1   
 25  12  13  ar  
 26  12  37  1   
 27  14  15  1   
 28  14  38  1   
 29  15  16  1   
 30  15  39  1   
 31  15  40  1   
 32  16  17  1   
 33  16  41  1   
 34  16  42  1   
 35  17  18  1   
 36  17  43  1   
 37  17  44  1   
 38  18  19  2   
 39  18  20  1   
 40  19  21  1   
 41  20  22  1   
 42  20  23  1   
 43  21  22  2   
 44  22  24  1   
 45  23  25  2   
 46  23  45  1   
 47  24  26  2   
 48  24  46  1   
 49  25  26  1   
 50  25  47  1   
 51  26  48  1   
@<TRIPOS>SUBSTRUCTURE
  1 ****  14 GROUP 4 **** **** 0

# MOE 2024.06 (io_trps.svl 2023.06)
