@<TRIPOS>MOLECULE
NONAME
59 62 1 0 0 
SMALL
USER_CHARGES


@<TRIPOS>ATOM
  1 O        1.4070     0.0720     1.7740 O.3   1 <1>  -0.6800 
  2 C        1.6280    -0.2710     0.4450 C.3   1 <1>   0.2000 
  3 C        2.4440    -1.5630     0.4230 C.3   1 <1>  -0.0800 
  4 C        2.5990     0.7600    -0.1250 C.3   1 <1>   0.3430 
  5 C        3.9060    -1.0890     0.5280 C.3   1 <1>   0.3430 
  6 C        2.1910    -2.3750    -0.8660 C.3   1 <1>  -0.0160 
  7 N        3.8880     0.4110     0.5410 N.4   1 <1>  -0.9590 
  8 C        3.0020    -3.6640    -0.9100 C.ar  1 <1>   0.1670 
  9 C        5.1150     1.0740     0.0180 C.3   1 <1>   0.4230 
 10 N        4.3010    -3.5350    -1.1410 N.ar  1 <1>  -0.6200 
 11 C        2.3710    -4.8930    -0.7210 C.ar  1 <1>   0.1600 
 12 C        6.3420     0.6080     0.8110 C.3   1 <1>  -0.1600 
 13 C        4.9730     2.5970     0.1220 C.3   1 <1>  -0.1600 
 14 C        4.9140    -4.7100    -1.1840 C.ar  1 <1>   0.1600 
 15 N        2.9870    -6.0600    -0.7480 N.ar  1 <1>  -0.6200 
 16 C        7.6060     1.3470     0.3730 C.3   1 <1>   0.3430 
 17 C        6.2570     3.3110    -0.3030 C.3   1 <1>   0.3430 
 18 C        4.2790    -5.9310    -0.9930 C.ar  1 <1>   0.1600 
 19 N        7.4110     2.8180     0.5060 N.4   1 <1>  -0.9590 
 20 C        8.6860     3.5200     0.1340 C.3   1 <1>   0.3430 
 21 C        8.6920     4.9890     0.5630 C.3   1 <1>  -0.0170 
 22 C       10.0560     5.5670     0.2450 C.ar  1 <1>  -0.1430 
 23 C       11.0750     5.5080     1.1830 C.ar  1 <1>  -0.1500 
 24 C       10.3000     6.1470    -0.9910 C.ar  1 <1>  -0.1500 
 25 C       12.3270     6.0160     0.8850 C.ar  1 <1>  -0.1500 
 26 C       11.5520     6.6550    -1.2880 C.ar  1 <1>  -0.1500 
 27 C       12.5670     6.5890    -0.3500 C.ar  1 <1>  -0.1500 
 28 H        0.6590    -0.4380     2.1580 H     1 <1>   0.4000 
 29 H        0.6850    -0.3120    -0.0770 H     1 <1>   0.0800 
 30 H        2.1990    -2.1880     1.2650 H     1 <1>   0.0800 
 31 H        2.2740     1.7610     0.1080 H     1 <1>   0.0800 
 32 H        2.6800     0.6370    -1.1920 H     1 <1>   0.0800 
 33 H        4.4660    -1.4310    -0.3250 H     1 <1>   0.0800 
 34 H        4.3650    -1.4760     1.4230 H     1 <1>   0.0800 
 35 H        2.4390    -1.7910    -1.7360 H     1 <1>   0.0800 
 36 H        1.1450    -2.6170    -0.9330 H     1 <1>   0.0800 
 37 H        3.7230     0.6680     1.5290 H     1 <1>   0.4500 
 38 H        5.2470     0.8030    -1.0180 H     1 <1>   0.0800 
 39 H        1.3110    -4.9180    -0.5390 H     1 <1>   0.1500 
 40 H        6.1940     0.7640     1.8660 H     1 <1>   0.0800 
 41 H        6.5110    -0.4420     0.6480 H     1 <1>   0.0800 
 42 H        4.1850     2.9390    -0.5240 H     1 <1>   0.0800 
 43 H        4.7310     2.8860     1.1300 H     1 <1>   0.0800 
 44 H        5.9720    -4.7140    -1.3820 H     1 <1>   0.1500 
 45 H        7.8340     1.1000    -0.6530 H     1 <1>   0.0800 
 46 H        8.4370     1.0300     0.9840 H     1 <1>   0.0800 
 47 H        6.1340     4.3740    -0.1630 H     1 <1>   0.0800 
 48 H        6.4440     3.1330    -1.3500 H     1 <1>   0.0800 
 49 H        4.8620    -6.8340    -1.0440 H     1 <1>   0.1500 
 50 H        7.2380     3.0320     1.5000 H     1 <1>   0.4500 
 51 H        9.5190     3.0320     0.6170 H     1 <1>   0.0800 
 52 H        8.8490     3.4600    -0.9300 H     1 <1>   0.0800 
 53 H        7.9420     5.5510     0.0350 H     1 <1>   0.0800 
 54 H        8.5100     5.0740     1.6190 H     1 <1>   0.0800 
 55 H       10.9110     5.0720     2.1530 H     1 <1>   0.1500 
 56 H        9.5250     6.2160    -1.7350 H     1 <1>   0.1500 
 57 H       13.1170     5.9700     1.6160 H     1 <1>   0.1500 
 58 H       11.7400     7.1060    -2.2470 H     1 <1>   0.1500 
 59 H       13.5410     6.9860    -0.5810 H     1 <1>   0.1500 
@<TRIPOS>BOND
  1   1   2  1   
  2   1  28  1   
  3   2   3  1   
  4   2   4  1   
  5   2  29  1   
  6   3   5  1   
  7   3   6  1   
  8   3  30  1   
  9   4   7  1   
 10   4  31  1   
 11   4  32  1   
 12   5   7  1   
 13   5  33  1   
 14   5  34  1   
 15   6   8  1   
 16   6  35  1   
 17   6  36  1   
 18   7   9  1   
 19   7  37  1   
 20   8  10  ar  
 21   8  11  ar  
 22   9  12  1   
 23   9  13  1   
 24   9  38  1   
 25  10  14  ar  
 26  11  15  ar  
 27  11  39  1   
 28  12  16  1   
 29  12  40  1   
 30  12  41  1   
 31  13  17  1   
 32  13  42  1   
 33  13  43  1   
 34  14  18  ar  
 35  14  44  1   
 36  15  18  ar  
 37  16  19  1   
 38  16  45  1   
 39  16  46  1   
 40  17  19  1   
 41  17  47  1   
 42  17  48  1   
 43  18  49  1   
 44  19  20  1   
 45  19  50  1   
 46  20  21  1   
 47  20  51  1   
 48  20  52  1   
 49  21  22  1   
 50  21  53  1   
 51  21  54  1   
 52  22  23  ar  
 53  22  24  ar  
 54  23  25  ar  
 55  23  55  1   
 56  24  26  ar  
 57  24  56  1   
 58  25  27  ar  
 59  25  57  1   
 60  26  27  ar  
 61  26  58  1   
 62  27  59  1   
@<TRIPOS>SUBSTRUCTURE
  1 ****   9 GROUP 4 **** **** 0

# MOE 2024.06 (io_trps.svl 2023.06)
