@<TRIPOS>MOLECULE
NONAME
48 50 1 0 0 
SMALL
USER_CHARGES


@<TRIPOS>ATOM
  1 S       -1.7840    -0.7410     0.4070 S.o2  1 <1>   1.2040 
  2 O       -1.9440    -2.0330     1.0420 O.2   1 <1>  -0.6500 
  3 O       -2.9430    -0.1070    -0.1820 O.2   1 <1>  -0.6500 
  4 C       -0.9700     0.4000     1.5480 C.ar  1 <1>  -0.0090 
  5 C       -0.5660    -0.8790    -0.9030 C.3   1 <1>  -0.0550 
  6 C       -1.2130     1.7680     1.4920 C.ar  1 <1>  -0.1500 
  7 C       -0.0540    -0.0610     2.4870 C.ar  1 <1>  -0.1500 
  8 C       -1.0050    -1.7920    -2.0620 C.3   1 <1>  -0.0990 
  9 C       -0.5640     2.6470     2.3420 C.ar  1 <1>  -0.1500 
 10 C        0.6000     0.8120     3.3400 C.ar  1 <1>  -0.1500 
 11 C       -1.0220    -3.2430    -1.6210 C.2   1 <1>   0.5690 
 12 C        0.3450     2.1680     3.2670 C.ar  1 <1>  -0.1500 
 13 O        0.0530    -3.7580    -1.4320 O.2   1 <1>  -0.5700 
 14 N       -2.1900    -3.9260    -1.4270 N.am  1 <1>  -0.6600 
 15 C       -3.5810    -3.3950    -1.4610 C.3   1 <1>   0.1400 
 16 C       -2.1830    -5.2680    -0.7910 C.3   1 <1>   0.1400 
 17 C       -4.3410    -4.2300    -0.4310 C.3   1 <1>   0.2000 
 18 C       -3.6480    -5.5950    -0.4870 C.3   1 <1>  -0.0800 
 19 O       -4.1780    -3.6630     0.8260 O.3   1 <1>  -0.6800 
 20 C       -3.8410    -6.4800     0.7580 C.3   1 <1>  -0.0160 
 21 C       -3.2610    -7.8690     0.5390 C.ar  1 <1>  -0.1430 
 22 C       -1.9860    -8.2070     0.9440 C.ar  1 <1>  -0.1500 
 23 C       -3.9870    -8.8670    -0.0800 C.ar  1 <1>  -0.1500 
 24 C       -1.5110    -9.4880     0.7160 C.ar  1 <1>   0.1600 
 25 C       -3.4180   -10.1180    -0.2590 C.ar  1 <1>   0.1600 
 26 N       -2.1970   -10.4530     0.1240 N.ar  1 <1>  -0.6200 
 27 H       -0.3730     0.0990    -1.3010 H     1 <1>   0.0800 
 28 H        0.3570    -1.2530    -0.5000 H     1 <1>   0.0800 
 29 H       -1.9240     2.1530     0.7790 H     1 <1>   0.1500 
 30 H        0.1490    -1.1170     2.5570 H     1 <1>   0.1500 
 31 H       -1.9590    -1.4850    -2.4460 H     1 <1>   0.0800 
 32 H       -0.2920    -1.7060    -2.8610 H     1 <1>   0.0800 
 33 H       -0.7690     3.7030     2.2850 H     1 <1>   0.1500 
 34 H        1.3040     0.4350     4.0620 H     1 <1>   0.1500 
 35 H        0.8510     2.8500     3.9300 H     1 <1>   0.1500 
 36 H       -3.6400    -2.3480    -1.2270 H     1 <1>   0.0800 
 37 H       -3.9920    -3.5670    -2.4400 H     1 <1>   0.0800 
 38 H       -1.7430    -5.9990    -1.4480 H     1 <1>   0.0800 
 39 H       -1.6090    -5.2160     0.1180 H     1 <1>   0.0800 
 40 H       -5.3950    -4.2880    -0.6370 H     1 <1>   0.0800 
 41 H       -4.0400    -6.1200    -1.3390 H     1 <1>   0.0800 
 42 H       -3.2790    -3.2490     0.9040 H     1 <1>   0.4000 
 43 H       -4.8910    -6.5630     0.9750 H     1 <1>   0.0800 
 44 H       -3.3740    -6.0240     1.6140 H     1 <1>   0.0800 
 45 H       -1.3570    -7.4870     1.4350 H     1 <1>   0.1500 
 46 H       -4.9880    -8.6850    -0.4240 H     1 <1>   0.1500 
 47 H       -0.5140    -9.7320     1.0390 H     1 <1>   0.1500 
 48 H       -4.0000   -10.8830    -0.7430 H     1 <1>   0.1500 
@<TRIPOS>BOND
  1   1   2  2   
  2   1   3  2   
  3   1   4  1   
  4   1   5  1   
  5   4   6  ar  
  6   4   7  ar  
  7   5   8  1   
  8   5  27  1   
  9   5  28  1   
 10   6   9  ar  
 11   6  29  1   
 12   7  10  ar  
 13   7  30  1   
 14   8  11  1   
 15   8  31  1   
 16   8  32  1   
 17   9  12  ar  
 18   9  33  1   
 19  10  12  ar  
 20  10  34  1   
 21  11  13  2   
 22  11  14  am  
 23  12  35  1   
 24  14  15  1   
 25  14  16  1   
 26  15  17  1   
 27  15  36  1   
 28  15  37  1   
 29  16  18  1   
 30  16  38  1   
 31  16  39  1   
 32  17  18  1   
 33  17  19  1   
 34  17  40  1   
 35  18  20  1   
 36  18  41  1   
 37  19  42  1   
 38  20  21  1   
 39  20  43  1   
 40  20  44  1   
 41  21  22  ar  
 42  21  23  ar  
 43  22  24  ar  
 44  22  45  1   
 45  23  25  ar  
 46  23  46  1   
 47  24  26  ar  
 48  24  47  1   
 49  25  26  ar  
 50  25  48  1   
@<TRIPOS>SUBSTRUCTURE
  1 ****   2 GROUP 4 **** **** 0

# MOE 2024.06 (io_trps.svl 2023.06)
