@<TRIPOS>MOLECULE
NONAME
53 55 1 0 0 
SMALL
USER_CHARGES


@<TRIPOS>ATOM
  1 O       -0.3990    -0.0990    -0.9550 O.2   1 <1>  -0.5700 
  2 C        0.3990    -0.9820    -0.7400 C.2   1 <1>   0.5690 
  3 N        1.7580    -0.7530    -0.6110 N.am  1 <1>  -0.6600 
  4 C       -0.1980    -2.3820    -0.6130 C.3   1 <1>   0.0440 
  5 C        2.4460     0.5840    -0.6020 C.3   1 <1>   0.2200 
  6 C        2.7090    -1.8190    -0.1800 C.3   1 <1>   0.1400 
  7 C       -0.3370    -2.8410     0.8420 C.ar  1 <1>  -0.1440 
  8 C        2.8000     0.9130     0.8590 C.3   1 <1>  -0.1600 
  9 C        1.6920     1.7280    -1.2950 C.3   1 <1>  -0.0990 
 10 C        3.0900    -1.5720     1.2830 C.3   1 <1>  -0.1600 
 11 C        0.2150    -4.0350     1.3050 C.ar  1 <1>   0.0820 
 12 C       -1.0440    -2.0390     1.7250 C.ar  1 <1>  -0.1500 
 13 C        3.6950    -0.1740     1.4790 C.3   1 <1>  -0.1600 
 14 C        2.5610     2.9530    -1.4610 C.2   1 <1>   0.5690 
 15 O        0.9200    -4.8030     0.4390 O.3   1 <1>  -0.3630 
 16 C        0.0310    -4.4180     2.6300 C.ar  1 <1>  -0.1500 
 17 C       -1.2090    -2.4140     3.0470 C.ar  1 <1>  -0.1500 
 18 O        3.6580     2.8620    -1.9450 O.2   1 <1>  -0.5700 
 19 N        2.0970     4.1510    -1.0650 N.am  1 <1>  -0.8000 
 20 C        2.0530    -5.5320     0.8710 C.3   1 <1>   0.2630 
 21 C       -0.6740    -3.6060     3.4990 C.ar  1 <1>  -0.1500 
 22 C        3.1840    -5.3080    -0.1210 C.ar  1 <1>  -0.1440 
 23 C        2.9610    -5.4290    -1.4850 C.ar  1 <1>  -0.1500 
 24 C        4.4510    -4.9660     0.3300 C.ar  1 <1>  -0.1500 
 25 C        3.9870    -5.2050    -2.3860 C.ar  1 <1>  -0.1500 
 26 C        5.4780    -4.7410    -0.5710 C.ar  1 <1>  -0.1500 
 27 C        5.2460    -4.8590    -1.9290 C.ar  1 <1>  -0.1500 
 28 H        0.3760    -3.0660    -1.2060 H     1 <1>   0.0800 
 29 H       -1.1810    -2.3650    -1.0460 H     1 <1>   0.0800 
 30 H        3.3700     0.4630    -1.1440 H     1 <1>   0.0800 
 31 H        3.5890    -1.7860    -0.8000 H     1 <1>   0.0800 
 32 H        2.2870    -2.7970    -0.2850 H     1 <1>   0.0800 
 33 H        1.8900     1.0040     1.4270 H     1 <1>   0.0800 
 34 H        3.3170     1.8550     0.9100 H     1 <1>   0.0800 
 35 H        0.8260     1.9970    -0.7200 H     1 <1>   0.0800 
 36 H        1.3820     1.4090    -2.2720 H     1 <1>   0.0800 
 37 H        3.7980    -2.3180     1.5970 H     1 <1>   0.0800 
 38 H        2.2100    -1.6770     1.8940 H     1 <1>   0.0800 
 39 H       -1.4730    -1.1110     1.3840 H     1 <1>   0.1500 
 40 H        3.8340     0.0210     2.5280 H     1 <1>   0.0800 
 41 H        4.6620    -0.1400     1.0050 H     1 <1>   0.0800 
 42 H        0.4220    -5.3500     2.9930 H     1 <1>   0.1500 
 43 H       -1.7580    -1.7780     3.7200 H     1 <1>   0.1500 
 44 H        2.6790     4.9790    -1.1950 H     1 <1>   0.3700 
 45 H        1.1660     4.2980    -0.6750 H     1 <1>   0.3700 
 46 H        1.7830    -6.5720     0.9180 H     1 <1>   0.0800 
 47 H        2.3510    -5.1870     1.8450 H     1 <1>   0.0800 
 48 H       -0.8110    -3.9010     4.5250 H     1 <1>   0.1500 
 49 H        1.9830    -5.6950    -1.8490 H     1 <1>   0.1500 
 50 H        4.6470    -4.8700     1.3830 H     1 <1>   0.1500 
 51 H        3.8050    -5.2990    -3.4430 H     1 <1>   0.1500 
 52 H        6.4580    -4.4760    -0.2150 H     1 <1>   0.1500 
 53 H        6.0450    -4.6850    -2.6300 H     1 <1>   0.1500 
@<TRIPOS>BOND
  1   1   2  2   
  2   2   3  am  
  3   2   4  1   
  4   3   5  1   
  5   3   6  1   
  6   4   7  1   
  7   4  28  1   
  8   4  29  1   
  9   5   8  1   
 10   5   9  1   
 11   5  30  1   
 12   6  10  1   
 13   6  31  1   
 14   6  32  1   
 15   7  11  ar  
 16   7  12  ar  
 17   8  13  1   
 18   8  33  1   
 19   8  34  1   
 20   9  14  1   
 21   9  35  1   
 22   9  36  1   
 23  10  13  1   
 24  10  37  1   
 25  10  38  1   
 26  11  15  1   
 27  11  16  ar  
 28  12  17  ar  
 29  12  39  1   
 30  13  40  1   
 31  13  41  1   
 32  14  18  2   
 33  14  19  am  
 34  15  20  1   
 35  16  21  ar  
 36  16  42  1   
 37  17  21  ar  
 38  17  43  1   
 39  19  44  1   
 40  19  45  1   
 41  20  22  1   
 42  20  46  1   
 43  20  47  1   
 44  21  48  1   
 45  22  23  ar  
 46  22  24  ar  
 47  23  25  ar  
 48  23  49  1   
 49  24  26  ar  
 50  24  50  1   
 51  25  27  ar  
 52  25  51  1   
 53  26  27  ar  
 54  26  52  1   
 55  27  53  1   
@<TRIPOS>SUBSTRUCTURE
  1 ****   6 GROUP 4 **** **** 0

# MOE 2024.06 (io_trps.svl 2023.06)
