@<TRIPOS>MOLECULE
NONAME
48 51 1 0 0 
SMALL
USER_CHARGES


@<TRIPOS>ATOM
  1 O       -0.7930     0.7810     1.3870 O.2   1 <1>  -0.5700 
  2 C       -1.7400     1.2160     0.7470 C.2   1 <1>   0.7160 
  3 N       -2.9300     0.5060     0.7990 N.am  1 <1>  -0.6600 
  4 C       -1.5460     2.4410    -0.0300 C.2   1 <1>   0.1410 
  5 C       -4.0200     0.6280    -0.2100 C.3   1 <1>   0.1400 
  6 C       -3.2270    -0.4530     1.9000 C.3   1 <1>   0.1400 
  7 N       -2.5250     3.3260    -0.4000 N.2   1 <1>  -0.5650 
  8 C       -0.3520     2.9220    -0.4840 C.2   1 <1>  -0.3020 
  9 C       -4.3320    -0.7490    -0.8030 C.3   1 <1>  -0.1600 
 10 C       -3.5250    -1.8380     1.3210 C.3   1 <1>  -0.1600 
 11 C       -1.9080     4.2610    -1.0380 C.2   1 <1>   0.0360 
 12 N       -0.5750     4.0730    -1.1270 N.pl3 1 <1>   0.0480 
 13 C       -4.6580    -1.7960     0.2800 C.3   1 <1>   0.4240 
 14 C        0.4190     4.9500    -1.7670 C.3   1 <1>   0.0160 
 15 O       -5.7650    -1.3060     1.0060 O.3   1 <1>  -0.5600 
 16 C       -4.9470    -3.2040    -0.3170 C.ar  1 <1>  -0.1430 
 17 C       -7.0340    -1.5340     0.4890 C.3   1 <1>   0.1200 
 18 C       -3.9780    -3.9320    -1.0220 C.ar  1 <1>   0.0830 
 19 C       -6.2090    -3.7780    -0.1610 C.ar  1 <1>  -0.1430 
 20 C       -7.3080    -3.0270     0.5630 C.3   1 <1>  -0.0170 
 21 O       -2.7500    -3.3810    -1.2110 O.3   1 <1>  -0.3630 
 22 C       -4.2760    -5.1970    -1.5250 C.ar  1 <1>  -0.1500 
 23 C       -6.4930    -5.0370    -0.6630 C.ar  1 <1>  -0.1500 
 24 C       -1.6760    -4.0800    -1.7980 C.3   1 <1>   0.0400 
 25 C       -5.5270    -5.7480    -1.3440 C.ar  1 <1>  -0.1500 
 26 H       -3.7320     1.2810    -1.0120 H     1 <1>   0.0800 
 27 H       -4.8940     1.0390     0.2650 H     1 <1>   0.0800 
 28 H       -4.0790    -0.0950     2.4520 H     1 <1>   0.0800 
 29 H       -2.3980    -0.5200     2.5840 H     1 <1>   0.0800 
 30 H        0.6220     2.4840    -0.3580 H     1 <1>   0.1500 
 31 H       -3.4730    -1.0570    -1.3650 H     1 <1>   0.0800 
 32 H       -5.1450    -0.6730    -1.4990 H     1 <1>   0.0800 
 33 H       -3.8010    -2.5120     2.1100 H     1 <1>   0.0800 
 34 H       -2.6170    -2.2070     0.8890 H     1 <1>   0.0800 
 35 H       -2.3900     5.1220    -1.4660 H     1 <1>   0.1500 
 36 H        1.3310     4.4030    -1.9220 H     1 <1>   0.0800 
 37 H        0.6100     5.7930    -1.1280 H     1 <1>   0.0800 
 38 H        0.0400     5.2900    -2.7130 H     1 <1>   0.0800 
 39 H       -7.0790    -1.1760    -0.5240 H     1 <1>   0.0800 
 40 H       -7.7390    -0.9880     1.0910 H     1 <1>   0.0800 
 41 H       -8.2620    -3.2330     0.1130 H     1 <1>   0.0800 
 42 H       -7.3430    -3.3350     1.5930 H     1 <1>   0.0800 
 43 H       -3.5490    -5.7720    -2.0640 H     1 <1>   0.1500 
 44 H       -7.4690    -5.4690    -0.5270 H     1 <1>   0.1500 
 45 H       -0.8110    -3.4410    -1.7750 H     1 <1>   0.0800 
 46 H       -1.9280    -4.3170    -2.8160 H     1 <1>   0.0800 
 47 H       -1.4860    -4.9710    -1.2270 H     1 <1>   0.0800 
 48 H       -5.7510    -6.7260    -1.7330 H     1 <1>   0.1500 
@<TRIPOS>BOND
  1   1   2  2   
  2   2   3  am  
  3   2   4  1   
  4   3   5  1   
  5   3   6  1   
  6   4   7  1   
  7   4   8  2   
  8   5   9  1   
  9   5  26  1   
 10   5  27  1   
 11   6  10  1   
 12   6  28  1   
 13   6  29  1   
 14   7  11  2   
 15   8  12  1   
 16   8  30  1   
 17   9  13  1   
 18   9  31  1   
 19   9  32  1   
 20  10  13  1   
 21  10  33  1   
 22  10  34  1   
 23  11  12  1   
 24  11  35  1   
 25  12  14  1   
 26  13  15  1   
 27  13  16  1   
 28  14  36  1   
 29  14  37  1   
 30  14  38  1   
 31  15  17  1   
 32  16  18  ar  
 33  16  19  ar  
 34  17  20  1   
 35  17  39  1   
 36  17  40  1   
 37  18  21  1   
 38  18  22  ar  
 39  19  20  1   
 40  19  23  ar  
 41  20  41  1   
 42  20  42  1   
 43  21  24  1   
 44  22  25  ar  
 45  22  43  1   
 46  23  25  ar  
 47  23  44  1   
 48  24  45  1   
 49  24  46  1   
 50  24  47  1   
 51  25  48  1   
@<TRIPOS>SUBSTRUCTURE
  1 ****   9 GROUP 4 **** **** 0

# MOE 2024.06 (io_trps.svl 2023.06)
