@<TRIPOS>MOLECULE
NONAME
50 53 1 0 0 
SMALL
USER_CHARGES


@<TRIPOS>ATOM
  1 O       -0.6440     0.5050     1.3430 O.2   1 <1>  -0.5700 
  2 C       -1.6220     1.0770     0.8980 C.2   1 <1>   0.7150 
  3 N       -2.7280     0.3270     0.5730 N.am  1 <1>  -0.6600 
  4 C       -1.6030     2.5050     0.6960 C.2   1 <1>  -0.2370 
  5 C       -3.7790     0.7590    -0.3860 C.3   1 <1>   0.1400 
  6 C       -2.7760    -1.1470     0.7550 C.3   1 <1>   0.1400 
  7 N       -0.5190     3.1880     0.1800 N.pl3 1 <1>   0.0480 
  8 C       -2.5800     3.4210     0.9660 C.2   1 <1>  -0.1500 
  9 C       -4.7250    -0.4360    -0.4830 C.3   1 <1>   0.2000 
 10 C       -3.8100    -1.6440    -0.2630 C.3   1 <1>  -0.0800 
 11 C       -0.8320     4.5270     0.1170 C.ar  1 <1>  -0.1520 
 12 C        0.7790     2.5990    -0.2090 C.3   1 <1>   0.0160 
 13 C       -2.1220     4.6960     0.6020 C.ar  1 <1>   0.0000 
 14 O       -5.6350    -0.3470     0.5600 O.3   1 <1>  -0.6800 
 15 C       -4.5320    -2.9370     0.1610 C.3   1 <1>   0.0200 
 16 C       -0.0950     5.6320    -0.3240 C.ar  1 <1>  -0.1500 
 17 C       -2.6930     5.9730     0.6470 C.ar  1 <1>  -0.1500 
 18 C       -3.6080    -4.1420     0.2320 C.2   1 <1>  -0.0400 
 19 C       -0.6630     6.8850    -0.2780 C.ar  1 <1>  -0.1500 
 20 C       -1.9730     7.0600     0.2100 C.ar  1 <1>   0.0830 
 21 O       -4.0770    -5.2610     0.7160 O.3   1 <1>  -0.0190 
 22 C       -2.3260    -4.3520    -0.1120 C.2   1 <1>  -0.1500 
 23 O       -2.5880     8.2740     0.2790 O.3   1 <1>  -0.3630 
 24 N       -3.1810    -6.2050     0.7180 N.2   1 <1>  -0.4100 
 25 C       -2.1150    -5.6860     0.2250 C.2   1 <1>   0.1080 
 26 C       -1.9170     9.4520    -0.1110 C.3   1 <1>   0.0400 
 27 C       -0.8130    -6.4320     0.0400 C.3   1 <1>  -0.0590 
 28 H       -4.2980     1.6400    -0.0530 H     1 <1>   0.0800 
 29 H       -3.3230     0.9500    -1.3420 H     1 <1>   0.0800 
 30 H       -1.8100    -1.5900     0.5850 H     1 <1>   0.0800 
 31 H       -3.0910    -1.3630     1.7620 H     1 <1>   0.0800 
 32 H       -3.5480     3.2410     1.3990 H     1 <1>   0.1500 
 33 H       -5.2700    -0.4710    -1.4110 H     1 <1>   0.0800 
 34 H       -3.2950    -1.8300    -1.1890 H     1 <1>   0.0800 
 35 H        0.6120     1.6710    -0.7250 H     1 <1>   0.0800 
 36 H        1.3590     2.4140     0.6770 H     1 <1>   0.0800 
 37 H        1.3100     3.2700    -0.8560 H     1 <1>   0.0800 
 38 H       -5.1520    -0.1340     1.3840 H     1 <1>   0.4000 
 39 H       -5.3180    -3.1540    -0.5400 H     1 <1>   0.0800 
 40 H       -4.9880    -2.8040     1.1270 H     1 <1>   0.0800 
 41 H        0.9050     5.5010    -0.6930 H     1 <1>   0.1500 
 42 H       -3.6900     6.0960     1.0230 H     1 <1>   0.1500 
 43 H       -0.0900     7.7250    -0.6190 H     1 <1>   0.1500 
 44 H       -1.6000    -3.6910    -0.5450 H     1 <1>   0.1500 
 45 H       -2.5840    10.2810     0.0410 H     1 <1>   0.0800 
 46 H       -1.6590     9.3780    -1.1530 H     1 <1>   0.0800 
 47 H       -1.0390     9.5730     0.4980 H     1 <1>   0.0800 
 48 H       -0.0350    -5.9540     0.6060 H     1 <1>   0.0800 
 49 H       -0.5420    -6.4420    -0.9990 H     1 <1>   0.0800 
 50 H       -0.9190    -7.4460     0.3820 H     1 <1>   0.0800 
@<TRIPOS>BOND
  1   1   2  2   
  2   2   3  am  
  3   2   4  1   
  4   3   5  1   
  5   3   6  1   
  6   4   7  1   
  7   4   8  2   
  8   5   9  1   
  9   5  28  1   
 10   5  29  1   
 11   6  10  1   
 12   6  30  1   
 13   6  31  1   
 14   7  11  1   
 15   7  12  1   
 16   8  13  1   
 17   8  32  1   
 18   9  10  1   
 19   9  14  1   
 20   9  33  1   
 21  10  15  1   
 22  10  34  1   
 23  11  13  ar  
 24  11  16  ar  
 25  12  35  1   
 26  12  36  1   
 27  12  37  1   
 28  13  17  ar  
 29  14  38  1   
 30  15  18  1   
 31  15  39  1   
 32  15  40  1   
 33  16  19  ar  
 34  16  41  1   
 35  17  20  ar  
 36  17  42  1   
 37  18  21  1   
 38  18  22  2   
 39  19  20  ar  
 40  19  43  1   
 41  20  23  1   
 42  21  24  1   
 43  22  25  1   
 44  22  44  1   
 45  23  26  1   
 46  24  25  2   
 47  25  27  1   
 48  26  45  1   
 49  26  46  1   
 50  26  47  1   
 51  27  48  1   
 52  27  49  1   
 53  27  50  1   
@<TRIPOS>SUBSTRUCTURE
  1 ****   3 GROUP 4 **** **** 0

# MOE 2024.06 (io_trps.svl 2023.06)
