@<TRIPOS>MOLECULE
NONAME
19 19 1 0 0 
SMALL
USER_CHARGES


@<TRIPOS>ATOM
  1 O       -5.6440    -2.9770    -0.5370 O.2   1 <1>  -0.5700 
  2 C       -4.7690    -2.1430    -0.2680 C.2   1 <1>   0.7060 
  3 O       -5.1010    -1.0790     0.4950 O.3   1 <1>  -0.4300 
  4 C       -3.4260    -2.0650    -0.6110 C.2   1 <1>   0.0910 
  5 C       -3.9420    -0.2420     0.6920 C.3   1 <1>   0.3380 
  6 O       -2.5780    -2.8300    -1.3410 O.3   1 <1>  -0.5270 
  7 C       -2.8470    -0.9610    -0.0860 C.2   1 <1>  -0.2880 
  8 C       -4.1820     1.1830     0.1550 C.3   1 <1>   0.2000 
  9 O       -1.6680    -0.6050    -0.2170 O.3   1 <1>  -0.8500 
 10 O       -5.2490     1.8120     0.8000 O.3   1 <1>  -0.6800 
 11 C       -2.9450     2.0840     0.3240 C.3   1 <1>   0.1200 
 12 O       -3.2750     3.4210     0.0650 O.3   1 <1>  -0.6800 
 13 H       -3.7040    -0.2240     1.7390 H     1 <1>   0.0800 
 14 H       -1.7580    -2.2820    -1.2260 H     1 <1>   0.4500 
 15 H       -4.4180     1.1150    -0.8910 H     1 <1>   0.0800 
 16 H       -5.0310     2.7700     0.8090 H     1 <1>   0.4000 
 17 H       -2.1590     1.7830    -0.3480 H     1 <1>   0.0800 
 18 H       -2.5730     2.0140     1.3310 H     1 <1>   0.0800 
 19 H       -3.3520     3.5500    -0.9010 H     1 <1>   0.4000 
@<TRIPOS>BOND
  1   1   2  2   
  2   2   3  1   
  3   2   4  1   
  4   3   5  1   
  5   4   6  1   
  6   4   7  2   
  7   5   7  1   
  8   5   8  1   
  9   5  13  1   
 10   6  14  1   
 11   7   9  1   
 12   8  10  1   
 13   8  11  1   
 14   8  15  1   
 15  10  16  1   
 16  11  12  1   
 17  11  17  1   
 18  11  18  1   
 19  12  19  1   
@<TRIPOS>SUBSTRUCTURE
  1 ****   5 GROUP 4 **** **** 0

# MOE 2024.06 (io_trps.svl 2023.06)
