@<TRIPOS>MOLECULE
NONAME
58 60 1 0 0 
SMALL
USER_CHARGES


@<TRIPOS>ATOM
  1 O       -1.7740     1.1340     0.4250 O.2   1 <1>  -0.5700 
  2 C       -1.2500     2.1870     0.1530 C.2   1 <1>   0.5690 
  3 N       -1.6320     3.3690     0.7410 N.am  1 <1>  -0.6600 
  4 C       -0.1360     2.1770    -0.9080 C.3   1 <1>   0.1810 
  5 C       -0.8870     4.6290     0.4210 C.3   1 <1>   0.3640 
  6 C       -2.6690     3.4220     1.8150 C.3   1 <1>   0.0600 
  7 O        0.5960     3.3830    -0.9900 O.3   1 <1>  -0.5600 
  8 C       -1.7290     5.8920     0.6890 C.ar  1 <1>  -0.1430 
  9 C       -0.2290     4.5290    -0.9730 C.3   1 <1>   0.2610 
 10 C       -2.7860     6.3360    -0.1100 C.ar  1 <1>  -0.1430 
 11 C       -1.4140     6.6140     1.8360 C.ar  1 <1>  -0.1500 
 12 C        0.5610     5.7900    -1.3110 C.2   1 <1>   0.5690 
 13 C       -3.4780     7.4850     0.2460 C.ar  1 <1>  -0.1500 
 14 C       -3.2560     5.6050    -1.3610 C.3   1 <1>  -0.0960 
 15 C       -2.1180     7.7500     2.1890 C.ar  1 <1>  -0.1500 
 16 O        0.1050     6.5530    -2.1290 O.2   1 <1>  -0.5700 
 17 N        1.7460     6.0330    -0.6820 N.am  1 <1>  -0.7300 
 18 C       -3.1540     8.1890     1.3890 C.ar  1 <1>  -0.1500 
 19 C        2.6580     7.1870    -0.9300 C.3   1 <1>   0.1400 
 20 C        2.6760     8.1660     0.2640 C.3   1 <1>   0.1100 
 21 N        1.7630     9.3300     0.1400 N.3   1 <1>  -0.8100 
 22 C        0.3830     8.9640    -0.2780 C.3   1 <1>   0.1100 
 23 C        1.7490    10.1280     1.3860 C.3   1 <1>   0.1100 
 24 C       -0.6600    10.0800    -0.0670 C.3   1 <1>   0.3430 
 25 C        0.9220    11.4310     1.2430 C.3   1 <1>   0.3430 
 26 N        0.0310    11.4040     0.0330 N.4   1 <1>  -0.9590 
 27 C       -0.8920    12.5690    -0.0570 C.3   1 <1>   0.2630 
 28 H       -0.5720     1.9840    -1.8710 H     1 <1>   0.0800 
 29 H        0.5580     1.3880    -0.6840 H     1 <1>   0.0800 
 30 H       -0.0630     4.6660     1.1120 H     1 <1>   0.0800 
 31 H       -2.2570     3.8690     2.7020 H     1 <1>   0.0800 
 32 H       -3.0160     2.4330     2.0610 H     1 <1>   0.0800 
 33 H       -3.5110     4.0050     1.4840 H     1 <1>   0.0800 
 34 H       -0.9730     4.4020    -1.7350 H     1 <1>   0.0800 
 35 H       -0.6170     6.2870     2.4820 H     1 <1>   0.1500 
 36 H       -4.2940     7.8310    -0.3660 H     1 <1>   0.1500 
 37 H       -4.2750     5.8620    -1.5900 H     1 <1>   0.0800 
 38 H       -3.2210     4.5400    -1.2210 H     1 <1>   0.0800 
 39 H       -2.6460     5.8800    -2.2020 H     1 <1>   0.0800 
 40 H       -1.8700     8.2800     3.0930 H     1 <1>   0.1500 
 41 H        2.1590     5.2550    -0.1600 H     1 <1>   0.3700 
 42 H       -3.7190     9.0640     1.6610 H     1 <1>   0.1500 
 43 H        3.6510     6.7950    -1.0710 H     1 <1>   0.0800 
 44 H        2.3840     7.7050    -1.8340 H     1 <1>   0.0800 
 45 H        3.6780     8.5510     0.3500 H     1 <1>   0.0800 
 46 H        2.4620     7.6200     1.1670 H     1 <1>   0.0800 
 47 H        0.4020     8.7500    -1.3310 H     1 <1>   0.0800 
 48 H        0.0560     8.0780     0.2330 H     1 <1>   0.0800 
 49 H        1.3340     9.5360     2.1850 H     1 <1>   0.0800 
 50 H        2.7560    10.3870     1.6660 H     1 <1>   0.0800 
 51 H       -1.2100     9.8840     0.8370 H     1 <1>   0.0800 
 52 H       -1.3560    10.0700    -0.8900 H     1 <1>   0.0800 
 53 H        1.6010    12.2640     1.1660 H     1 <1>   0.0800 
 54 H        0.3340    11.5710     2.1340 H     1 <1>   0.0800 
 55 H        0.6890    11.3900    -0.7640 H     1 <1>   0.4500 
 56 H       -1.5780    12.5700     0.7740 H     1 <1>   0.0800 
 57 H       -1.4590    12.5250    -0.9740 H     1 <1>   0.0800 
 58 H       -0.3320    13.4910    -0.0460 H     1 <1>   0.0800 
@<TRIPOS>BOND
  1   1   2  2   
  2   2   3  am  
  3   2   4  1   
  4   3   5  1   
  5   3   6  1   
  6   4   7  1   
  7   4  28  1   
  8   4  29  1   
  9   5   8  1   
 10   5   9  1   
 11   5  30  1   
 12   6  31  1   
 13   6  32  1   
 14   6  33  1   
 15   7   9  1   
 16   8  10  ar  
 17   8  11  ar  
 18   9  12  1   
 19   9  34  1   
 20  10  13  ar  
 21  10  14  1   
 22  11  15  ar  
 23  11  35  1   
 24  12  16  2   
 25  12  17  am  
 26  13  18  ar  
 27  13  36  1   
 28  14  37  1   
 29  14  38  1   
 30  14  39  1   
 31  15  18  ar  
 32  15  40  1   
 33  17  19  1   
 34  17  41  1   
 35  18  42  1   
 36  19  20  1   
 37  19  43  1   
 38  19  44  1   
 39  20  21  1   
 40  20  45  1   
 41  20  46  1   
 42  21  22  1   
 43  21  23  1   
 44  22  24  1   
 45  22  47  1   
 46  22  48  1   
 47  23  25  1   
 48  23  49  1   
 49  23  50  1   
 50  24  26  1   
 51  24  51  1   
 52  24  52  1   
 53  25  26  1   
 54  25  53  1   
 55  25  54  1   
 56  26  27  1   
 57  26  55  1   
 58  27  56  1   
 59  27  57  1   
 60  27  58  1   
@<TRIPOS>SUBSTRUCTURE
  1 ****   8 GROUP 4 **** **** 0

# MOE 2024.06 (io_trps.svl 2023.06)
