@<TRIPOS>MOLECULE
NONAME
57 60 1 0 0 
SMALL
USER_CHARGES


@<TRIPOS>ATOM
  1 O        1.6430    -0.6190     1.3540 O.3   1 <1>  -0.5600 
  2 C        1.6970     0.4390     0.4420 C.3   1 <1>   0.2000 
  3 C        1.1320    -1.8390     0.8800 C.3   1 <1>   0.2640 
  4 C        2.7770     0.1890    -0.6170 C.3   1 <1>  -0.1600 
  5 C        2.0110     1.6970     1.2490 C.3   1 <1>  -0.1600 
  6 C       -0.2930    -1.7000     0.3530 C.ar  1 <1>   0.1660 
  7 C        2.9440     1.4150    -1.5150 C.3   1 <1>   0.2090 
  8 C        2.1780     2.9110     0.3360 C.3   1 <1>   0.2090 
  9 N       -0.4640    -1.8110    -0.9600 N.ar  1 <1>  -0.6200 
 10 C       -1.3230    -1.4600     1.2500 C.ar  1 <1>  -0.1500 
 11 N        3.2190     2.6240    -0.6880 N.pl3 1 <1>  -0.8380 
 12 C       -1.7100    -1.6830    -1.3870 C.ar  1 <1>   0.1600 
 13 C       -2.6160    -1.3290     0.7890 C.ar  1 <1>  -0.1500 
 14 C        4.4660     3.1540    -0.6070 C.ar  1 <1>   0.4100 
 15 C       -2.8030    -1.4460    -0.5710 C.ar  1 <1>  -0.1500 
 16 N        5.4470     2.2870    -0.4680 N.ar  1 <1>  -0.6200 
 17 C        4.6970     4.5560    -0.6510 C.ar  1 <1>  -0.1430 
 18 C        6.6680     2.7470    -0.2830 C.ar  1 <1>   0.7710 
 19 C        5.9710     4.9960    -0.4420 C.ar  1 <1>   0.2180 
 20 C        3.5400     5.5120    -0.9630 C.3   1 <1>  -0.0970 
 21 N        6.9310     4.0600    -0.2570 N.ar  1 <1>  -0.1790 
 22 N        7.6870     1.8690    -0.1100 N.pl3 1 <1>  -0.8380 
 23 C        6.4240     6.4510    -0.4070 C.3   1 <1>  -0.0970 
 24 C        9.1210     2.1460     0.1740 C.3   1 <1>   0.2090 
 25 C        7.4480     0.3980    -0.1370 C.3   1 <1>   0.2090 
 26 C        9.7020     0.8080     0.6090 C.3   1 <1>  -0.1600 
 27 C        8.8330    -0.2320    -0.0870 C.3   1 <1>  -0.1600 
 28 H        0.7350     0.5580    -0.0270 H     1 <1>   0.0800 
 29 H        1.1420    -2.5280     1.7040 H     1 <1>   0.0800 
 30 H        1.7850    -2.2250     0.1180 H     1 <1>   0.0800 
 31 H        2.5040    -0.6420    -1.2400 H     1 <1>   0.0800 
 32 H        3.7160    -0.0240    -0.1400 H     1 <1>   0.0800 
 33 H        2.9210     1.5530     1.8030 H     1 <1>   0.0800 
 34 H        1.2130     1.8830     1.9440 H     1 <1>   0.0800 
 35 H        2.0440     1.5750    -2.0850 H     1 <1>   0.0800 
 36 H        3.7510     1.2500    -2.2090 H     1 <1>   0.0800 
 37 H        2.4630     3.7600     0.9320 H     1 <1>   0.0800 
 38 H        1.2460     3.1350    -0.1560 H     1 <1>   0.0800 
 39 H       -1.1100    -1.3730     2.3000 H     1 <1>   0.1500 
 40 H       -1.8700    -1.7730    -2.4480 H     1 <1>   0.1500 
 41 H       -3.4370    -1.1430     1.4590 H     1 <1>   0.1500 
 42 H       -3.7850    -1.3550    -0.9980 H     1 <1>   0.1500 
 43 H        2.8100     5.0310    -1.5920 H     1 <1>   0.0800 
 44 H        3.8750     6.3820    -1.4960 H     1 <1>   0.0800 
 45 H        3.0560     5.8240    -0.0550 H     1 <1>   0.0800 
 46 H        7.9010     4.3000    -0.1100 H     1 <1>   0.4570 
 47 H        5.5950     7.1220    -0.2780 H     1 <1>   0.0800 
 48 H        6.9270     6.7050    -1.3230 H     1 <1>   0.0800 
 49 H        7.0960     6.6160     0.4170 H     1 <1>   0.0800 
 50 H        9.2420     2.8800     0.9530 H     1 <1>   0.0800 
 51 H        9.6090     2.4740    -0.7300 H     1 <1>   0.0800 
 52 H        6.9160     0.1030    -1.0270 H     1 <1>   0.0800 
 53 H        6.8750     0.1140     0.7310 H     1 <1>   0.0800 
 54 H        9.6030     0.7100     1.6760 H     1 <1>   0.0800 
 55 H       10.7410     0.7150     0.3450 H     1 <1>   0.0800 
 56 H        9.1820    -0.3930    -1.0920 H     1 <1>   0.0800 
 57 H        8.8230    -1.1740     0.4340 H     1 <1>   0.0800 
@<TRIPOS>BOND
  1   1   2  1   
  2   1   3  1   
  3   2   4  1   
  4   2   5  1   
  5   2  28  1   
  6   3   6  1   
  7   3  29  1   
  8   3  30  1   
  9   4   7  1   
 10   4  31  1   
 11   4  32  1   
 12   5   8  1   
 13   5  33  1   
 14   5  34  1   
 15   6   9  ar  
 16   6  10  ar  
 17   7  11  1   
 18   7  35  1   
 19   7  36  1   
 20   8  11  1   
 21   8  37  1   
 22   8  38  1   
 23   9  12  ar  
 24  10  13  ar  
 25  10  39  1   
 26  11  14  1   
 27  12  15  ar  
 28  12  40  1   
 29  13  15  ar  
 30  13  41  1   
 31  14  16  ar  
 32  14  17  ar  
 33  15  42  1   
 34  16  18  ar  
 35  17  19  ar  
 36  17  20  1   
 37  18  21  ar  
 38  18  22  1   
 39  19  21  ar  
 40  19  23  1   
 41  20  43  1   
 42  20  44  1   
 43  20  45  1   
 44  21  46  1   
 45  22  24  1   
 46  22  25  1   
 47  23  47  1   
 48  23  48  1   
 49  23  49  1   
 50  24  26  1   
 51  24  50  1   
 52  24  51  1   
 53  25  27  1   
 54  25  52  1   
 55  25  53  1   
 56  26  27  1   
 57  26  54  1   
 58  26  55  1   
 59  27  56  1   
 60  27  57  1   
@<TRIPOS>SUBSTRUCTURE
  1 ****  11 GROUP 4 **** **** 0

# MOE 2024.06 (io_trps.svl 2023.06)
