@<TRIPOS>MOLECULE
NONAME
54 57 1 0 0 
SMALL
USER_CHARGES


@<TRIPOS>ATOM
  1 O       -0.2310    -1.7510     1.2360 O.2   1 <1>  -0.5700 
  2 C        0.4790    -0.8320     0.8640 C.2   1 <1>   0.5440 
  3 N       -0.0930     0.1780     0.1230 N.am  1 <1>  -0.6600 
  4 C        1.8820    -0.8190     1.1990 C.ar  1 <1>   0.0860 
  5 C       -1.5310     0.1870    -0.2240 C.3   1 <1>   0.1400 
  6 C        0.6640     1.1130    -0.7400 C.3   1 <1>   0.1400 
  7 C        2.7020    -1.9240     0.9030 C.ar  1 <1>   0.4100 
  8 C        2.4640     0.2760     1.8220 C.ar  1 <1>  -0.1500 
  9 C       -1.6920     1.3450    -1.2030 C.3   1 <1>  -0.1600 
 10 C       -0.3150     1.5040    -1.8400 C.3   1 <1>  -0.1600 
 11 N        4.0070    -1.9650     1.1700 N.ar  1 <1>  -0.6200 
 12 N        2.1720    -3.0390     0.2970 N.pl3 1 <1>  -0.8690 
 13 C        3.8100     0.2270     2.1020 C.ar  1 <1>  -0.1500 
 14 C        4.5260    -0.9050     1.7560 C.ar  1 <1>   0.1600 
 15 C        2.7900    -4.3860     0.3870 C.3   1 <1>   0.2890 
 16 C        1.7580    -5.5290     0.3520 C.3   1 <1>   0.2000 
 17 C        3.6940    -4.6440    -0.8120 C.3   1 <1>  -0.1600 
 18 O        1.4850    -5.9950     1.6430 O.3   1 <1>  -0.5600 
 19 C        2.3920    -6.6620    -0.4650 C.3   1 <1>  -0.1600 
 20 C        3.7770    -6.1670    -0.8940 C.3   1 <1>  -0.1600 
 21 C        0.4420    -5.3320     2.2970 C.3   1 <1>   0.2630 
 22 C       -0.8990    -5.7760     1.7220 C.ar  1 <1>  -0.1430 
 23 C       -1.1670    -7.1220     1.5190 C.ar  1 <1>  -0.1500 
 24 C       -1.8690    -4.8380     1.3980 C.ar  1 <1>  -0.1500 
 25 C       -2.3840    -7.5270     0.9990 C.ar  1 <1>  -0.1500 
 26 C       -3.0860    -5.2400     0.8770 C.ar  1 <1>  -0.1500 
 27 C       -3.3450    -6.5850     0.6770 C.ar  1 <1>  -0.1500 
 28 H       -1.7860    -0.7470    -0.6960 H     1 <1>   0.0800 
 29 H       -2.1340     0.3210     0.6580 H     1 <1>   0.0800 
 30 H        0.9420     1.9780    -0.1640 H     1 <1>   0.0800 
 31 H        1.5450     0.6450    -1.1480 H     1 <1>   0.0800 
 32 H        1.8700     1.1360     2.0800 H     1 <1>   0.1500 
 33 H       -2.4610     1.1490    -1.9290 H     1 <1>   0.0800 
 34 H       -1.9470     2.2340    -0.6530 H     1 <1>   0.0800 
 35 H       -0.1390     2.5040    -2.1970 H     1 <1>   0.0800 
 36 H       -0.2110     0.8150    -2.6610 H     1 <1>   0.0800 
 37 H        1.1430    -3.0670     0.3090 H     1 <1>   0.4000 
 38 H        4.3050     1.0520     2.5830 H     1 <1>   0.1500 
 39 H        5.5800    -0.9380     1.9750 H     1 <1>   0.1500 
 40 H        3.3730    -4.4750     1.2880 H     1 <1>   0.0800 
 41 H        0.8480    -5.2160    -0.1310 H     1 <1>   0.0800 
 42 H        3.2340    -4.2560    -1.7030 H     1 <1>   0.0800 
 43 H        4.6610    -4.1930    -0.6750 H     1 <1>   0.0800 
 44 H        2.4590    -7.5760     0.0990 H     1 <1>   0.0800 
 45 H        1.7890    -6.8330    -1.3390 H     1 <1>   0.0800 
 46 H        4.5130    -6.5200    -0.1910 H     1 <1>   0.0800 
 47 H        4.0420    -6.5050    -1.8810 H     1 <1>   0.0800 
 48 H        0.4930    -5.5980     3.3370 H     1 <1>   0.0800 
 49 H        0.5840    -4.2680     2.2080 H     1 <1>   0.0800 
 50 H       -0.4180    -7.8550     1.7660 H     1 <1>   0.1500 
 51 H       -1.6810    -3.7890     1.5510 H     1 <1>   0.1500 
 52 H       -2.5820    -8.5730     0.8460 H     1 <1>   0.1500 
 53 H       -3.8310    -4.5050     0.6280 H     1 <1>   0.1500 
 54 H       -4.2920    -6.8970     0.2720 H     1 <1>   0.1500 
@<TRIPOS>BOND
  1   1   2  2   
  2   2   3  am  
  3   2   4  1   
  4   3   5  1   
  5   3   6  1   
  6   4   7  ar  
  7   4   8  ar  
  8   5   9  1   
  9   5  28  1   
 10   5  29  1   
 11   6  10  1   
 12   6  30  1   
 13   6  31  1   
 14   7  11  ar  
 15   7  12  1   
 16   8  13  ar  
 17   8  32  1   
 18   9  10  1   
 19   9  33  1   
 20   9  34  1   
 21  10  35  1   
 22  10  36  1   
 23  11  14  ar  
 24  12  15  1   
 25  12  37  1   
 26  13  14  ar  
 27  13  38  1   
 28  14  39  1   
 29  15  16  1   
 30  15  17  1   
 31  15  40  1   
 32  16  18  1   
 33  16  19  1   
 34  16  41  1   
 35  17  20  1   
 36  17  42  1   
 37  17  43  1   
 38  18  21  1   
 39  19  20  1   
 40  19  44  1   
 41  19  45  1   
 42  20  46  1   
 43  20  47  1   
 44  21  22  1   
 45  21  48  1   
 46  21  49  1   
 47  22  23  ar  
 48  22  24  ar  
 49  23  25  ar  
 50  23  50  1   
 51  24  26  ar  
 52  24  51  1   
 53  25  27  ar  
 54  25  52  1   
 55  26  27  ar  
 56  26  53  1   
 57  27  54  1   
@<TRIPOS>SUBSTRUCTURE
  1 ****  12 GROUP 4 **** **** 0

# MOE 2024.06 (io_trps.svl 2023.06)
