@<TRIPOS>MOLECULE
NONAME
46 47 1 0 0 
SMALL
USER_CHARGES


@<TRIPOS>ATOM
  1 O        4.3170    -2.3440     0.1220 O.2   1 <1>  -0.5700 
  2 C        3.1210    -2.4190    -0.0100 C.2   1 <1>   0.5690 
  3 N        2.2580    -1.3980     0.2700 N.am  1 <1>  -0.4940 
  4 C        2.5380    -3.7260    -0.5230 C.3   1 <1>   0.0450 
  5 C        2.4980    -0.1040     0.7410 C.2   1 <1>   0.2040 
  6 C        1.0110    -3.7460    -0.4790 C.ar  1 <1>  -0.1440 
  7 O        3.7010     0.3320     1.0300 O.3   1 <1>  -0.0190 
  8 C        1.6300     0.8970     0.9840 C.2   1 <1>  -0.1810 
  9 C        0.3480    -4.2470     0.6270 C.ar  1 <1>  -0.1500 
 10 C        0.2730    -3.2310    -1.5330 C.ar  1 <1>  -0.1500 
 11 N        3.6800     1.5710     1.4530 N.2   1 <1>  -0.4100 
 12 C        2.4470     1.9330     1.4340 C.2   1 <1>   0.1080 
 13 C        0.1190     0.9240     0.8180 C.3   1 <1>  -0.0590 
 14 C       -1.0360    -4.2350     0.6830 C.ar  1 <1>   0.0830 
 15 C       -1.1130    -3.2060    -1.5000 C.ar  1 <1>   0.0830 
 16 C        1.9830     3.3170     1.8540 C.3   1 <1>   0.0210 
 17 O       -1.6060    -4.7330     1.8090 O.3   1 <1>  -0.3630 
 18 C       -1.7840    -3.7390    -0.3900 C.ar  1 <1>   0.0830 
 19 O       -1.6940    -2.6430    -2.5990 O.3   1 <1>  -0.3630 
 20 C        1.8640     4.2540     0.6470 C.3   1 <1>  -0.2400 
 21 C       -2.3130    -3.8220     2.6230 C.3   1 <1>   0.0400 
 22 O       -3.1430    -3.8020    -0.3470 O.3   1 <1>  -0.3630 
 23 C       -2.9880    -2.0820    -2.5580 C.3   1 <1>   0.0400 
 24 C       -3.6940    -5.0830    -0.5610 C.3   1 <1>   0.0400 
 25 H        1.2780    -1.6250     0.1100 H     1 <1>   0.3700 
 26 H        2.9320    -4.5300     0.0710 H     1 <1>   0.0800 
 27 H        2.8770    -3.8750    -1.5320 H     1 <1>   0.0800 
 28 H        0.8930    -4.6490     1.4630 H     1 <1>   0.1500 
 29 H        0.7680    -2.8340    -2.4030 H     1 <1>   0.1500 
 30 H       -0.2410    -0.0160     0.4420 H     1 <1>   0.0800 
 31 H       -0.1600     1.6980     0.1250 H     1 <1>   0.0800 
 32 H       -0.3510     1.1180     1.7650 H     1 <1>   0.0800 
 33 H        2.6940     3.7240     2.5520 H     1 <1>   0.0800 
 34 H        1.0350     3.2430     2.3560 H     1 <1>   0.0800 
 35 H        2.8180     4.3370     0.1550 H     1 <1>   0.0800 
 36 H        1.5530     5.2320     0.9660 H     1 <1>   0.0800 
 37 H        1.1470     3.8720    -0.0570 H     1 <1>   0.0800 
 38 H       -2.5900    -4.3290     3.5290 H     1 <1>   0.0800 
 39 H       -3.1950    -3.4910     2.1070 H     1 <1>   0.0800 
 40 H       -1.6730    -2.9880     2.8490 H     1 <1>   0.0800 
 41 H       -3.1060    -1.4510    -3.4200 H     1 <1>   0.0800 
 42 H       -3.0930    -1.5020    -1.6590 H     1 <1>   0.0800 
 43 H       -3.7120    -2.8760    -2.5880 H     1 <1>   0.0800 
 44 H       -4.7660    -4.9960    -0.5550 H     1 <1>   0.0800 
 45 H       -3.3750    -5.7420     0.2260 H     1 <1>   0.0800 
 46 H       -3.3580    -5.4500    -1.5150 H     1 <1>   0.0800 
@<TRIPOS>BOND
  1   1   2  2   
  2   2   3  am  
  3   2   4  1   
  4   3   5  1   
  5   3  25  1   
  6   4   6  1   
  7   4  26  1   
  8   4  27  1   
  9   5   7  1   
 10   5   8  2   
 11   6   9  ar  
 12   6  10  ar  
 13   7  11  1   
 14   8  12  1   
 15   8  13  1   
 16   9  14  ar  
 17   9  28  1   
 18  10  15  ar  
 19  10  29  1   
 20  11  12  2   
 21  12  16  1   
 22  13  30  1   
 23  13  31  1   
 24  13  32  1   
 25  14  17  1   
 26  14  18  ar  
 27  15  18  ar  
 28  15  19  1   
 29  16  20  1   
 30  16  33  1   
 31  16  34  1   
 32  17  21  1   
 33  18  22  1   
 34  19  23  1   
 35  20  35  1   
 36  20  36  1   
 37  20  37  1   
 38  21  38  1   
 39  21  39  1   
 40  21  40  1   
 41  22  24  1   
 42  23  41  1   
 43  23  42  1   
 44  23  43  1   
 45  24  44  1   
 46  24  45  1   
 47  24  46  1   
@<TRIPOS>SUBSTRUCTURE
  1 ****   3 GROUP 4 **** **** 0

# MOE 2024.06 (io_trps.svl 2023.06)
