@<TRIPOS>MOLECULE
NONAME
51 53 1 0 0 
SMALL
USER_CHARGES


@<TRIPOS>ATOM
  1 O       -2.2910     1.3860    -2.7430 O.2   1 <1>  -0.5700 
  2 C       -2.3530     1.8120    -1.6130 C.2   1 <1>   0.5690 
  3 N       -2.6400     0.9790    -0.5620 N.am  1 <1>  -0.6600 
  4 C       -2.1320     3.2970    -1.4180 C.3   1 <1>   0.1570 
  5 C       -2.6980     1.3550     0.8760 C.3   1 <1>   0.1400 
  6 C       -2.8090    -0.4840    -0.7270 C.3   1 <1>   0.1400 
  7 N       -0.9470     3.5480    -0.5860 N.pl3 1 <1>   0.3140 
  8 C       -3.1100     0.0720     1.5970 C.3   1 <1>   0.2000 
  9 C       -2.6620    -1.0640     0.6800 C.3   1 <1>  -0.0800 
 10 N       -1.0730     4.1510     0.6120 N.2   1 <1>  -0.7070 
 11 C        0.3460     3.2460    -0.8490 C.2   1 <1>  -0.3320 
 12 O       -2.4940    -0.0420     2.8330 O.3   1 <1>  -0.6800 
 13 C       -3.4540    -2.3620     0.9010 C.3   1 <1>  -0.0170 
 14 C        0.1300     4.2180     1.0820 C.2   1 <1>   0.1080 
 15 C        1.0680     3.6680     0.2130 C.2   1 <1>  -0.1810 
 16 C        0.8210     2.5550    -2.1210 C.3   1 <1>  -0.0600 
 17 C       -2.9790    -3.4580    -0.0390 C.ar  1 <1>  -0.1440 
 18 C        0.4270     4.8390     2.4280 C.3   1 <1>  -0.0590 
 19 C        2.5680     3.5760     0.4390 C.3   1 <1>   0.0210 
 20 C       -1.8460    -4.1980     0.2290 C.ar  1 <1>  -0.1500 
 21 C       -3.6470    -3.7690    -1.2060 C.ar  1 <1>  -0.1500 
 22 C        2.9220     2.2530     1.1200 C.3   1 <1>  -0.2400 
 23 C       -1.4440    -5.1820    -0.6580 C.ar  1 <1>   0.1600 
 24 C       -3.1600    -4.7730    -2.0270 C.ar  1 <1>   0.1600 
 25 N       -2.0730    -5.4860    -1.7810 N.ar  1 <1>  -0.6200 
 26 H       -2.9900     3.7290    -0.9410 H     1 <1>   0.0800 
 27 H       -1.9870     3.7710    -2.3680 H     1 <1>   0.0800 
 28 H       -1.7210     1.6660     1.2020 H     1 <1>   0.0800 
 29 H       -3.4130     2.1420     1.0400 H     1 <1>   0.0800 
 30 H       -3.7910    -0.6760    -1.1250 H     1 <1>   0.0800 
 31 H       -2.0680    -0.8860    -1.3990 H     1 <1>   0.0800 
 32 H       -4.1760     0.0600     1.7450 H     1 <1>   0.0800 
 33 H       -1.6150    -1.2540     0.8360 H     1 <1>   0.0800 
 34 H       -1.5280     0.0710     2.7420 H     1 <1>   0.4000 
 35 H       -4.5050    -2.1830     0.7500 H     1 <1>   0.0800 
 36 H       -3.3260    -2.6870     1.9190 H     1 <1>   0.0800 
 37 H        1.8920     2.4940    -2.1470 H     1 <1>   0.0800 
 38 H        0.4910     3.0990    -2.9880 H     1 <1>   0.0800 
 39 H        0.4290     1.5540    -2.1690 H     1 <1>   0.0800 
 40 H        1.0880     4.2070     2.9900 H     1 <1>   0.0800 
 41 H       -0.4860     4.9660     2.9800 H     1 <1>   0.0800 
 42 H        0.8850     5.8000     2.2870 H     1 <1>   0.0800 
 43 H        3.0800     3.6460    -0.5030 H     1 <1>   0.0800 
 44 H        2.8950     4.4010     1.0470 H     1 <1>   0.0800 
 45 H       -1.2710    -4.0190     1.1200 H     1 <1>   0.1500 
 46 H       -4.5400    -3.2420    -1.4880 H     1 <1>   0.1500 
 47 H        2.6070     1.4290     0.5050 H     1 <1>   0.0800 
 48 H        2.4280     2.1810     2.0720 H     1 <1>   0.0800 
 49 H        3.9840     2.1870     1.2730 H     1 <1>   0.0800 
 50 H       -0.5570    -5.7490    -0.4320 H     1 <1>   0.1500 
 51 H       -3.6930    -5.0020    -2.9340 H     1 <1>   0.1500 
@<TRIPOS>BOND
  1   1   2  2   
  2   2   3  am  
  3   2   4  1   
  4   3   5  1   
  5   3   6  1   
  6   4   7  1   
  7   4  26  1   
  8   4  27  1   
  9   5   8  1   
 10   5  28  1   
 11   5  29  1   
 12   6   9  1   
 13   6  30  1   
 14   6  31  1   
 15   7  10  1   
 16   7  11  1   
 17   8   9  1   
 18   8  12  1   
 19   8  32  1   
 20   9  13  1   
 21   9  33  1   
 22  10  14  2   
 23  11  15  2   
 24  11  16  1   
 25  12  34  1   
 26  13  17  1   
 27  13  35  1   
 28  13  36  1   
 29  14  15  1   
 30  14  18  1   
 31  15  19  1   
 32  16  37  1   
 33  16  38  1   
 34  16  39  1   
 35  17  20  ar  
 36  17  21  ar  
 37  18  40  1   
 38  18  41  1   
 39  18  42  1   
 40  19  22  1   
 41  19  43  1   
 42  19  44  1   
 43  20  23  ar  
 44  20  45  1   
 45  21  24  ar  
 46  21  46  1   
 47  22  47  1   
 48  22  48  1   
 49  22  49  1   
 50  23  25  ar  
 51  23  50  1   
 52  24  25  ar  
 53  24  51  1   
@<TRIPOS>SUBSTRUCTURE
  1 ****   3 GROUP 4 **** **** 0

# MOE 2024.06 (io_trps.svl 2023.06)
