@<TRIPOS>MOLECULE
NONAME
51 53 1 0 0 
SMALL
USER_CHARGES


@<TRIPOS>ATOM
  1 O        0.7320     2.0890     1.3000 O.2   1 <1>  -0.5700 
  2 C        0.4800     2.9380     0.4770 C.2   1 <1>   0.5690 
  3 N       -0.7770     3.4780     0.3650 N.am  1 <1>  -0.6600 
  4 C        1.6020     3.4080    -0.4440 C.3   1 <1>  -0.0990 
  5 C       -1.9160     2.9510     1.1760 C.3   1 <1>   0.1400 
  6 C       -1.1850     4.5610    -0.5710 C.3   1 <1>   0.1400 
  7 C        2.8800     2.5490    -0.3810 C.3   1 <1>  -0.1600 
  8 C       -3.0190     2.3630     0.2590 C.3   1 <1>   0.0000 
  9 C       -2.2620     4.0330    -1.5250 C.3   1 <1>  -0.1600 
 10 C        3.9830     3.1040    -1.2980 C.3   1 <1>  -0.0990 
 11 C       -4.2200     1.8240     1.0630 C.3   1 <1>   0.2000 
 12 C       -3.4590     3.4380    -0.7600 C.3   1 <1>  -0.1600 
 13 C       -2.5150     1.0830    -0.4330 C.3   1 <1>  -0.1600 
 14 C        5.2270     2.2240    -1.3010 C.2   1 <1>   0.4230 
 15 O       -4.5180     2.5920     2.1760 O.3   1 <1>  -0.6800 
 16 C       -3.8640     0.3970     1.4890 C.3   1 <1>  -0.1600 
 17 C       -2.6890    -0.0320     0.6010 C.3   1 <1>  -0.1600 
 18 O        5.3350     1.4650    -2.2290 O.2   1 <1>  -0.5700 
 19 C        6.2210     2.3210    -0.2440 C.ar  1 <1>   0.0860 
 20 C        7.3890     1.5570    -0.3170 C.ar  1 <1>  -0.1500 
 21 C        6.0850     3.1510     0.8760 C.ar  1 <1>  -0.1500 
 22 C        8.3660     1.6150     0.6590 C.ar  1 <1>  -0.1500 
 23 C        7.0580     3.2140     1.8570 C.ar  1 <1>  -0.1500 
 24 C        8.2030     2.4460     1.7510 C.ar  1 <1>  -0.1500 
 25 H        1.2370     3.3920    -1.4550 H     1 <1>   0.0800 
 26 H        1.8410     4.4210    -0.1810 H     1 <1>   0.0800 
 27 H       -1.5750     2.2010     1.8680 H     1 <1>   0.0800 
 28 H       -2.3180     3.7650     1.7520 H     1 <1>   0.0800 
 29 H       -1.5850     5.3810     0.0020 H     1 <1>   0.0800 
 30 H       -0.3500     4.9330    -1.1350 H     1 <1>   0.0800 
 31 H        3.2330     2.5070     0.6350 H     1 <1>   0.0800 
 32 H        2.6420     1.5420    -0.6820 H     1 <1>   0.0800 
 33 H       -2.6040     4.8370    -2.1520 H     1 <1>   0.0800 
 34 H       -1.8270     3.2850    -2.1650 H     1 <1>   0.0800 
 35 H        4.2460     4.1060    -1.0140 H     1 <1>   0.0800 
 36 H        3.6080     3.1500    -2.3060 H     1 <1>   0.0800 
 37 H       -5.0950     1.8020     0.4360 H     1 <1>   0.0800 
 38 H       -4.1630     3.0230    -1.4600 H     1 <1>   0.0800 
 39 H       -3.9600     4.2300    -0.2300 H     1 <1>   0.0800 
 40 H       -3.1340     0.8630    -1.2850 H     1 <1>   0.0800 
 41 H       -1.4940     1.1560    -0.7640 H     1 <1>   0.0800 
 42 H       -3.8360     2.4630     2.8600 H     1 <1>   0.4000 
 43 H       -3.5740     0.3490     2.5240 H     1 <1>   0.0800 
 44 H       -4.7100    -0.2480     1.3270 H     1 <1>   0.0800 
 45 H       -1.7950    -0.1090     1.1960 H     1 <1>   0.0800 
 46 H       -2.8700    -0.9810     0.1260 H     1 <1>   0.0800 
 47 H        7.5310     0.9030    -1.1610 H     1 <1>   0.1500 
 48 H        5.2100     3.7610     1.0000 H     1 <1>   0.1500 
 49 H        9.2540     1.0120     0.5700 H     1 <1>   0.1500 
 50 H        6.9260     3.8610     2.7070 H     1 <1>   0.1500 
 51 H        8.9610     2.4940     2.5140 H     1 <1>   0.1500 
@<TRIPOS>BOND
  1   1   2  2   
  2   2   3  am  
  3   2   4  1   
  4   3   5  1   
  5   3   6  1   
  6   4   7  1   
  7   4  25  1   
  8   4  26  1   
  9   5   8  1   
 10   5  27  1   
 11   5  28  1   
 12   6   9  1   
 13   6  29  1   
 14   6  30  1   
 15   7  10  1   
 16   7  31  1   
 17   7  32  1   
 18   8  11  1   
 19   8  12  1   
 20   8  13  1   
 21   9  12  1   
 22   9  33  1   
 23   9  34  1   
 24  10  14  1   
 25  10  35  1   
 26  10  36  1   
 27  11  15  1   
 28  11  16  1   
 29  11  37  1   
 30  12  38  1   
 31  12  39  1   
 32  13  17  1   
 33  13  40  1   
 34  13  41  1   
 35  14  18  2   
 36  14  19  1   
 37  15  42  1   
 38  16  17  1   
 39  16  43  1   
 40  16  44  1   
 41  17  45  1   
 42  17  46  1   
 43  19  20  ar  
 44  19  21  ar  
 45  20  22  ar  
 46  20  47  1   
 47  21  23  ar  
 48  21  48  1   
 49  22  24  ar  
 50  22  49  1   
 51  23  24  ar  
 52  23  50  1   
 53  24  51  1   
@<TRIPOS>SUBSTRUCTURE
  1 ****   2 GROUP 4 **** **** 0

# MOE 2024.06 (io_trps.svl 2023.06)
