@<TRIPOS>MOLECULE
NONAME
57 60 1 0 0 
SMALL
USER_CHARGES


@<TRIPOS>ATOM
  1 O       -3.4000    -1.3580    -1.7940 O.2   1 <1>  -0.5700 
  2 C       -2.4400    -1.8650    -1.2330 C.2   1 <1>   0.7670 
  3 N       -1.5680    -1.0170    -0.6080 N.2   1 <1>  -0.6610 
  4 C       -2.2330    -3.2810    -1.2320 C.2   1 <1>  -0.1240 
  5 C       -0.5270    -1.5280    -0.0700 C.2   1 <1>   0.4390 
  6 C       -1.0990    -3.7660    -0.6590 C.2   1 <1>  -0.0380 
  7 C       -3.3040    -4.1760    -1.8710 C.3   1 <1>   0.0390 
  8 N       -0.2530    -2.8600    -0.0820 N.pl3 1 <1>  -0.5500 
  9 C        0.4730    -0.6370     0.6240 C.3   1 <1>  -0.1790 
 10 C       -0.6520    -5.2170    -0.5710 C.3   1 <1>  -0.1020 
 11 C       -4.1000    -4.9640    -0.8340 C.2   1 <1>   0.5690 
 12 O       -3.6630    -6.0560    -0.5520 O.2   1 <1>  -0.5700 
 13 N       -5.2610    -4.4980    -0.2570 N.am  1 <1>  -0.6600 
 14 C       -5.9750    -3.2190    -0.5990 C.3   1 <1>   0.1400 
 15 C       -6.0210    -5.3570     0.7000 C.3   1 <1>   0.1400 
 16 C       -6.3470    -2.4040     0.6590 C.3   1 <1>   0.1430 
 17 C       -6.3370    -4.5790     1.9800 C.3   1 <1>  -0.1600 
 18 C       -7.1870    -1.2120     0.2370 C.ar  1 <1>   0.1670 
 19 C       -7.1100    -3.2900     1.6660 C.3   1 <1>  -0.1600 
 20 C       -5.1010    -1.7380     1.3070 C.3   1 <1>  -0.1600 
 21 N       -8.4140    -1.2760    -0.2210 N.ar  1 <1>  -0.6200 
 22 C       -6.5110    -0.0400     0.3810 C.ar  1 <1>  -0.1430 
 23 C       -5.1180    -0.2470     0.9190 C.3   1 <1>  -0.0170 
 24 C       -8.9680    -0.1020    -0.5350 C.ar  1 <1>   0.7200 
 25 C       -7.1570     1.1170     0.0260 C.ar  1 <1>   0.1600 
 26 N       -8.3880     1.0980    -0.4310 N.ar  1 <1>  -0.6200 
 27 N      -10.2640    -0.1310    -1.0130 N.pl3 1 <1>  -0.8380 
 28 C      -11.1400    -1.3260    -0.8600 C.3   1 <1>   0.1290 
 29 C      -10.8780     1.0390    -1.6990 C.3   1 <1>   0.1290 
 30 H       -2.8190    -4.8810    -2.5190 H     1 <1>   0.0800 
 31 H       -3.9710    -3.6240    -2.5030 H     1 <1>   0.0800 
 32 H        0.6070    -3.1800     0.3680 H     1 <1>   0.4000 
 33 H        0.5620    -0.9210     1.6560 H     1 <1>   0.0800 
 34 H        0.1490     0.3870     0.5750 H     1 <1>   0.0800 
 35 H        1.4300    -0.7180     0.1440 H     1 <1>   0.0800 
 36 H        0.3890    -5.3020    -0.8270 H     1 <1>   0.0800 
 37 H       -1.2020    -5.8490    -1.2410 H     1 <1>   0.0800 
 38 H       -0.7970    -5.5820     0.4300 H     1 <1>   0.0800 
 39 H       -6.8810    -3.4690    -1.1240 H     1 <1>   0.0800 
 40 H       -5.3910    -2.6020    -1.2530 H     1 <1>   0.0800 
 41 H       -5.4610    -6.2400     0.9560 H     1 <1>   0.0800 
 42 H       -6.9370    -5.6740     0.2300 H     1 <1>   0.0800 
 43 H       -5.4170    -4.3520     2.4880 H     1 <1>   0.0800 
 44 H       -6.9260    -5.2000     2.6320 H     1 <1>   0.0800 
 45 H       -8.0640    -3.5560     1.2420 H     1 <1>   0.0800 
 46 H       -7.3050    -2.7410     2.5700 H     1 <1>   0.0800 
 47 H       -4.1850    -2.2110     1.0030 H     1 <1>   0.0800 
 48 H       -5.1670    -1.8040     2.3780 H     1 <1>   0.0800 
 49 H       -4.3960    -0.0340     0.1510 H     1 <1>   0.0800 
 50 H       -4.9300     0.3820     1.7720 H     1 <1>   0.0800 
 51 H       -6.6590     2.0660     0.1170 H     1 <1>   0.1500 
 52 H      -10.8470    -1.9010     0.0010 H     1 <1>   0.0800 
 53 H      -11.0610    -1.9430    -1.7370 H     1 <1>   0.0800 
 54 H      -12.1620    -1.0200    -0.7290 H     1 <1>   0.0800 
 55 H      -10.1210     1.6280    -2.1900 H     1 <1>   0.0800 
 56 H      -11.3840     1.6530    -0.9760 H     1 <1>   0.0800 
 57 H      -11.5810     0.7060    -2.4420 H     1 <1>   0.0800 
@<TRIPOS>BOND
  1   1   2  2   
  2   2   3  1   
  3   2   4  1   
  4   3   5  2   
  5   4   6  2   
  6   4   7  1   
  7   5   8  1   
  8   5   9  1   
  9   6   8  1   
 10   6  10  1   
 11   7  11  1   
 12   7  30  1   
 13   7  31  1   
 14   8  32  1   
 15   9  33  1   
 16   9  34  1   
 17   9  35  1   
 18  10  36  1   
 19  10  37  1   
 20  10  38  1   
 21  11  12  2   
 22  11  13  am  
 23  13  14  1   
 24  13  15  1   
 25  14  16  1   
 26  14  39  1   
 27  14  40  1   
 28  15  17  1   
 29  15  41  1   
 30  15  42  1   
 31  16  18  1   
 32  16  19  1   
 33  16  20  1   
 34  17  19  1   
 35  17  43  1   
 36  17  44  1   
 37  18  21  ar  
 38  18  22  ar  
 39  19  45  1   
 40  19  46  1   
 41  20  23  1   
 42  20  47  1   
 43  20  48  1   
 44  21  24  ar  
 45  22  23  1   
 46  22  25  ar  
 47  23  49  1   
 48  23  50  1   
 49  24  26  ar  
 50  24  27  1   
 51  25  26  ar  
 52  25  51  1   
 53  27  28  1   
 54  27  29  1   
 55  28  52  1   
 56  28  53  1   
 57  28  54  1   
 58  29  55  1   
 59  29  56  1   
 60  29  57  1   
@<TRIPOS>SUBSTRUCTURE
  1 ****  14 GROUP 4 **** **** 0

# MOE 2024.06 (io_trps.svl 2023.06)
