@<TRIPOS>MOLECULE
Untitled Document
47 49 1 0 0 
SMALL
USER_CHARGES


@<TRIPOS>ATOM
  1 N       -0.0300     0.0000     0.5610 N.3   1 <1>  -0.8100 
  2 C        1.2630     0.6940     0.8240 C.3   1 <1>   0.4770 
  3 C        0.0510    -1.4620     0.8260 C.3   1 <1>   0.1100 
  4 C       -1.1450     0.5940     1.3440 C.3   1 <1>   0.1100 
  5 C        1.1850     2.1800     0.4600 C.ar  1 <1>  -0.1440 
  6 C        2.4200     0.0130     0.0870 C.ar  1 <1>  -0.1440 
  7 C       -1.3070    -2.1830     0.6450 C.3   1 <1>   0.3430 
  8 C       -2.5090    -0.0530     1.0040 C.3   1 <1>   0.3430 
  9 C        0.5550     2.6200    -0.6980 C.ar  1 <1>  -0.1500 
 10 C        1.7520     3.1210     1.3090 C.ar  1 <1>  -0.1500 
 11 C        2.3930    -0.1730    -1.2890 C.ar  1 <1>  -0.1500 
 12 C        3.5210    -0.4420     0.8020 C.ar  1 <1>  -0.1500 
 13 N       -2.3460    -1.2470     0.1090 N.4   1 <1>  -0.9590 
 14 C        0.4870     3.9690    -0.9980 C.ar  1 <1>  -0.1500 
 15 C        1.6840     4.4710     1.0120 C.ar  1 <1>  -0.1500 
 16 C        3.4390    -0.8050    -1.9380 C.ar  1 <1>  -0.1500 
 17 C        4.5680    -1.0750     0.1550 C.ar  1 <1>  -0.1500 
 18 C       -3.6060    -1.9140    -0.2700 C.3   1 <1>   0.4810 
 19 C        1.0500     4.8960    -0.1410 C.ar  1 <1>  -0.1500 
 20 C        4.5280    -1.2580    -1.2150 C.ar  1 <1>  -0.1500 
 21 C       -4.3700    -0.9710    -1.1710 C.2   1 <1>  -0.2880 
 22 C       -4.4990    -1.1070    -2.4950 C.2   1 <1>  -0.3000 
 23 H        1.4620     0.6260     1.8800 H     1 <1>   0.0800 
 24 H        0.4130    -1.6370     1.8250 H     1 <1>   0.0800 
 25 H        0.7570    -1.9140     0.1490 H     1 <1>   0.0800 
 26 H       -1.2210     1.6500     1.1490 H     1 <1>   0.0800 
 27 H       -0.9520     0.4790     2.3980 H     1 <1>   0.0800 
 28 H       -1.6250    -2.5800     1.5940 H     1 <1>   0.0800 
 29 H       -1.1710    -3.0120    -0.0300 H     1 <1>   0.0800 
 30 H       -3.1230     0.6840     0.5140 H     1 <1>   0.0800 
 31 H       -3.0050    -0.3360     1.9180 H     1 <1>   0.0800 
 32 H        0.1120     1.9100    -1.3730 H     1 <1>   0.1500 
 33 H        2.2570     2.8120     2.2070 H     1 <1>   0.1500 
 34 H        1.5530     0.1740    -1.8630 H     1 <1>   0.1500 
 35 H        3.5760    -0.3050     1.8670 H     1 <1>   0.1500 
 36 H       -1.9260    -0.8570    -0.7490 H     1 <1>   0.4500 
 37 H       -0.0020     4.2980    -1.8990 H     1 <1>   0.1500 
 38 H        2.1290     5.1920     1.6760 H     1 <1>   0.1500 
 39 H        3.4090    -0.9410    -3.0050 H     1 <1>   0.1500 
 40 H        5.4180    -1.4230     0.7170 H     1 <1>   0.1500 
 41 H       -4.1890    -2.1680     0.6010 H     1 <1>   0.0800 
 42 H       -3.3870    -2.8180    -0.8150 H     1 <1>   0.0800 
 43 H        1.0000     5.9460    -0.3730 H     1 <1>   0.1500 
 44 H        5.3430    -1.7480    -1.7180 H     1 <1>   0.1500 
 45 H       -4.8260    -0.1540    -0.6390 H     1 <1>   0.1500 
 46 H       -5.0540    -0.4220    -3.1160 H     1 <1>   0.1500 
 47 H       -4.0710    -1.9040    -3.0820 H     1 <1>   0.1500 
@<TRIPOS>BOND
  1   1   2  1   
  2   1   3  1   
  3   1   4  1   
  4   2   5  1   
  5   2   6  1   
  6   2  23  1   
  7   3   7  1   
  8   3  24  1   
  9   3  25  1   
 10   4   8  1   
 11   4  26  1   
 12   4  27  1   
 13   5   9  ar  
 14   5  10  ar  
 15   6  11  ar  
 16   6  12  ar  
 17   7  13  1   
 18   7  28  1   
 19   7  29  1   
 20   8  13  1   
 21   8  30  1   
 22   8  31  1   
 23   9  14  ar  
 24   9  32  1   
 25  10  15  ar  
 26  10  33  1   
 27  11  16  ar  
 28  11  34  1   
 29  12  17  ar  
 30  12  35  1   
 31  13  18  1   
 32  13  36  1   
 33  14  19  ar  
 34  14  37  1   
 35  15  19  ar  
 36  15  38  1   
 37  16  20  ar  
 38  16  39  1   
 39  17  20  ar  
 40  17  40  1   
 41  18  21  1   
 42  18  41  1   
 43  18  42  1   
 44  19  43  1   
 45  20  44  1   
 46  21  22  2   
 47  21  45  1   
 48  22  46  1   
 49  22  47  1   
@<TRIPOS>SUBSTRUCTURE
  1 ****   1 GROUP 4 **** **** 0

# MOE 2024.06 (io_trps.svl 2023.06)
