@<TRIPOS>MOLECULE
NONAME
39 41 1 0 0 
SMALL
USER_CHARGES


@<TRIPOS>ATOM
  1 O       -1.8530     1.5140     2.3240 O.2   1 <1>  -0.5700 
  2 C       -2.0280     1.4160     1.1280 C.2   1 <1>   0.6300 
  3 N       -2.4130     0.2290     0.5590 N.am  1 <1>  -0.6600 
  4 C       -1.8150     2.6750     0.2730 C.3   1 <1>   0.0320 
  5 C       -2.7550    -0.9570     1.4180 C.3   1 <1>   0.1400 
  6 C       -2.5610    -0.0110    -0.9010 C.3   1 <1>   0.1400 
  7 C       -0.4170     2.7470    -0.3340 C.ar  1 <1>  -0.0320 
  8 C       -2.9940     3.3160    -0.4140 C.3   1 <1>  -0.2000 
  9 C       -2.3780     3.9780     0.7730 C.3   1 <1>  -0.2000 
 10 C       -3.7820    -1.9120     0.7690 C.3   1 <1>   0.2000 
 11 C       -4.0200    -0.3470    -1.2460 C.3   1 <1>  -0.1600 
 12 C       -0.2130     2.7170    -1.7070 C.ar  1 <1>  -0.1500 
 13 C        0.6800     2.8410     0.5070 C.ar  1 <1>  -0.1500 
 14 O       -3.1260    -2.8650     0.0050 O.3   1 <1>  -0.6800 
 15 C       -4.7550    -1.1510    -0.1410 C.3   1 <1>  -0.1860 
 16 C        1.0680     2.7810    -2.2280 C.ar  1 <1>  -0.1500 
 17 C        1.9620     2.9040    -0.0100 C.ar  1 <1>  -0.1500 
 18 C       -5.8010    -2.0910    -0.7050 C.2   1 <1>   0.9060 
 19 C        2.1560     2.8740    -1.3800 C.ar  1 <1>  -0.1500 
 20 O       -6.9920    -1.8020    -0.5730 O.co2 1 <1>  -0.9000 
 21 O       -5.4200    -3.1260    -1.2720 O.co2 1 <1>  -0.9000 
 22 H       -1.8590    -1.5010     1.6600 H     1 <1>   0.0800 
 23 H       -3.1800    -0.5950     2.3370 H     1 <1>   0.0800 
 24 H       -2.2340     0.8300    -1.4800 H     1 <1>   0.0800 
 25 H       -1.9360    -0.8480    -1.1660 H     1 <1>   0.0800 
 26 H       -2.8690     3.7840    -1.3730 H     1 <1>   0.1000 
 27 H       -3.9600     2.8560    -0.3020 H     1 <1>   0.1000 
 28 H       -2.9090     3.9760     1.7100 H     1 <1>   0.1000 
 29 H       -1.7970     4.8720     0.6300 H     1 <1>   0.1000 
 30 H       -4.3250    -2.4440     1.5320 H     1 <1>   0.0800 
 31 H       -4.5670     0.5570    -1.4410 H     1 <1>   0.0800 
 32 H       -4.0180    -0.9180    -2.1580 H     1 <1>   0.0800 
 33 H       -1.0500     2.6430    -2.3770 H     1 <1>   0.1500 
 34 H        0.5320     2.8620     1.5740 H     1 <1>   0.1500 
 35 H       -3.8270    -3.2350    -0.6110 H     1 <1>   0.4000 
 36 H       -5.2770    -0.4490     0.4810 H     1 <1>   0.0800 
 37 H        1.2180     2.7570    -3.2940 H     1 <1>   0.1500 
 38 H        2.8060     2.9750     0.6540 H     1 <1>   0.1500 
 39 H        3.1530     2.9220    -1.7830 H     1 <1>   0.1500 
@<TRIPOS>BOND
  1   1   2  2   
  2   2   3  am  
  3   2   4  1   
  4   3   5  1   
  5   3   6  1   
  6   4   7  1   
  7   4   8  1   
  8   4   9  1   
  9   5  10  1   
 10   5  22  1   
 11   5  23  1   
 12   6  11  1   
 13   6  24  1   
 14   6  25  1   
 15   7  12  ar  
 16   7  13  ar  
 17   8   9  1   
 18   8  26  1   
 19   8  27  1   
 20   9  28  1   
 21   9  29  1   
 22  10  14  1   
 23  10  15  1   
 24  10  30  1   
 25  11  15  1   
 26  11  31  1   
 27  11  32  1   
 28  12  16  ar  
 29  12  33  1   
 30  13  17  ar  
 31  13  34  1   
 32  14  35  1   
 33  15  18  1   
 34  15  36  1   
 35  16  19  ar  
 36  16  37  1   
 37  17  19  ar  
 38  17  38  1   
 39  18  20  ar  
 40  18  21  ar  
 41  19  39  1   
@<TRIPOS>SUBSTRUCTURE
  1 ****   3 GROUP 4 **** **** 0

# MOE 2024.06 (io_trps.svl 2023.06)
