@<TRIPOS>MOLECULE
NONAME
52 54 1 0 0 
SMALL
USER_CHARGES


@<TRIPOS>ATOM
  1 O        4.1190    -1.8460    -1.9060 O.2   1 <1>  -0.5700 
  2 C        3.0300    -1.8620    -1.3620 C.2   1 <1>   0.5440 
  3 N        2.5820    -0.6580    -0.8830 N.am  1 <1>  -0.6600 
  4 C        2.2880    -3.0960    -1.1520 C.ar  1 <1>   0.0860 
  5 C        2.7840    -0.3870     0.5840 C.3   1 <1>   0.2200 
  6 C        2.4930     0.4950    -1.8320 C.3   1 <1>   0.1400 
  7 C        0.9910    -3.0900    -0.6380 C.ar  1 <1>  -0.1500 
  8 C        2.8480    -4.3390    -1.4480 C.ar  1 <1>  -0.1500 
  9 C        1.8500     0.7050     1.1290 C.3   1 <1>   0.1200 
 10 C        4.2680    -0.0460     0.8840 C.3   1 <1>   0.3430 
 11 C        3.1510     1.7970    -1.3390 C.3   1 <1>  -0.0800 
 12 C        0.2810    -4.2550    -0.4010 C.ar  1 <1>   0.0730 
 13 C        2.1540    -5.5140    -1.2270 C.ar  1 <1>  -0.1500 
 14 O        2.4210     1.9680     0.9600 O.3   1 <1>  -0.5600 
 15 N        5.0350     0.3600    -0.3460 N.4   1 <1>  -0.9590 
 16 C        2.2840     2.5280    -0.3020 C.3   1 <1>   0.1200 
 17 C        4.6290     1.6880    -0.9040 C.3   1 <1>   0.3430 
 18 C       -1.0370    -4.1870     0.1500 C.1   1 <1>  -0.0730 
 19 C        0.8750    -5.4710    -0.7020 C.ar  1 <1>  -0.1500 
 20 C        6.5060     0.2690    -0.1390 C.3   1 <1>   0.2630 
 21 C       -2.1230    -4.0770     0.6270 C.1   1 <1>  -0.2000 
 22 C       -3.4700    -3.9020     1.2340 C.3   1 <1>   0.4800 
 23 O       -3.4660    -2.7070     1.9040 O.3   1 <1>  -0.6800 
 24 C       -4.5500    -3.8170     0.1620 C.3   1 <1>  -0.2400 
 25 C       -3.7610    -4.9950     2.2550 C.3   1 <1>  -0.2400 
 26 H        2.5400    -1.2880     1.1200 H     1 <1>   0.0800 
 27 H        2.9480     0.2130    -2.7680 H     1 <1>   0.0800 
 28 H        1.4530     0.6800    -2.0400 H     1 <1>   0.0800 
 29 H        0.5080    -2.1560    -0.4140 H     1 <1>   0.1500 
 30 H        3.8430    -4.3860    -1.8580 H     1 <1>   0.1500 
 31 H        1.7280     0.5670     2.1890 H     1 <1>   0.0800 
 32 H        0.8760     0.6690     0.6720 H     1 <1>   0.0800 
 33 H        4.7250    -0.9250     1.3050 H     1 <1>   0.0800 
 34 H        4.3180     0.7320     1.6280 H     1 <1>   0.0800 
 35 H        3.1500     2.4540    -2.1910 H     1 <1>   0.0800 
 36 H        2.6060    -6.4630    -1.4620 H     1 <1>   0.1500 
 37 H        4.7600    -0.3550    -1.0600 H     1 <1>   0.4500 
 38 H        1.2420     2.5250    -0.5780 H     1 <1>   0.0800 
 39 H        2.6000     3.5550    -0.2210 H     1 <1>   0.0800 
 40 H        4.8360     2.4600    -0.1800 H     1 <1>   0.0800 
 41 H        5.2400     1.8850    -1.7700 H     1 <1>   0.0800 
 42 H        0.3330    -6.3840    -0.5250 H     1 <1>   0.1500 
 43 H        6.8240     0.9770     0.6090 H     1 <1>   0.0800 
 44 H        7.0250     0.4790    -1.0600 H     1 <1>   0.0800 
 45 H        6.7750    -0.7240     0.1840 H     1 <1>   0.0800 
 46 H       -4.3360    -2.5770     2.3180 H     1 <1>   0.4000 
 47 H       -4.5720    -4.7320    -0.4020 H     1 <1>   0.0800 
 48 H       -4.3330    -3.0100    -0.5160 H     1 <1>   0.0800 
 49 H       -5.5180    -3.6660     0.6030 H     1 <1>   0.0800 
 50 H       -3.7520    -5.9540     1.7700 H     1 <1>   0.0800 
 51 H       -4.7250    -4.8520     2.7070 H     1 <1>   0.0800 
 52 H       -3.0030    -4.9980     3.0180 H     1 <1>   0.0800 
@<TRIPOS>BOND
  1   1   2  2   
  2   2   3  am  
  3   2   4  1   
  4   3   5  1   
  5   3   6  1   
  6   4   7  ar  
  7   4   8  ar  
  8   5   9  1   
  9   5  10  1   
 10   5  26  1   
 11   6  11  1   
 12   6  27  1   
 13   6  28  1   
 14   7  12  ar  
 15   7  29  1   
 16   8  13  ar  
 17   8  30  1   
 18   9  14  1   
 19   9  31  1   
 20   9  32  1   
 21  10  15  1   
 22  10  33  1   
 23  10  34  1   
 24  11  16  1   
 25  11  17  1   
 26  11  35  1   
 27  12  18  1   
 28  12  19  ar  
 29  13  19  ar  
 30  13  36  1   
 31  14  16  1   
 32  15  17  1   
 33  15  20  1   
 34  15  37  1   
 35  16  38  1   
 36  16  39  1   
 37  17  40  1   
 38  17  41  1   
 39  18  21  3   
 40  19  42  1   
 41  20  43  1   
 42  20  44  1   
 43  20  45  1   
 44  21  22  1   
 45  22  23  1   
 46  22  24  1   
 47  22  25  1   
 48  23  46  1   
 49  24  47  1   
 50  24  48  1   
 51  24  49  1   
 52  25  50  1   
 53  25  51  1   
 54  25  52  1   
@<TRIPOS>SUBSTRUCTURE
  1 ****   7 GROUP 4 **** **** 0

# MOE 2024.06 (io_trps.svl 2023.06)
