@<TRIPOS>MOLECULE
NONAME
49 51 1 0 0 
SMALL
USER_CHARGES


@<TRIPOS>ATOM
  1 S       -1.8670     0.2210    -0.9480 S.3   1 <1>  -0.3320 
  2 C       -2.2880     0.7670     0.7120 C.ar  1 <1>   0.4120 
  3 C       -1.1240     1.7000    -1.7710 C.3   1 <1>  -0.0100 
  4 N       -2.0220     2.0440     0.9510 N.ar  1 <1>  -0.6200 
  5 C       -2.8410    -0.1450     1.6160 C.ar  1 <1>   0.0860 
  6 C       -2.2950     2.4550     2.1780 C.ar  1 <1>   0.1600 
  7 C       -3.1390    -1.5160     1.2750 C.2   1 <1>   0.5440 
  8 C       -3.1000     0.3290     2.8960 C.ar  1 <1>  -0.1500 
  9 C       -2.8230     1.6500     3.1720 C.ar  1 <1>  -0.1500 
 10 O       -2.6700    -2.4180     1.9440 O.2   1 <1>  -0.5700 
 11 N       -4.0130    -1.8590     0.2680 N.am  1 <1>  -0.6600 
 12 C       -4.0930    -3.2500    -0.2410 C.3   1 <1>   0.1400 
 13 C       -5.1450    -1.0060    -0.1720 C.3   1 <1>   0.1400 
 14 C       -5.3600    -3.9080     0.3410 C.3   1 <1>   0.4230 
 15 C       -6.4370    -1.5970     0.4150 C.3   1 <1>  -0.1600 
 16 N       -5.4820    -5.3970     0.0590 N.4   1 <1>  -0.9590 
 17 C       -6.6730    -3.1030     0.0820 C.3   1 <1>   0.0000 
 18 C       -6.8360    -5.9560     0.3690 C.3   1 <1>   0.3430 
 19 C       -5.0670    -5.7820    -1.3280 C.3   1 <1>   0.2630 
 20 C       -7.7580    -3.6560     1.0520 C.3   1 <1>  -0.1600 
 21 C       -7.2400    -3.2230    -1.3640 C.3   1 <1>   0.1200 
 22 C       -7.5470    -5.1350     1.4480 C.3   1 <1>  -0.1600 
 23 O       -6.2730    -3.0320    -2.3360 O.3   1 <1>  -0.6800 
 24 H       -0.8480     1.4170    -2.7710 H     1 <1>   0.0800 
 25 H       -0.2620     1.9960    -1.2010 H     1 <1>   0.0800 
 26 H       -1.8640     2.4800    -1.7800 H     1 <1>   0.0800 
 27 H       -2.0850     3.4870     2.4040 H     1 <1>   0.1500 
 28 H       -3.5050    -0.3280     3.6480 H     1 <1>   0.1500 
 29 H       -3.0110     2.0560     4.1500 H     1 <1>   0.1500 
 30 H       -4.1050    -3.2220    -1.3140 H     1 <1>   0.0800 
 31 H       -3.2210    -3.8000     0.0670 H     1 <1>   0.0800 
 32 H       -5.0170     0.0060     0.1720 H     1 <1>   0.0800 
 33 H       -5.1810    -0.9850    -1.2480 H     1 <1>   0.0800 
 34 H       -5.2100    -3.8290     1.4050 H     1 <1>   0.0800 
 35 H       -6.3710    -1.4630     1.4810 H     1 <1>   0.0800 
 36 H       -7.2720    -1.0060     0.0820 H     1 <1>   0.0800 
 37 H       -4.8160    -5.8370     0.7100 H     1 <1>   0.4500 
 38 H       -7.4420    -5.9470    -0.5220 H     1 <1>   0.0800 
 39 H       -6.7420    -6.9810     0.6920 H     1 <1>   0.0800 
 40 H       -5.7060    -5.3110    -2.0570 H     1 <1>   0.0800 
 41 H       -5.1310    -6.8500    -1.4550 H     1 <1>   0.0800 
 42 H       -4.0510    -5.4770    -1.5180 H     1 <1>   0.0800 
 43 H       -7.7760    -3.0880     1.9680 H     1 <1>   0.0800 
 44 H       -8.7350    -3.5380     0.6140 H     1 <1>   0.0800 
 45 H       -8.0100    -2.4850    -1.5190 H     1 <1>   0.0800 
 46 H       -7.6750    -4.1910    -1.5350 H     1 <1>   0.0800 
 47 H       -8.5030    -5.5830     1.6600 H     1 <1>   0.0800 
 48 H       -6.9700    -5.1900     2.3560 H     1 <1>   0.0800 
 49 H       -6.6830    -2.7960    -3.1960 H     1 <1>   0.4000 
@<TRIPOS>BOND
  1   1   2  1   
  2   1   3  1   
  3   2   4  ar  
  4   2   5  ar  
  5   3  24  1   
  6   3  25  1   
  7   3  26  1   
  8   4   6  ar  
  9   5   7  1   
 10   5   8  ar  
 11   6   9  ar  
 12   6  27  1   
 13   7  10  2   
 14   7  11  am  
 15   8   9  ar  
 16   8  28  1   
 17   9  29  1   
 18  11  12  1   
 19  11  13  1   
 20  12  14  1   
 21  12  30  1   
 22  12  31  1   
 23  13  15  1   
 24  13  32  1   
 25  13  33  1   
 26  14  16  1   
 27  14  17  1   
 28  14  34  1   
 29  15  17  1   
 30  15  35  1   
 31  15  36  1   
 32  16  18  1   
 33  16  19  1   
 34  16  37  1   
 35  17  20  1   
 36  17  21  1   
 37  18  22  1   
 38  18  38  1   
 39  18  39  1   
 40  19  40  1   
 41  19  41  1   
 42  19  42  1   
 43  20  22  1   
 44  20  43  1   
 45  20  44  1   
 46  21  23  1   
 47  21  45  1   
 48  21  46  1   
 49  22  47  1   
 50  22  48  1   
 51  23  49  1   
@<TRIPOS>SUBSTRUCTURE
  1 ****  11 GROUP 4 **** **** 0

# MOE 2024.06 (io_trps.svl 2023.06)
