@<TRIPOS>MOLECULE
NONAME
48 50 1 0 0 
SMALL
USER_CHARGES


@<TRIPOS>ATOM
  1 O       -0.7260     0.5100     1.6450 O.2   1 <1>  -0.5700 
  2 C       -1.7400     1.0910     1.3010 C.2   1 <1>   0.7150 
  3 N       -2.7890     0.3380     0.8160 N.am  1 <1>  -0.6600 
  4 C       -1.8410     2.5310     1.4070 C.2   1 <1>   0.0550 
  5 C       -3.8930     0.8780    -0.0150 C.3   1 <1>   0.1400 
  6 C       -2.6960    -1.1360     0.6620 C.3   1 <1>   0.1400 
  7 O       -0.8210     3.3160     1.0740 O.3   1 <1>  -0.2800 
  8 C       -2.8730     3.3260     1.8100 C.2   1 <1>  -0.1500 
  9 C       -4.4010    -0.3150    -0.8240 C.3   1 <1>   0.2000 
 10 C       -4.0000    -1.5520    -0.0240 C.3   1 <1>  -0.0800 
 11 C       -1.1600     4.5790     1.2420 C.2   1 <1>   0.1600 
 12 C       -2.4320     4.6420     1.7010 C.2   1 <1>  -0.1500 
 13 O       -5.7780    -0.2740    -0.9810 O.3   1 <1>  -0.6800 
 14 C       -3.8780    -2.8110    -0.9000 C.3   1 <1>  -0.0170 
 15 C       -0.2280     5.6180     0.9430 C.1   1 <1>  -0.0200 
 16 C       -3.5360    -4.0390    -0.0740 C.ar  1 <1>   0.1670 
 17 C        0.5470     6.4870     0.6900 C.1   1 <1>  -0.2000 
 18 N       -2.2590    -4.2040     0.2330 N.ar  1 <1>  -0.6200 
 19 C       -4.5450    -4.9090     0.3150 C.ar  1 <1>  -0.1500 
 20 C        1.5250     7.5620     0.3740 C.3   1 <1>   0.4800 
 21 C       -1.9750    -5.2750     0.9570 C.ar  1 <1>   0.1600 
 22 C       -4.2360    -6.0210     1.0680 C.ar  1 <1>  -0.1500 
 23 O        0.8570     8.7570     0.4150 O.3   1 <1>  -0.6800 
 24 C        2.6300     7.6240     1.4210 C.3   1 <1>  -0.2400 
 25 C        2.0810     7.4020    -1.0360 C.3   1 <1>  -0.2400 
 26 C       -2.9090    -6.1990     1.3940 C.ar  1 <1>  -0.1500 
 27 H       -4.6670     1.2580     0.6280 H     1 <1>   0.0800 
 28 H       -3.5340     1.6550    -0.6680 H     1 <1>   0.0800 
 29 H       -1.8440    -1.3740     0.0460 H     1 <1>   0.0800 
 30 H       -2.5810    -1.6170     1.6190 H     1 <1>   0.0800 
 31 H       -3.8440     3.0210     2.1570 H     1 <1>   0.1500 
 32 H       -3.9460    -0.3130    -1.8000 H     1 <1>   0.0800 
 33 H       -4.7230    -1.7280     0.7520 H     1 <1>   0.0800 
 34 H       -2.9960     5.5260     1.9390 H     1 <1>   0.1500 
 35 H       -6.2230    -0.3430    -0.1140 H     1 <1>   0.4000 
 36 H       -3.1160    -2.6690    -1.6460 H     1 <1>   0.0800 
 37 H       -4.8070    -2.9740    -1.4160 H     1 <1>   0.0800 
 38 H       -5.5650    -4.7200     0.0320 H     1 <1>   0.1500 
 39 H       -0.9410    -5.4240     1.2170 H     1 <1>   0.1500 
 40 H       -4.9930    -6.7160     1.3870 H     1 <1>   0.1500 
 41 H        1.4790     9.4740     0.2090 H     1 <1>   0.4000 
 42 H        3.1660     6.6920     1.4350 H     1 <1>   0.0800 
 43 H        2.2050     7.7810     2.3960 H     1 <1>   0.0800 
 44 H        3.3250     8.4130     1.2000 H     1 <1>   0.0800 
 45 H        2.5960     6.4620    -1.1160 H     1 <1>   0.0800 
 46 H        2.7720     8.1900    -1.2690 H     1 <1>   0.0800 
 47 H        1.2770     7.4040    -1.7510 H     1 <1>   0.0800 
 48 H       -2.5980    -7.0450     1.9800 H     1 <1>   0.1500 
@<TRIPOS>BOND
  1   1   2  2   
  2   2   3  am  
  3   2   4  1   
  4   3   5  1   
  5   3   6  1   
  6   4   7  1   
  7   4   8  2   
  8   5   9  1   
  9   5  27  1   
 10   5  28  1   
 11   6  10  1   
 12   6  29  1   
 13   6  30  1   
 14   7  11  1   
 15   8  12  1   
 16   8  31  1   
 17   9  10  1   
 18   9  13  1   
 19   9  32  1   
 20  10  14  1   
 21  10  33  1   
 22  11  12  2   
 23  11  15  1   
 24  12  34  1   
 25  13  35  1   
 26  14  16  1   
 27  14  36  1   
 28  14  37  1   
 29  15  17  3   
 30  16  18  ar  
 31  16  19  ar  
 32  17  20  1   
 33  18  21  ar  
 34  19  22  ar  
 35  19  38  1   
 36  20  23  1   
 37  20  24  1   
 38  20  25  1   
 39  21  26  ar  
 40  21  39  1   
 41  22  26  ar  
 42  22  40  1   
 43  23  41  1   
 44  24  42  1   
 45  24  43  1   
 46  24  44  1   
 47  25  45  1   
 48  25  46  1   
 49  25  47  1   
 50  26  48  1   
@<TRIPOS>SUBSTRUCTURE
  1 ****   2 GROUP 4 **** **** 0

# MOE 2024.06 (io_trps.svl 2023.06)
