@<TRIPOS>MOLECULE
NONAME
61 63 1 0 0 
SMALL
USER_CHARGES


@<TRIPOS>ATOM
  1 O       -2.2860     1.0160    -2.5980 O.2   1 <1>  -0.5700 
  2 C       -2.2470     0.7780    -1.4140 C.2   1 <1>   0.5690 
  3 N       -3.1390    -0.1110    -0.8510 N.am  1 <1>  -0.6600 
  4 C       -1.1880     1.5710    -0.6130 C.3   1 <1>   0.4040 
  5 C       -2.9890    -0.8230     0.4740 C.3   1 <1>   0.3640 
  6 C       -4.4850    -0.2740    -1.5060 C.3   1 <1>   0.1400 
  7 N        0.2600     1.1060    -0.7010 N.4   1 <1>  -0.9590 
  8 C       -1.5160    -1.1110     0.7580 C.ar  1 <1>  -0.1430 
  9 C       -3.7640    -2.1660     0.5330 C.3   1 <1>   0.2000 
 10 C       -5.0850    -1.6740    -1.3240 C.3   1 <1>   0.1200 
 11 C        1.2780     2.0810    -0.1990 C.3   1 <1>   0.4230 
 12 C        0.6200     0.6290    -2.0770 C.3   1 <1>   0.2630 
 13 C       -0.7410    -1.7760    -0.1840 C.ar  1 <1>  -0.1500 
 14 C       -0.9360    -0.7030     1.9490 C.ar  1 <1>  -0.1500 
 15 O       -5.0640    -2.0250     0.0240 O.3   1 <1>  -0.5600 
 16 C       -3.8590    -2.7140     1.9650 C.3   1 <1>   0.1200 
 17 C        1.0230     2.4830     1.2530 C.3   1 <1>  -0.1600 
 18 C        1.2530     3.4130    -0.9580 C.3   1 <1>  -0.1600 
 19 C        0.6150    -1.9820     0.0270 C.ar  1 <1>   0.0830 
 20 C        0.4110    -0.9220     2.1750 C.ar  1 <1>  -0.1500 
 21 O       -4.6660    -3.8390     1.9720 O.3   1 <1>  -0.6800 
 22 C        0.2010     3.7760     1.2380 C.3   1 <1>  -0.1600 
 23 C        0.4030     4.4000    -0.1460 C.3   1 <1>  -0.1600 
 24 O        1.3680    -2.5350    -0.9560 O.3   1 <1>  -0.3630 
 25 C        1.1990    -1.5380     1.2190 C.ar  1 <1>   0.0830 
 26 C        0.9340    -3.7490    -1.5350 C.3   1 <1>   0.0400 
 27 O        2.5210    -1.6320     1.5040 O.3   1 <1>  -0.3630 
 28 C        3.1880    -2.8600     1.2980 C.3   1 <1>   0.0400 
 29 H       -1.4900     1.5930     0.4180 H     1 <1>   0.0800 
 30 H       -1.2410     2.5790    -0.9810 H     1 <1>   0.0800 
 31 H       -3.3860    -0.1810     1.2420 H     1 <1>   0.0800 
 32 H       -5.1660     0.4440    -1.0840 H     1 <1>   0.0800 
 33 H       -4.4190    -0.0710    -2.5620 H     1 <1>   0.0800 
 34 H        0.3330     0.2760    -0.0890 H     1 <1>   0.4500 
 35 H       -3.2550    -2.9000    -0.0670 H     1 <1>   0.0800 
 36 H       -4.5380    -2.4070    -1.8920 H     1 <1>   0.0800 
 37 H       -6.1100    -1.6820    -1.6510 H     1 <1>   0.0800 
 38 H        2.2550     1.6310    -0.2810 H     1 <1>   0.0800 
 39 H        0.5050     1.4230    -2.7960 H     1 <1>   0.0800 
 40 H       -0.0220    -0.1860    -2.3700 H     1 <1>   0.0800 
 41 H        1.6390     0.2800    -2.0980 H     1 <1>   0.0800 
 42 H       -1.1920    -2.1070    -1.1030 H     1 <1>   0.1500 
 43 H       -1.5200    -0.2150     2.7130 H     1 <1>   0.1500 
 44 H       -4.2980    -1.9850     2.6230 H     1 <1>   0.0800 
 45 H       -2.8910    -2.9970     2.3420 H     1 <1>   0.0800 
 46 H        0.5600     1.7140     1.8360 H     1 <1>   0.0800 
 47 H        1.9780     2.7040     1.6980 H     1 <1>   0.0800 
 48 H        2.2610     3.7900    -0.9830 H     1 <1>   0.0800 
 49 H        0.9100     3.3300    -1.9730 H     1 <1>   0.0800 
 50 H        0.8660    -0.6110     3.1010 H     1 <1>   0.1500 
 51 H       -5.4630    -3.6480     1.4300 H     1 <1>   0.4000 
 52 H       -0.8420     3.5650     1.3980 H     1 <1>   0.0800 
 53 H        0.5300     4.4470     2.0150 H     1 <1>   0.0800 
 54 H        0.9110     5.3470    -0.0630 H     1 <1>   0.0800 
 55 H       -0.5470     4.5730    -0.6220 H     1 <1>   0.0800 
 56 H        1.7560    -4.1700    -2.0860 H     1 <1>   0.0800 
 57 H        0.1150    -3.5550    -2.2030 H     1 <1>   0.0800 
 58 H        0.6360    -4.4260    -0.7530 H     1 <1>   0.0800 
 59 H        4.0660    -2.8720     1.9190 H     1 <1>   0.0800 
 60 H        3.4760    -2.9350     0.2650 H     1 <1>   0.0800 
 61 H        2.5340    -3.6690     1.5720 H     1 <1>   0.0800 
@<TRIPOS>BOND
  1   1   2  2   
  2   2   3  am  
  3   2   4  1   
  4   3   5  1   
  5   3   6  1   
  6   4   7  1   
  7   4  29  1   
  8   4  30  1   
  9   5   8  1   
 10   5   9  1   
 11   5  31  1   
 12   6  10  1   
 13   6  32  1   
 14   6  33  1   
 15   7  11  1   
 16   7  12  1   
 17   7  34  1   
 18   8  13  ar  
 19   8  14  ar  
 20   9  15  1   
 21   9  16  1   
 22   9  35  1   
 23  10  15  1   
 24  10  36  1   
 25  10  37  1   
 26  11  17  1   
 27  11  18  1   
 28  11  38  1   
 29  12  39  1   
 30  12  40  1   
 31  12  41  1   
 32  13  19  ar  
 33  13  42  1   
 34  14  20  ar  
 35  14  43  1   
 36  16  21  1   
 37  16  44  1   
 38  16  45  1   
 39  17  22  1   
 40  17  46  1   
 41  17  47  1   
 42  18  23  1   
 43  18  48  1   
 44  18  49  1   
 45  19  24  1   
 46  19  25  ar  
 47  20  25  ar  
 48  20  50  1   
 49  21  51  1   
 50  22  23  1   
 51  22  52  1   
 52  22  53  1   
 53  23  54  1   
 54  23  55  1   
 55  24  26  1   
 56  25  27  1   
 57  26  56  1   
 58  26  57  1   
 59  26  58  1   
 60  27  28  1   
 61  28  59  1   
 62  28  60  1   
 63  28  61  1   
@<TRIPOS>SUBSTRUCTURE
  1 ****   8 GROUP 4 **** **** 0

# MOE 2024.06 (io_trps.svl 2023.06)
