@<TRIPOS>MOLECULE
NONAME
47 50 1 0 0 
SMALL
USER_CHARGES


@<TRIPOS>ATOM
  1 CL       0.8510     0.1380    -1.8160 Cl    1 <1>  -0.1230 
  2 C        1.3430    -1.3910    -1.1120 C.2   1 <1>   0.1230 
  3 C        2.1850    -1.5670    -0.0660 C.2   1 <1>  -0.3020 
  4 C        0.9200    -2.6350    -1.5530 C.2   1 <1>  -0.1500 
  5 N        2.3060    -2.8990     0.1650 N.pl3 1 <1>   0.0480 
  6 C        1.5180    -3.5740    -0.7450 C.2   1 <1>  -0.2370 
  7 C        3.1520    -3.4940     1.2190 C.3   1 <1>   0.0160 
  8 C        1.3940    -5.0090    -0.7990 C.2   1 <1>   0.7150 
  9 O        2.3600    -5.7120    -0.5610 O.2   1 <1>  -0.5700 
 10 N        0.1950    -5.6110    -1.1040 N.am  1 <1>  -0.6600 
 11 C       -1.1340    -4.9970    -0.8020 C.3   1 <1>   0.1400 
 12 C        0.1050    -7.0590    -1.4660 C.3   1 <1>   0.1400 
 13 C       -1.9020    -5.8330     0.2400 C.3   1 <1>   0.1900 
 14 C       -0.6980    -7.8400    -0.4140 C.3   1 <1>   0.1100 
 15 N       -2.0360    -7.2430    -0.2030 N.3   1 <1>  -0.8100 
 16 C       -3.2890    -5.2150     0.5070 C.3   1 <1>   0.1200 
 17 C       -2.8320    -8.0090     0.7860 C.3   1 <1>   0.3330 
 18 O       -3.9850    -5.9700     1.4570 O.3   1 <1>  -0.5600 
 19 C       -3.0990    -9.4310     0.2940 C.ar  1 <1>  -0.1430 
 20 C       -4.1760    -7.3050     1.0700 C.3   1 <1>   0.1200 
 21 C       -3.5630    -9.6640    -0.9940 C.ar  1 <1>  -0.1500 
 22 C       -2.8840   -10.5110     1.1380 C.ar  1 <1>  -0.1500 
 23 C       -3.8090   -10.9540    -1.4310 C.ar  1 <1>  -0.1500 
 24 C       -3.1290   -11.8020     0.7030 C.ar  1 <1>  -0.1500 
 25 C       -3.5920   -12.0240    -0.5820 C.ar  1 <1>  -0.1500 
 26 H        2.6960    -0.8160     0.5080 H     1 <1>   0.1500 
 27 H        0.2530    -2.8020    -2.3800 H     1 <1>   0.1500 
 28 H        3.5360    -2.7210     1.8580 H     1 <1>   0.0800 
 29 H        3.9700    -4.0190     0.7590 H     1 <1>   0.0800 
 30 H        2.5680    -4.1850     1.7980 H     1 <1>   0.0800 
 31 H       -1.0120    -4.0010    -0.4180 H     1 <1>   0.0800 
 32 H       -1.7080    -4.9400    -1.7100 H     1 <1>   0.0800 
 33 H       -0.3850    -7.1520    -2.4190 H     1 <1>   0.0800 
 34 H        1.0860    -7.4900    -1.5590 H     1 <1>   0.0800 
 35 H       -1.3470    -5.7990     1.1620 H     1 <1>   0.0800 
 36 H       -0.1470    -7.8530     0.5120 H     1 <1>   0.0800 
 37 H       -0.8000    -8.8560    -0.7540 H     1 <1>   0.0800 
 38 H       -3.8710    -5.1790    -0.3970 H     1 <1>   0.0800 
 39 H       -3.1870    -4.2180     0.8970 H     1 <1>   0.0800 
 40 H       -2.2850    -8.0570     1.7120 H     1 <1>   0.0800 
 41 H       -4.6930    -7.8090     1.8670 H     1 <1>   0.0800 
 42 H       -4.7990    -7.3220     0.1930 H     1 <1>   0.0800 
 43 H       -3.7270    -8.8340    -1.6590 H     1 <1>   0.1500 
 44 H       -2.5250   -10.3540     2.1400 H     1 <1>   0.1500 
 45 H       -4.1670   -11.1230    -2.4310 H     1 <1>   0.1500 
 46 H       -2.9590   -12.6340     1.3630 H     1 <1>   0.1500 
 47 H       -3.7820   -13.0270    -0.9210 H     1 <1>   0.1500 
@<TRIPOS>BOND
  1   1   2  1   
  2   2   3  2   
  3   2   4  1   
  4   3   5  1   
  5   3  26  1   
  6   4   6  2   
  7   4  27  1   
  8   5   6  1   
  9   5   7  1   
 10   6   8  1   
 11   7  28  1   
 12   7  29  1   
 13   7  30  1   
 14   8   9  2   
 15   8  10  am  
 16  10  11  1   
 17  10  12  1   
 18  11  13  1   
 19  11  31  1   
 20  11  32  1   
 21  12  14  1   
 22  12  33  1   
 23  12  34  1   
 24  13  15  1   
 25  13  16  1   
 26  13  35  1   
 27  14  15  1   
 28  14  36  1   
 29  14  37  1   
 30  15  17  1   
 31  16  18  1   
 32  16  38  1   
 33  16  39  1   
 34  17  19  1   
 35  17  20  1   
 36  17  40  1   
 37  18  20  1   
 38  19  21  ar  
 39  19  22  ar  
 40  20  41  1   
 41  20  42  1   
 42  21  23  ar  
 43  21  43  1   
 44  22  24  ar  
 45  22  44  1   
 46  23  25  ar  
 47  23  45  1   
 48  24  25  ar  
 49  24  46  1   
 50  25  47  1   
@<TRIPOS>SUBSTRUCTURE
  1 ****  13 GROUP 4 **** **** 0

# MOE 2024.06 (io_trps.svl 2023.06)
