@<TRIPOS>MOLECULE
NONAME
39 40 1 0 0 
SMALL
USER_CHARGES


@<TRIPOS>ATOM
  1 S       -0.3120     0.1760     0.2270 S.3   1 <1>  -0.4600 
  2 C       -0.1340    -1.6200     0.0560 C.3   1 <1>   0.0700 
  3 C        1.4040     0.7500     0.3140 C.3   1 <1>  -0.0100 
  4 C       -1.5370    -2.2230    -0.0260 C.3   1 <1>  -0.0990 
  5 C       -1.5200    -3.7340    -0.1750 C.2   1 <1>   0.5690 
  6 O       -0.4600    -4.3150    -0.1660 O.2   1 <1>  -0.5700 
  7 N       -2.7020    -4.4050    -0.3130 N.am  1 <1>  -0.6600 
  8 C       -4.0610    -3.8100    -0.2900 C.3   1 <1>   0.1400 
  9 C       -2.7780    -5.8800    -0.4480 C.3   1 <1>   0.1400 
 10 C       -5.0190    -4.9950    -0.4250 C.3   1 <1>   0.2000 
 11 C       -4.2110    -6.2350    -0.0460 C.3   1 <1>  -0.0800 
 12 O       -6.1090    -4.8650     0.4220 O.3   1 <1>  -0.6800 
 13 C       -4.7500    -7.5170    -0.7040 C.3   1 <1>  -0.0170 
 14 C       -3.9450    -8.7400    -0.3000 C.ar  1 <1>   0.1670 
 15 N       -2.8410    -8.9720    -0.9940 N.ar  1 <1>  -0.6200 
 16 C       -4.3840    -9.5360     0.7470 C.ar  1 <1>  -0.1500 
 17 C       -2.1460   -10.0370    -0.6290 C.ar  1 <1>   0.1600 
 18 C       -3.6500   -10.6430     1.1170 C.ar  1 <1>  -0.1500 
 19 C       -2.4990   -10.8910     0.4010 C.ar  1 <1>  -0.1500 
 20 H        0.4320    -1.8110    -0.8390 H     1 <1>   0.0800 
 21 H        0.4010    -1.9810     0.9170 H     1 <1>   0.0800 
 22 H        1.3860     1.8200     0.4170 H     1 <1>   0.0800 
 23 H        1.8980     0.4600    -0.5960 H     1 <1>   0.0800 
 24 H        1.8660     0.2900     1.1700 H     1 <1>   0.0800 
 25 H       -2.0760    -1.9720     0.8680 H     1 <1>   0.0800 
 26 H       -2.0470    -1.7990    -0.8710 H     1 <1>   0.0800 
 27 H       -4.2120    -3.2950     0.6430 H     1 <1>   0.0800 
 28 H       -4.1840    -3.1310    -1.1160 H     1 <1>   0.0800 
 29 H       -2.5870    -6.1500    -1.4730 H     1 <1>   0.0800 
 30 H       -2.0560    -6.3680     0.1850 H     1 <1>   0.0800 
 31 H       -5.3810    -5.0560    -1.4370 H     1 <1>   0.0800 
 32 H       -4.2160    -6.3560     1.0230 H     1 <1>   0.0800 
 33 H       -5.8140    -4.8450     1.3530 H     1 <1>   0.4000 
 34 H       -4.7240    -7.4200    -1.7750 H     1 <1>   0.0800 
 35 H       -5.7780    -7.6550    -0.4180 H     1 <1>   0.0800 
 36 H       -5.2900    -9.2940     1.2710 H     1 <1>   0.1500 
 37 H       -1.2450   -10.2400    -1.1820 H     1 <1>   0.1500 
 38 H       -3.9610   -11.2830     1.9250 H     1 <1>   0.1500 
 39 H       -1.8790   -11.7370     0.6370 H     1 <1>   0.1500 
@<TRIPOS>BOND
  1   1   2  1   
  2   1   3  1   
  3   2   4  1   
  4   2  20  1   
  5   2  21  1   
  6   3  22  1   
  7   3  23  1   
  8   3  24  1   
  9   4   5  1   
 10   4  25  1   
 11   4  26  1   
 12   5   6  2   
 13   5   7  am  
 14   7   8  1   
 15   7   9  1   
 16   8  10  1   
 17   8  27  1   
 18   8  28  1   
 19   9  11  1   
 20   9  29  1   
 21   9  30  1   
 22  10  11  1   
 23  10  12  1   
 24  10  31  1   
 25  11  13  1   
 26  11  32  1   
 27  12  33  1   
 28  13  14  1   
 29  13  34  1   
 30  13  35  1   
 31  14  15  ar  
 32  14  16  ar  
 33  15  17  ar  
 34  16  18  ar  
 35  16  36  1   
 36  17  19  ar  
 37  17  37  1   
 38  18  19  ar  
 39  18  38  1   
 40  19  39  1   
@<TRIPOS>SUBSTRUCTURE
  1 ****   9 GROUP 4 **** **** 0

# MOE 2024.06 (io_trps.svl 2023.06)
