@<TRIPOS>MOLECULE
NONAME
52 55 1 0 0 
SMALL
USER_CHARGES


@<TRIPOS>ATOM
  1 O       -1.0160    -1.3650     1.0390 O.2   1 <1>  -0.5700 
  2 C       -0.2380    -2.0680     0.4420 C.2   1 <1>   0.5690 
  3 N        0.8020    -1.5130    -0.2590 N.am  1 <1>  -0.6600 
  4 C       -0.5320    -3.5590     0.5110 C.3   1 <1>  -0.0990 
  5 C        1.7820    -2.2790    -1.0940 C.3   1 <1>   0.1400 
  6 C        1.0040    -0.0230    -0.2520 C.3   1 <1>   0.3200 
  7 C        0.4670    -4.5350    -0.1100 C.3   1 <1>   0.1200 
  8 C        2.5690    -3.3870    -0.3380 C.3   1 <1>   0.2800 
  9 C        2.3500     0.3730     0.3370 C.2   1 <1>   0.2980 
 10 O        1.7370    -4.2610     0.3820 O.3   1 <1>  -0.5600 
 11 C        3.3750    -4.2350    -1.3420 C.3   1 <1>  -0.1600 
 12 C        3.5150    -2.7620     0.7010 C.3   1 <1>  -0.1600 
 13 O        2.4770     0.4240     1.6400 O.3   1 <1>  -0.0190 
 14 N        3.4020     0.6480    -0.3280 N.2   1 <1>  -0.5650 
 15 C        4.3000    -5.2400    -0.6490 C.3   1 <1>   0.1400 
 16 C        4.4300    -3.7950     1.3560 C.3   1 <1>   0.1400 
 17 N        3.7230     0.7390     1.8200 N.2   1 <1>  -0.4100 
 18 C        4.2490     0.8570     0.6670 C.2   1 <1>   0.3350 
 19 N        5.1820    -4.4990     0.2870 N.am  1 <1>  -0.6600 
 20 C        5.6970     1.1820     0.3980 C.3   1 <1>  -0.0590 
 21 C        6.5520    -4.3960     0.1020 C.2   1 <1>   0.7160 
 22 O        7.0760    -5.1570    -0.6980 O.2   1 <1>  -0.5700 
 23 C        7.3850    -3.4400     0.8310 C.2   1 <1>   0.1410 
 24 N        7.0680    -2.1150     0.9970 N.2   1 <1>  -0.5650 
 25 C        8.5900    -3.6700     1.4420 C.2   1 <1>  -0.3320 
 26 C        8.0440    -1.6170     1.6750 C.2   1 <1>   0.0360 
 27 N        9.0030    -2.5130     1.9740 N.pl3 1 <1>   0.0330 
 28 C        9.3950    -4.9550     1.5530 C.3   1 <1>  -0.0600 
 29 H       -1.4910    -3.7220     0.0580 H     1 <1>   0.0800 
 30 H       -0.6320    -3.8130     1.5500 H     1 <1>   0.0800 
 31 H        2.5020    -1.5990    -1.5150 H     1 <1>   0.0800 
 32 H        1.2610    -2.7040    -1.9330 H     1 <1>   0.0800 
 33 H        0.2310     0.4750     0.3050 H     1 <1>   0.0800 
 34 H        0.9540     0.3350    -1.2640 H     1 <1>   0.0800 
 35 H        0.4600    -4.5080    -1.1850 H     1 <1>   0.0800 
 36 H        0.2190    -5.5360     0.1970 H     1 <1>   0.0800 
 37 H        3.9860    -3.5880    -1.9450 H     1 <1>   0.0800 
 38 H        2.7100    -4.7590    -2.0030 H     1 <1>   0.0800 
 39 H        2.9400    -2.2690     1.4630 H     1 <1>   0.0800 
 40 H        4.1380    -2.0230     0.2310 H     1 <1>   0.0800 
 41 H        4.8780    -5.7720    -1.3850 H     1 <1>   0.0800 
 42 H        3.7200    -5.9580    -0.0950 H     1 <1>   0.0800 
 43 H        3.8400    -4.5100     1.9030 H     1 <1>   0.0800 
 44 H        5.0930    -3.3150     2.0530 H     1 <1>   0.0800 
 45 H        5.7650     2.0880    -0.1730 H     1 <1>   0.0800 
 46 H        6.1460     0.3780    -0.1560 H     1 <1>   0.0800 
 47 H        6.2240     1.3050     1.3260 H     1 <1>   0.0800 
 48 H        8.1100    -0.5890     1.9840 H     1 <1>   0.1500 
 49 H        9.8650    -2.3380     2.4980 H     1 <1>   0.2700 
 50 H        8.8630    -5.7780     1.1080 H     1 <1>   0.0800 
 51 H        9.5800    -5.1920     2.5850 H     1 <1>   0.0800 
 52 H       10.3350    -4.8480     1.0430 H     1 <1>   0.0800 
@<TRIPOS>BOND
  1   1   2  2   
  2   2   3  am  
  3   2   4  1   
  4   3   5  1   
  5   3   6  1   
  6   4   7  1   
  7   4  29  1   
  8   4  30  1   
  9   5   8  1   
 10   5  31  1   
 11   5  32  1   
 12   6   9  1   
 13   6  33  1   
 14   6  34  1   
 15   7  10  1   
 16   7  35  1   
 17   7  36  1   
 18   8  10  1   
 19   8  11  1   
 20   8  12  1   
 21   9  13  1   
 22   9  14  2   
 23  11  15  1   
 24  11  37  1   
 25  11  38  1   
 26  12  16  1   
 27  12  39  1   
 28  12  40  1   
 29  13  17  1   
 30  14  18  1   
 31  15  19  1   
 32  15  41  1   
 33  15  42  1   
 34  16  19  1   
 35  16  43  1   
 36  16  44  1   
 37  17  18  2   
 38  18  20  1   
 39  19  21  am  
 40  20  45  1   
 41  20  46  1   
 42  20  47  1   
 43  21  22  2   
 44  21  23  1   
 45  23  24  1   
 46  23  25  2   
 47  24  26  2   
 48  25  27  1   
 49  25  28  1   
 50  26  27  1   
 51  26  48  1   
 52  27  49  1   
 53  28  50  1   
 54  28  51  1   
 55  28  52  1   
@<TRIPOS>SUBSTRUCTURE
  1 ****  12 GROUP 4 **** **** 0

# MOE 2024.06 (io_trps.svl 2023.06)
