@<TRIPOS>MOLECULE
NONAME
56 59 1 0 0 
SMALL
USER_CHARGES


@<TRIPOS>ATOM
  1 O        3.4540     0.9720     2.1230 O.co2 1 <1>  -0.9000 
  2 C        3.5350     1.6960     1.1260 C.2   1 <1>   0.9060 
  3 O        4.2730     2.6830     1.1200 O.co2 1 <1>  -0.9000 
  4 C        3.0340     1.1380    -0.2210 C.3   1 <1>  -0.1060 
  5 C        3.6920    -0.2520    -0.3410 C.3   1 <1>   0.4230 
  6 C        3.5320     1.9970    -1.4300 C.3   1 <1>  -0.1600 
  7 C        1.4870     1.0470    -0.2890 C.3   1 <1>  -0.1600 
  8 N        3.0870    -1.1990     0.6680 N.4   1 <1>  -0.9590 
  9 C        5.2510    -0.0940    -0.2250 C.3   1 <1>   0.3430 
 10 C        5.0390     1.9070    -1.7450 C.3   1 <1>   0.3430 
 11 C        0.9170    -0.0240     0.6510 C.3   1 <1>  -0.1600 
 12 C        1.6190    -1.3720     0.4890 C.3   1 <1>   0.3430 
 13 C        3.7680    -2.5120     0.8600 C.3   1 <1>   0.2630 
 14 N        5.7680     1.2720    -0.6130 N.4   1 <1>  -0.9590 
 15 C        7.2430     1.4030    -0.6760 C.3   1 <1>   0.5240 
 16 C        7.5780     2.8760    -0.6940 C.2   1 <1>  -0.1810 
 17 C        8.3330     3.5430    -1.6500 C.2   1 <1>   0.1390 
 18 C        7.2040     3.8420     0.1730 C.2   1 <1>  -0.3020 
 19 N        8.4100     4.8100    -1.4090 N.2   1 <1>  -0.7070 
 20 N        7.7140     5.0230    -0.2570 N.pl3 1 <1>   0.5930 
 21 C        7.4940     6.2990     0.3460 C.ar  1 <1>  -0.0230 
 22 C        8.5280     7.2120     0.5870 C.ar  1 <1>  -0.1440 
 23 C        6.1970     6.6470     0.7190 C.ar  1 <1>  -0.1500 
 24 C        8.2430     8.4360     1.1730 C.ar  1 <1>  -0.1500 
 25 C        9.9770     6.9040     0.2280 C.3   1 <1>  -0.0970 
 26 C        5.9240     7.8690     1.3050 C.ar  1 <1>  -0.1500 
 27 C        6.9490     8.7670     1.5310 C.ar  1 <1>  -0.1500 
 28 H        3.4750    -0.6340    -1.3240 H     1 <1>   0.0800 
 29 H        3.2920     3.0310    -1.2410 H     1 <1>   0.0800 
 30 H        3.0030     1.7300    -2.3270 H     1 <1>   0.0800 
 31 H        1.0600     2.0050    -0.0370 H     1 <1>   0.0800 
 32 H        1.1760     0.8090    -1.2920 H     1 <1>   0.0800 
 33 H        3.1680    -0.6390     1.5630 H     1 <1>   0.4500 
 34 H        5.7200    -0.8440    -0.8380 H     1 <1>   0.0800 
 35 H        5.5250    -0.2690     0.8030 H     1 <1>   0.0800 
 36 H        5.4170     2.9030    -1.9150 H     1 <1>   0.0800 
 37 H        5.1920     1.3320    -2.6430 H     1 <1>   0.0800 
 38 H       -0.1330    -0.1480     0.4540 H     1 <1>   0.0800 
 39 H        1.0050     0.2990     1.6750 H     1 <1>   0.0800 
 40 H        1.4120    -1.7770    -0.4880 H     1 <1>   0.0800 
 41 H        1.2370    -2.0550     1.2300 H     1 <1>   0.0800 
 42 H        3.7270    -3.0950    -0.0450 H     1 <1>   0.0800 
 43 H        3.2820    -3.0660     1.6480 H     1 <1>   0.0800 
 44 H        4.7980    -2.3670     1.1430 H     1 <1>   0.0800 
 45 H        5.5020     1.9150     0.1850 H     1 <1>   0.4500 
 46 H        7.6910     0.9530     0.1960 H     1 <1>   0.0800 
 47 H        7.6270     0.9200    -1.5590 H     1 <1>   0.0800 
 48 H        8.8040     3.0850    -2.5050 H     1 <1>   0.1500 
 49 H        6.6030     3.7840     1.0660 H     1 <1>   0.1500 
 50 H        5.3860     5.9580     0.5530 H     1 <1>   0.1500 
 51 H        9.0310     9.1450     1.3550 H     1 <1>   0.1500 
 52 H       10.6480     7.6110     0.6800 H     1 <1>   0.0800 
 53 H       10.1040     6.9480    -0.8390 H     1 <1>   0.0800 
 54 H       10.2470     5.9210     0.5690 H     1 <1>   0.0800 
 55 H        4.9160     8.1190     1.5860 H     1 <1>   0.1500 
 56 H        6.7420     9.7200     1.9840 H     1 <1>   0.1500 
@<TRIPOS>BOND
  1   1   2  ar  
  2   2   3  ar  
  3   2   4  1   
  4   4   5  1   
  5   4   6  1   
  6   4   7  1   
  7   5   8  1   
  8   5   9  1   
  9   5  28  1   
 10   6  10  1   
 11   6  29  1   
 12   6  30  1   
 13   7  11  1   
 14   7  31  1   
 15   7  32  1   
 16   8  12  1   
 17   8  13  1   
 18   8  33  1   
 19   9  14  1   
 20   9  34  1   
 21   9  35  1   
 22  10  14  1   
 23  10  36  1   
 24  10  37  1   
 25  11  12  1   
 26  11  38  1   
 27  11  39  1   
 28  12  40  1   
 29  12  41  1   
 30  13  42  1   
 31  13  43  1   
 32  13  44  1   
 33  14  15  1   
 34  14  45  1   
 35  15  16  1   
 36  15  46  1   
 37  15  47  1   
 38  16  17  1   
 39  16  18  2   
 40  17  19  2   
 41  17  48  1   
 42  18  20  1   
 43  18  49  1   
 44  19  20  1   
 45  20  21  1   
 46  21  22  ar  
 47  21  23  ar  
 48  22  24  ar  
 49  22  25  1   
 50  23  26  ar  
 51  23  50  1   
 52  24  27  ar  
 53  24  51  1   
 54  25  52  1   
 55  25  53  1   
 56  25  54  1   
 57  26  27  ar  
 58  26  55  1   
 59  27  56  1   
@<TRIPOS>SUBSTRUCTURE
  1 ****   3 GROUP 4 **** **** 0

# MOE 2024.06 (io_trps.svl 2023.06)
