@<TRIPOS>MOLECULE
NONAME
48 49 1 0 0 
SMALL
USER_CHARGES


@<TRIPOS>ATOM
  1 O       -5.3030    -2.7530    -4.3920 O.co2 1 <1>  -0.9000 
  2 C       -4.5190    -1.9150    -3.9090 C.2   1 <1>   0.9790 
  3 O       -3.9360    -1.1300    -4.6770 O.co2 1 <1>  -0.9000 
  4 C       -4.2930    -1.8580    -2.4690 C.ar  1 <1>  -0.1790 
  5 C       -4.9140    -2.7550    -1.6000 C.ar  1 <1>  -0.1500 
  6 C       -3.4500    -0.9030    -1.8980 C.ar  1 <1>  -0.1500 
  7 C       -4.7240    -2.7200    -0.2260 C.ar  1 <1>   0.1170 
  8 C       -3.2430    -0.8500    -0.5320 C.ar  1 <1>  -0.1500 
  9 N       -5.3950    -3.6650     0.5620 N.am  1 <1>  -0.5470 
 10 C       -3.8750    -1.7540     0.3010 C.ar  1 <1>  -0.1500 
 11 C       -5.6560    -3.7560     1.8990 C.2   1 <1>   0.5690 
 12 O       -5.2670    -2.9710     2.7310 O.2   1 <1>  -0.5700 
 13 C       -6.5050    -4.9460     2.3530 C.3   1 <1>   0.1710 
 14 N       -7.3310    -5.5650     1.2680 N.3   1 <1>  -0.8100 
 15 C       -7.7930    -6.9040     1.6530 C.3   1 <1>   0.1100 
 16 C       -8.4560    -4.6830     0.9000 C.3   1 <1>   0.0300 
 17 C       -8.0940    -7.7330     0.4030 C.3   1 <1>  -0.1600 
 18 C       -8.5130    -9.1580     0.7860 C.3   1 <1>   0.0960 
 19 N       -8.7380    -9.9830    -0.4150 N.pl3 1 <1>   0.3140 
 20 N       -7.7620   -10.7700    -0.9010 N.2   1 <1>  -0.7070 
 21 C       -9.8670   -10.0860    -1.1560 C.2   1 <1>  -0.3320 
 22 C       -8.2830   -11.3490    -1.9350 C.2   1 <1>   0.1080 
 23 C       -9.6000   -10.9620    -2.1470 C.2   1 <1>  -0.1500 
 24 C      -11.1650    -9.3430    -0.8900 C.3   1 <1>  -0.0600 
 25 C       -7.5100   -12.3270    -2.7870 C.3   1 <1>  -0.0590 
 26 H       -5.5650    -3.4980    -2.0270 H     1 <1>   0.1500 
 27 H       -2.9580    -0.1990    -2.5490 H     1 <1>   0.1500 
 28 H       -2.5880    -0.1040    -0.1200 H     1 <1>   0.1500 
 29 H       -5.8790    -4.4020     0.0380 H     1 <1>   0.3700 
 30 H       -3.7050    -1.7040     1.3600 H     1 <1>   0.1500 
 31 H       -7.1400    -4.6300     3.1620 H     1 <1>   0.0800 
 32 H       -5.8190    -5.6770     2.7400 H     1 <1>   0.0800 
 33 H       -8.6620    -6.8320     2.2860 H     1 <1>   0.0800 
 34 H       -7.0160    -7.4080     2.2040 H     1 <1>   0.0800 
 35 H       -8.0970    -3.7040     0.6300 H     1 <1>   0.0800 
 36 H       -9.1430    -4.5820     1.7240 H     1 <1>   0.0800 
 37 H       -8.9840    -5.0810     0.0510 H     1 <1>   0.0800 
 38 H       -7.2070    -7.7820    -0.2050 H     1 <1>   0.0800 
 39 H       -8.8820    -7.2770    -0.1660 H     1 <1>   0.0800 
 40 H       -9.4150    -9.1450     1.3690 H     1 <1>   0.0800 
 41 H       -7.7370    -9.6260     1.3650 H     1 <1>   0.0800 
 42 H      -10.2410   -11.3050    -2.9380 H     1 <1>   0.1500 
 43 H      -11.5450    -9.5920     0.0840 H     1 <1>   0.0800 
 44 H      -11.9030    -9.6180    -1.6230 H     1 <1>   0.0800 
 45 H      -11.0070    -8.2810    -0.9490 H     1 <1>   0.0800 
 46 H       -6.6500   -11.8360    -3.2020 H     1 <1>   0.0800 
 47 H       -8.1250   -12.6990    -3.5850 H     1 <1>   0.0800 
 48 H       -7.1830   -13.1490    -2.1780 H     1 <1>   0.0800 
@<TRIPOS>BOND
  1   1   2  ar  
  2   2   3  ar  
  3   2   4  1   
  4   4   5  ar  
  5   4   6  ar  
  6   5   7  ar  
  7   5  26  1   
  8   6   8  ar  
  9   6  27  1   
 10   7   9  1   
 11   7  10  ar  
 12   8  10  ar  
 13   8  28  1   
 14   9  11  am  
 15   9  29  1   
 16  10  30  1   
 17  11  12  2   
 18  11  13  1   
 19  13  14  1   
 20  13  31  1   
 21  13  32  1   
 22  14  15  1   
 23  14  16  1   
 24  15  17  1   
 25  15  33  1   
 26  15  34  1   
 27  16  35  1   
 28  16  36  1   
 29  16  37  1   
 30  17  18  1   
 31  17  38  1   
 32  17  39  1   
 33  18  19  1   
 34  18  40  1   
 35  18  41  1   
 36  19  20  1   
 37  19  21  1   
 38  20  22  2   
 39  21  23  2   
 40  21  24  1   
 41  22  23  1   
 42  22  25  1   
 43  23  42  1   
 44  24  43  1   
 45  24  44  1   
 46  24  45  1   
 47  25  46  1   
 48  25  47  1   
 49  25  48  1   
@<TRIPOS>SUBSTRUCTURE
  1 ****  14 GROUP 4 **** **** 0

# MOE 2024.06 (io_trps.svl 2023.06)
