@<TRIPOS>MOLECULE
NONAME
39 40 1 0 0 
SMALL
USER_CHARGES


@<TRIPOS>ATOM
  1 S        0.0140    -0.2860    -0.8060 S.3   1 <1>  -0.0800 
  2 C       -1.4130    -0.8970    -0.0310 C.2   1 <1>   0.4420 
  3 C       -0.4120     1.2750    -0.1940 C.2   1 <1>   0.1980 
  4 N       -2.0530     0.0270     0.5910 N.2   1 <1>  -0.3380 
  5 N       -1.6620    -2.2480    -0.1610 N.am  1 <1>  -0.4940 
  6 N       -1.4780     1.2610     0.4930 N.2   1 <1>  -0.3380 
  7 C        0.4780     2.4550    -0.5170 C.3   1 <1>   0.0200 
  8 C       -2.7920    -2.9560     0.1750 C.2   1 <1>   0.5440 
  9 C       -0.1520     3.7240     0.0730 C.3   1 <1>   0.3430 
 10 O       -3.8230    -2.3710     0.4210 O.2   1 <1>  -0.5700 
 11 C       -2.7620    -4.4010     0.1810 C.ar  1 <1>   0.0860 
 12 N        0.6210     4.9700    -0.2500 N.4   1 <1>  -0.9590 
 13 C       -1.6380    -5.1100     0.6040 C.ar  1 <1>   0.1600 
 14 C       -3.8530    -5.1550    -0.2350 C.ar  1 <1>  -0.1500 
 15 C        1.9470     5.0220     0.4470 C.3   1 <1>   0.2630 
 16 C       -0.1940     6.1710     0.1170 C.3   1 <1>   0.2630 
 17 N       -1.5040    -6.4230     0.6100 N.ar  1 <1>  -0.6200 
 18 C       -3.7420    -6.5270    -0.2270 C.ar  1 <1>  -0.1500 
 19 C       -2.5530    -7.1190     0.1970 C.ar  1 <1>   0.3930 
 20 O       -2.3770    -8.4520     0.2200 O.3   1 <1>  -0.3630 
 21 C       -3.3800    -9.3770    -0.1360 C.3   1 <1>   0.0400 
 22 H       -0.9290    -2.7760    -0.6270 H     1 <1>   0.3700 
 23 H        0.5600     2.5430    -1.5840 H     1 <1>   0.0800 
 24 H        1.4480     2.2770    -0.0910 H     1 <1>   0.0800 
 25 H       -0.2370     3.6120     1.1420 H     1 <1>   0.0800 
 26 H       -1.1530     3.8130    -0.3200 H     1 <1>   0.0800 
 27 H        0.7800     5.0030    -1.2700 H     1 <1>   0.4500 
 28 H       -0.7920    -4.5530     0.9680 H     1 <1>   0.1500 
 29 H       -4.7590    -4.6660    -0.5540 H     1 <1>   0.1500 
 30 H        1.8110     4.9750     1.5150 H     1 <1>   0.0800 
 31 H        2.4600     5.9390     0.2060 H     1 <1>   0.0800 
 32 H        2.5680     4.1950     0.1410 H     1 <1>   0.0800 
 33 H       -0.3920     6.1800     1.1770 H     1 <1>   0.0800 
 34 H       -1.1360     6.1600    -0.4080 H     1 <1>   0.0800 
 35 H        0.3320     7.0760    -0.1430 H     1 <1>   0.0800 
 36 H       -4.5750    -7.1210    -0.5470 H     1 <1>   0.1500 
 37 H       -2.9790   -10.3660    -0.0110 H     1 <1>   0.0800 
 38 H       -3.6510    -9.2210    -1.1650 H     1 <1>   0.0800 
 39 H       -4.2270    -9.2420     0.5130 H     1 <1>   0.0800 
@<TRIPOS>BOND
  1   1   2  1   
  2   1   3  1   
  3   2   4  2   
  4   2   5  1   
  5   3   6  2   
  6   3   7  1   
  7   4   6  1   
  8   5   8  am  
  9   5  22  1   
 10   7   9  1   
 11   7  23  1   
 12   7  24  1   
 13   8  10  2   
 14   8  11  1   
 15   9  12  1   
 16   9  25  1   
 17   9  26  1   
 18  11  13  ar  
 19  11  14  ar  
 20  12  15  1   
 21  12  16  1   
 22  12  27  1   
 23  13  17  ar  
 24  13  28  1   
 25  14  18  ar  
 26  14  29  1   
 27  15  30  1   
 28  15  31  1   
 29  15  32  1   
 30  16  33  1   
 31  16  34  1   
 32  16  35  1   
 33  17  19  ar  
 34  18  19  ar  
 35  18  36  1   
 36  19  20  1   
 37  20  21  1   
 38  21  37  1   
 39  21  38  1   
 40  21  39  1   
@<TRIPOS>SUBSTRUCTURE
  1 ****   5 GROUP 4 **** **** 0

# MOE 2024.06 (io_trps.svl 2023.06)
