@<TRIPOS>MOLECULE
NONAME
41 43 1 0 0 
SMALL
USER_CHARGES


@<TRIPOS>ATOM
  1 O       -0.6210     0.0300     2.1180 O.3   1 <1>  -0.5600 
  2 C        0.4740     0.3810     1.3220 C.3   1 <1>   0.1200 
  3 C       -1.8200     0.4300     1.5170 C.3   1 <1>   0.1200 
  4 C       -0.0150     1.4650     0.3670 C.3   1 <1>   0.2890 
  5 C       -1.4560     1.0300     0.1580 C.3   1 <1>  -0.0800 
  6 N        0.0470     2.7830     1.0380 N.pl3 1 <1>  -0.8690 
  7 C       -2.4210     2.1280    -0.3280 C.3   1 <1>  -0.0170 
  8 C        0.5380     3.9160     0.4930 C.ar  1 <1>   0.7200 
  9 C       -3.8150     1.5630    -0.5580 C.ar  1 <1>  -0.1440 
 10 N        0.6240     3.9850    -0.8300 N.ar  1 <1>  -0.6200 
 11 N        0.8740     4.8430     1.3750 N.ar  1 <1>  -0.6200 
 12 C       -4.8220     1.6990     0.3760 C.ar  1 <1>  -0.1500 
 13 C       -4.1430     0.8830    -1.7130 C.ar  1 <1>  -0.1500 
 14 C        1.0950     5.1090    -1.3080 C.ar  1 <1>   0.1670 
 15 C        1.3440     5.9570     0.8740 C.ar  1 <1>   0.1670 
 16 C       -6.0710     1.1600     0.1190 C.ar  1 <1>   0.1600 
 17 C       -5.4250     0.3820    -1.8720 C.ar  1 <1>   0.1600 
 18 C        1.4760     6.1420    -0.4830 C.ar  1 <1>  -0.1500 
 19 C        1.2030     5.2240    -2.8130 C.3   1 <1>  -0.0970 
 20 C        1.7380     7.0390     1.8570 C.3   1 <1>  -0.0970 
 21 N       -6.3970     0.5020    -0.9820 N.ar  1 <1>  -0.6200 
 22 H        1.2850     0.7140     1.9460 H     1 <1>   0.0800 
 23 H        0.7710    -0.4960     0.7740 H     1 <1>   0.0800 
 24 H       -2.4720    -0.4210     1.4240 H     1 <1>   0.0800 
 25 H       -2.2700     1.1670     2.1580 H     1 <1>   0.0800 
 26 H        0.5510     1.4710    -0.5490 H     1 <1>   0.0800 
 27 H       -1.4610     0.2310    -0.5610 H     1 <1>   0.0800 
 28 H        0.0700     2.7670     2.0570 H     1 <1>   0.4000 
 29 H       -2.0480     2.5500    -1.2450 H     1 <1>   0.0800 
 30 H       -2.4740     2.9260     0.3920 H     1 <1>   0.0800 
 31 H       -4.6460     2.2200     1.3000 H     1 <1>   0.1500 
 32 H       -3.4150     0.7400    -2.4900 H     1 <1>   0.1500 
 33 H       -6.8430     1.2760     0.8600 H     1 <1>   0.1500 
 34 H       -5.6630    -0.1450    -2.7790 H     1 <1>   0.1500 
 35 H        1.8610     7.0600    -0.8830 H     1 <1>   0.1500 
 36 H        1.5860     6.1860    -3.1020 H     1 <1>   0.0800 
 37 H        0.2320     5.0890    -3.2540 H     1 <1>   0.0800 
 38 H        1.8620     4.4610    -3.1850 H     1 <1>   0.0800 
 39 H        2.1090     7.9090     1.3490 H     1 <1>   0.0800 
 40 H        2.5030     6.6660     2.5140 H     1 <1>   0.0800 
 41 H        0.8830     7.3160     2.4460 H     1 <1>   0.0800 
@<TRIPOS>BOND
  1   1   2  1   
  2   1   3  1   
  3   2   4  1   
  4   2  22  1   
  5   2  23  1   
  6   3   5  1   
  7   3  24  1   
  8   3  25  1   
  9   4   5  1   
 10   4   6  1   
 11   4  26  1   
 12   5   7  1   
 13   5  27  1   
 14   6   8  1   
 15   6  28  1   
 16   7   9  1   
 17   7  29  1   
 18   7  30  1   
 19   8  10  ar  
 20   8  11  ar  
 21   9  12  ar  
 22   9  13  ar  
 23  10  14  ar  
 24  11  15  ar  
 25  12  16  ar  
 26  12  31  1   
 27  13  17  ar  
 28  13  32  1   
 29  14  18  ar  
 30  14  19  1   
 31  15  18  ar  
 32  15  20  1   
 33  16  21  ar  
 34  16  33  1   
 35  17  21  ar  
 36  17  34  1   
 37  18  35  1   
 38  19  36  1   
 39  19  37  1   
 40  19  38  1   
 41  20  39  1   
 42  20  40  1   
 43  20  41  1   
@<TRIPOS>SUBSTRUCTURE
  1 ****   7 GROUP 4 **** **** 0

# MOE 2024.06 (io_trps.svl 2023.06)
