@<TRIPOS>MOLECULE
NONAME
46 50 1 0 0 
SMALL
USER_CHARGES


@<TRIPOS>ATOM
  1 S        1.2590    -0.4620    -1.2420 S.3   1 <1>  -0.0800 
  2 C        0.4000    -1.8600    -1.8460 C.2   1 <1>   0.4620 
  3 C        0.9240    -0.9950     0.3760 C.2   1 <1>  -0.1100 
  4 N       -0.0750    -2.6220    -0.9390 N.2   1 <1>  -0.5650 
  5 N        0.2990    -2.0370    -3.1840 N.pl3 1 <1>  -0.8840 
  6 C        0.2070    -2.1410     0.3520 C.2   1 <1>   0.1410 
  7 C       -0.2170    -2.8500     1.5590 C.2   1 <1>   0.7160 
  8 O        0.4900    -2.7790     2.5500 O.2   1 <1>  -0.5700 
  9 N       -1.3830    -3.5920     1.6470 N.am  1 <1>  -0.6600 
 10 C       -2.5320    -3.4780     0.7120 C.3   1 <1>   0.1400 
 11 C       -1.5830    -4.6310     2.6930 C.3   1 <1>   0.1400 
 12 C       -2.7000    -4.8100    -0.0190 C.3   1 <1>  -0.1600 
 13 C       -1.7490    -5.9880     2.0050 C.3   1 <1>  -0.1600 
 14 C       -2.8820    -5.9680     0.9730 C.3   1 <1>   0.4600 
 15 O       -4.0740    -5.7660     1.7030 O.3   1 <1>  -0.5600 
 16 C       -2.9560    -7.3060     0.2470 C.2   1 <1>  -0.3320 
 17 C       -5.2910    -6.1570     1.1120 C.3   1 <1>   0.1200 
 18 N       -1.9460    -7.9050    -0.4540 N.pl3 1 <1>   0.0330 
 19 C       -4.0520    -8.0880     0.2030 C.2   1 <1>  -0.1810 
 20 C       -5.3350    -7.6770     0.8820 C.3   1 <1>   0.0210 
 21 C       -2.4190    -9.0980    -0.9450 C.ar  1 <1>  -0.1520 
 22 C       -3.7450    -9.2440    -0.5450 C.ar  1 <1>   0.0000 
 23 C       -1.7920   -10.0800    -1.7160 C.ar  1 <1>  -0.1500 
 24 C       -4.4590   -10.3870    -0.9180 C.ar  1 <1>  -0.1500 
 25 C       -2.5060   -11.1990    -2.0770 C.ar  1 <1>  -0.1500 
 26 C       -3.8400   -11.3530    -1.6780 C.ar  1 <1>  -0.1500 
 27 H        1.2970    -0.4080     1.1950 H     1 <1>   0.1500 
 28 H       -0.1400    -2.8810    -3.5520 H     1 <1>   0.4000 
 29 H        0.7680    -1.4210    -3.8490 H     1 <1>   0.4000 
 30 H       -2.3890    -2.6770     0.0090 H     1 <1>   0.0800 
 31 H       -3.4230    -3.2590     1.2770 H     1 <1>   0.0800 
 32 H       -2.4640    -4.3950     3.2660 H     1 <1>   0.0800 
 33 H       -0.7440    -4.6670     3.3680 H     1 <1>   0.0800 
 34 H       -1.8220    -4.9830    -0.6140 H     1 <1>   0.0800 
 35 H       -3.5340    -4.7620    -0.6920 H     1 <1>   0.0800 
 36 H       -1.9530    -6.7480     2.7370 H     1 <1>   0.0800 
 37 H       -0.8230    -6.2380     1.5240 H     1 <1>   0.0800 
 38 H       -5.4010    -5.6350     0.1790 H     1 <1>   0.0800 
 39 H       -6.0860    -5.8590     1.7710 H     1 <1>   0.0800 
 40 H       -0.9980    -7.5430    -0.5920 H     1 <1>   0.2700 
 41 H       -6.1780    -7.9260     0.2640 H     1 <1>   0.0800 
 42 H       -5.4290    -8.1900     1.8210 H     1 <1>   0.0800 
 43 H       -0.7680    -9.9540    -2.0170 H     1 <1>   0.1500 
 44 H       -5.4800   -10.4920    -0.6040 H     1 <1>   0.1500 
 45 H       -2.0460   -11.9690    -2.6700 H     1 <1>   0.1500 
 46 H       -4.3750   -12.2380    -1.9730 H     1 <1>   0.1500 
@<TRIPOS>BOND
  1   1   2  1   
  2   1   3  1   
  3   2   4  2   
  4   2   5  1   
  5   3   6  2   
  6   3  27  1   
  7   4   6  1   
  8   5  28  1   
  9   5  29  1   
 10   6   7  1   
 11   7   8  2   
 12   7   9  am  
 13   9  10  1   
 14   9  11  1   
 15  10  12  1   
 16  10  30  1   
 17  10  31  1   
 18  11  13  1   
 19  11  32  1   
 20  11  33  1   
 21  12  14  1   
 22  12  34  1   
 23  12  35  1   
 24  13  14  1   
 25  13  36  1   
 26  13  37  1   
 27  14  15  1   
 28  14  16  1   
 29  15  17  1   
 30  16  18  1   
 31  16  19  2   
 32  17  20  1   
 33  17  38  1   
 34  17  39  1   
 35  18  21  1   
 36  18  40  1   
 37  19  20  1   
 38  19  22  1   
 39  20  41  1   
 40  20  42  1   
 41  21  22  ar  
 42  21  23  ar  
 43  22  24  ar  
 44  23  25  ar  
 45  23  43  1   
 46  24  26  ar  
 47  24  44  1   
 48  25  26  ar  
 49  25  45  1   
 50  26  46  1   
@<TRIPOS>SUBSTRUCTURE
  1 ****  12 GROUP 4 **** **** 0

# MOE 2024.06 (io_trps.svl 2023.06)
