@<TRIPOS>MOLECULE
NONAME
44 46 1 0 0 
SMALL
USER_CHARGES


@<TRIPOS>ATOM
  1 F       -1.6200     0.7200     0.0980 F     1 <1>  -0.1900 
  2 C       -0.8400     1.7430    -0.1380 C.ar  1 <1>   0.1900 
  3 C       -1.1170     3.0190     0.3650 C.ar  1 <1>   0.0820 
  4 C        0.2790     1.5000    -0.9100 C.ar  1 <1>  -0.1500 
  5 O       -2.1800     3.3890     1.1320 O.3   1 <1>  -0.3630 
  6 C       -0.2280     4.0370     0.0640 C.ar  1 <1>  -0.1500 
  7 C        1.1480     2.5400    -1.1880 C.ar  1 <1>  -0.1500 
  8 C       -3.2320     2.5080     1.4650 C.3   1 <1>   0.0400 
  9 C        0.9210     3.8310    -0.7050 C.ar  1 <1>   0.0860 
 10 C        1.8480     4.9150    -0.9940 C.2   1 <1>   0.5440 
 11 O        2.7970     4.7710    -1.7440 O.2   1 <1>  -0.5700 
 12 N        1.7420     6.1420    -0.3950 N.am  1 <1>  -0.6600 
 13 C        2.3760     6.3020     0.9610 C.3   1 <1>   0.2200 
 14 C        1.5850     7.3410    -1.2750 C.3   1 <1>   0.1400 
 15 C        1.7940     7.4800     1.7590 C.3   1 <1>   0.1200 
 16 C        3.9200     6.4210     0.8500 C.3   1 <1>   0.3430 
 17 C        2.5290     8.5160    -0.9560 C.3   1 <1>  -0.0800 
 18 O        2.4730     8.6620     1.4560 O.3   1 <1>  -0.5600 
 19 N        4.3830     6.7890    -0.5330 N.4   1 <1>  -0.9590 
 20 C        2.0820     9.3000     0.2880 C.3   1 <1>   0.1200 
 21 C        4.0370     8.1870    -0.9380 C.3   1 <1>   0.3430 
 22 C        5.8290     6.4950    -0.7280 C.3   1 <1>   0.2630 
 23 H        0.4640     0.5090    -1.2860 H     1 <1>   0.1500 
 24 H       -0.4510     5.0180     0.4430 H     1 <1>   0.1500 
 25 H        2.0190     2.3470    -1.7930 H     1 <1>   0.1500 
 26 H       -3.9610     3.0560     2.0340 H     1 <1>   0.0800 
 27 H       -2.8390     1.7010     2.0590 H     1 <1>   0.0800 
 28 H       -3.6800     2.1370     0.5600 H     1 <1>   0.0800 
 29 H        2.1560     5.4150     1.5290 H     1 <1>   0.0800 
 30 H        1.7420     7.0440    -2.3000 H     1 <1>   0.0800 
 31 H        0.5640     7.6790    -1.2050 H     1 <1>   0.0800 
 32 H        1.9470     7.3030     2.8100 H     1 <1>   0.0800 
 33 H        0.7380     7.6000     1.5890 H     1 <1>   0.0800 
 34 H        4.3390     5.4650     1.1140 H     1 <1>   0.0800 
 35 H        4.2800     7.1410     1.5670 H     1 <1>   0.0800 
 36 H        2.3960     9.2120    -1.7650 H     1 <1>   0.0800 
 37 H        3.8330     6.1520    -1.1560 H     1 <1>   0.4500 
 38 H        1.0150     9.4480     0.3070 H     1 <1>   0.0800 
 39 H        2.5510    10.2700     0.2950 H     1 <1>   0.0800 
 40 H        4.5370     8.8840    -0.2840 H     1 <1>   0.0800 
 41 H        4.4190     8.3490    -1.9330 H     1 <1>   0.0800 
 42 H        6.4280     7.1130    -0.0790 H     1 <1>   0.0800 
 43 H        6.1130     6.6860    -1.7500 H     1 <1>   0.0800 
 44 H        6.0300     5.4590    -0.5080 H     1 <1>   0.0800 
@<TRIPOS>BOND
  1   1   2  1   
  2   2   3  ar  
  3   2   4  ar  
  4   3   5  1   
  5   3   6  ar  
  6   4   7  ar  
  7   4  23  1   
  8   5   8  1   
  9   6   9  ar  
 10   6  24  1   
 11   7   9  ar  
 12   7  25  1   
 13   8  26  1   
 14   8  27  1   
 15   8  28  1   
 16   9  10  1   
 17  10  11  2   
 18  10  12  am  
 19  12  13  1   
 20  12  14  1   
 21  13  15  1   
 22  13  16  1   
 23  13  29  1   
 24  14  17  1   
 25  14  30  1   
 26  14  31  1   
 27  15  18  1   
 28  15  32  1   
 29  15  33  1   
 30  16  19  1   
 31  16  34  1   
 32  16  35  1   
 33  17  20  1   
 34  17  21  1   
 35  17  36  1   
 36  18  20  1   
 37  19  21  1   
 38  19  22  1   
 39  19  37  1   
 40  20  38  1   
 41  20  39  1   
 42  21  40  1   
 43  21  41  1   
 44  22  42  1   
 45  22  43  1   
 46  22  44  1   
@<TRIPOS>SUBSTRUCTURE
  1 ****  12 GROUP 4 **** **** 0

# MOE 2024.06 (io_trps.svl 2023.06)
