@<TRIPOS>MOLECULE
NONAME
43 45 1 0 0 
SMALL
USER_CHARGES


@<TRIPOS>ATOM
  1 O        0.5880     0.1460    -0.7690 O.2   1 <1>  -0.5700 
  2 C        0.1720    -0.9220    -0.3690 C.2   1 <1>   0.5440 
  3 N       -1.1670    -0.9760    -0.1900 N.am  1 <1>  -0.8000 
  4 C        1.0740    -2.0300    -0.1030 C.ar  1 <1>   0.0860 
  5 C        0.6590    -3.3660     0.0930 C.ar  1 <1>   0.4100 
  6 C        2.4400    -1.7850    -0.0340 C.ar  1 <1>  -0.1500 
  7 N        1.5020    -4.3710     0.3400 N.ar  1 <1>  -0.6200 
  8 N       -0.6750    -3.7340     0.0280 N.3   1 <1>  -0.5900 
  9 C        3.3120    -2.8210     0.2200 C.ar  1 <1>  -0.1430 
 10 C        2.7870    -4.0940     0.4020 C.ar  1 <1>   0.1670 
 11 C       -1.2890    -4.6150     1.0910 C.3   1 <1>   0.2450 
 12 C       -1.1250    -4.7210    -1.0220 C.3   1 <1>   0.2450 
 13 C        4.8070    -2.5340     0.2880 C.3   1 <1>  -0.0970 
 14 C        3.6910    -5.2790     0.6880 C.3   1 <1>  -0.0970 
 15 C       -1.2970    -5.7780     0.0830 C.3   1 <1>   0.0850 
 16 N       -2.5910    -6.4860     0.0170 N.pl3 1 <1>   0.4850 
 17 N       -3.7760    -5.8450    -0.1010 N.2   1 <1>  -0.7070 
 18 C       -2.7740    -7.8290     0.0620 C.2   1 <1>  -0.3320 
 19 C       -4.6670    -6.7830    -0.1280 C.2   1 <1>   0.1080 
 20 C       -4.1030    -8.0470    -0.0300 C.2   1 <1>  -0.1500 
 21 C       -1.6650    -8.8620     0.1910 C.3   1 <1>  -0.0600 
 22 C       -6.1440    -6.4930    -0.2530 C.3   1 <1>  -0.0590 
 23 H       -1.7480    -0.1860    -0.4630 H     1 <1>   0.3700 
 24 H       -1.6320    -1.8700     0.0000 H     1 <1>   0.3700 
 25 H        2.8080    -0.7830    -0.1790 H     1 <1>   0.1500 
 26 H       -2.2610    -4.2480     1.3700 H     1 <1>   0.0000 
 27 H       -0.6280    -4.7690     1.9250 H     1 <1>   0.0000 
 28 H       -0.3400    -4.9510    -1.7210 H     1 <1>   0.0000 
 29 H       -2.0380    -4.3900    -1.4850 H     1 <1>   0.0000 
 30 H        5.0170    -1.5170     0.0070 H     1 <1>   0.0800 
 31 H        5.3420    -3.1820    -0.3830 H     1 <1>   0.0800 
 32 H        5.1670    -2.6890     1.2890 H     1 <1>   0.0800 
 33 H        3.1080    -6.1290     0.9950 H     1 <1>   0.0800 
 34 H        4.3800    -5.0430     1.4770 H     1 <1>   0.0800 
 35 H        4.2370    -5.5410    -0.1990 H     1 <1>   0.0800 
 36 H       -0.4520    -6.4370     0.1820 H     1 <1>   0.0000 
 37 H       -4.6360    -8.9810    -0.0290 H     1 <1>   0.1500 
 38 H       -0.9860    -8.7860    -0.6390 H     1 <1>   0.0800 
 39 H       -2.0820    -9.8530     0.2020 H     1 <1>   0.0800 
 40 H       -1.1190    -8.7110     1.1060 H     1 <1>   0.0800 
 41 H       -6.3270    -5.9490    -1.1610 H     1 <1>   0.0800 
 42 H       -6.4640    -5.8960     0.5820 H     1 <1>   0.0800 
 43 H       -6.7070    -7.4070    -0.2690 H     1 <1>   0.0800 
@<TRIPOS>BOND
  1   1   2  2   
  2   2   3  am  
  3   2   4  1   
  4   3  23  1   
  5   3  24  1   
  6   4   5  ar  
  7   4   6  ar  
  8   5   7  ar  
  9   5   8  1   
 10   6   9  ar  
 11   6  25  1   
 12   7  10  ar  
 13   8  11  1   
 14   8  12  1   
 15   9  10  ar  
 16   9  13  1   
 17  10  14  1   
 18  11  15  1   
 19  11  26  1   
 20  11  27  1   
 21  12  15  1   
 22  12  28  1   
 23  12  29  1   
 24  13  30  1   
 25  13  31  1   
 26  13  32  1   
 27  14  33  1   
 28  14  34  1   
 29  14  35  1   
 30  15  16  1   
 31  15  36  1   
 32  16  17  1   
 33  16  18  1   
 34  17  19  2   
 35  18  20  2   
 36  18  21  1   
 37  19  20  1   
 38  19  22  1   
 39  20  37  1   
 40  21  38  1   
 41  21  39  1   
 42  21  40  1   
 43  22  41  1   
 44  22  42  1   
 45  22  43  1   
@<TRIPOS>SUBSTRUCTURE
  1 ****   8 GROUP 4 **** **** 0

# MOE 2024.06 (io_trps.svl 2023.06)
