@<TRIPOS>MOLECULE
NONAME
44 46 1 0 0 
SMALL
USER_CHARGES


@<TRIPOS>ATOM
  1 S       -1.2080    -1.2720     1.7450 S.3   1 <1>  -0.0800 
  2 C       -2.4120    -0.4730     0.7720 C.2   1 <1>  -0.1400 
  3 C       -0.1110     0.0510     1.4220 C.2   1 <1>   0.1980 
  4 C       -1.8950     0.6750     0.3030 C.2   1 <1>   0.0460 
  5 C       -3.7550    -1.1500     0.6220 C.3   1 <1>   0.3200 
  6 N       -0.5920     0.9630     0.6800 N.2   1 <1>  -0.5650 
  7 C        1.2650    -0.0200     2.0410 C.3   1 <1>  -0.0600 
  8 C       -2.5890     1.6780    -0.6030 C.3   1 <1>   0.0210 
  9 N       -3.5960    -2.3020    -0.2780 N.am  1 <1>  -0.7300 
 10 C       -2.9530     2.9580     0.1570 C.3   1 <1>  -0.2400 
 11 C       -4.3830    -2.5820    -1.3480 C.2   1 <1>   0.5690 
 12 O       -5.3400    -1.8960    -1.6210 O.2   1 <1>  -0.5700 
 13 C       -4.0580    -3.7940    -2.2360 C.3   1 <1>   0.2610 
 14 O       -3.3540    -4.7970    -1.5140 O.3   1 <1>  -0.3630 
 15 C       -3.1750    -3.4060    -3.4270 C.3   1 <1>  -0.2400 
 16 C       -3.9540    -5.5470    -0.5510 C.ar  1 <1>   0.0830 
 17 C       -5.2950    -5.4110    -0.1840 C.ar  1 <1>  -0.1500 
 18 C       -3.1460    -6.4900     0.0850 C.ar  1 <1>  -0.1500 
 19 C       -5.7730    -6.2320     0.8170 C.ar  1 <1>   0.0830 
 20 C       -3.6500    -7.3060     1.0890 C.ar  1 <1>  -0.1500 
 21 O       -7.0080    -6.2750     1.3290 O.3   1 <1>  -0.3630 
 22 C       -4.9770    -7.1510     1.4360 C.ar  1 <1>   0.0830 
 23 C       -6.9990    -7.2870     2.3340 C.3   1 <1>   0.4000 
 24 O       -5.6750    -7.8160     2.3660 O.3   1 <1>  -0.3630 
 25 H       -4.4760    -0.4610     0.2160 H     1 <1>   0.0800 
 26 H       -4.1090    -1.4860     1.5810 H     1 <1>   0.0800 
 27 H        1.7780    -0.8960     1.6900 H     1 <1>   0.0800 
 28 H        1.1810    -0.0590     3.1110 H     1 <1>   0.0800 
 29 H        1.8300     0.8520     1.7650 H     1 <1>   0.0800 
 30 H       -3.4810     1.2420    -1.0160 H     1 <1>   0.0800 
 31 H       -1.9330     1.9170    -1.4210 H     1 <1>   0.0800 
 32 H       -2.8090    -2.9200    -0.0670 H     1 <1>   0.3700 
 33 H       -3.6100     2.7280     0.9770 H     1 <1>   0.0800 
 34 H       -3.4440     3.6530    -0.5000 H     1 <1>   0.0800 
 35 H       -2.0630     3.4180     0.5470 H     1 <1>   0.0800 
 36 H       -4.9720    -4.2260    -2.6030 H     1 <1>   0.0800 
 37 H       -2.2470    -2.9880    -3.0810 H     1 <1>   0.0800 
 38 H       -3.6800    -2.6690    -4.0250 H     1 <1>   0.0800 
 39 H       -2.9780    -4.2680    -4.0380 H     1 <1>   0.0800 
 40 H       -5.9660    -4.7060    -0.6350 H     1 <1>   0.1500 
 41 H       -2.1170    -6.5810    -0.2140 H     1 <1>   0.1500 
 42 H       -3.0390    -8.0370     1.5870 H     1 <1>   0.1500 
 43 H       -7.6920    -8.0650     2.0690 H     1 <1>   0.0800 
 44 H       -7.2360    -6.8500     3.2880 H     1 <1>   0.0800 
@<TRIPOS>BOND
  1   1   2  1   
  2   1   3  1   
  3   2   4  2   
  4   2   5  1   
  5   3   6  2   
  6   3   7  1   
  7   4   6  1   
  8   4   8  1   
  9   5   9  1   
 10   5  25  1   
 11   5  26  1   
 12   7  27  1   
 13   7  28  1   
 14   7  29  1   
 15   8  10  1   
 16   8  30  1   
 17   8  31  1   
 18   9  11  am  
 19   9  32  1   
 20  10  33  1   
 21  10  34  1   
 22  10  35  1   
 23  11  12  2   
 24  11  13  1   
 25  13  14  1   
 26  13  15  1   
 27  13  36  1   
 28  14  16  1   
 29  15  37  1   
 30  15  38  1   
 31  15  39  1   
 32  16  17  ar  
 33  16  18  ar  
 34  17  19  ar  
 35  17  40  1   
 36  18  20  ar  
 37  18  41  1   
 38  19  21  1   
 39  19  22  ar  
 40  20  22  ar  
 41  20  42  1   
 42  21  23  1   
 43  22  24  1   
 44  23  24  1   
 45  23  43  1   
 46  23  44  1   
@<TRIPOS>SUBSTRUCTURE
  1 ****   9 GROUP 4 **** **** 0

# MOE 2024.06 (io_trps.svl 2023.06)
