@<TRIPOS>MOLECULE
NONAME
54 57 1 0 0 
SMALL
USER_CHARGES


@<TRIPOS>ATOM
  1 O        0.2460    -0.4090    -1.2920 O.2   1 <1>  -0.5700 
  2 C       -0.6980     0.3430    -1.2870 C.2   1 <1>   0.5690 
  3 N       -1.9810    -0.1090    -1.4250 N.am  1 <1>  -0.6600 
  4 C       -0.4280     1.8200    -1.0950 C.3   1 <1>  -0.0990 
  5 C       -3.2150     0.7200    -1.4270 C.3   1 <1>   0.1400 
  6 C       -2.3140    -1.5490    -1.4820 C.3   1 <1>   0.1400 
  7 C       -0.5060     2.1860     0.3900 C.3   1 <1>   0.0210 
  8 C       -4.3660    -0.2830    -1.5290 C.3   1 <1>   0.2000 
  9 C       -3.7880    -1.6260    -1.0850 C.3   1 <1>  -0.0800 
 10 C       -0.6240     3.6860     0.5530 C.2   1 <1>   0.1080 
 11 O       -5.4250     0.0680    -0.7060 O.3   1 <1>  -0.6800 
 12 C       -4.5280    -2.8270    -1.6950 C.3   1 <1>  -0.0170 
 13 N       -1.7670     4.2890     0.4450 N.2   1 <1>  -0.7070 
 14 C        0.4210     4.5710     0.8150 C.2   1 <1>  -0.1810 
 15 C       -3.9480    -4.1440    -1.1920 C.ar  1 <1>  -0.1440 
 16 N       -1.4810     5.5880     0.6430 N.pl3 1 <1>   0.3000 
 17 C       -0.1650     5.7870     0.8680 C.2   1 <1>  -0.3320 
 18 C        1.8830     4.1980     0.9900 C.3   1 <1>  -0.0590 
 19 C       -4.2440    -4.6580     0.0940 C.ar  1 <1>   0.0000 
 20 C       -3.1060    -4.8700    -1.9830 C.ar  1 <1>  -0.1500 
 21 C        0.4220     7.1660     1.1210 C.3   1 <1>  -0.0600 
 22 C       -3.6320    -5.8790     0.4700 C.ar  1 <1>   0.3100 
 23 C       -5.1080    -4.0360     1.0250 C.ar  1 <1>  -0.1500 
 24 C       -2.5600    -6.0720    -1.5150 C.ar  1 <1>   0.1600 
 25 N       -2.7970    -6.5720    -0.3440 N.ar  1 <1>  -0.6200 
 26 C       -3.8970    -6.4070     1.7440 C.ar  1 <1>  -0.1500 
 27 C       -5.3460    -4.5790     2.2580 C.ar  1 <1>  -0.1500 
 28 C       -4.7330    -5.7780     2.6260 C.ar  1 <1>  -0.1500 
 29 H        0.5500     2.0550    -1.4710 H     1 <1>   0.0800 
 30 H       -1.1370     2.3980    -1.6560 H     1 <1>   0.0800 
 31 H       -3.2740     1.2880    -0.5150 H     1 <1>   0.0800 
 32 H       -3.2180     1.3820    -2.2750 H     1 <1>   0.0800 
 33 H       -2.1630    -1.8990    -2.4890 H     1 <1>   0.0800 
 34 H       -1.6930    -2.1180    -0.8100 H     1 <1>   0.0800 
 35 H        0.3600     1.8150     0.9070 H     1 <1>   0.0800 
 36 H       -1.3730     1.7340     0.8380 H     1 <1>   0.0800 
 37 H       -4.7240    -0.3260    -2.5430 H     1 <1>   0.0800 
 38 H       -3.8170    -1.6860    -0.0120 H     1 <1>   0.0800 
 39 H       -5.1150     0.1930     0.2120 H     1 <1>   0.4000 
 40 H       -4.4520    -2.7840    -2.7680 H     1 <1>   0.0800 
 41 H       -5.5760    -2.7740    -1.4570 H     1 <1>   0.0800 
 42 H       -2.2050     6.3150     0.6200 H     1 <1>   0.2700 
 43 H        2.2220     3.6410     0.1350 H     1 <1>   0.0800 
 44 H        2.0010     3.5930     1.8700 H     1 <1>   0.0800 
 45 H        2.4950     5.0730     1.0900 H     1 <1>   0.0800 
 46 H       -2.8380    -4.5460    -2.9710 H     1 <1>   0.1500 
 47 H        1.4800     7.1060     1.2970 H     1 <1>   0.0800 
 48 H       -0.0390     7.6110     1.9850 H     1 <1>   0.0800 
 49 H        0.2550     7.8000     0.2690 H     1 <1>   0.0800 
 50 H       -5.5940    -3.1150     0.7620 H     1 <1>   0.1500 
 51 H       -1.8990    -6.6120    -2.1710 H     1 <1>   0.1500 
 52 H       -3.4150    -7.3320     2.0030 H     1 <1>   0.1500 
 53 H       -6.0060    -4.0940     2.9580 H     1 <1>   0.1500 
 54 H       -4.9260    -6.1960     3.5990 H     1 <1>   0.1500 
@<TRIPOS>BOND
  1   1   2  2   
  2   2   3  am  
  3   2   4  1   
  4   3   5  1   
  5   3   6  1   
  6   4   7  1   
  7   4  29  1   
  8   4  30  1   
  9   5   8  1   
 10   5  31  1   
 11   5  32  1   
 12   6   9  1   
 13   6  33  1   
 14   6  34  1   
 15   7  10  1   
 16   7  35  1   
 17   7  36  1   
 18   8   9  1   
 19   8  11  1   
 20   8  37  1   
 21   9  12  1   
 22   9  38  1   
 23  10  13  2   
 24  10  14  1   
 25  11  39  1   
 26  12  15  1   
 27  12  40  1   
 28  12  41  1   
 29  13  16  1   
 30  14  17  2   
 31  14  18  1   
 32  15  19  ar  
 33  15  20  ar  
 34  16  17  1   
 35  16  42  1   
 36  17  21  1   
 37  18  43  1   
 38  18  44  1   
 39  18  45  1   
 40  19  22  ar  
 41  19  23  ar  
 42  20  24  ar  
 43  20  46  1   
 44  21  47  1   
 45  21  48  1   
 46  21  49  1   
 47  22  25  ar  
 48  22  26  ar  
 49  23  27  ar  
 50  23  50  1   
 51  24  25  ar  
 52  24  51  1   
 53  26  28  ar  
 54  26  52  1   
 55  27  28  ar  
 56  27  53  1   
 57  28  54  1   
@<TRIPOS>SUBSTRUCTURE
  1 ****   3 GROUP 4 **** **** 0

# MOE 2024.06 (io_trps.svl 2023.06)
