@<TRIPOS>MOLECULE
NONAME
50 52 1 0 0 
SMALL
USER_CHARGES


@<TRIPOS>ATOM
  1 F       -2.6530     2.6230    -2.2150 F     1 <1>  -0.1900 
  2 C       -1.6670     3.1430    -1.5340 C.ar  1 <1>   0.1900 
  3 C       -1.5160     2.7960    -0.2030 C.ar  1 <1>  -0.1440 
  4 C       -0.8170     4.0240    -2.1700 C.ar  1 <1>  -0.1500 
  5 C       -0.4640     3.3620     0.5050 C.ar  1 <1>  -0.1500 
  6 C       -2.4810     1.8210     0.4440 C.3   1 <1>   0.4870 
  7 C        0.2240     4.5830    -1.4490 C.ar  1 <1>  -0.1500 
  8 C        0.4120     4.2610    -0.1050 C.ar  1 <1>  -0.1440 
  9 N       -3.8080     2.4680     0.5920 N.4   1 <1>  -0.9590 
 10 C        1.5690     4.8750     0.7080 C.3   1 <1>   1.1630 
 11 C       -3.7960     3.6940     1.4440 C.3   1 <1>   0.3430 
 12 C       -4.8930     1.5350     0.9700 C.3   1 <1>   0.3430 
 13 F        1.1690     5.2590     1.9140 F     1 <1>  -0.3400 
 14 F        2.5520     4.0070     0.8990 F     1 <1>  -0.3400 
 15 F        2.1090     5.9420     0.1350 F     1 <1>  -0.3400 
 16 C       -5.2160     4.2320     1.6580 C.3   1 <1>  -0.1600 
 17 C       -6.2490     2.1760     0.6590 C.3   1 <1>  -0.1600 
 18 C       -6.2240     3.7230     0.6130 C.3   1 <1>   0.2800 
 19 O       -5.6810     4.0610    -0.6500 O.3   1 <1>  -0.5600 
 20 C       -7.6230     4.3720     0.8410 C.3   1 <1>   0.2000 
 21 C       -6.4420     4.8320    -1.5410 C.3   1 <1>   0.1200 
 22 O       -8.1960     3.9420     2.0430 O.3   1 <1>  -0.6800 
 23 C       -8.5950     4.2000    -0.3640 C.3   1 <1>   0.2800 
 24 C       -7.8280     4.2030    -1.6990 C.3   1 <1>  -0.1600 
 25 O       -9.4200     5.3060    -0.3570 O.3   1 <1>  -0.6800 
 26 C       -9.5390     2.9910    -0.2890 C.3   1 <1>  -0.2400 
 27 H       -0.9680     4.2680    -3.2080 H     1 <1>   0.1500 
 28 H       -0.3140     3.1050     1.5420 H     1 <1>   0.1500 
 29 H       -2.1080     1.5140     1.4070 H     1 <1>   0.0800 
 30 H       -2.5680     0.9480    -0.1820 H     1 <1>   0.0800 
 31 H        0.8890     5.2710    -1.9490 H     1 <1>   0.1500 
 32 H       -4.0820     2.8270    -0.3450 H     1 <1>   0.4500 
 33 H       -3.3440     3.4840     2.3990 H     1 <1>   0.0800 
 34 H       -3.2080     4.4530     0.9520 H     1 <1>   0.0800 
 35 H       -4.8040     0.6080     0.4260 H     1 <1>   0.0800 
 36 H       -4.8290     1.3200     2.0250 H     1 <1>   0.0800 
 37 H       -5.1900     5.3070     1.6530 H     1 <1>   0.0800 
 38 H       -5.5500     3.9380     2.6380 H     1 <1>   0.0800 
 39 H       -6.9340     1.8400     1.4160 H     1 <1>   0.0800 
 40 H       -6.6140     1.7950    -0.2770 H     1 <1>   0.0800 
 41 H       -7.4520     5.4280     0.9640 H     1 <1>   0.0800 
 42 H       -6.5080     5.8410    -1.1670 H     1 <1>   0.0800 
 43 H       -5.9250     4.8480    -2.4860 H     1 <1>   0.0800 
 44 H       -9.0590     4.3960     2.1510 H     1 <1>   0.4000 
 45 H       -7.6860     3.1970    -2.0500 H     1 <1>   0.0800 
 46 H       -8.3830     4.7270    -2.4560 H     1 <1>   0.0800 
 47 H      -10.1200     5.2030    -1.0300 H     1 <1>   0.4000 
 48 H       -8.9790     2.0780    -0.2220 H     1 <1>   0.0800 
 49 H      -10.1570     2.9360    -1.1680 H     1 <1>   0.0800 
 50 H      -10.1750     3.0520     0.5770 H     1 <1>   0.0800 
@<TRIPOS>BOND
  1   1   2  1   
  2   2   3  ar  
  3   2   4  ar  
  4   3   5  ar  
  5   3   6  1   
  6   4   7  ar  
  7   4  27  1   
  8   5   8  ar  
  9   5  28  1   
 10   6   9  1   
 11   6  29  1   
 12   6  30  1   
 13   7   8  ar  
 14   7  31  1   
 15   8  10  1   
 16   9  11  1   
 17   9  12  1   
 18   9  32  1   
 19  10  13  1   
 20  10  14  1   
 21  10  15  1   
 22  11  16  1   
 23  11  33  1   
 24  11  34  1   
 25  12  17  1   
 26  12  35  1   
 27  12  36  1   
 28  16  18  1   
 29  16  37  1   
 30  16  38  1   
 31  17  18  1   
 32  17  39  1   
 33  17  40  1   
 34  18  19  1   
 35  18  20  1   
 36  19  21  1   
 37  20  22  1   
 38  20  23  1   
 39  20  41  1   
 40  21  24  1   
 41  21  42  1   
 42  21  43  1   
 43  22  44  1   
 44  23  24  1   
 45  23  25  1   
 46  23  26  1   
 47  24  45  1   
 48  24  46  1   
 49  25  47  1   
 50  26  48  1   
 51  26  49  1   
 52  26  50  1   
@<TRIPOS>SUBSTRUCTURE
  1 ****  11 GROUP 4 **** **** 0

# MOE 2024.06 (io_trps.svl 2023.06)
