@<TRIPOS>MOLECULE
NONAME
41 42 1 0 0 
SMALL
USER_CHARGES


@<TRIPOS>ATOM
  1 O       -1.6400     1.3890     0.0700 O.3   1 <1>  -0.3630 
  2 C       -0.9130     2.5160     0.2870 C.ar  1 <1>   0.0830 
  3 C       -1.0920     0.0890     0.1090 C.3   1 <1>   0.2000 
  4 C        0.4390     2.5270     0.6200 C.ar  1 <1>  -0.1500 
  5 C       -1.5910     3.7180     0.1590 C.ar  1 <1>  -0.1500 
  6 C       -0.3730    -0.1840    -1.2250 C.3   1 <1>  -0.1600 
  7 C       -2.2600    -0.8670     0.3540 C.3   1 <1>  -0.2400 
  8 C        1.1020     3.7290     0.8230 C.ar  1 <1>  -0.1440 
  9 C       -0.9340     4.9190     0.3560 C.ar  1 <1>  -0.1500 
 10 C        0.3930    -1.5150    -1.2370 C.3   1 <1>  -0.2400 
 11 C        0.4100     4.9230     0.6860 C.ar  1 <1>  -0.1500 
 12 C        2.5760     3.7500     1.1870 C.3   1 <1>   0.3530 
 13 N        3.3170     4.3210     0.0520 N.pl3 1 <1>  -0.8690 
 14 C        4.0690     5.4400     0.2060 C.ar  1 <1>   0.4100 
 15 N        3.7510     6.4370    -0.5830 N.ar  1 <1>  -0.6200 
 16 C        5.0960     5.5370     1.1230 C.ar  1 <1>  -0.1500 
 17 C        4.4690     7.5330    -0.4330 C.ar  1 <1>   0.4770 
 18 C        5.7710     6.7240     1.1890 C.ar  1 <1>   0.1600 
 19 N        5.4640     7.7450     0.4120 N.ar  1 <1>  -0.6200 
 20 C        4.1170     8.6910    -1.3360 C.3   1 <1>  -0.0970 
 21 H       -0.4130     0.0280     0.9410 H     1 <1>   0.0800 
 22 H        0.9870     1.6110     0.7190 H     1 <1>   0.1500 
 23 H       -2.6350     3.7040    -0.0970 H     1 <1>   0.1500 
 24 H        0.3290     0.6070    -1.4190 H     1 <1>   0.0800 
 25 H       -1.0950    -0.1840    -2.0230 H     1 <1>   0.0800 
 26 H       -2.9490    -0.8350    -0.4710 H     1 <1>   0.0800 
 27 H       -2.7750    -0.5870     1.2560 H     1 <1>   0.0800 
 28 H       -1.9050    -1.8730     0.4710 H     1 <1>   0.0800 
 29 H       -1.4670     5.8480     0.2510 H     1 <1>   0.1500 
 30 H        1.1000    -1.5500    -0.4270 H     1 <1>   0.0800 
 31 H        0.9310    -1.6160    -2.1630 H     1 <1>   0.0800 
 32 H       -0.2810    -2.3490    -1.1490 H     1 <1>   0.0800 
 33 H        0.9200     5.8610     0.8290 H     1 <1>   0.1500 
 34 H        2.9340     2.7540     1.3810 H     1 <1>   0.0800 
 35 H        2.7210     4.3490     2.0710 H     1 <1>   0.0800 
 36 H        2.6920     4.4140    -0.7540 H     1 <1>   0.4000 
 37 H        5.3490     4.7040     1.7470 H     1 <1>   0.1500 
 38 H        6.5810     6.8520     1.8870 H     1 <1>   0.1500 
 39 H        3.1570     8.5340    -1.7910 H     1 <1>   0.0800 
 40 H        4.8610     8.7780    -2.1040 H     1 <1>   0.0800 
 41 H        4.0900     9.6000    -0.7650 H     1 <1>   0.0800 
@<TRIPOS>BOND
  1   1   2  1   
  2   1   3  1   
  3   2   4  ar  
  4   2   5  ar  
  5   3   6  1   
  6   3   7  1   
  7   3  21  1   
  8   4   8  ar  
  9   4  22  1   
 10   5   9  ar  
 11   5  23  1   
 12   6  10  1   
 13   6  24  1   
 14   6  25  1   
 15   7  26  1   
 16   7  27  1   
 17   7  28  1   
 18   8  11  ar  
 19   8  12  1   
 20   9  11  ar  
 21   9  29  1   
 22  10  30  1   
 23  10  31  1   
 24  10  32  1   
 25  11  33  1   
 26  12  13  1   
 27  12  34  1   
 28  12  35  1   
 29  13  14  1   
 30  13  36  1   
 31  14  15  ar  
 32  14  16  ar  
 33  15  17  ar  
 34  16  18  ar  
 35  16  37  1   
 36  17  19  ar  
 37  17  20  1   
 38  18  19  ar  
 39  18  38  1   
 40  20  39  1   
 41  20  40  1   
 42  20  41  1   
@<TRIPOS>SUBSTRUCTURE
  1 ****   8 GROUP 4 **** **** 0

# MOE 2024.06 (io_trps.svl 2023.06)
