@<TRIPOS>MOLECULE
NONAME
44 46 1 0 0 
SMALL
USER_CHARGES


@<TRIPOS>ATOM
  1 O        1.8020     0.0520     0.9480 O.co2 1 <1>  -0.9000 
  2 C        1.8480    -0.6540    -0.0740 C.2   1 <1>   0.9790 
  3 O        2.0630    -0.1150    -1.1730 O.co2 1 <1>  -0.9000 
  4 C        1.6350    -2.0950     0.0120 C.ar  1 <1>  -0.1790 
  5 C        1.3490    -2.7170     1.2270 C.ar  1 <1>  -0.1500 
  6 C        1.7050    -2.9080    -1.1190 C.ar  1 <1>  -0.1500 
  7 C        1.1220    -4.0770     1.3100 C.ar  1 <1>  -0.1500 
  8 C        1.4820    -4.2690    -1.0480 C.ar  1 <1>  -0.1500 
  9 C        1.1730    -4.8610     0.1670 C.ar  1 <1>  -0.1430 
 10 C        0.8660    -6.3370     0.2350 C.3   1 <1>   0.4870 
 11 N       -0.5040    -6.5680    -0.3080 N.4   1 <1>  -0.9590 
 12 C       -1.5490    -6.0270     0.6270 C.3   1 <1>   0.4230 
 13 C       -0.6430    -7.9940    -0.7350 C.3   1 <1>   0.2630 
 14 C       -2.8360    -6.8540     0.6950 C.3   1 <1>  -0.1600 
 15 C       -2.0610    -4.7010     0.0680 C.3   1 <1>  -0.1600 
 16 C       -3.6650    -6.4550    -0.5370 C.3   1 <1>  -0.0800 
 17 C       -3.1610    -5.0610    -0.9430 C.3   1 <1>  -0.0800 
 18 C       -5.1650    -6.3050    -0.2390 C.3   1 <1>  -0.1600 
 19 C       -4.3750    -4.1210    -0.8820 C.3   1 <1>  -0.1600 
 20 C       -5.4000    -4.8190     0.0080 C.3   1 <1>   0.2000 
 21 O       -5.0990    -4.5440     1.3280 O.3   1 <1>  -0.6800 
 22 H        1.3060    -2.1030     2.1140 H     1 <1>   0.1500 
 23 H        1.9410    -2.4440    -2.0640 H     1 <1>   0.1500 
 24 H        0.9040    -4.5030     2.2740 H     1 <1>   0.1500 
 25 H        1.5510    -4.8470    -1.9530 H     1 <1>   0.1500 
 26 H        0.9320    -6.6850     1.2530 H     1 <1>   0.0800 
 27 H        1.5950    -6.8660    -0.3550 H     1 <1>   0.0800 
 28 H       -0.5700    -5.9620    -1.1370 H     1 <1>   0.4500 
 29 H       -1.1350    -5.8920     1.6140 H     1 <1>   0.0800 
 30 H       -0.5950    -8.6470     0.1210 H     1 <1>   0.0800 
 31 H        0.1460    -8.2590    -1.4200 H     1 <1>   0.0800 
 32 H       -1.5870    -8.1450    -1.2320 H     1 <1>   0.0800 
 33 H       -2.6970    -7.9140     0.7920 H     1 <1>   0.0800 
 34 H       -3.3590    -6.5330     1.5800 H     1 <1>   0.0800 
 35 H       -2.4910    -4.1530     0.8880 H     1 <1>   0.0800 
 36 H       -1.3020    -4.0770    -0.3670 H     1 <1>   0.0800 
 37 H       -3.5150    -7.1590    -1.3380 H     1 <1>   0.0800 
 38 H       -2.7530    -5.0820    -1.9400 H     1 <1>   0.0800 
 39 H       -5.5050    -6.9120     0.5830 H     1 <1>   0.0800 
 40 H       -5.7190    -6.5880    -1.1170 H     1 <1>   0.0800 
 41 H       -4.7930    -4.0420    -1.8700 H     1 <1>   0.0800 
 42 H       -4.1320    -3.1290    -0.5410 H     1 <1>   0.0800 
 43 H       -6.4160    -4.5160    -0.1870 H     1 <1>   0.0800 
 44 H       -5.2530    -3.5980     1.5150 H     1 <1>   0.4000 
@<TRIPOS>BOND
  1   1   2  ar  
  2   2   3  ar  
  3   2   4  1   
  4   4   5  ar  
  5   4   6  ar  
  6   5   7  ar  
  7   5  22  1   
  8   6   8  ar  
  9   6  23  1   
 10   7   9  ar  
 11   7  24  1   
 12   8   9  ar  
 13   8  25  1   
 14   9  10  1   
 15  10  11  1   
 16  10  26  1   
 17  10  27  1   
 18  11  12  1   
 19  11  13  1   
 20  11  28  1   
 21  12  14  1   
 22  12  15  1   
 23  12  29  1   
 24  13  30  1   
 25  13  31  1   
 26  13  32  1   
 27  14  16  1   
 28  14  33  1   
 29  14  34  1   
 30  15  17  1   
 31  15  35  1   
 32  15  36  1   
 33  16  17  1   
 34  16  18  1   
 35  16  37  1   
 36  17  19  1   
 37  17  38  1   
 38  18  20  1   
 39  18  39  1   
 40  18  40  1   
 41  19  20  1   
 42  19  41  1   
 43  19  42  1   
 44  20  21  1   
 45  20  43  1   
 46  21  44  1   
@<TRIPOS>SUBSTRUCTURE
  1 ****  15 GROUP 4 **** **** 0

# MOE 2024.06 (io_trps.svl 2023.06)
