@<TRIPOS>MOLECULE
NONAME
52 54 1 0 0 
SMALL
USER_CHARGES


@<TRIPOS>ATOM
  1 O       -2.2100     0.0630    -2.6820 O.2   1 <1>  -0.5700 
  2 C       -2.3690     0.8290    -1.7560 C.2   1 <1>   0.5690 
  3 N       -3.2280     0.5130    -0.7250 N.am  1 <1>  -0.6600 
  4 C       -1.5940     2.1430    -1.8520 C.3   1 <1>   0.0820 
  5 C       -3.9110    -0.8190    -0.7230 C.3   1 <1>   0.3210 
  6 C       -3.4460     1.2980     0.5360 C.3   1 <1>   0.1400 
  7 C       -0.7680     2.5560    -0.6320 C.2   1 <1>  -0.1810 
  8 C       -3.1780    -1.8270     0.1640 C.2   1 <1>   0.0460 
  9 C       -4.5230     2.3840     0.4100 C.3   1 <1>   0.1200 
 10 C       -0.6220     3.8890    -0.1520 C.ar  1 <1>   0.0000 
 11 C       -0.0860     1.7310     0.2050 C.2   1 <1>  -0.3320 
 12 N       -3.4170    -1.8890     1.4940 N.2   1 <1>  -0.5650 
 13 C       -2.2590    -2.7550    -0.1990 C.2   1 <1>  -0.3320 
 14 O       -4.0860     3.4380    -0.3790 O.3   1 <1>  -0.6800 
 15 C       -1.0000     5.1780    -0.5850 C.ar  1 <1>  -0.1440 
 16 C        0.1020     3.7780     1.0370 C.ar  1 <1>  -0.1520 
 17 N        0.4390     2.4660     1.2230 N.pl3 1 <1>   0.0330 
 18 C        0.1180     0.2240     0.1590 C.3   1 <1>  -0.0600 
 19 C       -2.6440    -2.8400     1.9060 C.2   1 <1>   0.0360 
 20 N       -1.9130    -3.4060     0.9250 N.pl3 1 <1>   0.0330 
 21 C       -1.6610    -3.0860    -1.5560 C.3   1 <1>  -0.0600 
 22 C       -0.7100     6.2640     0.2120 C.ar  1 <1>  -0.1500 
 23 C       -1.6850     5.4250    -1.9210 C.3   1 <1>  -0.0970 
 24 C        0.3940     4.8820     1.8430 C.ar  1 <1>  -0.1440 
 25 C       -0.0260     6.1200     1.4210 C.ar  1 <1>  -0.1500 
 26 C        1.1570     4.7070     3.1440 C.3   1 <1>  -0.0970 
 27 H       -2.3180     2.8890    -2.0890 H     1 <1>   0.0800 
 28 H       -0.9260     2.0830    -2.6900 H     1 <1>   0.0800 
 29 H       -3.9720    -1.2080    -1.7230 H     1 <1>   0.0800 
 30 H       -4.9180    -0.7040    -0.3660 H     1 <1>   0.0800 
 31 H       -2.5340     1.7350     0.8890 H     1 <1>   0.0800 
 32 H       -3.7620     0.6250     1.3130 H     1 <1>   0.0800 
 33 H       -4.7540     2.7820     1.3820 H     1 <1>   0.0800 
 34 H       -5.4210     1.9820    -0.0250 H     1 <1>   0.0800 
 35 H       -3.2120     3.7570    -0.0620 H     1 <1>   0.4000 
 36 H        0.9940     2.1100     2.0060 H     1 <1>   0.2700 
 37 H       -0.0940    -0.1650    -0.8200 H     1 <1>   0.0800 
 38 H       -0.5340    -0.2580     0.8660 H     1 <1>   0.0800 
 39 H        1.1370    -0.0210     0.3960 H     1 <1>   0.0800 
 40 H       -2.5770    -3.1640     2.9290 H     1 <1>   0.1500 
 41 H       -1.2430    -4.1740     1.0200 H     1 <1>   0.2700 
 42 H       -2.1320    -2.5100    -2.3310 H     1 <1>   0.0800 
 43 H       -1.7990    -4.1290    -1.7810 H     1 <1>   0.0800 
 44 H       -0.6100    -2.8610    -1.5620 H     1 <1>   0.0800 
 45 H       -0.9990     7.2550    -0.0900 H     1 <1>   0.1500 
 46 H       -1.1910     4.8690    -2.6960 H     1 <1>   0.0800 
 47 H       -1.6370     6.4660    -2.1850 H     1 <1>   0.0800 
 48 H       -2.7190     5.1410    -1.8750 H     1 <1>   0.0800 
 49 H        0.1720     6.9980     2.0090 H     1 <1>   0.1500 
 50 H        0.6160     4.0500     3.8000 H     1 <1>   0.0800 
 51 H        1.2870     5.6520     3.6400 H     1 <1>   0.0800 
 52 H        2.1270     4.2900     2.9450 H     1 <1>   0.0800 
@<TRIPOS>BOND
  1   1   2  2   
  2   2   3  am  
  3   2   4  1   
  4   3   5  1   
  5   3   6  1   
  6   4   7  1   
  7   4  27  1   
  8   4  28  1   
  9   5   8  1   
 10   5  29  1   
 11   5  30  1   
 12   6   9  1   
 13   6  31  1   
 14   6  32  1   
 15   7  10  1   
 16   7  11  2   
 17   8  12  1   
 18   8  13  2   
 19   9  14  1   
 20   9  33  1   
 21   9  34  1   
 22  10  15  ar  
 23  10  16  ar  
 24  11  17  1   
 25  11  18  1   
 26  12  19  2   
 27  13  20  1   
 28  13  21  1   
 29  14  35  1   
 30  15  22  ar  
 31  15  23  1   
 32  16  17  1   
 33  16  24  ar  
 34  17  36  1   
 35  18  37  1   
 36  18  38  1   
 37  18  39  1   
 38  19  20  1   
 39  19  40  1   
 40  20  41  1   
 41  21  42  1   
 42  21  43  1   
 43  21  44  1   
 44  22  25  ar  
 45  22  45  1   
 46  23  46  1   
 47  23  47  1   
 48  23  48  1   
 49  24  25  ar  
 50  24  26  1   
 51  25  49  1   
 52  26  50  1   
 53  26  51  1   
 54  26  52  1   
@<TRIPOS>SUBSTRUCTURE
  1 ****   7 GROUP 4 **** **** 0

# MOE 2024.06 (io_trps.svl 2023.06)
