@<TRIPOS>MOLECULE
NONAME
43 44 1 0 0 
SMALL
USER_CHARGES


@<TRIPOS>ATOM
  1 O       -1.3370    -0.2460    -0.2840 O.2   1 <1>  -0.5700 
  2 C       -2.0760     0.6270     0.1110 C.2   1 <1>   0.5690 
  3 N       -3.1810     0.3290     0.8620 N.am  1 <1>  -0.6600 
  4 C       -1.7700     2.0680    -0.2690 C.3   1 <1>  -0.0990 
  5 C       -3.4310    -1.0770     1.2980 C.3   1 <1>   0.3200 
  6 C       -4.3180     1.2640     1.1120 C.3   1 <1>   0.1400 
  7 C       -0.2880     2.3220    -0.5770 C.3   1 <1>  -0.0170 
  8 C       -4.1000    -1.8630     0.1850 C.2   1 <1>   0.0060 
  9 C       -4.2010     1.8880     2.5070 C.3   1 <1>   0.1200 
 10 C       -0.0710     3.7970    -0.8670 C.ar  1 <1>  -0.1440 
 11 N       -5.2900    -2.3710     0.2400 N.2   1 <1>  -0.5650 
 12 N       -3.4670    -2.0910    -0.9840 N.pl3 1 <1>   0.0330 
 13 O       -5.1980     2.8380     2.6740 O.3   1 <1>  -0.6800 
 14 C        0.1890     4.6810     0.1680 C.ar  1 <1>  -0.1500 
 15 C       -0.1430     4.2760    -2.1660 C.ar  1 <1>  -0.1500 
 16 C       -5.4400    -2.9640    -0.9610 C.2   1 <1>   0.0770 
 17 C       -4.3360    -2.8030    -1.7230 C.2   1 <1>  -0.3020 
 18 C        0.3730     6.0320    -0.0810 C.ar  1 <1>   0.0820 
 19 C        0.0420     5.6230    -2.4250 C.ar  1 <1>  -0.1500 
 20 O        0.6190     6.8230     0.9950 O.3   1 <1>  -0.3630 
 21 C        0.2990     6.5030    -1.3880 C.ar  1 <1>  -0.1500 
 22 C        0.8680     8.2030     0.8470 C.3   1 <1>   0.0400 
 23 H       -2.0560     2.7150     0.5390 H     1 <1>   0.0800 
 24 H       -2.3570     2.3240    -1.1310 H     1 <1>   0.0800 
 25 H       -4.0600    -1.0870     2.1710 H     1 <1>   0.0800 
 26 H       -2.4990    -1.5500     1.5570 H     1 <1>   0.0800 
 27 H       -5.2470     0.7230     1.0380 H     1 <1>   0.0800 
 28 H       -4.3270     2.0370     0.3650 H     1 <1>   0.0800 
 29 H        0.0190     1.7330    -1.4240 H     1 <1>   0.0800 
 30 H        0.3150     2.0240     0.2630 H     1 <1>   0.0800 
 31 H       -3.2500     2.3730     2.6410 H     1 <1>   0.0800 
 32 H       -4.3350     1.1370     3.2660 H     1 <1>   0.0800 
 33 H       -2.5240    -1.7480    -1.2170 H     1 <1>   0.2700 
 34 H       -5.0320     3.6300     2.1260 H     1 <1>   0.4000 
 35 H        0.2520     4.3340     1.1830 H     1 <1>   0.1500 
 36 H       -0.3420     3.6020    -2.9810 H     1 <1>   0.1500 
 37 H       -6.3480    -3.4840    -1.2180 H     1 <1>   0.1500 
 38 H       -4.1260    -3.1450    -2.7200 H     1 <1>   0.1500 
 39 H       -0.0140     5.9860    -3.4360 H     1 <1>   0.1500 
 40 H        0.4360     7.5420    -1.6160 H     1 <1>   0.1500 
 41 H        1.0520     8.6150     1.8220 H     1 <1>   0.0800 
 42 H        0.0030     8.6690     0.4090 H     1 <1>   0.0800 
 43 H        1.7350     8.3360     0.2240 H     1 <1>   0.0800 
@<TRIPOS>BOND
  1   1   2  2   
  2   2   3  am  
  3   2   4  1   
  4   3   5  1   
  5   3   6  1   
  6   4   7  1   
  7   4  23  1   
  8   4  24  1   
  9   5   8  1   
 10   5  25  1   
 11   5  26  1   
 12   6   9  1   
 13   6  27  1   
 14   6  28  1   
 15   7  10  1   
 16   7  29  1   
 17   7  30  1   
 18   8  11  2   
 19   8  12  1   
 20   9  13  1   
 21   9  31  1   
 22   9  32  1   
 23  10  14  ar  
 24  10  15  ar  
 25  11  16  1   
 26  12  17  1   
 27  12  33  1   
 28  13  34  1   
 29  14  18  ar  
 30  14  35  1   
 31  15  19  ar  
 32  15  36  1   
 33  16  17  2   
 34  16  37  1   
 35  17  38  1   
 36  18  20  1   
 37  18  21  ar  
 38  19  21  ar  
 39  19  39  1   
 40  20  22  1   
 41  21  40  1   
 42  22  41  1   
 43  22  42  1   
 44  22  43  1   
@<TRIPOS>SUBSTRUCTURE
  1 ****   4 GROUP 4 **** **** 0

# MOE 2024.06 (io_trps.svl 2023.06)
