@<TRIPOS>MOLECULE
NONAME
42 44 1 0 0 
SMALL
USER_CHARGES


@<TRIPOS>ATOM
  1 O       -0.1510     1.1890     1.4020 O.2   1 <1>  -0.5700 
  2 C       -0.1510     2.3340     1.0290 C.2   1 <1>   0.5690 
  3 N       -1.1650     3.1660     1.3460 N.am  1 <1>  -0.7300 
  4 C        0.9850     2.8610     0.1520 C.3   1 <1>   0.1810 
  5 C       -1.2850     4.5590     0.8430 C.3   1 <1>   0.3640 
  6 O        1.0970     4.2640     0.2160 O.3   1 <1>  -0.5600 
  7 C       -2.6260     4.6850     0.1230 C.ar  1 <1>  -0.1440 
  8 C       -0.1040     4.9760    -0.0800 C.3   1 <1>   0.2610 
  9 C       -3.0640     3.7110    -0.7680 C.ar  1 <1>  -0.1500 
 10 C       -3.4310     5.7920     0.3510 C.ar  1 <1>  -0.1500 
 11 C        0.1380     6.4850     0.0460 C.2   1 <1>   0.5690 
 12 C       -4.2820     3.8410    -1.4110 C.ar  1 <1>  -0.1500 
 13 C       -4.6490     5.9240    -0.2930 C.ar  1 <1>  -0.1500 
 14 O       -0.7310     7.2630    -0.2670 O.2   1 <1>  -0.5700 
 15 N        1.3380     6.9210     0.5160 N.am  1 <1>  -0.7300 
 16 C       -5.0770     4.9480    -1.1740 C.ar  1 <1>  -0.1500 
 17 C        1.7450     8.3360     0.6990 C.3   1 <1>   0.1400 
 18 C        2.7210     8.7770    -0.4050 C.3   1 <1>   0.0000 
 19 C        4.1390     8.2070    -0.2410 C.3   1 <1>   0.2580 
 20 C        3.4300    10.0980    -0.0650 C.3   1 <1>   0.2580 
 21 C        2.1580     8.7170    -1.8380 C.3   1 <1>  -0.2400 
 22 O        4.4230     9.3230     0.5970 O.3   1 <1>  -0.5160 
 23 H       -1.9560     2.7960     1.8760 H     1 <1>   0.3700 
 24 H        0.8170     2.5750    -0.8700 H     1 <1>   0.0800 
 25 H        1.9160     2.4400     0.4850 H     1 <1>   0.0800 
 26 H       -1.2900     5.2120     1.6990 H     1 <1>   0.0800 
 27 H       -0.3600     4.7670    -1.1030 H     1 <1>   0.0800 
 28 H       -2.4640     2.8400    -0.9660 H     1 <1>   0.1500 
 29 H       -3.1110     6.5690     1.0250 H     1 <1>   0.1500 
 30 H       -4.6130     3.0800    -2.0970 H     1 <1>   0.1500 
 31 H       -5.2620     6.7900    -0.1100 H     1 <1>   0.1500 
 32 H        2.0380     6.2020     0.7310 H     1 <1>   0.3700 
 33 H       -6.0240     5.0510    -1.6740 H     1 <1>   0.1500 
 34 H        0.8730     8.9670     0.6740 H     1 <1>   0.0800 
 35 H        2.2030     8.4450     1.6680 H     1 <1>   0.0800 
 36 H        4.7540     8.2460    -1.1240 H     1 <1>   0.0000 
 37 H        4.2090     7.2900     0.3170 H     1 <1>   0.0000 
 38 H        2.9170    10.7320     0.6370 H     1 <1>   0.0000 
 39 H        3.8670    10.6150    -0.9020 H     1 <1>   0.0000 
 40 H        1.9250     7.7020    -2.1050 H     1 <1>   0.0800 
 41 H        2.8690     9.1010    -2.5480 H     1 <1>   0.0800 
 42 H        1.2560     9.2990    -1.9040 H     1 <1>   0.0800 
@<TRIPOS>BOND
  1   1   2  2   
  2   2   3  am  
  3   2   4  1   
  4   3   5  1   
  5   3  23  1   
  6   4   6  1   
  7   4  24  1   
  8   4  25  1   
  9   5   7  1   
 10   5   8  1   
 11   5  26  1   
 12   6   8  1   
 13   7   9  ar  
 14   7  10  ar  
 15   8  11  1   
 16   8  27  1   
 17   9  12  ar  
 18   9  28  1   
 19  10  13  ar  
 20  10  29  1   
 21  11  14  2   
 22  11  15  am  
 23  12  16  ar  
 24  12  30  1   
 25  13  16  ar  
 26  13  31  1   
 27  15  17  1   
 28  15  32  1   
 29  16  33  1   
 30  17  18  1   
 31  17  34  1   
 32  17  35  1   
 33  18  19  1   
 34  18  20  1   
 35  18  21  1   
 36  19  22  1   
 37  19  36  1   
 38  19  37  1   
 39  20  22  1   
 40  20  38  1   
 41  20  39  1   
 42  21  40  1   
 43  21  41  1   
 44  21  42  1   
@<TRIPOS>SUBSTRUCTURE
  1 ****   8 GROUP 4 **** **** 0

# MOE 2024.06 (io_trps.svl 2023.06)
