@<TRIPOS>MOLECULE
NONAME
40 42 1 0 0 
SMALL
USER_CHARGES


@<TRIPOS>ATOM
  1 CL      -2.3480    -0.8750    -2.3550 Cl    1 <1>  -0.1770 
  2 C       -1.9760     0.4790    -1.3090 C.ar  1 <1>   0.1770 
  3 C       -1.4870     1.6510    -1.8630 C.ar  1 <1>   0.1770 
  4 C       -2.1840     0.3710     0.0640 C.ar  1 <1>   0.0860 
  5 CL      -1.2390     1.7870    -3.5880 Cl    1 <1>  -0.1770 
  6 C       -1.1890     2.7410    -1.0670 C.ar  1 <1>  -0.1500 
  7 C       -2.6930    -0.8390     0.6670 C.2   1 <1>   0.5440 
  8 C       -1.8720     1.4790     0.8540 C.ar  1 <1>  -0.1500 
  9 C       -1.3830     2.6510     0.3010 C.ar  1 <1>  -0.1500 
 10 O       -1.9150    -1.5380     1.2880 O.2   1 <1>  -0.5700 
 11 N       -4.0240    -1.2070     0.5940 N.am  1 <1>  -0.6600 
 12 C       -5.0500    -0.3780    -0.1090 C.3   1 <1>   0.2200 
 13 C       -4.4630    -2.4990     1.2120 C.3   1 <1>   0.0600 
 14 C       -5.9060    -1.1570    -1.1050 C.3   1 <1>  -0.1600 
 15 C       -6.0520     0.2560     0.8490 C.3   1 <1>  -0.1600 
 16 C       -7.1410    -0.2720    -1.3130 C.3   1 <1>  -0.0800 
 17 C       -7.2760     0.5770    -0.0220 C.3   1 <1>  -0.0800 
 18 C       -8.3910    -1.0770    -1.7260 C.3   1 <1>   0.1400 
 19 C       -8.6110     0.3830     0.7230 C.3   1 <1>  -0.0990 
 20 N       -9.6130    -0.3140    -1.4000 N.am  1 <1>  -0.7300 
 21 C       -9.7660     0.3810    -0.2540 C.2   1 <1>   0.5690 
 22 O      -10.7830     0.9740    -0.0070 O.2   1 <1>  -0.5700 
 23 H       -0.8090     3.6440    -1.5140 H     1 <1>   0.1500 
 24 H       -2.0140     1.4080     1.9200 H     1 <1>   0.1500 
 25 H       -1.1500     3.4910     0.9350 H     1 <1>   0.1500 
 26 H       -4.5790     0.4200    -0.6540 H     1 <1>   0.0800 
 27 H       -5.4960    -2.4600     1.5040 H     1 <1>   0.0800 
 28 H       -3.8750    -2.7150     2.0870 H     1 <1>   0.0800 
 29 H       -4.3260    -3.2970     0.5030 H     1 <1>   0.0800 
 30 H       -5.3780    -1.3260    -2.0270 H     1 <1>   0.0800 
 31 H       -6.2090    -2.1000    -0.6890 H     1 <1>   0.0800 
 32 H       -6.3210    -0.4390     1.6220 H     1 <1>   0.0800 
 33 H       -5.6490     1.1450     1.3000 H     1 <1>   0.0800 
 34 H       -6.9200     0.4080    -2.1180 H     1 <1>   0.0800 
 35 H       -7.2200     1.6120    -0.3180 H     1 <1>   0.0800 
 36 H       -8.4270    -2.0120    -1.1930 H     1 <1>   0.0800 
 37 H       -8.3600    -1.2880    -2.7820 H     1 <1>   0.0800 
 38 H       -8.7510     1.1670     1.4440 H     1 <1>   0.0800 
 39 H       -8.6220    -0.5590     1.2390 H     1 <1>   0.0800 
 40 H      -10.4080    -0.3470    -2.0420 H     1 <1>   0.3700 
@<TRIPOS>BOND
  1   1   2  1   
  2   2   3  ar  
  3   2   4  ar  
  4   3   5  1   
  5   3   6  ar  
  6   4   7  1   
  7   4   8  ar  
  8   6   9  ar  
  9   6  23  1   
 10   7  10  2   
 11   7  11  am  
 12   8   9  ar  
 13   8  24  1   
 14   9  25  1   
 15  11  12  1   
 16  11  13  1   
 17  12  14  1   
 18  12  15  1   
 19  12  26  1   
 20  13  27  1   
 21  13  28  1   
 22  13  29  1   
 23  14  16  1   
 24  14  30  1   
 25  14  31  1   
 26  15  17  1   
 27  15  32  1   
 28  15  33  1   
 29  16  17  1   
 30  16  18  1   
 31  16  34  1   
 32  17  19  1   
 33  17  35  1   
 34  18  20  1   
 35  18  36  1   
 36  18  37  1   
 37  19  21  1   
 38  19  38  1   
 39  19  39  1   
 40  20  21  am  
 41  20  40  1   
 42  21  22  2   
@<TRIPOS>SUBSTRUCTURE
  1 ****  12 GROUP 4 **** **** 0

# MOE 2024.06 (io_trps.svl 2023.06)
