@<TRIPOS>MOLECULE
NONAME
41 43 1 0 0 
SMALL
USER_CHARGES


@<TRIPOS>ATOM
  1 CL      -1.1830    -0.5270    -1.5240 Cl    1 <1>  -0.1770 
  2 C       -2.1700     0.5490    -0.5650 C.ar  1 <1>   0.1770 
  3 C       -3.0690     0.0200     0.3540 C.ar  1 <1>  -0.1440 
  4 C       -2.0390     1.9110    -0.7530 C.ar  1 <1>  -0.1500 
  5 C       -3.8570     0.8850     1.1060 C.ar  1 <1>  -0.1500 
  6 C       -3.1850    -1.4810     0.5420 C.3   1 <1>   0.4870 
  7 C       -2.8370     2.7420     0.0080 C.ar  1 <1>   0.1900 
  8 C       -3.7430     2.2560     0.9330 C.ar  1 <1>  -0.1500 
  9 N       -3.8080    -2.0940    -0.6650 N.4   1 <1>  -0.9590 
 10 F       -2.7350     4.0320    -0.1540 F     1 <1>  -0.1900 
 11 C       -5.2150    -1.6150    -0.8580 C.3   1 <1>   0.3430 
 12 C       -3.8780    -3.5820    -0.5180 C.3   1 <1>   0.3430 
 13 C       -6.1030    -2.6790    -0.2070 C.3   1 <1>   0.2000 
 14 C       -5.3620    -3.9670    -0.5610 C.3   1 <1>  -0.0800 
 15 O       -6.0840    -2.4840     1.1720 O.3   1 <1>  -0.6800 
 16 C       -5.6900    -5.2120     0.2880 C.3   1 <1>   0.0200 
 17 C       -4.7380    -6.3430    -0.0510 C.2   1 <1>  -0.0400 
 18 O       -4.5070    -6.6440    -1.3000 O.3   1 <1>  -0.0190 
 19 C       -4.0010    -7.1610     0.7150 C.2   1 <1>  -0.1500 
 20 N       -3.6420    -7.6060    -1.4130 N.2   1 <1>  -0.4100 
 21 C       -3.3260    -7.9470    -0.2160 C.2   1 <1>   0.1080 
 22 C       -2.3510    -9.0540     0.1240 C.3   1 <1>  -0.0590 
 23 H       -1.3420     2.3160    -1.4640 H     1 <1>   0.1500 
 24 H       -4.5600     0.5050     1.8320 H     1 <1>   0.1500 
 25 H       -3.7850    -1.6940     1.4130 H     1 <1>   0.0800 
 26 H       -2.2020    -1.8950     0.6980 H     1 <1>   0.0800 
 27 H       -4.3420     2.9440     1.5050 H     1 <1>   0.1500 
 28 H       -3.2250    -1.8360    -1.4750 H     1 <1>   0.4500 
 29 H       -5.3870    -0.6440    -0.4250 H     1 <1>   0.0800 
 30 H       -5.4360    -1.5730    -1.9120 H     1 <1>   0.0800 
 31 H       -3.3380    -4.0820    -1.3070 H     1 <1>   0.0800 
 32 H       -3.4570    -3.8810     0.4290 H     1 <1>   0.0800 
 33 H       -7.1210    -2.6430    -0.5590 H     1 <1>   0.0800 
 34 H       -5.5900    -4.2040    -1.5870 H     1 <1>   0.0800 
 35 H       -6.8540    -2.9160     1.6010 H     1 <1>   0.4000 
 36 H       -6.6980    -5.5320     0.0880 H     1 <1>   0.0800 
 37 H       -5.6050    -5.0030     1.3390 H     1 <1>   0.0800 
 38 H       -3.9180    -7.2310     1.7840 H     1 <1>   0.1500 
 39 H       -1.5460    -8.6660     0.7190 H     1 <1>   0.0800 
 40 H       -1.9450    -9.4760    -0.7780 H     1 <1>   0.0800 
 41 H       -2.8560    -9.8290     0.6710 H     1 <1>   0.0800 
@<TRIPOS>BOND
  1   1   2  1   
  2   2   3  ar  
  3   2   4  ar  
  4   3   5  ar  
  5   3   6  1   
  6   4   7  ar  
  7   4  23  1   
  8   5   8  ar  
  9   5  24  1   
 10   6   9  1   
 11   6  25  1   
 12   6  26  1   
 13   7   8  ar  
 14   7  10  1   
 15   8  27  1   
 16   9  11  1   
 17   9  12  1   
 18   9  28  1   
 19  11  13  1   
 20  11  29  1   
 21  11  30  1   
 22  12  14  1   
 23  12  31  1   
 24  12  32  1   
 25  13  14  1   
 26  13  15  1   
 27  13  33  1   
 28  14  16  1   
 29  14  34  1   
 30  15  35  1   
 31  16  17  1   
 32  16  36  1   
 33  16  37  1   
 34  17  18  1   
 35  17  19  2   
 36  18  20  1   
 37  19  21  1   
 38  19  38  1   
 39  20  21  2   
 40  21  22  1   
 41  22  39  1   
 42  22  40  1   
 43  22  41  1   
@<TRIPOS>SUBSTRUCTURE
  1 ****   9 GROUP 4 **** **** 0

# MOE 2024.06 (io_trps.svl 2023.06)
