@<TRIPOS>MOLECULE
NONAME
51 52 1 0 0 
SMALL
USER_CHARGES


@<TRIPOS>ATOM
  1 O       -1.9890    -0.7300     0.2250 O.2   1 <1>  -0.5700 
  2 C       -2.9150     0.0310     0.4130 C.2   1 <1>   0.7060 
  3 O       -3.8550     0.1380    -0.5320 O.3   1 <1>  -0.2320 
  4 C       -3.0530     0.8170     1.5970 C.2   1 <1>  -0.1360 
  5 C       -4.9300     0.9510    -0.4060 C.ar  1 <1>   0.0830 
  6 C       -4.1060     1.6430     1.7710 C.2   1 <1>  -0.1780 
  7 C       -5.0970     1.7280     0.7470 C.ar  1 <1>   0.0280 
  8 C       -5.8560     0.9970    -1.4330 C.ar  1 <1>  -0.1500 
  9 C       -6.2240     2.5410     0.8360 C.ar  1 <1>  -0.1500 
 10 C       -6.9750     1.8130    -1.3290 C.ar  1 <1>   0.0830 
 11 C       -7.1640     2.5840    -0.1800 C.ar  1 <1>  -0.1430 
 12 O       -7.9100     1.8970    -2.3070 O.3   1 <1>  -0.3630 
 13 C       -8.4080     3.4700    -0.0490 C.3   1 <1>   0.3430 
 14 C       -7.7600     1.2440    -3.5480 C.3   1 <1>   0.0400 
 15 O       -8.8650     3.3830     1.2890 O.3   1 <1>  -0.4300 
 16 C       -8.1260     4.9610    -0.3820 C.3   1 <1>   0.2000 
 17 C       -9.8840     2.6090     1.6570 C.2   1 <1>   0.7060 
 18 O       -7.2280     5.0510    -1.4540 O.3   1 <1>  -0.6800 
 19 C       -9.4000     5.7970    -0.7290 C.3   1 <1>   0.2800 
 20 O      -10.5470     3.0050     2.5870 O.2   1 <1>  -0.5700 
 21 C      -10.2070     1.3880     0.9380 C.2   1 <1>  -0.1240 
 22 O       -9.9580     5.2970    -1.8900 O.3   1 <1>  -0.6800 
 23 C      -10.5070     5.7500     0.3280 C.3   1 <1>  -0.2400 
 24 C       -9.0520     7.2630    -1.0190 C.3   1 <1>  -0.2400 
 25 C       -9.3170     0.4050     0.6810 C.2   1 <1>  -0.2880 
 26 C      -11.6730     1.3240     0.5110 C.3   1 <1>  -0.1020 
 27 C       -9.4830    -0.9110    -0.0640 C.3   1 <1>  -0.1020 
 28 H       -2.2740     0.7050     2.3270 H     1 <1>   0.1500 
 29 H       -4.2340     2.2460     2.6540 H     1 <1>   0.1500 
 30 H       -5.6780     0.3870    -2.2970 H     1 <1>   0.1500 
 31 H       -6.3580     3.1420     1.7190 H     1 <1>   0.1500 
 32 H       -9.1950     3.1200    -0.6930 H     1 <1>   0.0800 
 33 H       -8.6030     1.5010    -4.1640 H     1 <1>   0.0800 
 34 H       -7.7370     0.1820    -3.3840 H     1 <1>   0.0800 
 35 H       -6.8510     1.5830    -4.0130 H     1 <1>   0.0800 
 36 H       -7.6280     5.4010     0.4630 H     1 <1>   0.0800 
 37 H       -7.7010     4.7580    -2.2610 H     1 <1>   0.4000 
 38 H      -10.6950     5.8740    -2.1640 H     1 <1>   0.4000 
 39 H      -10.1020     5.9910     1.2950 H     1 <1>   0.0800 
 40 H      -10.9510     4.7740     0.3810 H     1 <1>   0.0800 
 41 H      -11.2840     6.4590     0.1070 H     1 <1>   0.0800 
 42 H       -8.5940     7.7030    -0.1520 H     1 <1>   0.0800 
 43 H       -9.9300     7.8330    -1.2610 H     1 <1>   0.0800 
 44 H       -8.3550     7.3380    -1.8350 H     1 <1>   0.0800 
 45 H       -8.3020     0.4980     1.0340 H     1 <1>   0.1500 
 46 H      -11.9140     2.1830    -0.0890 H     1 <1>   0.0800 
 47 H      -12.3040     1.3330     1.3830 H     1 <1>   0.0800 
 48 H      -11.9090     0.4480    -0.0580 H     1 <1>   0.0800 
 49 H       -8.7980    -0.9390    -0.8930 H     1 <1>   0.0800 
 50 H      -10.4740    -1.0580    -0.4460 H     1 <1>   0.0800 
 51 H       -9.2520    -1.7290     0.5940 H     1 <1>   0.0800 
@<TRIPOS>BOND
  1   1   2  2   
  2   2   3  1   
  3   2   4  1   
  4   3   5  1   
  5   4   6  2   
  6   4  28  1   
  7   5   7  ar  
  8   5   8  ar  
  9   6   7  1   
 10   6  29  1   
 11   7   9  ar  
 12   8  10  ar  
 13   8  30  1   
 14   9  11  ar  
 15   9  31  1   
 16  10  11  ar  
 17  10  12  1   
 18  11  13  1   
 19  12  14  1   
 20  13  15  1   
 21  13  16  1   
 22  13  32  1   
 23  14  33  1   
 24  14  34  1   
 25  14  35  1   
 26  15  17  1   
 27  16  18  1   
 28  16  19  1   
 29  16  36  1   
 30  17  20  2   
 31  17  21  1   
 32  18  37  1   
 33  19  22  1   
 34  19  23  1   
 35  19  24  1   
 36  21  25  2   
 37  21  26  1   
 38  22  38  1   
 39  23  39  1   
 40  23  40  1   
 41  23  41  1   
 42  24  42  1   
 43  24  43  1   
 44  24  44  1   
 45  25  27  1   
 46  25  45  1   
 47  26  46  1   
 48  26  47  1   
 49  26  48  1   
 50  27  49  1   
 51  27  50  1   
 52  27  51  1   
@<TRIPOS>SUBSTRUCTURE
  1 ****  11 GROUP 4 **** **** 0

# MOE 2024.06 (io_trps.svl 2023.06)
