@<TRIPOS>MOLECULE
NONAME
44 45 1 0 0 
SMALL
USER_CHARGES


@<TRIPOS>ATOM
  1 S        0.1480     0.1660     0.4870 S.o2  1 <1>   1.3330 
  2 O       -0.8830    -0.8160     0.2390 O.2   1 <1>  -0.6500 
  3 O        0.5500     0.4520     1.8450 O.2   1 <1>  -0.6500 
  4 N        1.5300    -0.3110    -0.3790 N.am  1 <1>  -0.8490 
  5 C       -0.3150     1.7120    -0.2950 C.3   1 <1>  -0.0550 
  6 C        1.2170    -0.9990    -1.6370 C.3   1 <1>   0.1160 
  7 C        2.4300    -1.1390     0.4290 C.3   1 <1>   0.1160 
  8 C        0.8000     2.7810    -0.3010 C.3   1 <1>  -0.0800 
  9 C        0.4660     4.0300    -1.1220 C.3   1 <1>   0.2000 
 10 C        1.1660     3.3260     1.0870 C.3   1 <1>   0.1400 
 11 O       -0.8310     4.4290    -0.8370 O.3   1 <1>  -0.6800 
 12 C        1.4200     5.0880    -0.5770 C.3   1 <1>   0.1400 
 13 N        1.5720     4.7350     0.8570 N.am  1 <1>  -0.6600 
 14 C        2.1290     5.5140     1.8370 C.2   1 <1>   0.5690 
 15 O        2.2500     5.1040     2.9660 O.2   1 <1>  -0.5700 
 16 C        2.6040     6.9300     1.5390 C.3   1 <1>   0.0440 
 17 C        3.6960     6.9930     0.4740 C.ar  1 <1>  -0.1440 
 18 C        3.5740     7.8590    -0.6070 C.ar  1 <1>  -0.1500 
 19 C        4.8170     6.1770     0.5840 C.ar  1 <1>  -0.1500 
 20 C        4.5590     7.9080    -1.5780 C.ar  1 <1>  -0.1500 
 21 C        5.8090     6.2170    -0.3810 C.ar  1 <1>  -0.1500 
 22 C        5.6590     7.0830    -1.4470 C.ar  1 <1>   0.1900 
 23 F        6.5900     7.1230    -2.3620 F     1 <1>  -0.1900 
 24 H       -0.5980     1.5120    -1.3100 H     1 <1>   0.0800 
 25 H       -1.1810     2.1030     0.2030 H     1 <1>   0.0800 
 26 H        2.1230    -1.1980    -2.1840 H     1 <1>   0.0800 
 27 H        0.5790    -0.3850    -2.2480 H     1 <1>   0.0800 
 28 H        0.7140    -1.9320    -1.4410 H     1 <1>   0.0800 
 29 H        3.2980    -1.4170    -0.1430 H     1 <1>   0.0800 
 30 H        1.9220    -2.0310     0.7600 H     1 <1>   0.0800 
 31 H        2.7600    -0.5890     1.2950 H     1 <1>   0.0800 
 32 H        1.6920     2.3500    -0.7210 H     1 <1>   0.0800 
 33 H        0.5560     3.8840    -2.1850 H     1 <1>   0.0800 
 34 H        1.9720     2.7650     1.5330 H     1 <1>   0.0800 
 35 H        0.3180     3.3080     1.7520 H     1 <1>   0.0800 
 36 H       -0.8710     4.7120     0.1000 H     1 <1>   0.4000 
 37 H        1.0330     6.0820    -0.7130 H     1 <1>   0.0800 
 38 H        2.3780     5.0010    -1.0610 H     1 <1>   0.0800 
 39 H        1.7530     7.5130     1.2420 H     1 <1>   0.0800 
 40 H        2.9870     7.3600     2.4470 H     1 <1>   0.0800 
 41 H        2.7140     8.5020    -0.6980 H     1 <1>   0.1500 
 42 H        4.9200     5.5080     1.4230 H     1 <1>   0.1500 
 43 H        4.4820     8.5710    -2.4210 H     1 <1>   0.1500 
 44 H        6.6810     5.5930    -0.3100 H     1 <1>   0.1500 
@<TRIPOS>BOND
  1   1   2  2   
  2   1   3  2   
  3   1   4  am  
  4   1   5  1   
  5   4   6  1   
  6   4   7  1   
  7   5   8  1   
  8   5  24  1   
  9   5  25  1   
 10   6  26  1   
 11   6  27  1   
 12   6  28  1   
 13   7  29  1   
 14   7  30  1   
 15   7  31  1   
 16   8   9  1   
 17   8  10  1   
 18   8  32  1   
 19   9  11  1   
 20   9  12  1   
 21   9  33  1   
 22  10  13  1   
 23  10  34  1   
 24  10  35  1   
 25  11  36  1   
 26  12  13  1   
 27  12  37  1   
 28  12  38  1   
 29  13  14  am  
 30  14  15  2   
 31  14  16  1   
 32  16  17  1   
 33  16  39  1   
 34  16  40  1   
 35  17  18  ar  
 36  17  19  ar  
 37  18  20  ar  
 38  18  41  1   
 39  19  21  ar  
 40  19  42  1   
 41  20  22  ar  
 42  20  43  1   
 43  21  22  ar  
 44  21  44  1   
 45  22  23  1   
@<TRIPOS>SUBSTRUCTURE
  1 ****  13 GROUP 4 **** **** 0

# MOE 2024.06 (io_trps.svl 2023.06)
