@<TRIPOS>MOLECULE
NONAME
34 34 1 0 0 
SMALL
USER_CHARGES


@<TRIPOS>ATOM
  1 S        0.2200     0.4930     1.2210 S.o2  1 <1>   1.0900 
  2 O       -0.1940     1.6550     1.9770 O.2   1 <1>  -0.6500 
  3 O        0.0120    -0.8180     1.7870 O.2   1 <1>  -0.6500 
  4 C        1.9590     0.6740     0.9200 C.3   1 <1>   0.0060 
  5 C       -0.5670     0.5570    -0.3990 C.3   1 <1>  -0.0550 
  6 C        2.1790     1.9300     0.1390 C.2   1 <1>   0.5690 
  7 C       -0.1240    -0.5400    -1.3830 C.3   1 <1>  -0.2400 
  8 O        2.5750     1.8140    -0.9930 O.2   1 <1>  -0.5700 
  9 N        1.8900     3.1320     0.7200 N.am  1 <1>  -0.4940 
 10 C        1.9320     4.4400     0.1830 C.2   1 <1>  -0.0880 
 11 N        2.9060     5.0090    -0.5900 N.pl3 1 <1>   0.3140 
 12 C        0.9910     5.3950     0.3740 C.2   1 <1>  -0.1810 
 13 N        2.5980     6.2940    -0.8890 N.2   1 <1>  -0.7070 
 14 C        4.2120     4.4600    -1.0250 C.3   1 <1>   0.0960 
 15 C        1.4580     6.5080    -0.3130 C.2   1 <1>   0.1390 
 16 C       -0.3110     5.3270     1.1540 C.3   1 <1>  -0.0590 
 17 C        5.1460     4.1930     0.1640 C.3   1 <1>  -0.2400 
 18 H        2.3320    -0.1620     0.3630 H     1 <1>   0.0800 
 19 H        2.4940     0.7310     1.8470 H     1 <1>   0.0800 
 20 H       -0.3880     1.5160    -0.8510 H     1 <1>   0.0800 
 21 H       -1.6290     0.4710    -0.2620 H     1 <1>   0.0800 
 22 H        0.9190    -0.4380    -1.6280 H     1 <1>   0.0800 
 23 H       -0.6920    -0.4660    -2.2930 H     1 <1>   0.0800 
 24 H       -0.2900    -1.5140    -0.9550 H     1 <1>   0.0800 
 25 H        1.3370     3.0680     1.5860 H     1 <1>   0.3700 
 26 H        4.6690     5.1820    -1.6770 H     1 <1>   0.0800 
 27 H        4.0480     3.5680    -1.5950 H     1 <1>   0.0800 
 28 H        0.9410     7.4510    -0.3670 H     1 <1>   0.1500 
 29 H       -0.4950     4.3310     1.5120 H     1 <1>   0.0800 
 30 H       -1.1300     5.6190     0.5210 H     1 <1>   0.0800 
 31 H       -0.2670     5.9940     1.9960 H     1 <1>   0.0800 
 32 H        5.3040     5.1010     0.7180 H     1 <1>   0.0800 
 33 H        6.0960     3.8410    -0.1960 H     1 <1>   0.0800 
 34 H        4.7290     3.4450     0.8130 H     1 <1>   0.0800 
@<TRIPOS>BOND
  1   1   2  2   
  2   1   3  2   
  3   1   4  1   
  4   1   5  1   
  5   4   6  1   
  6   4  18  1   
  7   4  19  1   
  8   5   7  1   
  9   5  20  1   
 10   5  21  1   
 11   6   8  2   
 12   6   9  am  
 13   7  22  1   
 14   7  23  1   
 15   7  24  1   
 16   9  10  1   
 17   9  25  1   
 18  10  11  1   
 19  10  12  2   
 20  11  13  1   
 21  11  14  1   
 22  12  15  1   
 23  12  16  1   
 24  13  15  2   
 25  14  17  1   
 26  14  26  1   
 27  14  27  1   
 28  15  28  1   
 29  16  29  1   
 30  16  30  1   
 31  16  31  1   
 32  17  32  1   
 33  17  33  1   
 34  17  34  1   
@<TRIPOS>SUBSTRUCTURE
  1 ****   9 GROUP 4 **** **** 0

# MOE 2024.06 (io_trps.svl 2023.06)
