@<TRIPOS>MOLECULE
NONAME
47 50 1 0 0 
SMALL
USER_CHARGES


@<TRIPOS>ATOM
  1 S        0.7590    -0.2210    -1.7050 S.o2  1 <1>   1.4470 
  2 O        0.5140     0.3010    -3.0280 O.2   1 <1>  -0.6500 
  3 O        1.8610    -1.1380    -1.4950 O.2   1 <1>  -0.6500 
  4 N        1.1650     1.1110    -0.7360 N.am  1 <1>  -0.8490 
  5 C       -0.7810    -0.8390    -0.9750 C.ar  1 <1>  -0.0090 
  6 C        1.4140     0.8090     0.7030 C.3   1 <1>   0.2760 
  7 C        2.0140     2.0970    -1.4350 C.3   1 <1>   0.1960 
  8 C       -0.7950    -2.0150    -0.2300 C.ar  1 <1>  -0.1500 
  9 C       -1.9760    -0.1250    -1.1180 C.ar  1 <1>  -0.1500 
 10 C        1.2330     2.0550     1.5840 C.3   1 <1>   0.1200 
 11 C        2.7750     0.1260     1.0190 C.3   1 <1>   0.3430 
 12 C        3.1700     2.7070    -0.6270 C.3   1 <1>  -0.0800 
 13 C       -1.9790    -2.4240     0.3520 C.ar  1 <1>   0.0820 
 14 C       -3.1620    -0.5490    -0.5370 C.ar  1 <1>  -0.1500 
 15 O        2.4170     2.7890     1.6580 O.3   1 <1>  -0.5600 
 16 N        3.8180     0.2930    -0.0480 N.4   1 <1>  -0.9590 
 17 C        2.6960     3.5740     0.5480 C.3   1 <1>   0.1200 
 18 C        4.2740     1.7100    -0.2260 C.3   1 <1>   0.3430 
 19 O       -2.1950    -3.5090     1.1190 O.3   1 <1>  -0.2320 
 20 C       -3.1500    -1.7150     0.2100 C.ar  1 <1>   0.1170 
 21 C        4.9730    -0.6190     0.1910 C.3   1 <1>   0.2630 
 22 C       -3.4860    -3.4900     1.4590 C.2   1 <1>   0.7800 
 23 N       -4.1140    -2.4010     0.9150 N.am  1 <1>  -0.4770 
 24 O       -3.9890    -4.3420     2.1650 O.2   1 <1>  -0.5700 
 25 C       -5.5460    -2.0520     1.0390 C.3   1 <1>   0.0600 
 26 H        0.6440     0.1330     1.0310 H     1 <1>   0.0800 
 27 H        2.4430     1.6490    -2.3170 H     1 <1>   0.0800 
 28 H        1.3740     2.8920    -1.7840 H     1 <1>   0.0800 
 29 H        0.0920    -2.6110    -0.1010 H     1 <1>   0.1500 
 30 H       -1.9740     0.7830    -1.7020 H     1 <1>   0.1500 
 31 H        1.0020     1.7490     2.5900 H     1 <1>   0.0800 
 32 H        0.4300     2.6800     1.2310 H     1 <1>   0.0800 
 33 H        2.5860    -0.9260     1.1510 H     1 <1>   0.0800 
 34 H        3.1480     0.5040     1.9580 H     1 <1>   0.0800 
 35 H        3.6430     3.4030    -1.2960 H     1 <1>   0.0800 
 36 H       -4.0750     0.0080    -0.6580 H     1 <1>   0.1500 
 37 H        3.3440    -0.0270    -0.9170 H     1 <1>   0.4500 
 38 H        1.8270     4.1580     0.2940 H     1 <1>   0.0800 
 39 H        3.4800     4.2520     0.8400 H     1 <1>   0.0800 
 40 H        4.7370     2.0550     0.6850 H     1 <1>   0.0800 
 41 H        5.0280     1.7250    -0.9960 H     1 <1>   0.0800 
 42 H        5.4710    -0.3610     1.1120 H     1 <1>   0.0800 
 43 H        5.6810    -0.5450    -0.6190 H     1 <1>   0.0800 
 44 H        4.6340    -1.6400     0.2530 H     1 <1>   0.0800 
 45 H       -5.6460    -1.0850     1.4990 H     1 <1>   0.0800 
 46 H       -6.0500    -2.7840     1.6470 H     1 <1>   0.0800 
 47 H       -6.0000    -2.0340     0.0630 H     1 <1>   0.0800 
@<TRIPOS>BOND
  1   1   2  2   
  2   1   3  2   
  3   1   4  am  
  4   1   5  1   
  5   4   6  1   
  6   4   7  1   
  7   5   8  ar  
  8   5   9  ar  
  9   6  10  1   
 10   6  11  1   
 11   6  26  1   
 12   7  12  1   
 13   7  27  1   
 14   7  28  1   
 15   8  13  ar  
 16   8  29  1   
 17   9  14  ar  
 18   9  30  1   
 19  10  15  1   
 20  10  31  1   
 21  10  32  1   
 22  11  16  1   
 23  11  33  1   
 24  11  34  1   
 25  12  17  1   
 26  12  18  1   
 27  12  35  1   
 28  13  19  1   
 29  13  20  ar  
 30  14  20  ar  
 31  14  36  1   
 32  15  17  1   
 33  16  18  1   
 34  16  21  1   
 35  16  37  1   
 36  17  38  1   
 37  17  39  1   
 38  18  40  1   
 39  18  41  1   
 40  19  22  1   
 41  20  23  1   
 42  21  42  1   
 43  21  43  1   
 44  21  44  1   
 45  22  23  am  
 46  22  24  2   
 47  23  25  1   
 48  25  45  1   
 49  25  46  1   
 50  25  47  1   
@<TRIPOS>SUBSTRUCTURE
  1 ****   5 GROUP 4 **** **** 0

# MOE 2024.06 (io_trps.svl 2023.06)
