@<TRIPOS>MOLECULE
NONAME
40 42 1 0 0 
SMALL
USER_CHARGES


@<TRIPOS>ATOM
  1 O        0.1170    -0.6080    -1.2970 O.2   1 <1>  -0.5700 
  2 C       -0.0160    -1.7510    -0.9430 C.2   1 <1>   0.5690 
  3 N       -0.9750    -2.5710    -1.4640 N.am  1 <1>  -0.3680 
  4 C        0.8640    -2.3380     0.1350 C.3   1 <1>  -0.0990 
  5 N       -1.1760    -3.9060    -1.1780 N.2   1 <1>  -0.5120 
  6 C        1.0050    -3.8620    -0.0450 C.3   1 <1>  -0.0990 
  7 C       -0.2980    -4.5630    -0.4880 C.2   1 <1>   0.3890 
  8 C       -0.4150    -5.9700    -0.1190 C.2   1 <1>   0.6300 
  9 O        0.5460    -6.5610     0.3550 O.2   1 <1>  -0.5700 
 10 N       -1.5710    -6.7250    -0.2660 N.am  1 <1>  -0.6600 
 11 C       -2.9380    -6.2180    -0.5620 C.3   1 <1>   0.1400 
 12 C       -1.6070    -8.1960    -0.0620 C.3   1 <1>   0.1400 
 13 C       -3.8690    -7.3370    -0.0980 C.3   1 <1>   0.2000 
 14 C       -3.0540    -8.6100    -0.3490 C.3   1 <1>  -0.0800 
 15 O       -4.0820    -7.1840     1.2650 O.3   1 <1>  -0.6800 
 16 C       -3.5140    -9.8550     0.4310 C.3   1 <1>  -0.0170 
 17 C       -2.6770   -11.0680     0.0530 C.ar  1 <1>  -0.1430 
 18 C       -2.9430   -11.8080    -1.0810 C.ar  1 <1>  -0.1500 
 19 C       -1.6090   -11.4890     0.8190 C.ar  1 <1>  -0.1500 
 20 C       -2.1470   -12.8990    -1.3890 C.ar  1 <1>   0.1600 
 21 C       -0.8750   -12.5940     0.4210 C.ar  1 <1>   0.1600 
 22 N       -1.1180   -13.3090    -0.6660 N.ar  1 <1>  -0.6200 
 23 H       -1.6110    -2.1050    -2.1200 H     1 <1>   0.3700 
 24 H        1.8300    -1.8670     0.1130 H     1 <1>   0.0800 
 25 H        0.4040    -2.1270     1.0820 H     1 <1>   0.0800 
 26 H        1.3630    -4.2780     0.8800 H     1 <1>   0.0800 
 27 H        1.7470    -4.0580    -0.7980 H     1 <1>   0.0800 
 28 H       -3.1480    -5.2930    -0.0520 H     1 <1>   0.0800 
 29 H       -3.0350    -6.0740    -1.6240 H     1 <1>   0.0800 
 30 H       -0.9170    -8.6920    -0.7250 H     1 <1>   0.0800 
 31 H       -1.3380    -8.4150     0.9570 H     1 <1>   0.0800 
 32 H       -4.8230    -7.3290    -0.5970 H     1 <1>   0.0800 
 33 H       -3.1180    -8.8310    -1.4000 H     1 <1>   0.0800 
 34 H       -3.2200    -7.0420     1.7040 H     1 <1>   0.4000 
 35 H       -4.5480   -10.0530     0.2120 H     1 <1>   0.0800 
 36 H       -3.4380    -9.6850     1.4910 H     1 <1>   0.0800 
 37 H       -3.7600   -11.5480    -1.7280 H     1 <1>   0.1500 
 38 H       -1.3370   -10.9690     1.7190 H     1 <1>   0.1500 
 39 H       -2.3690   -13.4650    -2.2770 H     1 <1>   0.1500 
 40 H       -0.0440   -12.9080     1.0300 H     1 <1>   0.1500 
@<TRIPOS>BOND
  1   1   2  2   
  2   2   3  am  
  3   2   4  1   
  4   3   5  1   
  5   3  23  1   
  6   4   6  1   
  7   4  24  1   
  8   4  25  1   
  9   5   7  2   
 10   6   7  1   
 11   6  26  1   
 12   6  27  1   
 13   7   8  1   
 14   8   9  2   
 15   8  10  am  
 16  10  11  1   
 17  10  12  1   
 18  11  13  1   
 19  11  28  1   
 20  11  29  1   
 21  12  14  1   
 22  12  30  1   
 23  12  31  1   
 24  13  14  1   
 25  13  15  1   
 26  13  32  1   
 27  14  16  1   
 28  14  33  1   
 29  15  34  1   
 30  16  17  1   
 31  16  35  1   
 32  16  36  1   
 33  17  18  ar  
 34  17  19  ar  
 35  18  20  ar  
 36  18  37  1   
 37  19  21  ar  
 38  19  38  1   
 39  20  22  ar  
 40  20  39  1   
 41  21  22  ar  
 42  21  40  1   
@<TRIPOS>SUBSTRUCTURE
  1 ****  10 GROUP 4 **** **** 0

# MOE 2024.06 (io_trps.svl 2023.06)
