@<TRIPOS>MOLECULE
NONAME
42 44 1 0 0 
SMALL
USER_CHARGES


@<TRIPOS>ATOM
  1 O        4.9790    -0.9430    -0.7920 O.2   1 <1>  -0.5700 
  2 C        3.9040    -0.8970    -0.2210 C.2   1 <1>   0.7160 
  3 N        2.9550    -0.0510    -0.7500 N.am  1 <1>  -0.6600 
  4 C        3.6840    -1.6410     0.9940 C.2   1 <1>  -0.0860 
  5 C        2.9250     0.2330    -2.2240 C.3   1 <1>   0.1400 
  6 C        2.2600     0.9530     0.0980 C.3   1 <1>   0.1400 
  7 C        2.5210    -2.0240     1.5900 C.2   1 <1>  -0.0100 
  8 C        4.6860    -2.1560     1.8430 C.2   1 <1>  -0.1500 
  9 C        4.1020     1.1190    -2.6940 C.3   1 <1>   0.3430 
 10 C        3.1740     2.1580     0.3650 C.3   1 <1>  -0.1600 
 11 O        2.7460    -2.6890     2.6960 O.3   1 <1>  -0.2800 
 12 C        4.0490    -2.7770     2.8560 C.2   1 <1>  -0.0100 
 13 N        4.6980     1.9060    -1.5720 N.4   1 <1>  -0.9590 
 14 C        3.7550     2.8310    -0.8840 C.3   1 <1>   0.3430 
 15 C        6.0060     2.5260    -1.9090 C.3   1 <1>   0.5230 
 16 C        6.6690     2.9590    -0.6150 C.2   1 <1>  -0.0400 
 17 O        6.7470     2.0790     0.3660 O.3   1 <1>  -0.2800 
 18 C        7.2100     4.1370    -0.2370 C.2   1 <1>  -0.1500 
 19 C        7.3370     2.6660     1.3850 C.2   1 <1>  -0.0400 
 20 C        7.6500     3.9430     1.0780 C.2   1 <1>  -0.1500 
 21 C        7.5630     1.8710     2.6520 C.3   1 <1>  -0.0600 
 22 H        1.9950     0.7100    -2.4800 H     1 <1>   0.0800 
 23 H        2.9590    -0.6990    -2.7630 H     1 <1>   0.0800 
 24 H        1.9780     0.5110     1.0390 H     1 <1>   0.0800 
 25 H        1.3540     1.2730    -0.3890 H     1 <1>   0.0800 
 26 H        1.5030    -1.8640     1.2810 H     1 <1>   0.1500 
 27 H        5.7440    -2.0540     1.6750 H     1 <1>   0.1500 
 28 H        3.7740     1.7710    -3.4860 H     1 <1>   0.0800 
 29 H        4.8580     0.4650    -3.0970 H     1 <1>   0.0800 
 30 H        3.9760     1.8670     1.0220 H     1 <1>   0.0800 
 31 H        2.5970     2.8920     0.8980 H     1 <1>   0.0800 
 32 H        4.4330    -3.3010     3.7140 H     1 <1>   0.1500 
 33 H        4.9540     1.1870    -0.8670 H     1 <1>   0.4500 
 34 H        4.2810     3.7200    -0.5720 H     1 <1>   0.0800 
 35 H        2.9640     3.1280    -1.5530 H     1 <1>   0.0800 
 36 H        5.8740     3.3710    -2.5630 H     1 <1>   0.0800 
 37 H        6.6390     1.8010    -2.3940 H     1 <1>   0.0800 
 38 H        7.3110     5.0580    -0.7850 H     1 <1>   0.1500 
 39 H        8.1380     4.6820     1.6900 H     1 <1>   0.1500 
 40 H        6.6220     1.5350     3.0470 H     1 <1>   0.0800 
 41 H        8.0550     2.4770     3.3900 H     1 <1>   0.0800 
 42 H        8.1780     1.0150     2.4390 H     1 <1>   0.0800 
@<TRIPOS>BOND
  1   1   2  2   
  2   2   3  am  
  3   2   4  1   
  4   3   5  1   
  5   3   6  1   
  6   4   7  2   
  7   4   8  1   
  8   5   9  1   
  9   5  22  1   
 10   5  23  1   
 11   6  10  1   
 12   6  24  1   
 13   6  25  1   
 14   7  11  1   
 15   7  26  1   
 16   8  12  2   
 17   8  27  1   
 18   9  13  1   
 19   9  28  1   
 20   9  29  1   
 21  10  14  1   
 22  10  30  1   
 23  10  31  1   
 24  11  12  1   
 25  12  32  1   
 26  13  14  1   
 27  13  15  1   
 28  13  33  1   
 29  14  34  1   
 30  14  35  1   
 31  15  16  1   
 32  15  36  1   
 33  15  37  1   
 34  16  17  1   
 35  16  18  2   
 36  17  19  1   
 37  18  20  1   
 38  18  38  1   
 39  19  20  2   
 40  19  21  1   
 41  20  39  1   
 42  21  40  1   
 43  21  41  1   
 44  21  42  1   
@<TRIPOS>SUBSTRUCTURE
  1 ****   2 GROUP 4 **** **** 0

# MOE 2024.06 (io_trps.svl 2023.06)
