@<TRIPOS>MOLECULE
NONAME
46 48 1 0 0 
SMALL
USER_CHARGES


@<TRIPOS>ATOM
  1 O       -2.2980     0.6450    -2.0850 O.2   1 <1>  -0.5700 
  2 C       -2.0700     0.8780    -0.9140 C.2   1 <1>   0.5440 
  3 N       -2.0870    -0.1700    -0.0390 N.am  1 <1>  -0.7300 
  4 C       -1.7840     2.2290    -0.4610 C.ar  1 <1>   0.0860 
  5 C       -2.3700    -1.5780    -0.4000 C.3   1 <1>   0.2200 
  6 C       -1.9590     2.6220     0.8700 C.ar  1 <1>  -0.1500 
  7 C       -1.3170     3.1980    -1.3510 C.ar  1 <1>  -0.1500 
  8 C       -3.8010    -1.9090    -0.0170 C.3   1 <1>  -0.0800 
  9 C       -1.5810    -2.5080     0.5140 C.3   1 <1>   0.1200 
 10 C       -1.6710     3.9090     1.2850 C.ar  1 <1>  -0.1500 
 11 C       -1.0280     4.4880    -0.9440 C.ar  1 <1>  -0.1500 
 12 C       -3.6660    -2.2710     1.4670 C.3   1 <1>   0.1200 
 13 C       -4.3540    -3.0760    -0.8570 C.3   1 <1>  -0.0160 
 14 O       -2.3280    -2.6190     1.6880 O.3   1 <1>  -0.5600 
 15 C       -1.2020     4.8530     0.3870 C.ar  1 <1>   0.0830 
 16 C       -5.8000    -3.3830    -0.4970 C.ar  1 <1>  -0.1430 
 17 O       -0.9440     6.0870     0.8730 O.3   1 <1>  -0.3630 
 18 C       -6.8350    -2.5660    -0.9030 C.ar  1 <1>  -0.1500 
 19 C       -6.1540    -4.4880     0.2510 C.ar  1 <1>  -0.1500 
 20 C       -0.4740     7.1270     0.0480 C.3   1 <1>   0.1200 
 21 C       -8.1360    -2.8800    -0.5470 C.ar  1 <1>   0.1600 
 22 C       -7.4870    -4.7130     0.5520 C.ar  1 <1>   0.1600 
 23 C       -0.2940     8.3710     0.9120 C.3   1 <1>  -0.2400 
 24 N       -8.4870    -3.9340     0.1730 N.ar  1 <1>  -0.6200 
 25 H       -1.8710    -0.0260     0.9490 H     1 <1>   0.3700 
 26 H       -2.1540    -1.7500    -1.4420 H     1 <1>   0.0800 
 27 H       -2.3320     1.9190     1.5910 H     1 <1>   0.1500 
 28 H       -1.1800     2.9270    -2.3850 H     1 <1>   0.1500 
 29 H       -4.4440    -1.0560    -0.1500 H     1 <1>   0.0800 
 30 H       -0.5990    -2.1330     0.7410 H     1 <1>   0.0800 
 31 H       -1.5040    -3.4900     0.0820 H     1 <1>   0.0800 
 32 H       -1.8100     4.1960     2.3130 H     1 <1>   0.1500 
 33 H       -0.6700     5.1910    -1.6720 H     1 <1>   0.1500 
 34 H       -4.2940    -3.0930     1.7610 H     1 <1>   0.0800 
 35 H       -3.8840    -1.4180     2.0850 H     1 <1>   0.0800 
 36 H       -3.7520    -3.9570    -0.7170 H     1 <1>   0.0800 
 37 H       -4.3100    -2.8150    -1.9010 H     1 <1>   0.0800 
 38 H       -6.6430    -1.6870    -1.4920 H     1 <1>   0.1500 
 39 H       -5.4070    -5.1770     0.6030 H     1 <1>   0.1500 
 40 H        0.4650     6.8230    -0.3820 H     1 <1>   0.0800 
 41 H       -1.2010     7.3020    -0.7260 H     1 <1>   0.0800 
 42 H       -8.9310    -2.2310    -0.8720 H     1 <1>   0.1500 
 43 H       -7.7440    -5.5790     1.1370 H     1 <1>   0.1500 
 44 H        0.4210     8.1790     1.6910 H     1 <1>   0.0800 
 45 H       -1.2340     8.6560     1.3490 H     1 <1>   0.0800 
 46 H        0.0650     9.1860     0.3090 H     1 <1>   0.0800 
@<TRIPOS>BOND
  1   1   2  2   
  2   2   3  am  
  3   2   4  1   
  4   3   5  1   
  5   3  25  1   
  6   4   6  ar  
  7   4   7  ar  
  8   5   8  1   
  9   5   9  1   
 10   5  26  1   
 11   6  10  ar  
 12   6  27  1   
 13   7  11  ar  
 14   7  28  1   
 15   8  12  1   
 16   8  13  1   
 17   8  29  1   
 18   9  14  1   
 19   9  30  1   
 20   9  31  1   
 21  10  15  ar  
 22  10  32  1   
 23  11  15  ar  
 24  11  33  1   
 25  12  14  1   
 26  12  34  1   
 27  12  35  1   
 28  13  16  1   
 29  13  36  1   
 30  13  37  1   
 31  15  17  1   
 32  16  18  ar  
 33  16  19  ar  
 34  17  20  1   
 35  18  21  ar  
 36  18  38  1   
 37  19  22  ar  
 38  19  39  1   
 39  20  23  1   
 40  20  40  1   
 41  20  41  1   
 42  21  24  ar  
 43  21  42  1   
 44  22  24  ar  
 45  22  43  1   
 46  23  44  1   
 47  23  45  1   
 48  23  46  1   
@<TRIPOS>SUBSTRUCTURE
  1 ****   3 GROUP 4 **** **** 0

# MOE 2024.06 (io_trps.svl 2023.06)
