@<TRIPOS>MOLECULE
NONAME
33 34 1 0 0 
SMALL
USER_CHARGES


@<TRIPOS>ATOM
  1 CL      -0.0070    -0.8500    -1.8480 Cl    1 <1>  -0.1770 
  2 C       -0.1740    -2.3130    -0.9060 C.ar  1 <1>   0.1770 
  3 C        0.9020    -3.1650    -0.7250 C.ar  1 <1>   0.1770 
  4 C       -1.4020    -2.6080    -0.3440 C.ar  1 <1>  -0.1500 
  5 CL       2.4610    -2.8090    -1.4290 Cl    1 <1>  -0.1770 
  6 C        0.7510    -4.3190     0.0210 C.ar  1 <1>  -0.1500 
  7 C       -1.5780    -3.7620     0.4130 C.ar  1 <1>  -0.0090 
  8 C       -0.4830    -4.6090     0.5830 C.ar  1 <1>  -0.1500 
  9 S       -3.1960    -4.1440     1.1470 S.o2  1 <1>   1.4470 
 10 O       -3.1120    -5.4120     1.8370 O.2   1 <1>  -0.6500 
 11 O       -3.6340    -2.9600     1.8530 O.2   1 <1>  -0.6500 
 12 N       -4.1720    -4.3280    -0.2280 N.am  1 <1>  -0.8490 
 13 C       -3.9400    -5.5830    -0.9770 C.3   1 <1>   0.1960 
 14 C       -5.6030    -3.9970    -0.0350 C.3   1 <1>   0.1960 
 15 C       -4.6690    -6.8280    -0.4160 C.3   1 <1>   0.2000 
 16 C       -6.5620    -5.1840    -0.2230 C.3   1 <1>  -0.1600 
 17 O       -4.9710    -7.6200    -1.5070 O.3   1 <1>  -0.6800 
 18 C       -5.9600    -6.4760     0.3550 C.3   1 <1>  -0.1860 
 19 C       -6.9890    -7.5920     0.4950 C.2   1 <1>   0.9060 
 20 O       -7.8420    -7.4800     1.3780 O.co2 1 <1>  -0.9000 
 21 O       -6.9690    -8.5630    -0.2750 O.co2 1 <1>  -0.9000 
 22 H       -2.2300    -1.9350    -0.4930 H     1 <1>   0.1500 
 23 H        1.5900    -4.9780     0.1590 H     1 <1>   0.1500 
 24 H       -0.5990    -5.5090     1.1660 H     1 <1>   0.1500 
 25 H       -4.2920    -5.4190    -1.9820 H     1 <1>   0.0800 
 26 H       -2.8870    -5.7910    -1.0370 H     1 <1>   0.0800 
 27 H       -5.7610    -3.6030     0.9550 H     1 <1>   0.0800 
 28 H       -5.8750    -3.2200    -0.7290 H     1 <1>   0.0800 
 29 H       -4.0170    -7.4000     0.2210 H     1 <1>   0.0800 
 30 H       -7.4920    -4.9660     0.2740 H     1 <1>   0.0800 
 31 H       -6.7810    -5.3240    -1.2670 H     1 <1>   0.0800 
 32 H       -5.7590    -8.1870    -1.2200 H     1 <1>   0.4000 
 33 H       -5.6660    -6.2540     1.3630 H     1 <1>   0.0800 
@<TRIPOS>BOND
  1   1   2  1   
  2   2   3  ar  
  3   2   4  ar  
  4   3   5  1   
  5   3   6  ar  
  6   4   7  ar  
  7   4  22  1   
  8   6   8  ar  
  9   6  23  1   
 10   7   8  ar  
 11   7   9  1   
 12   8  24  1   
 13   9  10  2   
 14   9  11  2   
 15   9  12  am  
 16  12  13  1   
 17  12  14  1   
 18  13  15  1   
 19  13  25  1   
 20  13  26  1   
 21  14  16  1   
 22  14  27  1   
 23  14  28  1   
 24  15  17  1   
 25  15  18  1   
 26  15  29  1   
 27  16  18  1   
 28  16  30  1   
 29  16  31  1   
 30  17  32  1   
 31  18  19  1   
 32  18  33  1   
 33  19  20  ar  
 34  19  21  ar  
@<TRIPOS>SUBSTRUCTURE
  1 ****  12 GROUP 4 **** **** 0

# MOE 2024.06 (io_trps.svl 2023.06)
