@<TRIPOS>MOLECULE
NONAME
52 55 1 0 0 
SMALL
USER_CHARGES


@<TRIPOS>ATOM
  1 O       -2.3680     0.5840    -2.3700 O.2   1 <1>  -0.5700 
  2 C       -2.4820     1.4720    -1.5410 C.2   1 <1>   0.6160 
  3 N       -3.7360     2.0260    -1.3470 N.am  1 <1>  -0.6600 
  4 C       -1.3250     1.8650    -0.7860 C.2   1 <1>   0.0290 
  5 C       -4.8690     1.6570    -2.2440 C.3   1 <1>   0.1400 
  6 C       -4.0370     3.1190    -0.3830 C.3   1 <1>   0.1400 
  7 C       -0.7950     3.1680    -1.0510 C.2   1 <1>   0.6160 
  8 C       -0.6940     1.0720     0.1520 C.2   1 <1>  -0.1380 
  9 C       -5.7060     0.5130    -1.6540 C.3   1 <1>   0.1400 
 10 C       -5.0150     2.6770     0.7120 C.3   1 <1>  -0.1600 
 11 O       -1.2770     3.9690    -1.8400 O.2   1 <1>  -0.5700 
 12 N        0.3110     3.5830    -0.3610 N.am  1 <1>  -0.5390 
 13 C        0.4380     1.5660     0.8400 C.2   1 <1>  -0.1500 
 14 C       -1.1420    -0.3430     0.5010 C.3   1 <1>  -0.1020 
 15 N       -6.2320     0.7590    -0.2690 N.am  1 <1>  -0.6600 
 16 C       -6.3670     2.1650     0.2020 C.3   1 <1>   0.1400 
 17 C        0.9280     2.8080     0.5780 C.2   1 <1>  -0.0290 
 18 C       -6.7070    -0.2800     0.5040 C.2   1 <1>   0.5440 
 19 C        2.1390     3.3940     1.2730 C.3   1 <1>  -0.1020 
 20 O       -7.6810    -0.0900     1.2090 O.2   1 <1>  -0.5700 
 21 C       -6.0700    -1.5810     0.5020 C.ar  1 <1>   0.0860 
 22 C       -4.6910    -1.7040     0.5830 C.ar  1 <1>  -0.1500 
 23 C       -6.8430    -2.7600     0.4400 C.ar  1 <1>  -0.1500 
 24 C       -4.0950    -2.9580     0.5980 C.ar  1 <1>   0.2270 
 25 C       -6.2670    -4.0100     0.4460 C.ar  1 <1>  -0.1500 
 26 N       -2.7760    -3.2920     0.6810 N.2   1 <1>  -0.5650 
 27 C       -4.8760    -4.0960     0.5240 C.ar  1 <1>  -0.1520 
 28 C       -2.7720    -4.5780     0.6520 C.2   1 <1>   0.0360 
 29 N       -4.0060    -5.1340     0.5570 N.pl3 1 <1>   0.0330 
 30 H       -4.4880     1.3460    -3.2020 H     1 <1>   0.0800 
 31 H       -5.4910     2.5150    -2.4250 H     1 <1>   0.0800 
 32 H       -4.4500     3.9540    -0.9240 H     1 <1>   0.0800 
 33 H       -3.1370     3.4650     0.0910 H     1 <1>   0.0800 
 34 H       -5.0980    -0.3740    -1.6640 H     1 <1>   0.0800 
 35 H       -6.5430     0.3340    -2.3050 H     1 <1>   0.0800 
 36 H       -5.2030     3.5310     1.3360 H     1 <1>   0.0800 
 37 H       -4.5550     1.9290     1.3330 H     1 <1>   0.0800 
 38 H        0.6440     4.5140    -0.6120 H     1 <1>   0.3700 
 39 H        0.9050     0.9330     1.5740 H     1 <1>   0.1500 
 40 H       -0.2940    -1.0040     0.5340 H     1 <1>   0.0800 
 41 H       -1.8260    -0.7410    -0.2260 H     1 <1>   0.0800 
 42 H       -1.6220    -0.3550     1.4630 H     1 <1>   0.0800 
 43 H       -6.7510     2.7900    -0.5850 H     1 <1>   0.0800 
 44 H       -7.0740     2.2050     1.0140 H     1 <1>   0.0800 
 45 H        2.9030     3.6200     0.5520 H     1 <1>   0.0800 
 46 H        2.5390     2.6970     1.9880 H     1 <1>   0.0800 
 47 H        1.8670     4.2960     1.7900 H     1 <1>   0.0800 
 48 H       -4.0690    -0.8320     0.6400 H     1 <1>   0.1500 
 49 H       -7.9130    -2.6570     0.3910 H     1 <1>   0.1500 
 50 H       -6.8670    -4.9010     0.3960 H     1 <1>   0.1500 
 51 H       -1.8830    -5.1830     0.6980 H     1 <1>   0.1500 
 52 H       -4.2380    -6.1290     0.5210 H     1 <1>   0.2700 
@<TRIPOS>BOND
  1   1   2  2   
  2   2   3  am  
  3   2   4  1   
  4   3   5  1   
  5   3   6  1   
  6   4   7  1   
  7   4   8  2   
  8   5   9  1   
  9   5  30  1   
 10   5  31  1   
 11   6  10  1   
 12   6  32  1   
 13   6  33  1   
 14   7  11  2   
 15   7  12  am  
 16   8  13  1   
 17   8  14  1   
 18   9  15  1   
 19   9  34  1   
 20   9  35  1   
 21  10  16  1   
 22  10  36  1   
 23  10  37  1   
 24  12  17  1   
 25  12  38  1   
 26  13  17  2   
 27  13  39  1   
 28  14  40  1   
 29  14  41  1   
 30  14  42  1   
 31  15  16  1   
 32  15  18  am  
 33  16  43  1   
 34  16  44  1   
 35  17  19  1   
 36  18  20  2   
 37  18  21  1   
 38  19  45  1   
 39  19  46  1   
 40  19  47  1   
 41  21  22  ar  
 42  21  23  ar  
 43  22  24  ar  
 44  22  48  1   
 45  23  25  ar  
 46  23  49  1   
 47  24  26  1   
 48  24  27  ar  
 49  25  27  ar  
 50  25  50  1   
 51  26  28  2   
 52  27  29  1   
 53  28  29  1   
 54  28  51  1   
 55  29  52  1   
@<TRIPOS>SUBSTRUCTURE
  1 ****   2 GROUP 4 **** **** 0

# MOE 2024.06 (io_trps.svl 2023.06)
