@<TRIPOS>MOLECULE
NONAME
37 38 1 0 0 
SMALL
USER_CHARGES


@<TRIPOS>ATOM
  1 F        1.2540    -1.1210    -2.8450 F     1 <1>  -0.1900 
  2 C        1.7090    -1.2810    -1.6300 C.ar  1 <1>   0.1900 
  3 C        1.1480    -2.2510    -0.8130 C.ar  1 <1>  -0.1440 
  4 C        2.7390    -0.4580    -1.2140 C.ar  1 <1>  -0.1500 
  5 C        1.6550    -2.3770     0.4750 C.ar  1 <1>  -0.1500 
  6 C        0.0060    -3.1320    -1.3120 C.3   1 <1>   0.2540 
  7 C        3.2320    -0.6030     0.0710 C.ar  1 <1>  -0.1500 
  8 C        2.6880    -1.5620     0.9120 C.ar  1 <1>  -0.1500 
  9 N        0.0690    -4.4950    -0.7420 N.3   1 <1>  -0.8100 
 10 C       -1.3050    -5.0190    -0.5080 C.3   1 <1>   0.2900 
 11 C        0.8450    -5.4380    -1.5750 C.3   1 <1>   0.1100 
 12 C       -1.3620    -6.3740     0.1930 C.2   1 <1>   0.2980 
 13 C        2.3380    -5.0970    -1.5940 C.3   1 <1>  -0.1600 
 14 O       -0.9590    -6.4810     1.4370 O.3   1 <1>  -0.2800 
 15 N       -1.7870    -7.4680    -0.3240 N.2   1 <1>  -0.5650 
 16 C        3.1490    -6.2040    -2.2770 C.3   1 <1>  -0.2400 
 17 C       -1.1250    -7.7350     1.7440 C.2   1 <1>  -0.0100 
 18 C       -1.6370    -8.3950     0.6840 C.2   1 <1>  -0.0060 
 19 C       -1.9500    -9.8250     0.6660 C.2   1 <1>   1.0330 
 20 O       -1.7490   -10.5030     1.6940 O.co2 1 <1>  -0.9000 
 21 O       -2.4130   -10.4050    -0.3360 O.co2 1 <1>  -0.9000 
 22 H        3.1440     0.2790    -1.8840 H     1 <1>   0.1500 
 23 H        1.2450    -3.1210     1.1380 H     1 <1>   0.1500 
 24 H        0.0080    -3.1890    -2.3870 H     1 <1>   0.0800 
 25 H       -0.9100    -2.6520    -1.0150 H     1 <1>   0.0800 
 26 H        4.0340     0.0260     0.4180 H     1 <1>   0.1500 
 27 H        3.0690    -1.6780     1.9110 H     1 <1>   0.1500 
 28 H       -1.8180    -5.1090    -1.4490 H     1 <1>   0.0800 
 29 H       -1.8490    -4.3240     0.1060 H     1 <1>   0.0800 
 30 H        0.4540    -5.4580    -2.5790 H     1 <1>   0.0800 
 31 H        0.7500    -6.4320    -1.1700 H     1 <1>   0.0800 
 32 H        2.6840    -4.9810    -0.5820 H     1 <1>   0.0800 
 33 H        2.5010    -4.1760    -2.1250 H     1 <1>   0.0800 
 34 H        3.0240    -7.1350    -1.7530 H     1 <1>   0.0800 
 35 H        4.1930    -5.9470    -2.2760 H     1 <1>   0.0800 
 36 H        2.8260    -6.3320    -3.2950 H     1 <1>   0.0800 
 37 H       -0.8650    -8.1040     2.7200 H     1 <1>   0.1500 
@<TRIPOS>BOND
  1   1   2  1   
  2   2   3  ar  
  3   2   4  ar  
  4   3   5  ar  
  5   3   6  1   
  6   4   7  ar  
  7   4  22  1   
  8   5   8  ar  
  9   5  23  1   
 10   6   9  1   
 11   6  24  1   
 12   6  25  1   
 13   7   8  ar  
 14   7  26  1   
 15   8  27  1   
 16   9  10  1   
 17   9  11  1   
 18  10  12  1   
 19  10  28  1   
 20  10  29  1   
 21  11  13  1   
 22  11  30  1   
 23  11  31  1   
 24  12  14  1   
 25  12  15  2   
 26  13  16  1   
 27  13  32  1   
 28  13  33  1   
 29  14  17  1   
 30  15  18  1   
 31  16  34  1   
 32  16  35  1   
 33  16  36  1   
 34  17  18  2   
 35  17  37  1   
 36  18  19  1   
 37  19  20  ar  
 38  19  21  ar  
@<TRIPOS>SUBSTRUCTURE
  1 ****   9 GROUP 4 **** **** 0

# MOE 2024.06 (io_trps.svl 2023.06)
