@<TRIPOS>MOLECULE
NONAME
52 54 1 0 0 
SMALL
USER_CHARGES


@<TRIPOS>ATOM
  1 F       -0.7230    -1.5700    -1.3440 F     1 <1>  -0.1900 
  2 C        0.4010    -1.9390    -0.7800 C.ar  1 <1>   0.1900 
  3 C        1.6040    -1.5250    -1.3280 C.ar  1 <1>   0.1900 
  4 C        0.3690    -2.7510     0.3460 C.ar  1 <1>  -0.1440 
  5 F        1.6170    -0.7660    -2.3940 F     1 <1>  -0.1900 
  6 C        2.8090    -1.9050    -0.7690 C.ar  1 <1>  -0.1500 
  7 C        1.5840    -3.1310     0.9060 C.ar  1 <1>  -0.1500 
  8 C       -0.9380    -3.2360     0.9760 C.3   1 <1>   0.0450 
  9 C        2.7900    -2.7150     0.3560 C.ar  1 <1>  -0.1500 
 10 C       -0.9950    -4.7550     1.0580 C.2   1 <1>   0.5690 
 11 O       -0.8710    -5.2510     2.1520 O.2   1 <1>  -0.5700 
 12 N       -1.1620    -5.5170    -0.0680 N.am  1 <1>  -0.6600 
 13 C       -1.0730    -7.0150     0.0150 C.3   1 <1>   0.3640 
 14 C       -1.4000    -4.9480    -1.4350 C.3   1 <1>   0.1400 
 15 C        0.3480    -7.5200    -0.3010 C.ar  1 <1>  -0.1430 
 16 C       -2.1420    -7.7060    -0.8940 C.3   1 <1>   0.2000 
 17 C       -1.6060    -6.0370    -2.4970 C.3   1 <1>   0.1200 
 18 C        0.6180    -8.8700    -0.1070 C.ar  1 <1>  -0.1500 
 19 C        1.3800    -6.7010    -0.7530 C.ar  1 <1>  -0.1500 
 20 O       -2.5330    -6.9650    -2.0300 O.3   1 <1>  -0.5600 
 21 C       -3.4240    -8.0090    -0.1100 C.3   1 <1>   0.1200 
 22 C        1.8650    -9.4030    -0.3810 C.ar  1 <1>   0.0830 
 23 C        2.6380    -7.2190    -1.0110 C.ar  1 <1>  -0.1500 
 24 O       -3.2000    -9.0380     0.8000 O.3   1 <1>  -0.6800 
 25 O        2.0200   -10.7400    -0.2120 O.3   1 <1>  -0.3630 
 26 C        2.8950    -8.5640    -0.8160 C.ar  1 <1>   0.0830 
 27 C        2.3240   -11.4920    -1.3670 C.3   1 <1>   0.0400 
 28 O        4.1570    -9.0000    -1.0490 O.3   1 <1>  -0.3630 
 29 C        4.8800    -9.4380     0.0810 C.3   1 <1>   0.0400 
 30 H        3.7360    -1.5760    -1.2050 H     1 <1>   0.1500 
 31 H        1.5970    -3.7630     1.7810 H     1 <1>   0.1500 
 32 H       -1.7980    -2.8830     0.4410 H     1 <1>   0.0800 
 33 H       -1.0050    -2.8390     1.9730 H     1 <1>   0.0800 
 34 H        3.7170    -3.0260     0.8090 H     1 <1>   0.1500 
 35 H       -1.2700    -7.3190     1.0290 H     1 <1>   0.0800 
 36 H       -2.2770    -4.3250    -1.4110 H     1 <1>   0.0800 
 37 H       -0.5640    -4.3400    -1.7270 H     1 <1>   0.0800 
 38 H       -1.7520    -8.6360    -1.2660 H     1 <1>   0.0800 
 39 H       -0.6850    -6.5460    -2.7260 H     1 <1>   0.0800 
 40 H       -1.9950    -5.6050    -3.4020 H     1 <1>   0.0800 
 41 H       -0.1450    -9.5320     0.2630 H     1 <1>   0.1500 
 42 H        1.2320    -5.6480    -0.9000 H     1 <1>   0.1500 
 43 H       -4.2130    -8.3160    -0.7740 H     1 <1>   0.0800 
 44 H       -3.7350    -7.1380     0.4420 H     1 <1>   0.0800 
 45 H        3.4290    -6.5790    -1.3560 H     1 <1>   0.1500 
 46 H       -3.2100    -9.9070     0.3530 H     1 <1>   0.4000 
 47 H        2.2690   -12.5350    -1.1130 H     1 <1>   0.0800 
 48 H        3.3170   -11.2500    -1.7000 H     1 <1>   0.0800 
 49 H        1.6060   -11.2600    -2.1330 H     1 <1>   0.0800 
 50 H        5.8820    -9.6720    -0.2300 H     1 <1>   0.0800 
 51 H        4.4080   -10.3130     0.4890 H     1 <1>   0.0800 
 52 H        4.8940    -8.6480     0.8110 H     1 <1>   0.0800 
@<TRIPOS>BOND
  1   1   2  1   
  2   2   3  ar  
  3   2   4  ar  
  4   3   5  1   
  5   3   6  ar  
  6   4   7  ar  
  7   4   8  1   
  8   6   9  ar  
  9   6  30  1   
 10   7   9  ar  
 11   7  31  1   
 12   8  10  1   
 13   8  32  1   
 14   8  33  1   
 15   9  34  1   
 16  10  11  2   
 17  10  12  am  
 18  12  13  1   
 19  12  14  1   
 20  13  15  1   
 21  13  16  1   
 22  13  35  1   
 23  14  17  1   
 24  14  36  1   
 25  14  37  1   
 26  15  18  ar  
 27  15  19  ar  
 28  16  20  1   
 29  16  21  1   
 30  16  38  1   
 31  17  20  1   
 32  17  39  1   
 33  17  40  1   
 34  18  22  ar  
 35  18  41  1   
 36  19  23  ar  
 37  19  42  1   
 38  21  24  1   
 39  21  43  1   
 40  21  44  1   
 41  22  25  1   
 42  22  26  ar  
 43  23  26  ar  
 44  23  45  1   
 45  24  46  1   
 46  25  27  1   
 47  26  28  1   
 48  27  47  1   
 49  27  48  1   
 50  27  49  1   
 51  28  29  1   
 52  29  50  1   
 53  29  51  1   
 54  29  52  1   
@<TRIPOS>SUBSTRUCTURE
  1 ****  19 GROUP 4 **** **** 0

# MOE 2024.06 (io_trps.svl 2023.06)
