@<TRIPOS>MOLECULE
NONAME
48 50 1 0 0 
SMALL
USER_CHARGES


@<TRIPOS>ATOM
  1 O       -0.0640     0.2630     1.3270 O.2   1 <1>  -0.5700 
  2 C        1.0410    -0.2440     1.1430 C.2   1 <1>   0.5690 
  3 N        2.1680     0.4340     1.4800 N.am  1 <1>  -0.7300 
  4 C        1.2060    -1.6690     0.5430 C.3   1 <1>   0.2810 
  5 C        2.2080     1.8110     1.9970 C.3   1 <1>   0.2840 
  6 N        2.0710    -2.5090     1.3870 N.am  1 <1>  -0.7300 
  7 C       -0.1320    -2.3970     0.3040 C.3   1 <1>   0.0200 
  8 C        3.5490     2.4060     1.6130 C.ar  1 <1>  -0.1430 
  9 C        2.9150    -3.4570     1.0040 C.2   1 <1>   0.5690 
 10 C       -0.9290    -1.8470    -0.8580 C.2   1 <1>  -0.3320 
 11 C        3.7330     2.9430     0.3480 C.ar  1 <1>  -0.1500 
 12 C        4.6020     2.4160     2.5160 C.ar  1 <1>  -0.1500 
 13 O        3.5340    -4.0670     1.8570 O.2   1 <1>  -0.5700 
 14 C        3.1160    -3.7720    -0.4690 C.3   1 <1>  -0.1790 
 15 N       -1.5520    -0.6180    -0.9050 N.pl3 1 <1>   0.0330 
 16 C       -1.1360    -2.4530    -2.0690 C.2   1 <1>   0.0770 
 17 C        4.9510     3.4890    -0.0210 C.ar  1 <1>   0.0830 
 18 C        5.8280     2.9450     2.1530 C.ar  1 <1>  -0.1500 
 19 C       -2.1180    -0.4910    -2.1160 C.2   1 <1>   0.0360 
 20 N       -1.8910    -1.5840    -2.8600 N.2   1 <1>  -0.5650 
 21 O        5.0210     4.0460    -1.2600 O.3   1 <1>  -0.3630 
 22 C        6.0210     3.4680     0.8850 C.ar  1 <1>   0.0830 
 23 C        5.7990     5.2130    -1.4080 C.3   1 <1>   0.1200 
 24 O        7.2710     3.9140     0.5900 O.3   1 <1>  -0.3630 
 25 C        7.2660     4.8410    -1.6360 C.3   1 <1>  -0.1600 
 26 C        7.7470     3.7110    -0.7230 C.3   1 <1>   0.1200 
 27 H        3.0890     0.0060     1.3550 H     1 <1>   0.3700 
 28 H        1.6830    -1.5340    -0.4270 H     1 <1>   0.0800 
 29 H        1.4050     2.3890     1.5730 H     1 <1>   0.0800 
 30 H        2.0930     1.7970     3.0670 H     1 <1>   0.0800 
 31 H        2.0220    -2.3810     2.3860 H     1 <1>   0.3700 
 32 H       -0.7360    -2.3440     1.2110 H     1 <1>   0.0800 
 33 H        0.0640    -3.4510     0.1090 H     1 <1>   0.0800 
 34 H        2.9280     2.9500    -0.3650 H     1 <1>   0.1500 
 35 H        4.4760     2.0090     3.5050 H     1 <1>   0.1500 
 36 H        2.1690    -4.0590    -0.9200 H     1 <1>   0.0800 
 37 H        3.8220    -4.5970    -0.5620 H     1 <1>   0.0800 
 38 H        3.5210    -2.8980    -0.9760 H     1 <1>   0.0800 
 39 H       -1.5470     0.0750    -0.1630 H     1 <1>   0.2700 
 40 H       -0.7800    -3.4300    -2.3710 H     1 <1>   0.1500 
 41 H        6.6480     2.9470     2.8480 H     1 <1>   0.1500 
 42 H       -2.6760     0.3730    -2.4500 H     1 <1>   0.1500 
 43 H        5.4130     5.7630    -2.2480 H     1 <1>   0.0800 
 44 H        5.6840     5.8120    -0.5200 H     1 <1>   0.0800 
 45 H        7.4010     4.5440    -2.6600 H     1 <1>   0.0800 
 46 H        7.8750     5.7120    -1.4740 H     1 <1>   0.0800 
 47 H        8.8220     3.6880    -0.6850 H     1 <1>   0.0800 
 48 H        7.3910     2.7550    -1.0690 H     1 <1>   0.0800 
@<TRIPOS>BOND
  1   1   2  2   
  2   2   3  am  
  3   2   4  1   
  4   3   5  1   
  5   3  27  1   
  6   4   6  1   
  7   4   7  1   
  8   4  28  1   
  9   5   8  1   
 10   5  29  1   
 11   5  30  1   
 12   6   9  am  
 13   6  31  1   
 14   7  10  1   
 15   7  32  1   
 16   7  33  1   
 17   8  11  ar  
 18   8  12  ar  
 19   9  13  2   
 20   9  14  1   
 21  10  15  1   
 22  10  16  2   
 23  11  17  ar  
 24  11  34  1   
 25  12  18  ar  
 26  12  35  1   
 27  14  36  1   
 28  14  37  1   
 29  14  38  1   
 30  15  19  1   
 31  15  39  1   
 32  16  20  1   
 33  16  40  1   
 34  17  21  1   
 35  17  22  ar  
 36  18  22  ar  
 37  18  41  1   
 38  19  20  2   
 39  19  42  1   
 40  21  23  1   
 41  22  24  1   
 42  23  25  1   
 43  23  43  1   
 44  23  44  1   
 45  24  26  1   
 46  25  26  1   
 47  25  45  1   
 48  25  46  1   
 49  26  47  1   
 50  26  48  1   
@<TRIPOS>SUBSTRUCTURE
  1 ****   3 GROUP 4 **** **** 0

# MOE 2024.06 (io_trps.svl 2023.06)
