@<TRIPOS>MOLECULE
NONAME
57 60 1 0 0 
SMALL
USER_CHARGES


@<TRIPOS>ATOM
  1 O       -0.3780    -0.3330    -0.9030 O.2   1 <1>  -0.5700 
  2 C       -1.3690     0.3430    -0.6990 C.2   1 <1>   0.7160 
  3 N       -2.5810    -0.1840    -1.0170 N.am  1 <1>  -0.7300 
  4 C       -1.2860     1.6560    -0.1290 C.2   1 <1>  -0.0860 
  5 C       -2.8860    -1.5970    -1.3370 C.3   1 <1>   0.1400 
  6 C       -2.3730     2.4510     0.2690 C.2   1 <1>   0.3720 
  7 C       -0.2120     2.4490     0.1490 C.2   1 <1>   0.0870 
  8 C       -4.0720    -2.1240    -0.4910 C.3   1 <1>   0.0000 
  9 N       -1.9830     3.5900     0.7190 N.2   1 <1>  -0.4100 
 10 N       -3.7260     2.0810     0.2140 N.pl3 1 <1>  -0.8210 
 11 O       -0.6810     3.5710     0.6350 O.3   1 <1>  -0.0190 
 12 C        1.2140     2.2950     0.0150 C.ar  1 <1>   0.0530 
 13 C       -3.7410    -2.1220     1.0080 C.3   1 <1>  -0.1600 
 14 C       -4.2740    -3.6180    -0.7740 C.3   1 <1>  -0.1600 
 15 C       -5.3570    -1.3300    -0.7880 C.3   1 <1>  -0.2400 
 16 C       -4.3720     1.9630     1.5520 C.3   1 <1>   0.2090 
 17 C       -4.5690     2.9600    -0.6430 C.3   1 <1>   0.2090 
 18 C        1.9890     3.3290    -0.5110 C.ar  1 <1>  -0.1500 
 19 C        1.8800     1.1370     0.4180 C.ar  1 <1>  -0.1500 
 20 C       -2.8960    -3.3760     1.2410 C.3   1 <1>  -0.1600 
 21 C       -3.2710    -4.3540     0.1210 C.3   1 <1>  -0.1600 
 22 C       -5.5630     2.9110     1.5340 C.3   1 <1>  -0.1600 
 23 C       -5.9140     3.0480     0.0610 C.3   1 <1>  -0.1600 
 24 C        3.3600     3.2090    -0.6370 C.ar  1 <1>  -0.1500 
 25 C        3.2500     1.0070     0.2920 C.ar  1 <1>  -0.1500 
 26 C        4.0040     2.0490    -0.2410 C.ar  1 <1>   0.0830 
 27 O        5.3480     2.0060    -0.4000 O.3   1 <1>  -0.3620 
 28 C        6.0910     0.8540    -0.0680 C.3   1 <1>   0.0400 
 29 H       -3.3820     0.3990    -0.7370 H     1 <1>   0.3700 
 30 H       -2.0100    -2.1990    -1.1650 H     1 <1>   0.0800 
 31 H       -3.1300    -1.6670    -2.3830 H     1 <1>   0.0800 
 32 H       -4.6500    -2.2130     1.5770 H     1 <1>   0.0800 
 33 H       -3.2280    -1.2320     1.3270 H     1 <1>   0.0800 
 34 H       -4.1410    -3.8630    -1.8130 H     1 <1>   0.0800 
 35 H       -5.2670    -3.9110    -0.4800 H     1 <1>   0.0800 
 36 H       -5.2470    -0.3000    -0.5000 H     1 <1>   0.0800 
 37 H       -6.1910    -1.7380    -0.2450 H     1 <1>   0.0800 
 38 H       -5.5840    -1.3690    -1.8380 H     1 <1>   0.0800 
 39 H       -3.6900     2.2150     2.3480 H     1 <1>   0.0800 
 40 H       -4.7080     0.9490     1.6860 H     1 <1>   0.0800 
 41 H       -4.6710     2.5420    -1.6300 H     1 <1>   0.0800 
 42 H       -4.1300     3.9420    -0.7190 H     1 <1>   0.0800 
 43 H        1.5060     4.2370    -0.8240 H     1 <1>   0.1500 
 44 H        1.3120     0.3250     0.8360 H     1 <1>   0.1500 
 45 H       -3.0850    -3.7960     2.2140 H     1 <1>   0.0800 
 46 H       -1.8510    -3.1280     1.1670 H     1 <1>   0.0800 
 47 H       -2.3910    -4.6130    -0.4420 H     1 <1>   0.0800 
 48 H       -3.7060    -5.2550     0.5180 H     1 <1>   0.0800 
 49 H       -5.2520     3.8640     1.9260 H     1 <1>   0.0800 
 50 H       -6.3820     2.5380     2.1220 H     1 <1>   0.0800 
 51 H       -6.5300     2.2220    -0.2520 H     1 <1>   0.0800 
 52 H       -6.4200     3.9710    -0.1580 H     1 <1>   0.0800 
 53 H        3.9430     4.0140    -1.0460 H     1 <1>   0.1500 
 54 H        3.7110     0.0920     0.6110 H     1 <1>   0.1500 
 55 H        7.1250     1.0480    -0.2930 H     1 <1>   0.0800 
 56 H        5.7360     0.0280    -0.6580 H     1 <1>   0.0800 
 57 H        5.9770     0.6560     0.9830 H     1 <1>   0.0800 
@<TRIPOS>BOND
  1   1   2  2   
  2   2   3  am  
  3   2   4  1   
  4   3   5  1   
  5   3  29  1   
  6   4   6  1   
  7   4   7  2   
  8   5   8  1   
  9   5  30  1   
 10   5  31  1   
 11   6   9  2   
 12   6  10  1   
 13   7  11  1   
 14   7  12  1   
 15   8  13  1   
 16   8  14  1   
 17   8  15  1   
 18   9  11  1   
 19  10  16  1   
 20  10  17  1   
 21  12  18  ar  
 22  12  19  ar  
 23  13  20  1   
 24  13  32  1   
 25  13  33  1   
 26  14  21  1   
 27  14  34  1   
 28  14  35  1   
 29  15  36  1   
 30  15  37  1   
 31  15  38  1   
 32  16  22  1   
 33  16  39  1   
 34  16  40  1   
 35  17  23  1   
 36  17  41  1   
 37  17  42  1   
 38  18  24  ar  
 39  18  43  1   
 40  19  25  ar  
 41  19  44  1   
 42  20  21  1   
 43  20  45  1   
 44  20  46  1   
 45  21  47  1   
 46  21  48  1   
 47  22  23  1   
 48  22  49  1   
 49  22  50  1   
 50  23  51  1   
 51  23  52  1   
 52  24  26  ar  
 53  24  53  1   
 54  25  26  ar  
 55  25  54  1   
 56  26  27  1   
 57  27  28  1   
 58  28  55  1   
 59  28  56  1   
 60  28  57  1   
@<TRIPOS>SUBSTRUCTURE
  1 ****   4 GROUP 4 **** **** 0

# MOE 2024.06 (io_trps.svl 2023.06)
