@<TRIPOS>MOLECULE
NONAME
51 53 1 0 0 
SMALL
USER_CHARGES


@<TRIPOS>ATOM
  1 CL       1.5660    -1.0300     3.2450 Cl    1 <1>  -0.1770 
  2 C        1.1370    -2.4050     2.2590 C.ar  1 <1>   0.1770 
  3 C        1.3030    -3.6800     2.7650 C.ar  1 <1>  -0.1500 
  4 C        0.6370    -2.1970     0.9870 C.ar  1 <1>  -0.1500 
  5 C        0.9610    -4.7690     1.9810 C.ar  1 <1>  -0.1500 
  6 C        0.2970    -3.2900     0.2080 C.ar  1 <1>  -0.1500 
  7 C        0.4570    -4.5780     0.7010 C.ar  1 <1>  -0.1430 
  8 C        0.0760    -5.7750    -0.1550 C.3   1 <1>  -0.0160 
  9 C       -1.3910    -6.1610     0.0880 C.3   1 <1>  -0.0990 
 10 C       -1.8450    -7.3780    -0.7060 C.2   1 <1>   0.5690 
 11 O       -1.1420    -7.7710    -1.6090 O.2   1 <1>  -0.5700 
 12 N       -3.0240    -7.9980    -0.3920 N.am  1 <1>  -0.6600 
 13 C       -3.4060    -9.2790    -1.0850 C.3   1 <1>   0.1400 
 14 C       -3.9940    -7.4970     0.6390 C.3   1 <1>   0.1400 
 15 C       -4.3710   -10.0920    -0.2150 C.3   1 <1>   0.2000 
 16 C       -5.4210    -7.8120     0.1920 C.3   1 <1>  -0.1600 
 17 O       -4.6360   -11.3270    -0.7850 O.3   1 <1>  -0.6800 
 18 C       -5.6940    -9.3450     0.0910 C.3   1 <1>  -0.1060 
 19 C       -6.1320    -9.9650     1.4200 C.2   1 <1>   0.9060 
 20 C       -6.7820    -9.5830    -1.0000 C.3   1 <1>  -0.0160 
 21 O       -6.0700    -9.3100     2.4670 O.co2 1 <1>  -0.9000 
 22 O       -6.4570   -11.1620     1.4190 O.co2 1 <1>  -0.9000 
 23 C       -8.0080    -8.6790    -0.8840 C.ar  1 <1>  -0.1430 
 24 C       -8.9070    -8.8470     0.1590 C.ar  1 <1>  -0.1500 
 25 C       -8.2400    -7.6830    -1.8210 C.ar  1 <1>  -0.1500 
 26 C      -10.0170    -8.0290     0.2670 C.ar  1 <1>  -0.1500 
 27 C       -9.3520    -6.8640    -1.7160 C.ar  1 <1>  -0.1500 
 28 C      -10.2410    -7.0360    -0.6700 C.ar  1 <1>  -0.1500 
 29 H        1.6950    -3.8150     3.7570 H     1 <1>   0.1500 
 30 H        0.5180    -1.1960     0.6160 H     1 <1>   0.1500 
 31 H        1.0880    -5.7650     2.3690 H     1 <1>   0.1500 
 32 H       -0.0920    -3.1350    -0.7840 H     1 <1>   0.1500 
 33 H        0.2230    -5.5410    -1.1950 H     1 <1>   0.0800 
 34 H        0.7120    -6.6110     0.0810 H     1 <1>   0.0800 
 35 H       -2.0200    -5.3320    -0.1750 H     1 <1>   0.0800 
 36 H       -1.5190    -6.3670     1.1350 H     1 <1>   0.0800 
 37 H       -3.8740    -9.0440    -2.0240 H     1 <1>   0.0800 
 38 H       -2.5220    -9.8640    -1.2720 H     1 <1>   0.0800 
 39 H       -3.8000    -7.9740     1.5860 H     1 <1>   0.0800 
 40 H       -3.8990    -6.4340     0.7670 H     1 <1>   0.0800 
 41 H       -3.8570   -10.2980     0.7100 H     1 <1>   0.0800 
 42 H       -6.1210    -7.3640     0.8760 H     1 <1>   0.0800 
 43 H       -5.5700    -7.3390    -0.7620 H     1 <1>   0.0800 
 44 H       -5.2900   -11.7620    -0.1770 H     1 <1>   0.4000 
 45 H       -6.3370    -9.4410    -1.9680 H     1 <1>   0.0800 
 46 H       -7.1210   -10.6050    -0.9680 H     1 <1>   0.0800 
 47 H       -8.7390    -9.6180     0.8950 H     1 <1>   0.1500 
 48 H       -7.5540    -7.5420    -2.6360 H     1 <1>   0.1500 
 49 H      -10.7000    -8.1690     1.0860 H     1 <1>   0.1500 
 50 H       -9.5220    -6.0940    -2.4460 H     1 <1>   0.1500 
 51 H      -11.1040    -6.4000    -0.5830 H     1 <1>   0.1500 
@<TRIPOS>BOND
  1   1   2  1   
  2   2   3  ar  
  3   2   4  ar  
  4   3   5  ar  
  5   3  29  1   
  6   4   6  ar  
  7   4  30  1   
  8   5   7  ar  
  9   5  31  1   
 10   6   7  ar  
 11   6  32  1   
 12   7   8  1   
 13   8   9  1   
 14   8  33  1   
 15   8  34  1   
 16   9  10  1   
 17   9  35  1   
 18   9  36  1   
 19  10  11  2   
 20  10  12  am  
 21  12  13  1   
 22  12  14  1   
 23  13  15  1   
 24  13  37  1   
 25  13  38  1   
 26  14  16  1   
 27  14  39  1   
 28  14  40  1   
 29  15  17  1   
 30  15  18  1   
 31  15  41  1   
 32  16  18  1   
 33  16  42  1   
 34  16  43  1   
 35  17  44  1   
 36  18  19  1   
 37  18  20  1   
 38  19  21  ar  
 39  19  22  ar  
 40  20  23  1   
 41  20  45  1   
 42  20  46  1   
 43  23  24  ar  
 44  23  25  ar  
 45  24  26  ar  
 46  24  47  1   
 47  25  27  ar  
 48  25  48  1   
 49  26  28  ar  
 50  26  49  1   
 51  27  28  ar  
 52  27  50  1   
 53  28  51  1   
@<TRIPOS>SUBSTRUCTURE
  1 ****  14 GROUP 4 **** **** 0

# MOE 2024.06 (io_trps.svl 2023.06)
