@<TRIPOS>MOLECULE
NONAME
49 52 1 0 0 
SMALL
USER_CHARGES


@<TRIPOS>ATOM
  1 O       -1.3390     1.6060     2.0900 O.2   1 <1>  -0.5700 
  2 C       -0.9620     1.9880     1.0000 C.2   1 <1>   0.6900 
  3 N       -1.7880     2.1500    -0.0720 N.am  1 <1>  -0.4200 
  4 N        0.3230     2.3160     0.6870 N.am  1 <1>  -0.6600 
  5 C       -1.0700     2.5490    -1.1550 C.2   1 <1>   0.5690 
  6 C       -3.1560     1.5870    -0.1360 C.3   1 <1>   0.2010 
  7 C        0.3910     2.6770    -0.7540 C.3   1 <1>   0.2010 
  8 C        1.5270     2.1270     1.5290 C.3   1 <1>   0.0600 
  9 O       -1.5110     2.7820    -2.2540 O.2   1 <1>  -0.5700 
 10 C       -3.1670     0.0660    -0.3330 C.2   1 <1>   0.5690 
 11 O       -2.2210    -0.4540    -0.8790 O.2   1 <1>  -0.5700 
 12 N       -4.2390    -0.6870     0.0840 N.am  1 <1>  -0.6600 
 13 C       -4.2060    -2.1850     0.0340 C.3   1 <1>   0.1400 
 14 C       -5.5440    -0.1610     0.5950 C.3   1 <1>   0.1400 
 15 C       -5.4640    -2.7510    -0.6490 C.3   1 <1>   0.3440 
 16 C       -6.7370    -0.8360    -0.1240 C.3   1 <1>   0.2950 
 17 O       -6.6190    -2.2260    -0.0470 O.3   1 <1>  -0.5600 
 18 C       -5.4850    -4.2740    -0.5590 C.ar  1 <1>  -0.1440 
 19 C       -8.1190    -0.4750     0.4490 C.3   1 <1>  -0.1950 
 20 C       -6.0840    -4.9320     0.5070 C.ar  1 <1>  -0.1500 
 21 C       -4.8800    -5.0250    -1.5570 C.ar  1 <1>  -0.1500 
 22 C       -8.4470     0.8490     1.0710 C.3   1 <1>  -0.2000 
 23 C       -8.4190    -0.3960     1.9150 C.3   1 <1>  -0.2000 
 24 C       -6.0780    -6.3140     0.5750 C.ar  1 <1>  -0.1500 
 25 C       -4.8720    -6.4080    -1.4910 C.ar  1 <1>  -0.1500 
 26 C       -5.4710    -7.0540    -0.4240 C.ar  1 <1>  -0.1500 
 27 H       -3.6570     1.8310     0.7820 H     1 <1>   0.0800 
 28 H       -3.6860     2.0430    -0.9520 H     1 <1>   0.0800 
 29 H        0.7390     3.6850    -0.8860 H     1 <1>   0.0800 
 30 H        0.9960     1.9770    -1.3010 H     1 <1>   0.0800 
 31 H        2.0660     3.0540     1.6100 H     1 <1>   0.0800 
 32 H        2.1650     1.3780     1.0920 H     1 <1>   0.0800 
 33 H        1.2360     1.8040     2.5150 H     1 <1>   0.0800 
 34 H       -3.3370    -2.5330    -0.4960 H     1 <1>   0.0800 
 35 H       -4.1500    -2.5710     1.0370 H     1 <1>   0.0800 
 36 H       -5.6040    -0.3550     1.6510 H     1 <1>   0.0800 
 37 H       -5.6120     0.9000     0.4450 H     1 <1>   0.0800 
 38 H       -5.4710    -2.4610    -1.6850 H     1 <1>   0.0800 
 39 H       -6.7200    -0.5580    -1.1640 H     1 <1>   0.0800 
 40 H       -8.8920    -0.9060    -0.1650 H     1 <1>   0.1000 
 41 H       -6.5620    -4.3660     1.2890 H     1 <1>   0.1500 
 42 H       -4.4070    -4.5380    -2.3930 H     1 <1>   0.1500 
 43 H       -7.6870     1.5890     1.2460 H     1 <1>   0.1000 
 44 H       -9.4030     1.2960     0.8530 H     1 <1>   0.1000 
 45 H       -9.3480    -0.8120     2.2640 H     1 <1>   0.1000 
 46 H       -7.6250    -0.5280     2.6290 H     1 <1>   0.1000 
 47 H       -6.5470    -6.8120     1.4050 H     1 <1>   0.1500 
 48 H       -4.4010    -6.9820    -2.2690 H     1 <1>   0.1500 
 49 H       -5.4670    -8.1280    -0.3720 H     1 <1>   0.1500 
@<TRIPOS>BOND
  1   1   2  2   
  2   2   3  am  
  3   2   4  am  
  4   3   5  am  
  5   3   6  1   
  6   4   7  1   
  7   4   8  1   
  8   5   7  1   
  9   5   9  2   
 10   6  10  1   
 11   6  27  1   
 12   6  28  1   
 13   7  29  1   
 14   7  30  1   
 15   8  31  1   
 16   8  32  1   
 17   8  33  1   
 18  10  11  2   
 19  10  12  am  
 20  12  13  1   
 21  12  14  1   
 22  13  15  1   
 23  13  34  1   
 24  13  35  1   
 25  14  16  1   
 26  14  36  1   
 27  14  37  1   
 28  15  17  1   
 29  15  18  1   
 30  15  38  1   
 31  16  17  1   
 32  16  19  1   
 33  16  39  1   
 34  18  20  ar  
 35  18  21  ar  
 36  19  22  1   
 37  19  23  1   
 38  19  40  1   
 39  20  24  ar  
 40  20  41  1   
 41  21  25  ar  
 42  21  42  1   
 43  22  23  1   
 44  22  43  1   
 45  22  44  1   
 46  23  45  1   
 47  23  46  1   
 48  24  26  ar  
 49  24  47  1   
 50  25  26  ar  
 51  25  48  1   
 52  26  49  1   
@<TRIPOS>SUBSTRUCTURE
  1 ****  12 GROUP 4 **** **** 0

# MOE 2024.06 (io_trps.svl 2023.06)
