@<TRIPOS>MOLECULE
NONAME
57 60 1 0 0 
SMALL
USER_CHARGES


@<TRIPOS>ATOM
  1 O       -1.0970    -0.4140     0.0880 O.3   1 <1>  -0.3630 
  2 C       -0.7300     0.8560    -0.2340 C.ar  1 <1>   0.0820 
  3 C       -2.2820    -0.9920    -0.3990 C.3   1 <1>   0.1200 
  4 C        0.5260     1.3040     0.1820 C.ar  1 <1>  -0.1440 
  5 C       -1.5630     1.7030    -0.9620 C.ar  1 <1>  -0.1500 
  6 C       -2.3040    -2.4490     0.0700 C.3   1 <1>   0.3430 
  7 C        0.9430     2.5900    -0.1570 C.ar  1 <1>  -0.1440 
  8 C        1.4440     0.3920     0.9970 C.3   1 <1>  -0.0970 
  9 C       -1.1450     2.9790    -1.2840 C.ar  1 <1>  -0.1500 
 10 N       -3.4430    -3.2300    -0.5180 N.4   1 <1>  -0.9590 
 11 C        0.1020     3.4170    -0.8850 C.ar  1 <1>  -0.1500 
 12 C        2.3090     3.1300     0.2450 C.3   1 <1>  -0.0970 
 13 C       -4.7650    -2.8030     0.0590 C.3   1 <1>   0.3430 
 14 C       -3.2810    -4.6810    -0.1770 C.3   1 <1>   0.3430 
 15 C       -5.1320    -3.8530     1.1120 C.3   1 <1>   0.2000 
 16 C       -4.5800    -5.1350     0.4930 C.3   1 <1>  -0.0800 
 17 O       -4.4370    -3.5550     2.2800 O.3   1 <1>  -0.6800 
 18 C       -4.3830    -6.3330     1.4450 C.3   1 <1>  -0.0170 
 19 C       -3.6330    -7.4530     0.7320 C.ar  1 <1>  -0.1430 
 20 C       -4.2360    -8.2640    -0.2580 C.ar  1 <1>   0.0000 
 21 C       -2.3200    -7.6870     1.0260 C.ar  1 <1>  -0.1500 
 22 C       -3.4160    -9.2100    -0.9210 C.ar  1 <1>   0.3100 
 23 C       -5.6010    -8.1990    -0.6280 C.ar  1 <1>  -0.1500 
 24 C       -1.6060    -8.6680     0.3290 C.ar  1 <1>   0.1600 
 25 N       -2.1070    -9.3920    -0.6190 N.ar  1 <1>  -0.6200 
 26 C       -3.9740   -10.0010    -1.9380 C.ar  1 <1>  -0.1500 
 27 C       -6.1140    -8.9890    -1.6210 C.ar  1 <1>  -0.1500 
 28 C       -5.2920    -9.8970    -2.2900 C.ar  1 <1>  -0.1500 
 29 H       -3.1110    -0.4380     0.0050 H     1 <1>   0.0800 
 30 H       -2.2600    -0.9350    -1.4730 H     1 <1>   0.0800 
 31 H       -2.5370     1.4010    -1.2890 H     1 <1>   0.1500 
 32 H       -2.3690    -2.4710     1.1460 H     1 <1>   0.0800 
 33 H       -1.3730    -2.9050    -0.2230 H     1 <1>   0.0800 
 34 H        1.9420     0.9460     1.7710 H     1 <1>   0.0800 
 35 H        2.1830    -0.0460     0.3510 H     1 <1>   0.0800 
 36 H        0.9000    -0.3980     1.4800 H     1 <1>   0.0800 
 37 H       -1.7870     3.6340    -1.8460 H     1 <1>   0.1500 
 38 H       -3.4450    -3.1190    -1.5410 H     1 <1>   0.4500 
 39 H        0.4140     4.4120    -1.1480 H     1 <1>   0.1500 
 40 H        2.5160     4.0630    -0.2470 H     1 <1>   0.0800 
 41 H        3.0810     2.4330    -0.0290 H     1 <1>   0.0800 
 42 H        2.3410     3.2930     1.3070 H     1 <1>   0.0800 
 43 H       -4.7250    -1.8200     0.4990 H     1 <1>   0.0800 
 44 H       -5.5130    -2.8120    -0.7160 H     1 <1>   0.0800 
 45 H       -3.0730    -5.2760    -1.0530 H     1 <1>   0.0800 
 46 H       -2.4690    -4.8020     0.5230 H     1 <1>   0.0800 
 47 H       -6.1880    -3.8810     1.3230 H     1 <1>   0.0800 
 48 H       -5.2480    -5.4340    -0.2950 H     1 <1>   0.0800 
 49 H       -4.8250    -4.0160     3.0540 H     1 <1>   0.4000 
 50 H       -5.3310    -6.6930     1.8050 H     1 <1>   0.0800 
 51 H       -3.8130    -6.0330     2.3080 H     1 <1>   0.0800 
 52 H       -1.7960    -7.1350     1.7860 H     1 <1>   0.1500 
 53 H       -6.2600    -7.5260    -0.1160 H     1 <1>   0.1500 
 54 H       -0.5720    -8.8260     0.5910 H     1 <1>   0.1500 
 55 H       -3.3250   -10.7000    -2.4330 H     1 <1>   0.1500 
 56 H       -7.1540    -8.9300    -1.8960 H     1 <1>   0.1500 
 57 H       -5.7060   -10.5110    -3.0720 H     1 <1>   0.1500 
@<TRIPOS>BOND
  1   1   2  1   
  2   1   3  1   
  3   2   4  ar  
  4   2   5  ar  
  5   3   6  1   
  6   3  29  1   
  7   3  30  1   
  8   4   7  ar  
  9   4   8  1   
 10   5   9  ar  
 11   5  31  1   
 12   6  10  1   
 13   6  32  1   
 14   6  33  1   
 15   7  11  ar  
 16   7  12  1   
 17   8  34  1   
 18   8  35  1   
 19   8  36  1   
 20   9  11  ar  
 21   9  37  1   
 22  10  13  1   
 23  10  14  1   
 24  10  38  1   
 25  11  39  1   
 26  12  40  1   
 27  12  41  1   
 28  12  42  1   
 29  13  15  1   
 30  13  43  1   
 31  13  44  1   
 32  14  16  1   
 33  14  45  1   
 34  14  46  1   
 35  15  16  1   
 36  15  17  1   
 37  15  47  1   
 38  16  18  1   
 39  16  48  1   
 40  17  49  1   
 41  18  19  1   
 42  18  50  1   
 43  18  51  1   
 44  19  20  ar  
 45  19  21  ar  
 46  20  22  ar  
 47  20  23  ar  
 48  21  24  ar  
 49  21  52  1   
 50  22  25  ar  
 51  22  26  ar  
 52  23  27  ar  
 53  23  53  1   
 54  24  25  ar  
 55  24  54  1   
 56  26  28  ar  
 57  26  55  1   
 58  27  28  ar  
 59  27  56  1   
 60  28  57  1   
@<TRIPOS>SUBSTRUCTURE
  1 ****  10 GROUP 4 **** **** 0

# MOE 2024.06 (io_trps.svl 2023.06)
