@<TRIPOS>MOLECULE
NONAME
42 43 1 0 0 
SMALL
USER_CHARGES


@<TRIPOS>ATOM
  1 CL       0.0990    -2.9250    -3.8030 Cl    1 <1>  -0.1770 
  2 C       -0.1580    -3.5190    -2.1840 C.ar  1 <1>   0.1770 
  3 C       -1.3860    -3.3300    -1.5800 C.ar  1 <1>  -0.1500 
  4 C        0.8720    -4.1680    -1.5310 C.ar  1 <1>  -0.1500 
  5 C       -1.6110    -3.7900    -0.2870 C.ar  1 <1>  -0.0090 
  6 C        0.6640    -4.6330    -0.2460 C.ar  1 <1>  -0.1500 
  7 S       -3.2160    -3.5660     0.5310 S.o2  1 <1>   1.4470 
  8 C       -0.5660    -4.4420     0.3630 C.ar  1 <1>  -0.1500 
  9 O       -2.9990    -2.8980     1.7970 O.2   1 <1>  -0.6500 
 10 O       -4.1830    -3.0130    -0.3920 O.2   1 <1>  -0.6500 
 11 N       -3.6940    -5.1500     0.8840 N.am  1 <1>  -0.8490 
 12 C       -3.9520    -5.9410    -0.3370 C.3   1 <1>   0.1960 
 13 C       -4.8570    -5.1820     1.7680 C.3   1 <1>   0.1960 
 14 C       -4.1770    -7.4380    -0.0430 C.3   1 <1>  -0.1060 
 15 C       -5.1370    -6.6140     2.2230 C.3   1 <1>  -0.1600 
 16 C       -4.7360    -8.0740    -1.3190 C.2   1 <1>   0.9060 
 17 C       -5.2970    -7.5410     1.0180 C.3   1 <1>   0.2000 
 18 C       -2.8320    -8.1770     0.2680 C.3   1 <1>  -0.1600 
 19 O       -4.6020    -7.4960    -2.4030 O.co2 1 <1>  -0.9000 
 20 O       -5.3130    -9.1690    -1.2330 O.co2 1 <1>  -0.9000 
 21 O       -5.4200    -8.8420     1.4550 O.3   1 <1>  -0.6800 
 22 C       -2.1230    -7.9110     1.6060 C.3   1 <1>  -0.1600 
 23 C       -0.7330    -8.5520     1.6250 C.3   1 <1>  -0.2400 
 24 H       -2.1700    -2.8270    -2.1200 H     1 <1>   0.1500 
 25 H        1.8180    -4.3050    -2.0250 H     1 <1>   0.1500 
 26 H        1.4530    -5.1440     0.2810 H     1 <1>   0.1500 
 27 H       -0.7260    -4.8080     1.3640 H     1 <1>   0.1500 
 28 H       -4.8200    -5.5410    -0.8390 H     1 <1>   0.0800 
 29 H       -3.1250    -5.8520    -1.0210 H     1 <1>   0.0800 
 30 H       -4.6710    -4.5740     2.6380 H     1 <1>   0.0800 
 31 H       -5.7160    -4.7810     1.2540 H     1 <1>   0.0800 
 32 H       -6.0450    -6.6290     2.7970 H     1 <1>   0.0800 
 33 H       -4.3400    -6.9410     2.8590 H     1 <1>   0.0800 
 34 H       -6.2300    -7.2930     0.5370 H     1 <1>   0.0800 
 35 H       -3.0170    -9.2370     0.2120 H     1 <1>   0.0800 
 36 H       -2.1490    -7.9510    -0.5330 H     1 <1>   0.0800 
 37 H       -5.4640    -9.3860     0.6210 H     1 <1>   0.4000 
 38 H       -2.0200    -6.8570     1.7790 H     1 <1>   0.0800 
 39 H       -2.7070    -8.3350     2.4030 H     1 <1>   0.0800 
 40 H       -0.1160    -8.1310     0.8510 H     1 <1>   0.0800 
 41 H       -0.8110    -9.6130     1.4690 H     1 <1>   0.0800 
 42 H       -0.2610    -8.3770     2.5760 H     1 <1>   0.0800 
@<TRIPOS>BOND
  1   1   2  1   
  2   2   3  ar  
  3   2   4  ar  
  4   3   5  ar  
  5   3  24  1   
  6   4   6  ar  
  7   4  25  1   
  8   5   7  1   
  9   5   8  ar  
 10   6   8  ar  
 11   6  26  1   
 12   7   9  2   
 13   7  10  2   
 14   7  11  am  
 15   8  27  1   
 16  11  12  1   
 17  11  13  1   
 18  12  14  1   
 19  12  28  1   
 20  12  29  1   
 21  13  15  1   
 22  13  30  1   
 23  13  31  1   
 24  14  16  1   
 25  14  17  1   
 26  14  18  1   
 27  15  17  1   
 28  15  32  1   
 29  15  33  1   
 30  16  19  ar  
 31  16  20  ar  
 32  17  21  1   
 33  17  34  1   
 34  18  22  1   
 35  18  35  1   
 36  18  36  1   
 37  21  37  1   
 38  22  23  1   
 39  22  38  1   
 40  22  39  1   
 41  23  40  1   
 42  23  41  1   
 43  23  42  1   
@<TRIPOS>SUBSTRUCTURE
  1 ****  12 GROUP 4 **** **** 0

# MOE 2024.06 (io_trps.svl 2023.06)
