@<TRIPOS>MOLECULE
NONAME
45 47 1 0 0 
SMALL
USER_CHARGES


@<TRIPOS>ATOM
  1 O       -0.6820     0.3290    -0.5770 O.2   1 <1>  -0.5700 
  2 C       -1.6490     0.9630    -0.1890 C.2   1 <1>   0.7150 
  3 N       -2.8710     0.3060    -0.1080 N.am  1 <1>  -0.6600 
  4 C       -1.4480     2.3590     0.1300 C.2   1 <1>   0.0550 
  5 C       -4.1710     1.0510    -0.0860 C.3   1 <1>   0.2200 
  6 C       -2.9160    -1.1900    -0.1310 C.3   1 <1>   0.0600 
  7 O       -2.2420     3.0380     0.9280 O.3   1 <1>  -0.0190 
  8 C       -0.4850     3.2260    -0.2540 C.2   1 <1>  -0.1500 
  9 C       -5.4460     0.2050    -0.0330 C.3   1 <1>  -0.1600 
 10 C       -4.3670     1.8790    -1.3560 C.3   1 <1>  -0.1600 
 11 N       -1.8860     4.2770     1.0730 N.2   1 <1>  -0.4100 
 12 C       -0.8170     4.4200     0.3690 C.2   1 <1>   0.1080 
 13 C       -6.5520     1.1580    -0.4970 C.3   1 <1>  -0.0800 
 14 C       -5.8630     2.2140    -1.3780 C.3   1 <1>  -0.0800 
 15 C       -0.0260     5.7180     0.2350 C.3   1 <1>   0.1010 
 16 C       -7.2220     1.9250     0.6530 C.3   1 <1>  -0.1600 
 17 C       -6.1850     3.5810    -0.7540 C.3   1 <1>  -0.1600 
 18 C        0.4970     6.1800     1.6010 C.3   1 <1>  -0.2400 
 19 C       -0.8840     6.8140    -0.4090 C.3   1 <1>  -0.2400 
 20 C       -7.4090     3.3330     0.1130 C.3   1 <1>   0.2000 
 21 O       -7.4470     4.2390     1.1500 O.3   1 <1>  -0.6800 
 22 H       -4.1940     1.7020     0.7700 H     1 <1>   0.0800 
 23 H       -3.5440    -1.5550     0.6620 H     1 <1>   0.0800 
 24 H       -1.9340    -1.6090     0.0090 H     1 <1>   0.0800 
 25 H       -3.2960    -1.5280    -1.0790 H     1 <1>   0.0800 
 26 H        0.3540     3.0390    -0.8990 H     1 <1>   0.1500 
 27 H       -5.3950    -0.6000    -0.7430 H     1 <1>   0.0800 
 28 H       -5.6310    -0.1880     0.9510 H     1 <1>   0.0800 
 29 H       -3.7570     2.7640    -1.3730 H     1 <1>   0.0800 
 30 H       -4.1310     1.2710    -2.2120 H     1 <1>   0.0800 
 31 H       -7.3010     0.6300    -1.0640 H     1 <1>   0.0800 
 32 H       -6.2470     2.1710    -2.3840 H     1 <1>   0.0800 
 33 H        0.8200     5.5320    -0.4040 H     1 <1>   0.0800 
 34 H       -6.5750     1.9490     1.5120 H     1 <1>   0.0800 
 35 H       -8.1650     1.4830     0.9230 H     1 <1>   0.0800 
 36 H       -6.3880     4.3190    -1.5100 H     1 <1>   0.0800 
 37 H       -5.3650     3.9130    -0.1410 H     1 <1>   0.0800 
 38 H       -0.3240     6.3870     2.2640 H     1 <1>   0.0800 
 39 H        1.0920     7.0700     1.4950 H     1 <1>   0.0800 
 40 H        1.1050     5.4090     2.0410 H     1 <1>   0.0800 
 41 H       -1.7360     7.0320     0.2110 H     1 <1>   0.0800 
 42 H       -1.2370     6.4870    -1.3700 H     1 <1>   0.0800 
 43 H       -0.3090     7.7130    -0.5390 H     1 <1>   0.0800 
 44 H       -8.3170     3.4130    -0.4600 H     1 <1>   0.0800 
 45 H       -6.5980     4.2280     1.6300 H     1 <1>   0.4000 
@<TRIPOS>BOND
  1   1   2  2   
  2   2   3  am  
  3   2   4  1   
  4   3   5  1   
  5   3   6  1   
  6   4   7  1   
  7   4   8  2   
  8   5   9  1   
  9   5  10  1   
 10   5  22  1   
 11   6  23  1   
 12   6  24  1   
 13   6  25  1   
 14   7  11  1   
 15   8  12  1   
 16   8  26  1   
 17   9  13  1   
 18   9  27  1   
 19   9  28  1   
 20  10  14  1   
 21  10  29  1   
 22  10  30  1   
 23  11  12  2   
 24  12  15  1   
 25  13  14  1   
 26  13  16  1   
 27  13  31  1   
 28  14  17  1   
 29  14  32  1   
 30  15  18  1   
 31  15  19  1   
 32  15  33  1   
 33  16  20  1   
 34  16  34  1   
 35  16  35  1   
 36  17  20  1   
 37  17  36  1   
 38  17  37  1   
 39  18  38  1   
 40  18  39  1   
 41  18  40  1   
 42  19  41  1   
 43  19  42  1   
 44  19  43  1   
 45  20  21  1   
 46  20  44  1   
 47  21  45  1   
@<TRIPOS>SUBSTRUCTURE
  1 ****   7 GROUP 4 **** **** 0

# MOE 2024.06 (io_trps.svl 2023.06)
