@<TRIPOS>MOLECULE
NONAME
42 43 1 0 0 
SMALL
USER_CHARGES


@<TRIPOS>ATOM
  1 O        2.5600    -0.2890    -1.4960 O.2   1 <1>  -0.5700 
  2 C        2.3400     0.1790    -0.3940 C.2   1 <1>   0.5440 
  3 N        1.7950     1.4340    -0.3110 N.am  1 <1>  -0.7300 
  4 C        2.6540    -0.5560     0.8070 C.ar  1 <1>   0.0860 
  5 C        1.4250     2.2900    -1.4670 C.3   1 <1>   0.0600 
  6 C        2.2970    -1.9100     0.9550 C.ar  1 <1>   0.4100 
  7 C        3.3180     0.0590     1.8600 C.ar  1 <1>  -0.1500 
  8 N        2.5670    -2.6300     2.0430 N.ar  1 <1>  -0.6200 
  9 N        1.6260    -2.5670    -0.0470 N.pl3 1 <1>  -0.8690 
 10 C        3.5860    -0.6860     2.9860 C.ar  1 <1>  -0.1500 
 11 C        3.1920    -2.0100     3.0240 C.ar  1 <1>   0.1600 
 12 C        1.2830    -4.0100    -0.0980 C.3   1 <1>   0.4690 
 13 C        2.0240    -4.6230    -1.2960 C.2   1 <1>   0.0060 
 14 C       -0.2600    -4.1920    -0.1360 C.3   1 <1>  -0.0800 
 15 N        1.4800    -5.0070    -2.4140 N.2   1 <1>  -0.5650 
 16 N        3.3710    -4.7970    -1.2740 N.pl3 1 <1>   0.0480 
 17 C       -0.9860    -3.3900     0.9630 C.3   1 <1>  -0.2400 
 18 C       -0.6610    -5.6720     0.0100 C.3   1 <1>  -0.2400 
 19 C        2.5140    -5.4520    -3.1480 C.2   1 <1>   0.0770 
 20 C        3.6740    -5.3320    -2.4700 C.2   1 <1>  -0.3020 
 21 C        4.3370    -4.4420    -0.2170 C.3   1 <1>   0.0160 
 22 H        1.5020     1.7780     0.6050 H     1 <1>   0.3700 
 23 H        1.7870     1.8620    -2.3870 H     1 <1>   0.0800 
 24 H        1.8570     3.2690    -1.3500 H     1 <1>   0.0800 
 25 H        0.3540     2.3780    -1.5260 H     1 <1>   0.0800 
 26 H        3.6200     1.0900     1.7930 H     1 <1>   0.1500 
 27 H        1.6620    -2.1410    -0.9850 H     1 <1>   0.4000 
 28 H        4.0970    -0.2500     3.8270 H     1 <1>   0.1500 
 29 H        3.4050    -2.5870     3.9090 H     1 <1>   0.1500 
 30 H        1.6350    -4.5000     0.7920 H     1 <1>   0.0800 
 31 H       -0.6080    -3.8440    -1.0940 H     1 <1>   0.0800 
 32 H       -0.6110    -3.6590     1.9340 H     1 <1>   0.0800 
 33 H       -2.0440    -3.5810     0.9330 H     1 <1>   0.0800 
 34 H       -0.8370    -2.3340     0.8210 H     1 <1>   0.0800 
 35 H       -0.3360    -6.0620     0.9590 H     1 <1>   0.0800 
 36 H       -0.2210    -6.2660    -0.7720 H     1 <1>   0.0800 
 37 H       -1.7290    -5.7780    -0.0580 H     1 <1>   0.0800 
 38 H        2.3670    -5.8380    -4.1420 H     1 <1>   0.1500 
 39 H        4.6730    -5.5880    -2.7710 H     1 <1>   0.1500 
 40 H        3.9600    -4.7570     0.7380 H     1 <1>   0.0800 
 41 H        4.4750    -3.3760    -0.2130 H     1 <1>   0.0800 
 42 H        5.2760    -4.9250    -0.4090 H     1 <1>   0.0800 
@<TRIPOS>BOND
  1   1   2  2   
  2   2   3  am  
  3   2   4  1   
  4   3   5  1   
  5   3  22  1   
  6   4   6  ar  
  7   4   7  ar  
  8   5  23  1   
  9   5  24  1   
 10   5  25  1   
 11   6   8  ar  
 12   6   9  1   
 13   7  10  ar  
 14   7  26  1   
 15   8  11  ar  
 16   9  12  1   
 17   9  27  1   
 18  10  11  ar  
 19  10  28  1   
 20  11  29  1   
 21  12  13  1   
 22  12  14  1   
 23  12  30  1   
 24  13  15  2   
 25  13  16  1   
 26  14  17  1   
 27  14  18  1   
 28  14  31  1   
 29  15  19  1   
 30  16  20  1   
 31  16  21  1   
 32  17  32  1   
 33  17  33  1   
 34  17  34  1   
 35  18  35  1   
 36  18  36  1   
 37  18  37  1   
 38  19  20  2   
 39  19  38  1   
 40  20  39  1   
 41  21  40  1   
 42  21  41  1   
 43  21  42  1   
@<TRIPOS>SUBSTRUCTURE
  1 ****   9 GROUP 4 **** **** 0

# MOE 2024.06 (io_trps.svl 2023.06)
