@<TRIPOS>MOLECULE
NONAME
52 55 1 0 0 
SMALL
USER_CHARGES


@<TRIPOS>ATOM
  1 O        3.8740    -1.8450     0.0620 O.2   1 <1>  -0.5700 
  2 C        2.6560    -1.8960     0.1080 C.2   1 <1>   0.5440 
  3 N        1.9600    -0.7990    -0.3670 N.am  1 <1>  -0.6600 
  4 C        2.0190    -3.0850     0.6800 C.ar  1 <1>   0.3960 
  5 C        2.6330     0.3760    -0.9630 C.3   1 <1>   0.1400 
  6 C        0.5020    -0.5750    -0.2580 C.3   1 <1>   0.1400 
  7 N        0.8270    -3.5270     0.2330 N.ar  1 <1>  -0.6200 
  8 C        2.7030    -3.7540     1.7020 C.ar  1 <1>   0.1600 
  9 C        1.5000     1.2820    -1.4320 C.3   1 <1>  -0.1600 
 10 C        0.3160     0.9110    -0.5430 C.3   1 <1>  -0.1600 
 11 C        0.4010    -4.6060     0.8470 C.ar  1 <1>   0.4100 
 12 N        2.2750    -4.8380     2.3390 N.ar  1 <1>  -0.6200 
 13 N       -0.7990    -5.0570     0.3610 N.pl3 1 <1>  -0.8690 
 14 C        1.1060    -5.2310     1.8860 C.ar  1 <1>   0.1600 
 15 C       -0.9180    -6.4330    -0.1790 C.3   1 <1>   0.2090 
 16 C       -2.0640    -7.1730     0.5380 C.3   1 <1>   0.3430 
 17 N       -2.3050    -8.5630     0.0210 N.4   1 <1>  -0.9590 
 18 C       -3.5760    -9.1150     0.5750 C.3   1 <1>   0.4860 
 19 C       -1.1910    -9.5200     0.3100 C.3   1 <1>   0.3430 
 20 C       -3.8500   -10.4850    -0.0210 C.ar  1 <1>  -0.1430 
 21 C       -1.3770   -10.8050    -0.5020 C.3   1 <1>  -0.0170 
 22 C       -2.8220   -11.2820    -0.5140 C.ar  1 <1>  -0.1430 
 23 C       -5.1570   -10.9500    -0.0630 C.ar  1 <1>  -0.1500 
 24 C       -3.1120   -12.5310    -1.0410 C.ar  1 <1>  -0.1500 
 25 C       -5.4390   -12.1970    -0.5900 C.ar  1 <1>  -0.1500 
 26 C       -4.4170   -12.9880    -1.0780 C.ar  1 <1>  -0.1500 
 27 H        3.2710     0.0790    -1.7780 H     1 <1>   0.0800 
 28 H        3.2220     0.8640    -0.2050 H     1 <1>   0.0800 
 29 H        0.1380    -0.8390     0.7200 H     1 <1>   0.0800 
 30 H        0.0010    -1.1640    -1.0070 H     1 <1>   0.0800 
 31 H        3.6580    -3.3620     2.0070 H     1 <1>   0.1500 
 32 H        1.2730     1.0520    -2.4580 H     1 <1>   0.0800 
 33 H        1.7620     2.3220    -1.3560 H     1 <1>   0.0800 
 34 H        0.3720     1.4540     0.3850 H     1 <1>   0.0800 
 35 H       -0.6300     1.1140    -1.0120 H     1 <1>   0.0800 
 36 H       -1.1550    -4.3480    -0.2940 H     1 <1>   0.4000 
 37 H        0.6640    -6.0910     2.3510 H     1 <1>   0.1500 
 38 H        0.0130    -6.9560    -0.0400 H     1 <1>   0.0800 
 39 H       -1.1250    -6.3710    -1.2340 H     1 <1>   0.0800 
 40 H       -2.9600    -6.5880     0.4110 H     1 <1>   0.0800 
 41 H       -1.8400    -7.2140     1.5910 H     1 <1>   0.0800 
 42 H       -2.4480    -8.5470    -0.9990 H     1 <1>   0.4500 
 43 H       -4.3970    -8.4570     0.3400 H     1 <1>   0.0800 
 44 H       -3.5070    -9.2030     1.6470 H     1 <1>   0.0800 
 45 H       -1.1890    -9.7640     1.3600 H     1 <1>   0.0800 
 46 H       -0.2370    -9.0840     0.0620 H     1 <1>   0.0800 
 47 H       -0.7460   -11.5730    -0.0890 H     1 <1>   0.0800 
 48 H       -1.0570   -10.6350    -1.5150 H     1 <1>   0.0800 
 49 H       -5.9720   -10.3550     0.3140 H     1 <1>   0.1500 
 50 H       -2.3280   -13.1590    -1.4270 H     1 <1>   0.1500 
 51 H       -6.4550   -12.5560    -0.6200 H     1 <1>   0.1500 
 52 H       -4.6370   -13.9600    -1.4880 H     1 <1>   0.1500 
@<TRIPOS>BOND
  1   1   2  2   
  2   2   3  am  
  3   2   4  1   
  4   3   5  1   
  5   3   6  1   
  6   4   7  ar  
  7   4   8  ar  
  8   5   9  1   
  9   5  27  1   
 10   5  28  1   
 11   6  10  1   
 12   6  29  1   
 13   6  30  1   
 14   7  11  ar  
 15   8  12  ar  
 16   8  31  1   
 17   9  10  1   
 18   9  32  1   
 19   9  33  1   
 20  10  34  1   
 21  10  35  1   
 22  11  13  1   
 23  11  14  ar  
 24  12  14  ar  
 25  13  15  1   
 26  13  36  1   
 27  14  37  1   
 28  15  16  1   
 29  15  38  1   
 30  15  39  1   
 31  16  17  1   
 32  16  40  1   
 33  16  41  1   
 34  17  18  1   
 35  17  19  1   
 36  17  42  1   
 37  18  20  1   
 38  18  43  1   
 39  18  44  1   
 40  19  21  1   
 41  19  45  1   
 42  19  46  1   
 43  20  22  ar  
 44  20  23  ar  
 45  21  22  1   
 46  21  47  1   
 47  21  48  1   
 48  22  24  ar  
 49  23  25  ar  
 50  23  49  1   
 51  24  26  ar  
 52  24  50  1   
 53  25  26  ar  
 54  25  51  1   
 55  26  52  1   
@<TRIPOS>SUBSTRUCTURE
  1 ****  15 GROUP 4 **** **** 0

# MOE 2024.06 (io_trps.svl 2023.06)
