@<TRIPOS>MOLECULE
NONAME
44 45 1 0 0 
SMALL
USER_CHARGES


@<TRIPOS>ATOM
  1 O        1.2440    -0.2500    -1.3000 O.2   1 <1>  -0.5700 
  2 C        1.4270    -0.6270    -0.1590 C.2   1 <1>   0.7150 
  3 N        1.6790     0.2990     0.8040 N.am  1 <1>  -0.7300 
  4 C        1.4160    -2.0120     0.2180 C.2   1 <1>  -0.2370 
  5 C        1.6790     1.7580     0.6080 C.3   1 <1>   0.2200 
  6 N        0.5070    -2.9690    -0.1900 N.pl3 1 <1>   0.0480 
  7 C        2.3120    -2.6220     1.0620 C.2   1 <1>  -0.1500 
  8 C        3.0790     2.2110     0.1770 C.3   1 <1>  -0.0160 
  9 C        1.2140     2.4010     1.9140 C.3   1 <1>  -0.2400 
 10 C        0.8590    -4.1390     0.4050 C.2   1 <1>  -0.3020 
 11 C       -0.7100    -2.8720    -1.0540 C.3   1 <1>   0.1760 
 12 C        1.9610    -3.9610     1.1770 C.2   1 <1>  -0.1500 
 13 C        3.0850     3.6660    -0.2550 C.ar  1 <1>   0.1670 
 14 C       -0.3400    -2.8300    -2.5410 C.3   1 <1>  -0.2400 
 15 C       -1.6320    -1.7150    -0.6480 C.3   1 <1>  -0.2400 
 16 N        3.4580     4.5570     0.6510 N.ar  1 <1>  -0.6200 
 17 C        2.7050     3.9890    -1.5490 C.ar  1 <1>  -0.1500 
 18 C        3.4560     5.8200     0.2600 C.ar  1 <1>   0.1670 
 19 C        2.7050     5.3070    -1.9480 C.ar  1 <1>  -0.1500 
 20 C        3.0930     6.2390    -1.0110 C.ar  1 <1>  -0.1500 
 21 C        3.8850     6.8310     1.3010 C.3   1 <1>  -0.0970 
 22 H        1.8160    -0.0320     1.7570 H     1 <1>   0.3700 
 23 H        0.9780     2.0040    -0.1730 H     1 <1>   0.0800 
 24 H        3.1530    -2.1660     1.5540 H     1 <1>   0.1500 
 25 H        3.4030     1.6100    -0.6540 H     1 <1>   0.0800 
 26 H        3.7780     2.0720     0.9810 H     1 <1>   0.0800 
 27 H        1.9140     2.2060     2.7060 H     1 <1>   0.0800 
 28 H        0.2430     2.0280     2.1880 H     1 <1>   0.0800 
 29 H        1.1370     3.4660     1.7890 H     1 <1>   0.0800 
 30 H        0.3100    -5.0520     0.2550 H     1 <1>   0.1500 
 31 H       -1.2670    -3.7790    -0.8950 H     1 <1>   0.0800 
 32 H        2.4770    -4.6970     1.7690 H     1 <1>   0.1500 
 33 H        0.1800    -1.9250    -2.7880 H     1 <1>   0.0800 
 34 H       -1.2310    -2.8790    -3.1400 H     1 <1>   0.0800 
 35 H        0.2830    -3.6710    -2.7890 H     1 <1>   0.0800 
 36 H       -1.2100    -0.7640    -0.9120 H     1 <1>   0.0800 
 37 H       -1.8170    -1.7420     0.4110 H     1 <1>   0.0800 
 38 H       -2.5720    -1.8080    -1.1590 H     1 <1>   0.0800 
 39 H        2.4120     3.2150    -2.2360 H     1 <1>   0.1500 
 40 H        2.4160     5.5930    -2.9450 H     1 <1>   0.1500 
 41 H        3.1120     7.2820    -1.2670 H     1 <1>   0.1500 
 42 H        4.8870     6.6110     1.6210 H     1 <1>   0.0800 
 43 H        3.2300     6.7700     2.1500 H     1 <1>   0.0800 
 44 H        3.8550     7.8300     0.9080 H     1 <1>   0.0800 
@<TRIPOS>BOND
  1   1   2  2   
  2   2   3  am  
  3   2   4  1   
  4   3   5  1   
  5   3  22  1   
  6   4   6  1   
  7   4   7  2   
  8   5   8  1   
  9   5   9  1   
 10   5  23  1   
 11   6  10  1   
 12   6  11  1   
 13   7  12  1   
 14   7  24  1   
 15   8  13  1   
 16   8  25  1   
 17   8  26  1   
 18   9  27  1   
 19   9  28  1   
 20   9  29  1   
 21  10  12  2   
 22  10  30  1   
 23  11  14  1   
 24  11  15  1   
 25  11  31  1   
 26  12  32  1   
 27  13  16  ar  
 28  13  17  ar  
 29  14  33  1   
 30  14  34  1   
 31  14  35  1   
 32  15  36  1   
 33  15  37  1   
 34  15  38  1   
 35  16  18  ar  
 36  17  19  ar  
 37  17  39  1   
 38  18  20  ar  
 39  18  21  1   
 40  19  20  ar  
 41  19  40  1   
 42  20  41  1   
 43  21  42  1   
 44  21  43  1   
 45  21  44  1   
@<TRIPOS>SUBSTRUCTURE
  1 ****   3 GROUP 4 **** **** 0

# MOE 2024.06 (io_trps.svl 2023.06)
