@<TRIPOS>MOLECULE
NONAME
48 50 1 0 0 
SMALL
USER_CHARGES


@<TRIPOS>ATOM
  1 CL       0.5080     0.8740    -0.4810 Cl    1 <1>  -0.1770 
  2 C        0.7490     2.4430     0.2550 C.ar  1 <1>   0.1770 
  3 C        2.0200     2.9140     0.5690 C.ar  1 <1>  -0.1440 
  4 C       -0.3830     3.1960     0.5090 C.ar  1 <1>  -0.1500 
  5 C        2.1260     4.1750     1.1430 C.ar  1 <1>  -0.1500 
  6 C        3.2980     2.1220     0.3060 C.3   1 <1>   0.3640 
  7 C       -0.2590     4.4480     1.0840 C.ar  1 <1>  -0.1500 
  8 C        0.9970     4.9350     1.4000 C.ar  1 <1>  -0.1500 
  9 N        3.2530     0.8320     1.0320 N.am  1 <1>  -0.7300 
 10 C        3.5990     1.9460    -1.2040 C.3   1 <1>   0.2610 
 11 C        3.6360    -0.3420     0.4800 C.2   1 <1>   0.5690 
 12 O        4.5340     0.9010    -1.4320 O.3   1 <1>  -0.5600 
 13 C        4.0480     3.2910    -1.7910 C.2   1 <1>   0.5690 
 14 O        3.6080    -1.3600     1.1230 O.2   1 <1>  -0.5700 
 15 C        4.0950    -0.3640    -0.9820 C.3   1 <1>   0.1810 
 16 O        3.2530     3.8450    -2.5160 O.2   1 <1>  -0.5700 
 17 N        5.2590     3.8840    -1.4880 N.am  1 <1>  -0.6600 
 18 C        5.6000     5.2350    -2.0150 C.3   1 <1>   0.1400 
 19 C        6.3770     3.2590    -0.7260 C.3   1 <1>   0.1400 
 20 C        5.9650     6.1620    -0.8510 C.3   1 <1>  -0.1600 
 21 C        6.7570     4.1570     0.4550 C.3   1 <1>  -0.1600 
 22 C        7.1090     5.5850     0.0040 C.3   1 <1>  -0.0800 
 23 C        7.4150     6.4600     1.2340 C.3   1 <1>  -0.1600 
 24 C        7.9230     7.8540     0.8590 C.3   1 <1>   0.1200 
 25 O        8.2860     8.5080     2.0200 O.3   1 <1>  -0.6800 
 26 H       -1.3510     2.8040     0.2550 H     1 <1>   0.1500 
 27 H        3.0910     4.5840     1.3940 H     1 <1>   0.1500 
 28 H        4.1140     2.6780     0.7290 H     1 <1>   0.0800 
 29 H       -1.1350     5.0410     1.2840 H     1 <1>   0.1500 
 30 H        1.0950     5.9110     1.8440 H     1 <1>   0.1500 
 31 H        2.8840     0.8270     1.9830 H     1 <1>   0.3700 
 32 H        2.6970     1.6700    -1.7180 H     1 <1>   0.0800 
 33 H        3.2830    -0.6860    -1.6080 H     1 <1>   0.0800 
 34 H        4.9120    -1.0530    -1.0900 H     1 <1>   0.0800 
 35 H        6.4320     5.1480    -2.6920 H     1 <1>   0.0800 
 36 H        4.7730     5.6580    -2.5610 H     1 <1>   0.0800 
 37 H        6.1160     2.2850    -0.3580 H     1 <1>   0.0800 
 38 H        7.2220     3.1430    -1.3830 H     1 <1>   0.0800 
 39 H        6.2490     7.1140    -1.2610 H     1 <1>   0.0800 
 40 H        5.0880     6.3140    -0.2460 H     1 <1>   0.0800 
 41 H        5.9370     4.1840     1.1510 H     1 <1>   0.0800 
 42 H        7.6000     3.7210     0.9620 H     1 <1>   0.0800 
 43 H        7.9960     5.5320    -0.6060 H     1 <1>   0.0800 
 44 H        8.1770     5.9730     1.8200 H     1 <1>   0.0800 
 45 H        6.5290     6.5520     1.8380 H     1 <1>   0.0800 
 46 H        7.1650     8.4380     0.3670 H     1 <1>   0.0800 
 47 H        8.7950     7.7910     0.2310 H     1 <1>   0.0800 
 48 H        7.5200     8.5980     2.6190 H     1 <1>   0.4000 
@<TRIPOS>BOND
  1   1   2  1   
  2   2   3  ar  
  3   2   4  ar  
  4   3   5  ar  
  5   3   6  1   
  6   4   7  ar  
  7   4  26  1   
  8   5   8  ar  
  9   5  27  1   
 10   6   9  1   
 11   6  10  1   
 12   6  28  1   
 13   7   8  ar  
 14   7  29  1   
 15   8  30  1   
 16   9  11  am  
 17   9  31  1   
 18  10  12  1   
 19  10  13  1   
 20  10  32  1   
 21  11  14  2   
 22  11  15  1   
 23  12  15  1   
 24  13  16  2   
 25  13  17  am  
 26  15  33  1   
 27  15  34  1   
 28  17  18  1   
 29  17  19  1   
 30  18  20  1   
 31  18  35  1   
 32  18  36  1   
 33  19  21  1   
 34  19  37  1   
 35  19  38  1   
 36  20  22  1   
 37  20  39  1   
 38  20  40  1   
 39  21  22  1   
 40  21  41  1   
 41  21  42  1   
 42  22  23  1   
 43  22  43  1   
 44  23  24  1   
 45  23  44  1   
 46  23  45  1   
 47  24  25  1   
 48  24  46  1   
 49  24  47  1   
 50  25  48  1   
@<TRIPOS>SUBSTRUCTURE
  1 ****   6 GROUP 4 **** **** 0

# MOE 2024.06 (io_trps.svl 2023.06)
