@<TRIPOS>MOLECULE
NONAME
52 54 1 0 0 
SMALL
USER_CHARGES


@<TRIPOS>ATOM
  1 O       -1.2010     0.4870     1.5880 O.2   1 <1>  -0.5700 
  2 C       -1.6550     0.7990     0.5130 C.2   1 <1>   0.5690 
  3 N       -2.2630    -0.1110    -0.3100 N.am  1 <1>  -0.6600 
  4 C       -1.5420     2.2550     0.0820 C.3   1 <1>  -0.0990 
  5 C       -2.2700    -1.5640     0.0880 C.3   1 <1>   0.3640 
  6 C       -3.0290     0.2850    -1.5340 C.3   1 <1>   0.1400 
  7 C       -0.5650     3.0740     0.9440 C.3   1 <1>  -0.0220 
  8 C       -0.9740    -2.2450    -0.3680 C.ar  1 <1>  -0.1440 
  9 C       -3.5050    -2.3790    -0.4080 C.3   1 <1>   0.2000 
 10 C       -3.7970    -0.8770    -2.1790 C.3   1 <1>   0.1200 
 11 C       -0.4460     4.5090     0.4190 C.2   1 <1>  -0.1240 
 12 C       -0.4200    -2.0370    -1.6260 C.ar  1 <1>  -0.1500 
 13 C       -0.3330    -3.1110     0.5070 C.ar  1 <1>  -0.1500 
 14 O       -4.4060    -1.6340    -1.1870 O.3   1 <1>  -0.5600 
 15 C       -4.3090    -2.9720     0.7560 C.3   1 <1>   0.1200 
 16 C       -1.2940     5.4950     0.8280 C.2   1 <1>  -0.0290 
 17 C        0.5710     4.8510    -0.5300 C.2   1 <1>   0.3750 
 18 C        0.7440    -2.6860    -2.0010 C.ar  1 <1>  -0.1500 
 19 C        0.8310    -3.7610     0.1350 C.ar  1 <1>  -0.1500 
 20 O       -3.5360    -3.8810     1.4750 O.3   1 <1>  -0.6800 
 21 N       -1.0970     6.7380     0.3070 N.am  1 <1>  -0.5390 
 22 C       -2.4540     5.3820     1.8060 C.3   1 <1>  -0.1020 
 23 N        0.7280     6.0310    -1.0120 N.2   1 <1>  -0.6610 
 24 C        1.5520     3.8050    -1.0320 C.3   1 <1>  -0.1790 
 25 C        1.3700    -3.5500    -1.1210 C.ar  1 <1>  -0.1500 
 26 C       -0.1160     7.0160    -0.5910 C.2   1 <1>   0.8410 
 27 O       -0.0120     8.1520    -1.0080 O.2   1 <1>  -0.5700 
 28 H       -1.2110     2.2870    -0.9380 H     1 <1>   0.0800 
 29 H       -2.5180     2.7000     0.1340 H     1 <1>   0.0800 
 30 H       -2.2790    -1.6060     1.1640 H     1 <1>   0.0800 
 31 H       -3.7420     1.0450    -1.2650 H     1 <1>   0.0800 
 32 H       -2.3570     0.7040    -2.2620 H     1 <1>   0.0800 
 33 H        0.3940     2.5880     0.9650 H     1 <1>   0.0800 
 34 H       -0.9050     3.0800     1.9640 H     1 <1>   0.0800 
 35 H       -3.1660    -3.1920    -1.0260 H     1 <1>   0.0800 
 36 H       -3.1450    -1.5110    -2.7550 H     1 <1>   0.0800 
 37 H       -4.5670    -0.4970    -2.8270 H     1 <1>   0.0800 
 38 H       -0.8830    -1.3670    -2.3230 H     1 <1>   0.1500 
 39 H       -0.7390    -3.2840     1.4900 H     1 <1>   0.1500 
 40 H       -5.1790    -3.4900     0.3900 H     1 <1>   0.0800 
 41 H       -4.6140    -2.1920     1.4320 H     1 <1>   0.0800 
 42 H        1.1650    -2.5180    -2.9770 H     1 <1>   0.1500 
 43 H        1.3170    -4.4270     0.8250 H     1 <1>   0.1500 
 44 H       -3.3650    -4.6880     0.9490 H     1 <1>   0.4000 
 45 H       -1.6640     7.5460     0.5530 H     1 <1>   0.3700 
 46 H       -3.3400     5.8100     1.3710 H     1 <1>   0.0800 
 47 H       -2.2210     5.9190     2.7080 H     1 <1>   0.0800 
 48 H       -2.6780     4.3650     2.0660 H     1 <1>   0.0800 
 49 H        1.0320     2.9570    -1.4340 H     1 <1>   0.0800 
 50 H        2.1930     3.4900    -0.2290 H     1 <1>   0.0800 
 51 H        2.1700     4.2180    -1.8100 H     1 <1>   0.0800 
 52 H        2.2750    -4.0550    -1.4100 H     1 <1>   0.1500 
@<TRIPOS>BOND
  1   1   2  2   
  2   2   3  am  
  3   2   4  1   
  4   3   5  1   
  5   3   6  1   
  6   4   7  1   
  7   4  28  1   
  8   4  29  1   
  9   5   8  1   
 10   5   9  1   
 11   5  30  1   
 12   6  10  1   
 13   6  31  1   
 14   6  32  1   
 15   7  11  1   
 16   7  33  1   
 17   7  34  1   
 18   8  12  ar  
 19   8  13  ar  
 20   9  14  1   
 21   9  15  1   
 22   9  35  1   
 23  10  14  1   
 24  10  36  1   
 25  10  37  1   
 26  11  16  2   
 27  11  17  1   
 28  12  18  ar  
 29  12  38  1   
 30  13  19  ar  
 31  13  39  1   
 32  15  20  1   
 33  15  40  1   
 34  15  41  1   
 35  16  21  1   
 36  16  22  1   
 37  17  23  2   
 38  17  24  1   
 39  18  25  ar  
 40  18  42  1   
 41  19  25  ar  
 42  19  43  1   
 43  20  44  1   
 44  21  26  am  
 45  21  45  1   
 46  22  46  1   
 47  22  47  1   
 48  22  48  1   
 49  23  26  1   
 50  24  49  1   
 51  24  50  1   
 52  24  51  1   
 53  25  52  1   
 54  26  27  2   
@<TRIPOS>SUBSTRUCTURE
  1 ****   2 GROUP 4 **** **** 0

# MOE 2024.06 (io_trps.svl 2023.06)
