@<TRIPOS>MOLECULE
NONAME
46 49 1 0 0 
SMALL
USER_CHARGES


@<TRIPOS>ATOM
  1 O        3.6010    -2.0190     2.1730 O.2   1 <1>  -0.5700 
  2 C        2.7690    -1.8300     1.3020 C.2   1 <1>   0.5440 
  3 N        2.8480    -0.6100     0.6550 N.am  1 <1>  -0.6600 
  4 C        1.7970    -2.8800     0.9720 C.ar  1 <1>   0.3960 
  5 C        3.4270     0.5790     1.3920 C.3   1 <1>   0.2200 
  6 C        2.6410    -0.5080    -0.8230 C.3   1 <1>   0.1400 
  7 N        0.7860    -2.6560     0.1560 N.ar  1 <1>  -0.6200 
  8 C        1.9810    -4.1600     1.5640 C.ar  1 <1>   0.1600 
  9 C        2.7190     1.8960     1.0340 C.3   1 <1>   0.1200 
 10 C        4.9570     0.6870     1.1920 C.3   1 <1>   0.3430 
 11 C        3.5070     0.5550    -1.5280 C.3   1 <1>  -0.0800 
 12 C       -0.0390    -3.7120    -0.0550 C.ar  1 <1>   0.3100 
 13 N        1.2270    -5.1970     1.3760 N.ar  1 <1>  -0.6200 
 14 O        3.2960     2.4940    -0.0860 O.3   1 <1>  -0.5600 
 15 N        5.4290    -0.1350     0.0280 N.4   1 <1>  -0.9590 
 16 C        2.9490     1.9730    -1.3230 C.3   1 <1>   0.1200 
 17 C        5.0300     0.4820    -1.2770 C.3   1 <1>   0.3430 
 18 C        0.1780    -4.9770     0.5450 C.ar  1 <1>   0.3100 
 19 C       -1.1500    -3.5540    -0.9010 C.ar  1 <1>  -0.1500 
 20 C        6.9450    -0.2410     0.0910 C.3   1 <1>   0.2370 
 21 C       -0.7160    -6.0220     0.2700 C.ar  1 <1>  -0.1500 
 22 C       -2.0100    -4.5910    -1.1520 C.ar  1 <1>  -0.1500 
 23 C        7.6840     1.0940    -0.0450 C.2   1 <1>   0.9060 
 24 C       -1.7900    -5.8390    -0.5620 C.ar  1 <1>  -0.1500 
 25 O        7.9250     1.5030    -1.1840 O.co2 1 <1>  -0.9000 
 26 O        7.8880     1.7490     0.9800 O.co2 1 <1>  -0.9000 
 27 H        3.2530     0.4310     2.4440 H     1 <1>   0.0800 
 28 H        2.8530    -1.4660    -1.2660 H     1 <1>   0.0800 
 29 H        1.6000    -0.2980    -1.0070 H     1 <1>   0.0800 
 30 H        2.8220    -4.2800     2.2250 H     1 <1>   0.1500 
 31 H        2.8480     2.5910     1.8450 H     1 <1>   0.0800 
 32 H        1.6640     1.7520     0.8760 H     1 <1>   0.0800 
 33 H        5.4380     0.3330     2.0880 H     1 <1>   0.0800 
 34 H        5.2480     1.7180     1.0620 H     1 <1>   0.0800 
 35 H        3.3810     0.3740    -2.5800 H     1 <1>   0.0800 
 36 H        4.9830    -1.0530     0.1420 H     1 <1>   0.4500 
 37 H        1.8760     1.9980    -1.4230 H     1 <1>   0.0800 
 38 H        3.3690     2.6350    -2.0620 H     1 <1>   0.0800 
 39 H        5.4470     1.4760    -1.3430 H     1 <1>   0.0800 
 40 H        5.4780    -0.0940    -2.0710 H     1 <1>   0.0800 
 41 H       -1.3090    -2.5890    -1.3470 H     1 <1>   0.1500 
 42 H        7.2410    -0.6700     1.0310 H     1 <1>   0.0800 
 43 H        7.2990    -0.8770    -0.6990 H     1 <1>   0.0800 
 44 H       -0.5310    -6.9730     0.7350 H     1 <1>   0.1500 
 45 H       -2.8590    -4.4600    -1.8020 H     1 <1>   0.1500 
 46 H       -2.4720    -6.6470    -0.7670 H     1 <1>   0.1500 
@<TRIPOS>BOND
  1   1   2  2   
  2   2   3  am  
  3   2   4  1   
  4   3   5  1   
  5   3   6  1   
  6   4   7  ar  
  7   4   8  ar  
  8   5   9  1   
  9   5  10  1   
 10   5  27  1   
 11   6  11  1   
 12   6  28  1   
 13   6  29  1   
 14   7  12  ar  
 15   8  13  ar  
 16   8  30  1   
 17   9  14  1   
 18   9  31  1   
 19   9  32  1   
 20  10  15  1   
 21  10  33  1   
 22  10  34  1   
 23  11  16  1   
 24  11  17  1   
 25  11  35  1   
 26  12  18  ar  
 27  12  19  ar  
 28  13  18  ar  
 29  14  16  1   
 30  15  17  1   
 31  15  20  1   
 32  15  36  1   
 33  16  37  1   
 34  16  38  1   
 35  17  39  1   
 36  17  40  1   
 37  18  21  ar  
 38  19  22  ar  
 39  19  41  1   
 40  20  23  1   
 41  20  42  1   
 42  20  43  1   
 43  21  24  ar  
 44  21  44  1   
 45  22  24  ar  
 46  22  45  1   
 47  23  25  ar  
 48  23  26  ar  
 49  24  46  1   
@<TRIPOS>SUBSTRUCTURE
  1 ****   3 GROUP 4 **** **** 0

# MOE 2024.06 (io_trps.svl 2023.06)
