@<TRIPOS>MOLECULE
NONAME
30 31 1 0 0 
SMALL
USER_CHARGES


@<TRIPOS>ATOM
  1 O       -0.1250    -0.6110    -1.2800 O.2   1 <1>  -0.5700 
  2 C       -0.1420    -1.6980    -0.7240 C.2   1 <1>   0.5410 
  3 C        1.0290    -2.4750    -0.4040 C.2   1 <1>   0.0910 
  4 C       -1.3770    -2.2880    -0.3340 C.2   1 <1>  -0.1360 
  5 O        2.2640    -2.0150    -0.7490 O.3   1 <1>  -0.5270 
  6 C        0.9030    -3.6610     0.2390 C.2   1 <1>  -0.0730 
  7 C       -1.4180    -3.4820     0.3060 C.2   1 <1>  -0.0610 
  8 O       -0.2940    -4.1470     0.5960 O.3   1 <1>  -0.1530 
  9 C       -2.6910    -4.1800     0.7520 C.3   1 <1>   0.2580 
 10 O       -2.8990    -5.2860    -0.0620 O.3   1 <1>  -0.5600 
 11 C       -4.0220    -6.0300     0.2550 C.3   1 <1>   0.4800 
 12 O       -3.7130    -7.3360    -0.0960 O.3   1 <1>  -0.5600 
 13 C       -5.2220    -5.5370    -0.5640 C.3   1 <1>  -0.1600 
 14 C       -4.7150    -8.2650     0.1760 C.3   1 <1>   0.1200 
 15 C       -6.4180    -6.4850    -0.4020 C.3   1 <1>  -0.1600 
 16 C       -5.9640    -7.9290    -0.6490 C.3   1 <1>  -0.1600 
 17 H       -2.2600    -1.7320    -0.5830 H     1 <1>   0.1500 
 18 H        2.9800    -2.6360    -0.5270 H     1 <1>   0.4500 
 19 H        1.7230    -4.3000     0.5110 H     1 <1>   0.1500 
 20 H       -3.5340    -3.5180     0.6580 H     1 <1>   0.0800 
 21 H       -2.5930    -4.5090     1.7730 H     1 <1>   0.0800 
 22 H       -4.2040    -5.9960     1.3160 H     1 <1>   0.0800 
 23 H       -4.9310    -5.4970    -1.5990 H     1 <1>   0.0800 
 24 H       -5.5020    -4.5500    -0.2490 H     1 <1>   0.0800 
 25 H       -4.9250    -8.2460     1.2320 H     1 <1>   0.0800 
 26 H       -4.3390    -9.2380    -0.0890 H     1 <1>   0.0800 
 27 H       -7.1990    -6.2190    -1.0940 H     1 <1>   0.0800 
 28 H       -6.8100    -6.4010     0.5970 H     1 <1>   0.0800 
 29 H       -6.7570    -8.6110    -0.3980 H     1 <1>   0.0800 
 30 H       -5.7320    -8.0660    -1.6910 H     1 <1>   0.0800 
@<TRIPOS>BOND
  1   1   2  2   
  2   2   3  1   
  3   2   4  1   
  4   3   5  1   
  5   3   6  2   
  6   4   7  2   
  7   4  17  1   
  8   5  18  1   
  9   6   8  1   
 10   6  19  1   
 11   7   8  1   
 12   7   9  1   
 13   9  10  1   
 14   9  20  1   
 15   9  21  1   
 16  10  11  1   
 17  11  12  1   
 18  11  13  1   
 19  11  22  1   
 20  12  14  1   
 21  13  15  1   
 22  13  23  1   
 23  13  24  1   
 24  14  16  1   
 25  14  25  1   
 26  14  26  1   
 27  15  16  1   
 28  15  27  1   
 29  15  28  1   
 30  16  29  1   
 31  16  30  1   
@<TRIPOS>SUBSTRUCTURE
  1 ****  10 GROUP 4 **** **** 0

# MOE 2024.06 (io_trps.svl 2023.06)
