@<TRIPOS>MOLECULE
NONAME
53 57 1 0 0 
SMALL
USER_CHARGES


@<TRIPOS>ATOM
  1 O       -1.5730    -0.4220     0.2800 O.2   1 <1>  -0.5700 
  2 C       -1.9100    -1.5750     0.3220 C.2   1 <1>   0.4230 
  3 C       -2.6590    -2.3120    -0.6450 C.ar  1 <1>   0.0860 
  4 C       -1.5740    -2.4800     1.4890 C.3   1 <1>  -0.0990 
  5 C       -2.8540    -3.6130    -0.2260 C.ar  1 <1>  -0.1440 
  6 C       -3.1750    -1.8980    -1.8670 C.ar  1 <1>  -0.1500 
  7 C       -2.2010    -3.8430     1.1270 C.3   1 <1>  -0.0160 
  8 C       -3.5640    -4.5400    -0.9840 C.ar  1 <1>   0.0860 
  9 C       -3.8770    -2.7970    -2.6490 C.ar  1 <1>  -0.1500 
 10 C       -3.7810    -5.9000    -0.5240 C.2   1 <1>   0.5440 
 11 C       -4.0650    -4.0990    -2.2120 C.ar  1 <1>  -0.1500 
 12 O       -2.8310    -6.6120    -0.2590 O.2   1 <1>  -0.5700 
 13 N       -5.0500    -6.4020    -0.3640 N.am  1 <1>  -0.6600 
 14 C       -6.2860    -5.5890    -0.3800 C.3   1 <1>   0.1400 
 15 C       -5.3060    -7.7790     0.1090 C.3   1 <1>   0.1400 
 16 C       -7.3310    -6.4250     0.3640 C.3   1 <1>  -0.0800 
 17 C       -6.8150    -7.8790     0.3550 C.3   1 <1>  -0.0800 
 18 C       -8.7920    -6.2300    -0.1220 C.3   1 <1>   0.4240 
 19 C       -7.5340    -8.7530    -0.6860 C.3   1 <1>  -0.1600 
 20 O       -8.8150    -6.1430    -1.5030 O.3   1 <1>  -0.6800 
 21 C       -9.3960    -4.9450     0.4810 C.ar  1 <1>  -0.1430 
 22 C       -9.6150    -7.4900     0.2020 C.3   1 <1>  -0.1600 
 23 C       -9.0600    -8.7770    -0.4580 C.3   1 <1>  -0.1600 
 24 C       -9.7020    -4.8900     1.8390 C.ar  1 <1>  -0.1500 
 25 C       -9.6370    -3.8070    -0.2850 C.ar  1 <1>  -0.1500 
 26 C      -10.2330    -3.7460     2.4080 C.ar  1 <1>  -0.1500 
 27 C      -10.1690    -2.6620     0.2810 C.ar  1 <1>  -0.1500 
 28 C      -10.4690    -2.6290     1.6300 C.ar  1 <1>  -0.1500 
 29 H       -0.5070    -2.5580     1.5920 H     1 <1>   0.0800 
 30 H       -1.9990    -2.0820     2.3920 H     1 <1>   0.0800 
 31 H       -3.0200    -0.8820    -2.1870 H     1 <1>   0.1500 
 32 H       -2.9360    -4.1370     1.8570 H     1 <1>   0.0800 
 33 H       -1.4450    -4.6060     1.0530 H     1 <1>   0.0800 
 34 H       -4.2770    -2.4850    -3.5990 H     1 <1>   0.1500 
 35 H       -4.6070    -4.7940    -2.8300 H     1 <1>   0.1500 
 36 H       -6.1350    -4.6430     0.1120 H     1 <1>   0.0800 
 37 H       -6.5590    -5.4100    -1.4040 H     1 <1>   0.0800 
 38 H       -4.9680    -8.4900    -0.6260 H     1 <1>   0.0800 
 39 H       -4.7640    -7.9400     1.0260 H     1 <1>   0.0800 
 40 H       -7.2890    -6.1090     1.3900 H     1 <1>   0.0800 
 41 H       -6.9760    -8.3250     1.3220 H     1 <1>   0.0800 
 42 H       -7.3160    -8.3730    -1.6700 H     1 <1>   0.0800 
 43 H       -7.1520    -9.7590    -0.6450 H     1 <1>   0.0800 
 44 H       -8.6180    -7.0310    -1.8520 H     1 <1>   0.4000 
 45 H       -9.6090    -7.6360     1.2660 H     1 <1>   0.0800 
 46 H      -10.6410    -7.3350    -0.0850 H     1 <1>   0.0800 
 47 H       -9.3120    -9.6130     0.1720 H     1 <1>   0.0800 
 48 H       -9.5500    -8.9380    -1.4030 H     1 <1>   0.0800 
 49 H       -9.5270    -5.7390     2.4740 H     1 <1>   0.1500 
 50 H       -9.4140    -3.7980    -1.3380 H     1 <1>   0.1500 
 51 H      -10.4650    -3.7250     3.4590 H     1 <1>   0.1500 
 52 H      -10.3500    -1.7960    -0.3310 H     1 <1>   0.1500 
 53 H      -10.8840    -1.7400     2.0700 H     1 <1>   0.1500 
@<TRIPOS>BOND
  1   1   2  2   
  2   2   3  1   
  3   2   4  1   
  4   3   5  ar  
  5   3   6  ar  
  6   4   7  1   
  7   4  29  1   
  8   4  30  1   
  9   5   7  1   
 10   5   8  ar  
 11   6   9  ar  
 12   6  31  1   
 13   7  32  1   
 14   7  33  1   
 15   8  10  1   
 16   8  11  ar  
 17   9  11  ar  
 18   9  34  1   
 19  10  12  2   
 20  10  13  am  
 21  11  35  1   
 22  13  14  1   
 23  13  15  1   
 24  14  16  1   
 25  14  36  1   
 26  14  37  1   
 27  15  17  1   
 28  15  38  1   
 29  15  39  1   
 30  16  17  1   
 31  16  18  1   
 32  16  40  1   
 33  17  19  1   
 34  17  41  1   
 35  18  20  1   
 36  18  21  1   
 37  18  22  1   
 38  19  23  1   
 39  19  42  1   
 40  19  43  1   
 41  20  44  1   
 42  21  24  ar  
 43  21  25  ar  
 44  22  23  1   
 45  22  45  1   
 46  22  46  1   
 47  23  47  1   
 48  23  48  1   
 49  24  26  ar  
 50  24  49  1   
 51  25  27  ar  
 52  25  50  1   
 53  26  28  ar  
 54  26  51  1   
 55  27  28  ar  
 56  27  52  1   
 57  28  53  1   
@<TRIPOS>SUBSTRUCTURE
  1 ****  14 GROUP 4 **** **** 0

# MOE 2024.06 (io_trps.svl 2023.06)
