@<TRIPOS>MOLECULE
NONAME
50 53 1 0 0 
SMALL
USER_CHARGES


@<TRIPOS>ATOM
  1 N       -1.0970     0.0910    -0.7670 N.ar  1 <1>  -0.6200 
  2 C       -1.9610     1.0360    -0.4560 C.ar  1 <1>   0.4100 
  3 C        0.1020     0.4990    -1.1260 C.ar  1 <1>   0.4760 
  4 N       -3.2240     0.6270    -0.0970 N.pl3 1 <1>  -0.8380 
  5 C       -1.6080     2.3790    -0.4980 C.ar  1 <1>  -0.1440 
  6 N        0.5490     1.7380    -1.2080 N.ar  1 <1>  -0.6200 
  7 C        1.0840    -0.5890    -1.4840 C.3   1 <1>  -0.0970 
  8 C       -3.3760    -0.4150     0.9670 C.3   1 <1>   0.2090 
  9 C       -4.2600     0.5160    -1.1710 C.3   1 <1>   0.2090 
 10 C       -0.3260     2.6690    -0.8850 C.ar  1 <1>   0.1600 
 11 C       -2.5750     3.4970    -0.1220 C.3   1 <1>  -0.0160 
 12 C       -3.5010    -1.8420     0.3940 C.3   1 <1>   0.2090 
 13 C       -4.3620    -0.9140    -1.7390 C.3   1 <1>   0.2090 
 14 C       -2.6050     3.6990     1.3980 C.3   1 <1>  -0.1600 
 15 N       -4.5620    -1.9310    -0.6590 N.pl3 1 <1>  -0.8380 
 16 C       -3.5690     4.8200     1.7990 C.3   1 <1>  -0.2400 
 17 C       -5.8200    -2.3840    -0.3350 C.ar  1 <1>   0.4100 
 18 N       -6.7950    -1.5220    -0.4020 N.ar  1 <1>  -0.6200 
 19 C       -6.0330    -3.7250     0.0760 C.ar  1 <1>   0.0000 
 20 C       -7.9960    -1.9500    -0.0040 C.ar  1 <1>   0.4700 
 21 C       -7.3320    -4.0420     0.4840 C.ar  1 <1>   0.3100 
 22 C       -5.0580    -4.7440     0.0870 C.ar  1 <1>  -0.1500 
 23 N       -8.3190    -3.1240     0.4380 N.ar  1 <1>  -0.6200 
 24 C       -7.6150    -5.3400     0.9340 C.ar  1 <1>  -0.1500 
 25 C       -5.3550    -6.0100     0.5250 C.ar  1 <1>  -0.1500 
 26 C       -6.6470    -6.3110     0.9590 C.ar  1 <1>  -0.1500 
 27 H        0.6170    -1.2930    -2.1460 H     1 <1>   0.0800 
 28 H        1.3930    -1.0950    -0.5890 H     1 <1>   0.0800 
 29 H        1.9470    -0.1720    -1.9690 H     1 <1>   0.0800 
 30 H       -4.2570    -0.1950     1.5440 H     1 <1>   0.0800 
 31 H       -2.5280    -0.3740     1.6290 H     1 <1>   0.0800 
 32 H       -4.0230     1.1940    -1.9710 H     1 <1>   0.0800 
 33 H       -5.2160     0.7980    -0.7670 H     1 <1>   0.0800 
 34 H        0.0050     3.6920    -0.9320 H     1 <1>   0.1500 
 35 H       -3.5630     3.2590    -0.4740 H     1 <1>   0.0800 
 36 H       -2.2740     4.4130    -0.6000 H     1 <1>   0.0800 
 37 H       -3.7240    -2.5200     1.1980 H     1 <1>   0.0800 
 38 H       -2.5570    -2.1310    -0.0330 H     1 <1>   0.0800 
 39 H       -3.4550    -1.1420    -2.2720 H     1 <1>   0.0800 
 40 H       -5.1780    -0.9630    -2.4390 H     1 <1>   0.0800 
 41 H       -1.6140     3.9350     1.7480 H     1 <1>   0.0800 
 42 H       -2.9120     2.7800     1.8690 H     1 <1>   0.0800 
 43 H       -3.2730     5.7520     1.3510 H     1 <1>   0.0800 
 44 H       -3.5680     4.9390     2.8680 H     1 <1>   0.0800 
 45 H       -4.5700     4.5840     1.4830 H     1 <1>   0.0800 
 46 H       -8.7820    -1.2150    -0.0590 H     1 <1>   0.1500 
 47 H       -4.0680    -4.5130    -0.2630 H     1 <1>   0.1500 
 48 H       -8.6180    -5.5500     1.2550 H     1 <1>   0.1500 
 49 H       -4.6030    -6.7810     0.5340 H     1 <1>   0.1500 
 50 H       -6.8720    -7.3060     1.3050 H     1 <1>   0.1500 
@<TRIPOS>BOND
  1   1   2  ar  
  2   1   3  ar  
  3   2   4  1   
  4   2   5  ar  
  5   3   6  ar  
  6   3   7  1   
  7   4   8  1   
  8   4   9  1   
  9   5  10  ar  
 10   5  11  1   
 11   6  10  ar  
 12   7  27  1   
 13   7  28  1   
 14   7  29  1   
 15   8  12  1   
 16   8  30  1   
 17   8  31  1   
 18   9  13  1   
 19   9  32  1   
 20   9  33  1   
 21  10  34  1   
 22  11  14  1   
 23  11  35  1   
 24  11  36  1   
 25  12  15  1   
 26  12  37  1   
 27  12  38  1   
 28  13  15  1   
 29  13  39  1   
 30  13  40  1   
 31  14  16  1   
 32  14  41  1   
 33  14  42  1   
 34  15  17  1   
 35  16  43  1   
 36  16  44  1   
 37  16  45  1   
 38  17  18  ar  
 39  17  19  ar  
 40  18  20  ar  
 41  19  21  ar  
 42  19  22  ar  
 43  20  23  ar  
 44  20  46  1   
 45  21  23  ar  
 46  21  24  ar  
 47  22  25  ar  
 48  22  47  1   
 49  24  26  ar  
 50  24  48  1   
 51  25  26  ar  
 52  25  49  1   
 53  26  50  1   
@<TRIPOS>SUBSTRUCTURE
  1 ****  12 GROUP 4 **** **** 0

# MOE 2024.06 (io_trps.svl 2023.06)
