@<TRIPOS>MOLECULE
NONAME
53 55 1 0 0 
SMALL
USER_CHARGES


@<TRIPOS>ATOM
  1 O       -0.5560     0.0740     3.0270 O.2   1 <1>  -0.5700 
  2 C       -1.1260     0.8550     2.3000 C.2   1 <1>   0.5690 
  3 N       -2.0820     0.4360     1.4150 N.am  1 <1>  -0.6600 
  4 C       -0.7530     2.3270     2.3990 C.3   1 <1>   0.0440 
  5 C       -2.7320     1.2640     0.3680 C.3   1 <1>   0.1400 
  6 C       -2.4950    -0.9750     1.2750 C.3   1 <1>   0.1400 
  7 C        0.0650     2.8020     1.1960 C.ar  1 <1>  -0.1440 
  8 C       -3.6690     0.3130    -0.3900 C.3   1 <1>   0.2000 
  9 C       -3.0600    -1.0720    -0.1440 C.3   1 <1>  -0.0800 
 10 C       -0.3930     3.7890     0.3240 C.ar  1 <1>   0.0830 
 11 C        1.3070     2.2250     0.9790 C.ar  1 <1>  -0.1500 
 12 O       -4.9520     0.3480     0.1710 O.3   1 <1>  -0.5600 
 13 C       -4.0350    -2.2470    -0.3400 C.3   1 <1>   0.0200 
 14 O       -1.6180     4.3330     0.5550 O.3   1 <1>  -0.3630 
 15 C        0.4010     4.1780    -0.7500 C.ar  1 <1>  -0.1500 
 16 C        2.0930     2.6150    -0.0900 C.ar  1 <1>  -0.1500 
 17 C       -5.7730     1.3750    -0.2890 C.3   1 <1>   0.0400 
 18 C       -3.3550    -3.6040    -0.2650 C.2   1 <1>  -0.0400 
 19 C       -2.0370     5.5050    -0.1100 C.3   1 <1>   0.0400 
 20 C        1.6390     3.5990    -0.9620 C.ar  1 <1>   0.0830 
 21 O       -4.0930    -4.6810    -0.3320 O.3   1 <1>  -0.0190 
 22 C       -2.0760    -3.9960    -0.1400 C.2   1 <1>  -0.1500 
 23 O        2.3440     4.0400    -2.0340 O.3   1 <1>  -0.3620 
 24 N       -3.3800    -5.7670    -0.2570 N.2   1 <1>  -0.4100 
 25 C       -2.1600    -5.3850    -0.1390 C.2   1 <1>   0.1080 
 26 C        3.6320     3.5410    -2.3180 C.3   1 <1>   0.0400 
 27 C       -0.9820    -6.3240    -0.0160 C.3   1 <1>  -0.0590 
 28 H       -1.6520     2.8980     2.5250 H     1 <1>   0.0800 
 29 H       -0.1680     2.4690     3.2880 H     1 <1>   0.0800 
 30 H       -3.2620     2.0920     0.8020 H     1 <1>   0.0800 
 31 H       -1.9760     1.6290    -0.3040 H     1 <1>   0.0800 
 32 H       -1.6610    -1.6380     1.4280 H     1 <1>   0.0800 
 33 H       -3.2600    -1.1840     2.0030 H     1 <1>   0.0800 
 34 H       -3.7340     0.5430    -1.4400 H     1 <1>   0.0800 
 35 H       -2.2330    -1.1890    -0.8210 H     1 <1>   0.0800 
 36 H        1.6670     1.4600     1.6490 H     1 <1>   0.1500 
 37 H       -4.5090    -2.1590    -1.3010 H     1 <1>   0.0800 
 38 H       -4.8070    -2.2080     0.4090 H     1 <1>   0.0800 
 39 H        0.0840     4.9300    -1.4450 H     1 <1>   0.1500 
 40 H        3.0480     2.1440    -0.2240 H     1 <1>   0.1500 
 41 H       -6.7190     1.2960     0.2180 H     1 <1>   0.0800 
 42 H       -5.9210     1.2640    -1.3490 H     1 <1>   0.0800 
 43 H       -5.3240     2.3270    -0.0650 H     1 <1>   0.0800 
 44 H       -2.9770     5.8110     0.3110 H     1 <1>   0.0800 
 45 H       -2.1570     5.2910    -1.1570 H     1 <1>   0.0800 
 46 H       -1.3010     6.2750     0.0440 H     1 <1>   0.0800 
 47 H       -1.1750    -3.4180    -0.0590 H     1 <1>   0.1500 
 48 H        3.9970     4.0410    -3.1970 H     1 <1>   0.0800 
 49 H        3.5650     2.4830    -2.5010 H     1 <1>   0.0800 
 50 H        4.2790     3.7500    -1.4840 H     1 <1>   0.0800 
 51 H       -0.4570    -6.1320     0.9010 H     1 <1>   0.0800 
 52 H       -0.3130    -6.1800    -0.8450 H     1 <1>   0.0800 
 53 H       -1.3230    -7.3430    -0.0160 H     1 <1>   0.0800 
@<TRIPOS>BOND
  1   1   2  2   
  2   2   3  am  
  3   2   4  1   
  4   3   5  1   
  5   3   6  1   
  6   4   7  1   
  7   4  28  1   
  8   4  29  1   
  9   5   8  1   
 10   5  30  1   
 11   5  31  1   
 12   6   9  1   
 13   6  32  1   
 14   6  33  1   
 15   7  10  ar  
 16   7  11  ar  
 17   8   9  1   
 18   8  12  1   
 19   8  34  1   
 20   9  13  1   
 21   9  35  1   
 22  10  14  1   
 23  10  15  ar  
 24  11  16  ar  
 25  11  36  1   
 26  12  17  1   
 27  13  18  1   
 28  13  37  1   
 29  13  38  1   
 30  14  19  1   
 31  15  20  ar  
 32  15  39  1   
 33  16  20  ar  
 34  16  40  1   
 35  17  41  1   
 36  17  42  1   
 37  17  43  1   
 38  18  21  1   
 39  18  22  2   
 40  19  44  1   
 41  19  45  1   
 42  19  46  1   
 43  20  23  1   
 44  21  24  1   
 45  22  25  1   
 46  22  47  1   
 47  23  26  1   
 48  24  25  2   
 49  25  27  1   
 50  26  48  1   
 51  26  49  1   
 52  26  50  1   
 53  27  51  1   
 54  27  52  1   
 55  27  53  1   
@<TRIPOS>SUBSTRUCTURE
  1 ****   3 GROUP 4 **** **** 0

# MOE 2024.06 (io_trps.svl 2023.06)
