@<TRIPOS>MOLECULE
NONAME
46 48 1 0 0 
SMALL
USER_CHARGES


@<TRIPOS>ATOM
  1 O       -0.3110     0.4910     0.5510 O.2   1 <1>  -0.5700 
  2 C       -0.4140     1.6360     0.1700 C.2   1 <1>   0.6300 
  3 N       -1.3160     1.9950    -0.8010 N.am  1 <1>  -0.6600 
  4 C        0.5100     2.6640     0.7990 C.3   1 <1>   0.0000 
  5 C       -2.2960     1.0370    -1.3540 C.3   1 <1>   0.1400 
  6 C       -1.3970     3.3510    -1.4030 C.3   1 <1>   0.1400 
  7 C        1.6870     2.9050    -0.1220 C.2   1 <1>   0.6300 
  8 C        0.7510     2.6410     2.2890 C.3   1 <1>  -0.2000 
  9 C       -0.0370     3.7570     1.6840 C.3   1 <1>  -0.2000 
 10 C       -3.7260     1.6190    -1.2440 C.3   1 <1>  -0.1600 
 11 C       -2.8100     3.5840    -1.9470 C.3   1 <1>  -0.1600 
 12 O        1.7440     3.9060    -0.7910 O.2   1 <1>  -0.5700 
 13 N        2.6700     1.9880    -0.1880 N.am  1 <1>  -0.8000 
 14 C       -3.8780     3.1730    -0.8510 C.3   1 <1>   0.2800 
 15 O       -3.9090     4.5250    -0.4470 O.3   1 <1>  -0.5600 
 16 C       -5.0580     2.8100     0.1740 C.3   1 <1>  -0.1600 
 17 C       -4.9570     5.3360    -0.9250 C.3   1 <1>   0.1200 
 18 C       -5.9550     3.8780     0.8440 C.3   1 <1>   0.2800 
 19 C       -6.2450     4.9560    -0.1970 C.3   1 <1>  -0.1600 
 20 O       -5.2270     4.4680     1.8640 O.3   1 <1>  -0.6800 
 21 C       -7.2410     3.2840     1.4620 C.3   1 <1>   0.1200 
 22 O       -7.8990     4.2450     2.2160 O.3   1 <1>  -0.6800 
 23 H       -2.2400     0.0940    -0.8350 H     1 <1>   0.0800 
 24 H       -2.0500     0.8530    -2.3870 H     1 <1>   0.0800 
 25 H       -0.6730     3.4400    -2.1950 H     1 <1>   0.0800 
 26 H       -1.1840     4.1020    -0.6640 H     1 <1>   0.0800 
 27 H        1.7380     2.8520     2.6600 H     1 <1>   0.1000 
 28 H        0.2360     1.9020     2.8790 H     1 <1>   0.1000 
 29 H       -1.1000     3.7940     1.8540 H     1 <1>   0.1000 
 30 H        0.4040     4.7360     1.6120 H     1 <1>   0.1000 
 31 H       -4.1850     0.8930    -0.5920 H     1 <1>   0.0800 
 32 H       -4.2300     1.4520    -2.1810 H     1 <1>   0.0800 
 33 H       -2.9210     3.0560    -2.8790 H     1 <1>   0.0800 
 34 H       -2.8370     4.6100    -2.2800 H     1 <1>   0.0800 
 35 H        3.4570     2.1290    -0.8210 H     1 <1>   0.3700 
 36 H        2.6140     1.0920     0.2980 H     1 <1>   0.3700 
 37 H       -4.6620     2.2130     0.9800 H     1 <1>   0.0800 
 38 H       -5.7850     2.2090    -0.3510 H     1 <1>   0.0800 
 39 H       -5.0540     5.2100    -1.9900 H     1 <1>   0.0800 
 40 H       -4.6960     6.3580    -0.7110 H     1 <1>   0.0800 
 41 H       -6.9470     4.5790    -0.9180 H     1 <1>   0.0800 
 42 H       -6.6940     5.8200     0.2620 H     1 <1>   0.0800 
 43 H       -4.3840     4.7550     1.4460 H     1 <1>   0.4000 
 44 H       -6.9910     2.4660     2.1150 H     1 <1>   0.0800 
 45 H       -7.9150     2.9320     0.7020 H     1 <1>   0.0800 
 46 H       -7.2060     4.7370     2.7110 H     1 <1>   0.4000 
@<TRIPOS>BOND
  1   1   2  2   
  2   2   3  am  
  3   2   4  1   
  4   3   5  1   
  5   3   6  1   
  6   4   7  1   
  7   4   8  1   
  8   4   9  1   
  9   5  10  1   
 10   5  23  1   
 11   5  24  1   
 12   6  11  1   
 13   6  25  1   
 14   6  26  1   
 15   7  12  2   
 16   7  13  am  
 17   8   9  1   
 18   8  27  1   
 19   8  28  1   
 20   9  29  1   
 21   9  30  1   
 22  10  14  1   
 23  10  31  1   
 24  10  32  1   
 25  11  14  1   
 26  11  33  1   
 27  11  34  1   
 28  13  35  1   
 29  13  36  1   
 30  14  15  1   
 31  14  16  1   
 32  15  17  1   
 33  16  18  1   
 34  16  37  1   
 35  16  38  1   
 36  17  19  1   
 37  17  39  1   
 38  17  40  1   
 39  18  19  1   
 40  18  20  1   
 41  18  21  1   
 42  19  41  1   
 43  19  42  1   
 44  20  43  1   
 45  21  22  1   
 46  21  44  1   
 47  21  45  1   
 48  22  46  1   
@<TRIPOS>SUBSTRUCTURE
  1 ****  14 GROUP 4 **** **** 0

# MOE 2024.06 (io_trps.svl 2023.06)
