@<TRIPOS>MOLECULE
NONAME
60 63 1 0 0 
SMALL
USER_CHARGES


@<TRIPOS>ATOM
  1 O        1.9000    -0.3790     2.9230 O.2   1 <1>  -0.5700 
  2 C        2.2450    -1.1950     2.1090 C.2   1 <1>   0.5690 
  3 N        1.4270    -1.5860     1.1100 N.am  1 <1>  -0.7300 
  4 C        3.6170    -1.8310     2.1800 C.3   1 <1>  -0.0990 
  5 C        1.8010    -2.6100     0.1130 C.3   1 <1>   0.1400 
  6 C        4.2430    -1.9230     0.7750 C.3   1 <1>  -0.0800 
  7 C        3.2660    -2.4070    -0.3270 C.3   1 <1>  -0.0800 
  8 C        5.4620    -2.8540     0.7230 C.3   1 <1>  -0.1600 
  9 C        3.8930    -3.6790    -0.9130 C.3   1 <1>  -0.1600 
 10 C        5.3890    -3.5130    -0.6500 C.3   1 <1>   0.2200 
 11 N        6.1740    -4.7850    -0.7200 N.am  1 <1>  -0.6600 
 12 C        7.3920    -4.8660    -1.3620 C.2   1 <1>   0.5690 
 13 C        5.6250    -5.9880    -0.0190 C.3   1 <1>   0.0600 
 14 O        8.0160    -5.9040    -1.3960 O.2   1 <1>  -0.5700 
 15 C        8.0300    -3.6630    -2.0830 C.3   1 <1>   0.1710 
 16 N        8.3390    -2.4820    -1.2280 N.3   1 <1>  -0.8100 
 17 C        8.8940    -1.3780    -2.0380 C.3   1 <1>   0.1100 
 18 C        9.3060    -2.8450    -0.1640 C.3   1 <1>   0.1100 
 19 C        9.2430    -0.1360    -1.1910 C.3   1 <1>   0.2090 
 20 C        9.6440    -1.6560     0.7540 C.3   1 <1>   0.2090 
 21 N       10.1130    -0.4720    -0.0240 N.pl3 1 <1>  -0.8380 
 22 C       11.4800    -0.1990    -0.0420 C.ar  1 <1>   0.1000 
 23 C       12.0900     0.2990     1.1030 C.ar  1 <1>  -0.1500 
 24 C       12.2670    -0.4160    -1.1680 C.ar  1 <1>  -0.1500 
 25 C       13.4460     0.5750     1.1360 C.ar  1 <1>  -0.1440 
 26 C       13.6220    -0.1420    -1.1470 C.ar  1 <1>  -0.1500 
 27 C       14.2120     0.3520     0.0040 C.ar  1 <1>  -0.1500 
 28 C       14.0980     1.1200     2.3930 C.3   1 <1>  -0.0970 
 29 H        0.4870    -1.1860     1.0840 H     1 <1>   0.3700 
 30 H        4.2480    -1.2520     2.8290 H     1 <1>   0.0800 
 31 H        3.4980    -2.8090     2.6060 H     1 <1>   0.0800 
 32 H        1.6760    -3.5790     0.5660 H     1 <1>   0.0800 
 33 H        1.1480    -2.5470    -0.7410 H     1 <1>   0.0800 
 34 H        4.5640    -0.9320     0.4990 H     1 <1>   0.0800 
 35 H        3.2660    -1.6580    -1.1010 H     1 <1>   0.0800 
 36 H        5.3990    -3.5970     1.4960 H     1 <1>   0.0800 
 37 H        6.3790    -2.3030     0.8350 H     1 <1>   0.0800 
 38 H        3.6880    -3.7760    -1.9640 H     1 <1>   0.0800 
 39 H        3.5080    -4.5340    -0.3900 H     1 <1>   0.0800 
 40 H        5.7580    -2.8060    -1.3720 H     1 <1>   0.0800 
 41 H        5.1460    -5.7090     0.9010 H     1 <1>   0.0800 
 42 H        6.4110    -6.6860     0.2130 H     1 <1>   0.0800 
 43 H        4.9110    -6.4800    -0.6560 H     1 <1>   0.0800 
 44 H        7.3600    -3.3640    -2.8670 H     1 <1>   0.0800 
 45 H        8.9370    -4.0040    -2.5500 H     1 <1>   0.0800 
 46 H        9.7830    -1.7130    -2.5440 H     1 <1>   0.0800 
 47 H        8.1770    -1.0900    -2.7860 H     1 <1>   0.0800 
 48 H        8.8960    -3.6340     0.4430 H     1 <1>   0.0800 
 49 H       10.2180    -3.2080    -0.6060 H     1 <1>   0.0800 
 50 H        8.3320     0.3030    -0.8250 H     1 <1>   0.0800 
 51 H        9.7350     0.5970    -1.8070 H     1 <1>   0.0800 
 52 H       10.4060    -1.9540     1.4530 H     1 <1>   0.0800 
 53 H        8.7680    -1.3810     1.3150 H     1 <1>   0.0800 
 54 H       11.4760     0.4700     1.9670 H     1 <1>   0.1500 
 55 H       11.8200    -0.8070    -2.0590 H     1 <1>   0.1500 
 56 H       14.2210    -0.3150    -2.0240 H     1 <1>   0.1500 
 57 H       15.2670     0.5640     0.0140 H     1 <1>   0.1500 
 58 H       14.5580     2.0690     2.1840 H     1 <1>   0.0800 
 59 H       14.8510     0.4360     2.7400 H     1 <1>   0.0800 
 60 H       13.3720     1.2570     3.1740 H     1 <1>   0.0800 
@<TRIPOS>BOND
  1   1   2  2   
  2   2   3  am  
  3   2   4  1   
  4   3   5  1   
  5   3  29  1   
  6   4   6  1   
  7   4  30  1   
  8   4  31  1   
  9   5   7  1   
 10   5  32  1   
 11   5  33  1   
 12   6   7  1   
 13   6   8  1   
 14   6  34  1   
 15   7   9  1   
 16   7  35  1   
 17   8  10  1   
 18   8  36  1   
 19   8  37  1   
 20   9  10  1   
 21   9  38  1   
 22   9  39  1   
 23  10  11  1   
 24  10  40  1   
 25  11  12  am  
 26  11  13  1   
 27  12  14  2   
 28  12  15  1   
 29  13  41  1   
 30  13  42  1   
 31  13  43  1   
 32  15  16  1   
 33  15  44  1   
 34  15  45  1   
 35  16  17  1   
 36  16  18  1   
 37  17  19  1   
 38  17  46  1   
 39  17  47  1   
 40  18  20  1   
 41  18  48  1   
 42  18  49  1   
 43  19  21  1   
 44  19  50  1   
 45  19  51  1   
 46  20  21  1   
 47  20  52  1   
 48  20  53  1   
 49  21  22  1   
 50  22  23  ar  
 51  22  24  ar  
 52  23  25  ar  
 53  23  54  1   
 54  24  26  ar  
 55  24  55  1   
 56  25  27  ar  
 57  25  28  1   
 58  26  27  ar  
 59  26  56  1   
 60  27  57  1   
 61  28  58  1   
 62  28  59  1   
 63  28  60  1   
@<TRIPOS>SUBSTRUCTURE
  1 ****  16 GROUP 4 **** **** 0

# MOE 2024.06 (io_trps.svl 2023.06)
