@<TRIPOS>MOLECULE
NONAME
53 56 1 0 0 
SMALL
USER_CHARGES


@<TRIPOS>ATOM
  1 O        0.3530     0.2530     0.1530 O.3   1 <1>  -0.5600 
  2 C        0.3110     1.6250     0.4150 C.3   1 <1>   0.2950 
  3 C        1.6060    -0.3460     0.2990 C.3   1 <1>   0.2000 
  4 C       -1.1360     2.0850     0.2300 C.3   1 <1>  -0.1950 
  5 C        1.2590     2.3730    -0.5490 C.3   1 <1>   0.3430 
  6 C        2.6080     0.2940    -0.6920 C.3   1 <1>   0.3430 
  7 C        1.4120    -1.8460     0.0520 C.3   1 <1>  -0.1600 
  8 C       -1.6600     3.2940     0.9420 C.3   1 <1>  -0.2000 
  9 C       -2.1430     1.9230     1.3240 C.3   1 <1>  -0.2000 
 10 N        2.6550     1.7930    -0.5620 N.4   1 <1>  -0.9590 
 11 C        2.6960    -2.6610     0.2810 C.3   1 <1>  -0.1600 
 12 C        3.4980     2.4190    -1.6150 C.3   1 <1>   0.4860 
 13 C        2.4310    -4.1590     0.0910 C.3   1 <1>  -0.1600 
 14 C        3.6480     3.8900    -1.2840 C.ar  1 <1>  -0.1430 
 15 C        3.7060    -4.9770     0.3160 C.3   1 <1>  -0.2400 
 16 C        4.5200     4.2920    -0.2750 C.ar  1 <1>  -0.1500 
 17 C        2.9070     4.8400    -1.9850 C.ar  1 <1>  -0.1500 
 18 C        4.6200     5.6370     0.0230 C.ar  1 <1>  -0.1430 
 19 C        3.0170     6.1860    -1.6750 C.ar  1 <1>  -0.1500 
 20 C        3.8790     6.5600    -0.6640 C.ar  1 <1>   0.0820 
 21 C        5.4590     6.3600     1.0370 C.3   1 <1>  -0.0170 
 22 O        4.0920     7.8180    -0.2510 O.3   1 <1>  -0.3620 
 23 C        5.0680     7.8280     0.7820 C.3   1 <1>   0.1200 
 24 H        0.6110     1.7860     1.4360 H     1 <1>   0.0800 
 25 H        1.9340    -0.1970     1.3140 H     1 <1>   0.0800 
 26 H       -1.4890     1.9200    -0.7740 H     1 <1>   0.1000 
 27 H        1.2930     3.4130    -0.2670 H     1 <1>   0.0800 
 28 H        0.8340     2.3170    -1.5370 H     1 <1>   0.0800 
 29 H        2.3040     0.0240    -1.6900 H     1 <1>   0.0800 
 30 H        3.5870    -0.1210    -0.5210 H     1 <1>   0.0800 
 31 H        0.6530    -2.2040     0.7270 H     1 <1>   0.0800 
 32 H        1.0610    -2.0030    -0.9540 H     1 <1>   0.0800 
 33 H       -1.0480     3.8220     1.6540 H     1 <1>   0.1000 
 34 H       -2.3480     3.9470     0.4320 H     1 <1>   0.1000 
 35 H       -3.1460     1.6320     1.0600 H     1 <1>   0.1000 
 36 H       -1.8320     1.5030     2.2650 H     1 <1>   0.1000 
 37 H        3.0860     2.0360     0.3380 H     1 <1>   0.4500 
 38 H        3.4640    -2.3590    -0.4100 H     1 <1>   0.0800 
 39 H        3.0560    -2.4960     1.2830 H     1 <1>   0.0800 
 40 H        4.4720     1.9590    -1.6390 H     1 <1>   0.0800 
 41 H        3.0390     2.3030    -2.5830 H     1 <1>   0.0800 
 42 H        1.6760    -4.4870     0.7860 H     1 <1>   0.0800 
 43 H        2.0660    -4.3430    -0.9060 H     1 <1>   0.0800 
 44 H        4.0770    -4.8320     1.3150 H     1 <1>   0.0800 
 45 H        4.4700    -4.6910    -0.3850 H     1 <1>   0.0800 
 46 H        3.4970    -6.0240     0.1810 H     1 <1>   0.0800 
 47 H        5.1190     3.5850     0.2730 H     1 <1>   0.1500 
 48 H        2.2400     4.5500    -2.7790 H     1 <1>   0.1500 
 49 H        2.4560     6.9390    -2.2000 H     1 <1>   0.1500 
 50 H        6.5080     6.2080     0.8620 H     1 <1>   0.0800 
 51 H        5.2070     6.0670     2.0400 H     1 <1>   0.0800 
 52 H        5.9080     8.4080     0.4410 H     1 <1>   0.0800 
 53 H        4.6300     8.2820     1.6530 H     1 <1>   0.0800 
@<TRIPOS>BOND
  1   1   2  1   
  2   1   3  1   
  3   2   4  1   
  4   2   5  1   
  5   2  24  1   
  6   3   6  1   
  7   3   7  1   
  8   3  25  1   
  9   4   8  1   
 10   4   9  1   
 11   4  26  1   
 12   5  10  1   
 13   5  27  1   
 14   5  28  1   
 15   6  10  1   
 16   6  29  1   
 17   6  30  1   
 18   7  11  1   
 19   7  31  1   
 20   7  32  1   
 21   8   9  1   
 22   8  33  1   
 23   8  34  1   
 24   9  35  1   
 25   9  36  1   
 26  10  12  1   
 27  10  37  1   
 28  11  13  1   
 29  11  38  1   
 30  11  39  1   
 31  12  14  1   
 32  12  40  1   
 33  12  41  1   
 34  13  15  1   
 35  13  42  1   
 36  13  43  1   
 37  14  16  ar  
 38  14  17  ar  
 39  15  44  1   
 40  15  45  1   
 41  15  46  1   
 42  16  18  ar  
 43  16  47  1   
 44  17  19  ar  
 45  17  48  1   
 46  18  20  ar  
 47  18  21  1   
 48  19  20  ar  
 49  19  49  1   
 50  20  22  1   
 51  21  23  1   
 52  21  50  1   
 53  21  51  1   
 54  22  23  1   
 55  23  52  1   
 56  23  53  1   
@<TRIPOS>SUBSTRUCTURE
  1 ****  10 GROUP 4 **** **** 0

# MOE 2024.06 (io_trps.svl 2023.06)
