@<TRIPOS>MOLECULE
NONAME
49 52 1 0 0 
SMALL
USER_CHARGES


@<TRIPOS>ATOM
  1 O        1.6300    -0.4680    -2.2450 O.2   1 <1>  -0.5700 
  2 C        2.2810    -0.8010    -1.2750 C.2   1 <1>   0.7150 
  3 N        3.1180     0.1200    -0.6890 N.am  1 <1>  -0.6600 
  4 C        2.1650    -2.1300    -0.7340 C.2   1 <1>  -0.2370 
  5 C        3.4160     0.0610     0.7890 C.3   1 <1>   0.2200 
  6 C        3.6330     1.2510    -1.5240 C.3   1 <1>   0.1400 
  7 N        0.9600    -2.7520    -0.4810 N.pl3 1 <1>   0.0480 
  8 C        3.1650    -2.9920    -0.3810 C.2   1 <1>  -0.1500 
  9 C        2.9720     1.3370     1.5210 C.3   1 <1>   0.1200 
 10 C        4.8970    -0.2730     1.0780 C.3   1 <1>   0.3430 
 11 C        4.6530     2.1780    -0.8370 C.3   1 <1>  -0.0800 
 12 C        1.2140    -3.9890     0.0610 C.ar  1 <1>  -0.1520 
 13 C       -0.3780    -2.2230    -0.8200 C.3   1 <1>   0.0160 
 14 C        2.5910    -4.1640     0.1320 C.ar  1 <1>   0.0000 
 15 O        3.9540     2.3260     1.4690 O.3   1 <1>  -0.5600 
 16 N        5.8040     0.0490    -0.0630 N.4   1 <1>  -0.9590 
 17 C        4.0280     3.0320     0.2750 C.3   1 <1>   0.1200 
 18 C        5.9580     1.4980    -0.3870 C.3   1 <1>   0.3430 
 19 C        0.3520    -5.0000     0.5020 C.ar  1 <1>  -0.1500 
 20 C        3.1220    -5.3540     0.6430 C.ar  1 <1>  -0.1500 
 21 C        7.1640    -0.6230     0.0040 C.3   1 <1>   0.2370 
 22 C        0.8830    -6.1640     1.0070 C.ar  1 <1>  -0.1500 
 23 C        2.2700    -6.3420     1.0780 C.ar  1 <1>  -0.1500 
 24 C        7.8660    -0.6790    -1.3580 C.2   1 <1>   0.9060 
 25 O        9.0790    -0.8740    -1.4020 O.co2 1 <1>  -0.9000 
 26 O        7.1590    -0.4710    -2.3540 O.co2 1 <1>  -0.9000 
 27 H        2.8270    -0.7260     1.2250 H     1 <1>   0.0800 
 28 H        4.0880     0.8340    -2.4090 H     1 <1>   0.0800 
 29 H        2.7920     1.8390    -1.8540 H     1 <1>   0.0800 
 30 H        4.2250    -2.8440    -0.4820 H     1 <1>   0.1500 
 31 H        2.8260     1.1110     2.5630 H     1 <1>   0.0800 
 32 H        2.0430     1.7160     1.1280 H     1 <1>   0.0800 
 33 H        4.9620    -1.3270     1.2850 H     1 <1>   0.0800 
 34 H        5.2180     0.2530     1.9620 H     1 <1>   0.0800 
 35 H        4.9450     2.8850    -1.5930 H     1 <1>   0.0800 
 36 H       -0.4220    -1.1740    -0.5920 H     1 <1>   0.0800 
 37 H       -1.1320    -2.7380    -0.2550 H     1 <1>   0.0800 
 38 H       -0.5550    -2.3650    -1.8700 H     1 <1>   0.0800 
 39 H        5.3930    -0.3450    -0.9330 H     1 <1>   0.4500 
 40 H        3.0460     3.3840     0.0050 H     1 <1>   0.0800 
 41 H        4.6510     3.8900     0.4630 H     1 <1>   0.0800 
 42 H        6.3650     2.0220     0.4620 H     1 <1>   0.0800 
 43 H        6.6660     1.5860    -1.1960 H     1 <1>   0.0800 
 44 H       -0.7130    -4.8680     0.4450 H     1 <1>   0.1500 
 45 H        4.1880    -5.4790     0.6850 H     1 <1>   0.1500 
 46 H        7.8090    -0.1030     0.6890 H     1 <1>   0.0800 
 47 H        7.0570    -1.6380     0.3400 H     1 <1>   0.0800 
 48 H        0.2370    -6.9520     1.3510 H     1 <1>   0.1500 
 49 H        2.6590    -7.2640     1.4740 H     1 <1>   0.1500 
@<TRIPOS>BOND
  1   1   2  2   
  2   2   3  am  
  3   2   4  1   
  4   3   5  1   
  5   3   6  1   
  6   4   7  1   
  7   4   8  2   
  8   5   9  1   
  9   5  10  1   
 10   5  27  1   
 11   6  11  1   
 12   6  28  1   
 13   6  29  1   
 14   7  12  1   
 15   7  13  1   
 16   8  14  1   
 17   8  30  1   
 18   9  15  1   
 19   9  31  1   
 20   9  32  1   
 21  10  16  1   
 22  10  33  1   
 23  10  34  1   
 24  11  17  1   
 25  11  18  1   
 26  11  35  1   
 27  12  14  ar  
 28  12  19  ar  
 29  13  36  1   
 30  13  37  1   
 31  13  38  1   
 32  14  20  ar  
 33  15  17  1   
 34  16  18  1   
 35  16  21  1   
 36  16  39  1   
 37  17  40  1   
 38  17  41  1   
 39  18  42  1   
 40  18  43  1   
 41  19  22  ar  
 42  19  44  1   
 43  20  23  ar  
 44  20  45  1   
 45  21  24  1   
 46  21  46  1   
 47  21  47  1   
 48  22  23  ar  
 49  22  48  1   
 50  23  49  1   
 51  24  25  ar  
 52  24  26  ar  
@<TRIPOS>SUBSTRUCTURE
  1 ****   3 GROUP 4 **** **** 0

# MOE 2024.06 (io_trps.svl 2023.06)
