@<TRIPOS>MOLECULE
NONAME
53 55 1 0 0 
SMALL
USER_CHARGES


@<TRIPOS>ATOM
  1 O        1.7310     0.4770    -1.3970 O.3   1 <1>  -0.6800 
  2 C        1.5370     0.0710    -0.0900 C.3   1 <1>   0.2800 
  3 C        2.8550     0.2340     0.7300 C.3   1 <1>  -0.0800 
  4 C        1.1250    -1.4120    -0.1490 C.3   1 <1>  -0.1600 
  5 C        0.3750     0.9180     0.4750 C.3   1 <1>  -0.1600 
  6 C        3.6990    -1.0450     0.8690 C.3   1 <1>  -0.0800 
  7 C        3.8460     1.2840     0.2110 C.3   1 <1>   0.2090 
  8 C        2.2110    -2.3320    -0.7470 C.3   1 <1>  -0.1600 
  9 C        0.6150     2.4380     0.5070 C.3   1 <1>  -0.2400 
 10 C        3.6460    -1.8770    -0.4220 C.3   1 <1>  -0.1600 
 11 C        5.1090    -0.5470     1.1970 C.3   1 <1>   0.2090 
 12 N        5.1810     0.8490     0.6970 N.pl3 1 <1>  -0.8380 
 13 C        6.3370     1.5640     0.6100 C.ar  1 <1>   0.4100 
 14 N        7.4150     1.0410     1.1960 N.ar  1 <1>  -0.6200 
 15 C        6.3950     2.7820    -0.0570 C.ar  1 <1>  -0.1500 
 16 C        8.5230     1.7200     1.1230 C.ar  1 <1>   0.7710 
 17 C        7.5780     3.4690    -0.1200 C.ar  1 <1>   0.4610 
 18 N        8.6280     2.9020     0.4890 N.ar  1 <1>  -0.1790 
 19 N        9.5960     1.1900     1.7190 N.pl3 1 <1>  -0.9000 
 20 N        7.7120     4.6650    -0.7590 N.pl3 1 <1>  -0.8690 
 21 C        8.8640     5.5670    -0.9680 C.3   1 <1>   0.2890 
 22 C        9.9470     4.8610    -1.7780 C.3   1 <1>  -0.2400 
 23 C        9.3770     6.0870     0.3720 C.3   1 <1>  -0.2400 
 24 H        0.9320     0.2750    -1.9170 H     1 <1>   0.4000 
 25 H        2.5890     0.5210     1.7310 H     1 <1>   0.0800 
 26 H        0.9240    -1.7390     0.8560 H     1 <1>   0.0800 
 27 H        0.2080    -1.5280    -0.7010 H     1 <1>   0.0800 
 28 H       -0.5110     0.7240    -0.1040 H     1 <1>   0.0800 
 29 H        0.1660     0.5900     1.4780 H     1 <1>   0.0800 
 30 H        3.3400    -1.6520     1.6820 H     1 <1>   0.0800 
 31 H        3.5990     2.2630     0.5820 H     1 <1>   0.0800 
 32 H        3.8760     1.3040    -0.8640 H     1 <1>   0.0800 
 33 H        2.0570    -3.3310    -0.3760 H     1 <1>   0.0800 
 34 H        2.1010    -2.3670    -1.8180 H     1 <1>   0.0800 
 35 H        0.8670     2.8060    -0.4730 H     1 <1>   0.0800 
 36 H        1.4060     2.6890     1.1890 H     1 <1>   0.0800 
 37 H       -0.2780     2.9400     0.8350 H     1 <1>   0.0800 
 38 H        4.0130    -1.2740    -1.2370 H     1 <1>   0.0800 
 39 H        4.2870    -2.7370    -0.3410 H     1 <1>   0.0800 
 40 H        5.8640    -1.1600     0.7340 H     1 <1>   0.0800 
 41 H        5.2620    -0.5420     2.2630 H     1 <1>   0.0800 
 42 H        5.5190     3.1800    -0.5270 H     1 <1>   0.1500 
 43 H        9.5130     3.3800     0.4620 H     1 <1>   0.4570 
 44 H       10.5440     1.5610     1.7830 H     1 <1>   0.4000 
 45 H        9.4640     0.2880     2.1890 H     1 <1>   0.4000 
 46 H        6.8670     5.0430    -1.2090 H     1 <1>   0.4000 
 47 H        8.5180     6.4140    -1.5420 H     1 <1>   0.0800 
 48 H       10.4070     4.0570    -1.2390 H     1 <1>   0.0800 
 49 H       10.7160     5.5680    -2.0350 H     1 <1>   0.0800 
 50 H        9.5310     4.4830    -2.6960 H     1 <1>   0.0800 
 51 H        9.8210     5.3170     0.9710 H     1 <1>   0.0800 
 52 H        8.5730     6.5470     0.9200 H     1 <1>   0.0800 
 53 H       10.1260     6.8400     0.1970 H     1 <1>   0.0800 
@<TRIPOS>BOND
  1   1   2  1   
  2   1  24  1   
  3   2   3  1   
  4   2   4  1   
  5   2   5  1   
  6   3   6  1   
  7   3   7  1   
  8   3  25  1   
  9   4   8  1   
 10   4  26  1   
 11   4  27  1   
 12   5   9  1   
 13   5  28  1   
 14   5  29  1   
 15   6  10  1   
 16   6  11  1   
 17   6  30  1   
 18   7  12  1   
 19   7  31  1   
 20   7  32  1   
 21   8  10  1   
 22   8  33  1   
 23   8  34  1   
 24   9  35  1   
 25   9  36  1   
 26   9  37  1   
 27  10  38  1   
 28  10  39  1   
 29  11  12  1   
 30  11  40  1   
 31  11  41  1   
 32  12  13  1   
 33  13  14  ar  
 34  13  15  ar  
 35  14  16  ar  
 36  15  17  ar  
 37  15  42  1   
 38  16  18  ar  
 39  16  19  1   
 40  17  18  ar  
 41  17  20  1   
 42  18  43  1   
 43  19  44  1   
 44  19  45  1   
 45  20  21  1   
 46  20  46  1   
 47  21  22  1   
 48  21  23  1   
 49  21  47  1   
 50  22  48  1   
 51  22  49  1   
 52  22  50  1   
 53  23  51  1   
 54  23  52  1   
 55  23  53  1   
@<TRIPOS>SUBSTRUCTURE
  1 ****  12 GROUP 4 **** **** 0

# MOE 2024.06 (io_trps.svl 2023.06)
