@<TRIPOS>MOLECULE
NONAME
58 61 1 0 0 
SMALL
USER_CHARGES


@<TRIPOS>ATOM
  1 O        0.1380     0.8220     1.5700 O.2   1 <1>  -0.5700 
  2 C        0.0750     1.9710     1.1970 C.2   1 <1>   0.5690 
  3 N       -1.0970     2.6840     1.2570 N.am  1 <1>  -0.6600 
  4 C        1.3370     2.6280     0.6460 C.3   1 <1>  -0.0990 
  5 C       -1.2820     4.0970     0.8390 C.3   1 <1>   0.1400 
  6 C       -2.3560     2.0700     1.7550 C.3   1 <1>   0.1400 
  7 C        2.5700     1.7060     0.5920 C.3   1 <1>  -0.1600 
  8 C       -2.3120     4.1540    -0.2920 C.3   1 <1>  -0.1600 
  9 C       -3.4070     2.1050     0.6430 C.3   1 <1>  -0.1600 
 10 C        3.7980     2.4280     0.0220 C.3   1 <1>   0.0210 
 11 C       -3.6710     3.5270     0.1030 C.3   1 <1>   0.2800 
 12 C        5.0250     1.5340    -0.0410 C.2   1 <1>  -0.1810 
 13 O       -4.1690     4.2680     1.1960 O.3   1 <1>  -0.5600 
 14 C       -4.6990     3.4750    -1.0870 C.3   1 <1>   0.2000 
 15 C        6.2770     1.9700    -0.5330 C.ar  1 <1>   0.0000 
 16 C        5.1660     0.2380     0.3320 C.2   1 <1>  -0.3020 
 17 C       -5.0090     5.3440     0.9280 C.3   1 <1>   0.1200 
 18 O       -4.4270     4.4720    -2.0420 O.3   1 <1>  -0.6800 
 19 C       -6.1710     3.6210    -0.6030 C.3   1 <1>   0.2800 
 20 C        7.1420     0.8850    -0.4330 C.ar  1 <1>  -0.1520 
 21 C        6.7500     3.1800    -1.0520 C.ar  1 <1>  -0.1500 
 22 N        6.4480    -0.1700     0.0990 N.pl3 1 <1>   0.0330 
 23 C       -6.3280     4.8580     0.3050 C.3   1 <1>  -0.1600 
 24 O       -6.5100     2.5080     0.1410 O.3   1 <1>  -0.6800 
 25 C       -7.1880     3.6390    -1.7510 C.3   1 <1>  -0.2400 
 26 C        8.4740     0.9860    -0.8420 C.ar  1 <1>  -0.1500 
 27 C        8.0620     3.2800    -1.4550 C.ar  1 <1>  -0.1500 
 28 C        8.9250     2.1820    -1.3500 C.ar  1 <1>  -0.1500 
 29 H        1.1230     2.9750    -0.3470 H     1 <1>   0.0800 
 30 H        1.5660     3.4760     1.2650 H     1 <1>   0.0800 
 31 H       -1.6370     4.6660     1.6820 H     1 <1>   0.0800 
 32 H       -0.3600     4.5360     0.5080 H     1 <1>   0.0800 
 33 H       -2.1920     1.0510     2.0630 H     1 <1>   0.0800 
 34 H       -2.7070     2.6230     2.6090 H     1 <1>   0.0800 
 35 H        2.7940     1.3540     1.5850 H     1 <1>   0.0800 
 36 H        2.3450     0.8490    -0.0210 H     1 <1>   0.0800 
 37 H       -1.9150     3.6300    -1.1430 H     1 <1>   0.0800 
 38 H       -2.4440     5.1790    -0.5810 H     1 <1>   0.0800 
 39 H       -4.3160     1.6800     1.0230 H     1 <1>   0.0800 
 40 H       -3.0690     1.4720    -0.1570 H     1 <1>   0.0800 
 41 H        4.0290     3.2810     0.6350 H     1 <1>   0.0800 
 42 H        3.5800     2.7770    -0.9720 H     1 <1>   0.0800 
 43 H       -4.5940     2.5410    -1.6100 H     1 <1>   0.0800 
 44 H        4.4300    -0.4250     0.7520 H     1 <1>   0.1500 
 45 H       -5.2000     5.8500     1.8580 H     1 <1>   0.0800 
 46 H       -4.4910     6.0220     0.2730 H     1 <1>   0.0800 
 47 H       -4.5220     5.3520    -1.6350 H     1 <1>   0.4000 
 48 H        6.0800     4.0150    -1.1280 H     1 <1>   0.1500 
 49 H        6.8340    -1.1000     0.2860 H     1 <1>   0.2700 
 50 H       -6.7210     5.6780    -0.2680 H     1 <1>   0.0800 
 51 H       -7.0380     4.6620     1.0880 H     1 <1>   0.0800 
 52 H       -7.4180     2.6030     0.4800 H     1 <1>   0.4000 
 53 H       -7.0220     4.4890    -2.3880 H     1 <1>   0.0800 
 54 H       -8.1930     3.6960    -1.3740 H     1 <1>   0.0800 
 55 H       -7.0810     2.7530    -2.3510 H     1 <1>   0.0800 
 56 H        9.1290     0.1370    -0.7570 H     1 <1>   0.1500 
 57 H        8.4390     4.2050    -1.8560 H     1 <1>   0.1500 
 58 H        9.9460     2.2860    -1.6720 H     1 <1>   0.1500 
@<TRIPOS>BOND
  1   1   2  2   
  2   2   3  am  
  3   2   4  1   
  4   3   5  1   
  5   3   6  1   
  6   4   7  1   
  7   4  29  1   
  8   4  30  1   
  9   5   8  1   
 10   5  31  1   
 11   5  32  1   
 12   6   9  1   
 13   6  33  1   
 14   6  34  1   
 15   7  10  1   
 16   7  35  1   
 17   7  36  1   
 18   8  11  1   
 19   8  37  1   
 20   8  38  1   
 21   9  11  1   
 22   9  39  1   
 23   9  40  1   
 24  10  12  1   
 25  10  41  1   
 26  10  42  1   
 27  11  13  1   
 28  11  14  1   
 29  12  15  1   
 30  12  16  2   
 31  13  17  1   
 32  14  18  1   
 33  14  19  1   
 34  14  43  1   
 35  15  20  ar  
 36  15  21  ar  
 37  16  22  1   
 38  16  44  1   
 39  17  23  1   
 40  17  45  1   
 41  17  46  1   
 42  18  47  1   
 43  19  23  1   
 44  19  24  1   
 45  19  25  1   
 46  20  22  1   
 47  20  26  ar  
 48  21  27  ar  
 49  21  48  1   
 50  22  49  1   
 51  23  50  1   
 52  23  51  1   
 53  24  52  1   
 54  25  53  1   
 55  25  54  1   
 56  25  55  1   
 57  26  28  ar  
 58  26  56  1   
 59  27  28  ar  
 60  27  57  1   
 61  28  58  1   
@<TRIPOS>SUBSTRUCTURE
  1 ****   4 GROUP 4 **** **** 0

# MOE 2024.06 (io_trps.svl 2023.06)
