@<TRIPOS>MOLECULE
NONAME
40 43 1 0 0 
SMALL
USER_CHARGES


@<TRIPOS>ATOM
  1 O        0.0060     0.2830     0.2340 O.3   1 <1>  -0.0190 
  2 N       -0.3670     1.5180     0.0910 N.2   1 <1>  -0.4100 
  3 C        1.3030     0.3550     0.4120 C.2   1 <1>   0.2980 
  4 C        0.6770     2.2420     0.1860 C.2   1 <1>   0.3350 
  5 N        1.7830     1.5410     0.3990 N.2   1 <1>  -0.5650 
  6 C        2.0840    -0.9530     0.6390 C.3   1 <1>   0.4690 
  7 C        0.7270     3.7670     0.0860 C.3   1 <1>   0.1010 
  8 N        1.7530    -2.0400    -0.3290 N.pl3 1 <1>  -0.8220 
  9 C        3.6050    -0.7880     0.5010 C.3   1 <1>  -0.1600 
 10 C        0.6980     4.4010     1.4830 C.3   1 <1>  -0.2400 
 11 C       -0.4120     4.3380    -0.7750 C.3   1 <1>  -0.2400 
 12 C        0.6810    -2.8620    -0.0910 C.2   1 <1>   0.5620 
 13 C        2.9660    -2.5500    -0.9990 C.3   1 <1>   0.2090 
 14 C        4.1060    -2.0990    -0.0990 C.3   1 <1>  -0.1600 
 15 O        0.4490    -3.8750    -0.9180 O.3   1 <1>  -0.2800 
 16 N       -0.1500    -2.7550     0.8890 N.2   1 <1>  -0.5650 
 17 C       -0.6280    -4.4680    -0.4440 C.ar  1 <1>   0.1400 
 18 C       -1.0110    -3.7800     0.6790 C.ar  1 <1>   0.2270 
 19 C       -1.3180    -5.5760    -0.9110 C.ar  1 <1>  -0.1500 
 20 C       -2.1330    -4.1910     1.3900 C.ar  1 <1>  -0.1500 
 21 C       -2.4340    -5.9860    -0.2020 C.ar  1 <1>  -0.1500 
 22 C       -2.8390    -5.2950     0.9430 C.ar  1 <1>  -0.1500 
 23 H        1.8660    -1.3030     1.6330 H     1 <1>   0.0800 
 24 H        1.6590     4.0280    -0.3850 H     1 <1>   0.0800 
 25 H        3.8220     0.0120    -0.1850 H     1 <1>   0.0800 
 26 H        4.0630    -0.5640     1.4470 H     1 <1>   0.0800 
 27 H       -0.2190     4.1490     1.9860 H     1 <1>   0.0800 
 28 H        0.7770     5.4710     1.4150 H     1 <1>   0.0800 
 29 H        1.5210     4.0320     2.0690 H     1 <1>   0.0800 
 30 H       -1.3660     4.1190    -0.3280 H     1 <1>   0.0800 
 31 H       -0.3860     3.8970    -1.7550 H     1 <1>   0.0800 
 32 H       -0.3110     5.4040    -0.8740 H     1 <1>   0.0800 
 33 H        2.9490    -3.6220    -1.1030 H     1 <1>   0.0800 
 34 H        3.0450    -2.0940    -1.9720 H     1 <1>   0.0800 
 35 H        4.2500    -2.8300     0.6770 H     1 <1>   0.0800 
 36 H        5.0240    -1.9780    -0.6470 H     1 <1>   0.0800 
 37 H       -0.9840    -6.0860    -1.7960 H     1 <1>   0.1500 
 38 H       -2.4270    -3.6430     2.2660 H     1 <1>   0.1500 
 39 H       -2.9980    -6.8420    -0.5320 H     1 <1>   0.1500 
 40 H       -3.7100    -5.6270     1.4810 H     1 <1>   0.1500 
@<TRIPOS>BOND
  1   1   2  1   
  2   1   3  1   
  3   2   4  2   
  4   3   5  2   
  5   3   6  1   
  6   4   5  1   
  7   4   7  1   
  8   6   8  1   
  9   6   9  1   
 10   6  23  1   
 11   7  10  1   
 12   7  11  1   
 13   7  24  1   
 14   8  12  1   
 15   8  13  1   
 16   9  14  1   
 17   9  25  1   
 18   9  26  1   
 19  10  27  1   
 20  10  28  1   
 21  10  29  1   
 22  11  30  1   
 23  11  31  1   
 24  11  32  1   
 25  12  15  1   
 26  12  16  2   
 27  13  14  1   
 28  13  33  1   
 29  13  34  1   
 30  14  35  1   
 31  14  36  1   
 32  15  17  1   
 33  16  18  1   
 34  17  18  ar  
 35  17  19  ar  
 36  18  20  ar  
 37  19  21  ar  
 38  19  37  1   
 39  20  22  ar  
 40  20  38  1   
 41  21  22  ar  
 42  21  39  1   
 43  22  40  1   
@<TRIPOS>SUBSTRUCTURE
  1 ****   8 GROUP 4 **** **** 0

# MOE 2024.06 (io_trps.svl 2023.06)
