@<TRIPOS>MOLECULE
NONAME
57 60 1 0 0 
SMALL
USER_CHARGES


@<TRIPOS>ATOM
  1 S       -2.0790     4.2390     1.0960 S.3   1 <1>  -0.0800 
  2 C       -3.2330     2.9690     0.7330 C.2   1 <1>  -0.1100 
  3 C       -1.5320     4.2720    -0.5690 C.2   1 <1>  -0.1100 
  4 C       -3.1820     2.6270    -0.5700 C.2   1 <1>  -0.1810 
  5 C       -2.2050     3.3710    -1.3090 C.2   1 <1>  -0.1500 
  6 C       -4.0350     1.5690    -1.2660 C.3   1 <1>   0.0820 
  7 C       -5.2360     1.0900    -0.4550 C.2   1 <1>   0.5690 
  8 O       -5.2470    -0.0730    -0.1220 O.2   1 <1>  -0.5700 
  9 N       -6.2730     1.9360    -0.1330 N.am  1 <1>  -0.6600 
 10 C       -6.3290     3.3740    -0.5400 C.3   1 <1>   0.1400 
 11 C       -7.3920     1.4450     0.7290 C.3   1 <1>   0.1400 
 12 C       -7.7840     3.8280    -0.6400 C.3   1 <1>  -0.1600 
 13 C       -7.9520     2.5850     1.5830 C.3   1 <1>  -0.1600 
 14 C       -8.4920     3.7620     0.7330 C.3   1 <1>   0.2800 
 15 O       -8.0800     4.9270     1.4120 O.3   1 <1>  -0.5600 
 16 C      -10.0500     3.6840     0.6140 C.3   1 <1>   0.2000 
 17 C       -9.0240     5.8790     1.8030 C.3   1 <1>   0.1200 
 18 O      -10.4510     2.5750    -0.1460 O.3   1 <1>  -0.6800 
 19 C      -10.7340     5.0160     0.1410 C.3   1 <1>   0.3000 
 20 C       -9.8990     6.2290     0.5980 C.3   1 <1>  -0.1600 
 21 N      -12.0650     5.1700     0.7840 N.am  1 <1>  -0.7300 
 22 C      -10.9470     5.1170    -1.3790 C.3   1 <1>  -0.2400 
 23 C      -12.9130     4.1590     1.1080 C.2   1 <1>   0.5440 
 24 O      -13.1450     4.0310     2.2900 O.2   1 <1>  -0.5700 
 25 C      -13.5170     3.2840     0.1270 C.ar  1 <1>   0.0860 
 26 C      -14.0600     3.7960    -1.0480 C.ar  1 <1>   0.1600 
 27 C      -13.5920     1.9100     0.3110 C.ar  1 <1>  -0.1500 
 28 N      -14.6230     3.0910    -2.0180 N.ar  1 <1>  -0.6200 
 29 C      -14.1790     1.1550    -0.6800 C.ar  1 <1>  -0.1500 
 30 C      -14.6700     1.7850    -1.8110 C.ar  1 <1>   0.1600 
 31 H       -3.8390     2.6070     1.5460 H     1 <1>   0.1500 
 32 H       -0.7540     4.9700    -0.8190 H     1 <1>   0.1500 
 33 H       -2.0500     3.1980    -2.3600 H     1 <1>   0.1500 
 34 H       -3.4100     0.7210    -1.4830 H     1 <1>   0.0800 
 35 H       -4.3910     1.9490    -2.2030 H     1 <1>   0.0800 
 36 H       -5.8130     3.9730     0.1920 H     1 <1>   0.0800 
 37 H       -5.8490     3.5140    -1.4920 H     1 <1>   0.0800 
 38 H       -8.1660     1.0360     0.1030 H     1 <1>   0.0800 
 39 H       -7.0380     0.6600     1.3760 H     1 <1>   0.0800 
 40 H       -8.2700     3.1940    -1.3580 H     1 <1>   0.0800 
 41 H       -7.8130     4.8320    -1.0210 H     1 <1>   0.0800 
 42 H       -7.1600     2.9270     2.2260 H     1 <1>   0.0800 
 43 H       -8.7260     2.1890     2.2140 H     1 <1>   0.0800 
 44 H      -10.4060     3.4870     1.6100 H     1 <1>   0.0800 
 45 H       -9.6030     5.4820     2.6200 H     1 <1>   0.0800 
 46 H       -8.4860     6.7460     2.1470 H     1 <1>   0.0800 
 47 H      -10.2810     2.7290    -1.0950 H     1 <1>   0.4000 
 48 H      -10.5320     7.0660     0.8320 H     1 <1>   0.0800 
 49 H       -9.2390     6.5540    -0.1860 H     1 <1>   0.0800 
 50 H      -12.0160     5.8470     1.5470 H     1 <1>   0.3700 
 51 H      -10.0080     5.1060    -1.8990 H     1 <1>   0.0800 
 52 H      -11.4490     6.0370    -1.6220 H     1 <1>   0.0800 
 53 H      -11.5350     4.3000    -1.7510 H     1 <1>   0.0800 
 54 H      -14.0210     4.8620    -1.1890 H     1 <1>   0.1500 
 55 H      -13.1950     1.4610     1.2050 H     1 <1>   0.1500 
 56 H      -14.2540     0.0870    -0.5810 H     1 <1>   0.1500 
 57 H      -15.1250     1.1850    -2.5820 H     1 <1>   0.1500 
@<TRIPOS>BOND
  1   1   2  1   
  2   1   3  1   
  3   2   4  2   
  4   2  31  1   
  5   3   5  2   
  6   3  32  1   
  7   4   5  1   
  8   4   6  1   
  9   5  33  1   
 10   6   7  1   
 11   6  34  1   
 12   6  35  1   
 13   7   8  2   
 14   7   9  am  
 15   9  10  1   
 16   9  11  1   
 17  10  12  1   
 18  10  36  1   
 19  10  37  1   
 20  11  13  1   
 21  11  38  1   
 22  11  39  1   
 23  12  14  1   
 24  12  40  1   
 25  12  41  1   
 26  13  14  1   
 27  13  42  1   
 28  13  43  1   
 29  14  15  1   
 30  14  16  1   
 31  15  17  1   
 32  16  18  1   
 33  16  19  1   
 34  16  44  1   
 35  17  20  1   
 36  17  45  1   
 37  17  46  1   
 38  18  47  1   
 39  19  20  1   
 40  19  21  1   
 41  19  22  1   
 42  20  48  1   
 43  20  49  1   
 44  21  23  am  
 45  21  50  1   
 46  22  51  1   
 47  22  52  1   
 48  22  53  1   
 49  23  24  2   
 50  23  25  1   
 51  25  26  ar  
 52  25  27  ar  
 53  26  28  ar  
 54  26  54  1   
 55  27  29  ar  
 56  27  55  1   
 57  28  30  ar  
 58  29  30  ar  
 59  29  56  1   
 60  30  57  1   
@<TRIPOS>SUBSTRUCTURE
  1 ****  14 GROUP 4 **** **** 0

# MOE 2024.06 (io_trps.svl 2023.06)
