@<TRIPOS>MOLECULE
NONAME
46 49 1 0 0 
SMALL
USER_CHARGES


@<TRIPOS>ATOM
  1 S        1.1620    -0.6100     2.2040 S.3   1 <1>  -0.0800 
  2 C        1.3420    -0.5270     0.4500 C.2   1 <1>  -0.0450 
  3 C        0.9820    -2.3460     2.1880 C.2   1 <1>  -0.1100 
  4 C        1.5490     0.7620    -0.1530 C.2   1 <1>   0.5940 
  5 C        1.2510    -1.7900    -0.0490 C.2   1 <1>  -0.1500 
  6 C        1.0390    -2.8150     0.9260 C.2   1 <1>  -0.1810 
  7 O        1.5040     1.8030     0.4490 O.2   1 <1>  -0.5700 
  8 C        1.8300     0.8330    -1.6390 C.3   1 <1>  -0.1790 
  9 C        0.8960    -4.2730     0.5390 C.3   1 <1>   0.5240 
 10 N       -0.5440    -4.6490     0.6540 N.4   1 <1>  -0.9590 
 11 C       -0.6760    -6.1520     0.6080 C.3   1 <1>   0.3430 
 12 C       -1.3550    -3.8900    -0.3690 C.3   1 <1>   0.3430 
 13 C       -2.0440    -6.6930     1.0510 C.3   1 <1>   0.0960 
 14 C       -2.8610    -3.9700    -0.1270 C.3   1 <1>   0.0200 
 15 N       -3.0450    -6.4750    -0.0090 N.pl3 1 <1>   0.0480 
 16 C       -3.3770    -5.3170    -0.5710 C.2   1 <1>   0.0070 
 17 C       -3.6990    -7.3850    -0.7490 C.2   1 <1>   0.1340 
 18 N       -4.1600    -5.4830    -1.5730 N.2   1 <1>  -0.3380 
 19 N       -4.3640    -6.7900    -1.6940 N.2   1 <1>  -0.3380 
 20 C       -3.6340    -8.8090    -0.5350 C.ar  1 <1>   0.0530 
 21 C       -4.0590    -9.3860     0.6600 C.ar  1 <1>  -0.1500 
 22 C       -3.1240    -9.6510    -1.5210 C.ar  1 <1>  -0.1500 
 23 C       -3.9480   -10.7470     0.8760 C.ar  1 <1>  -0.1500 
 24 C       -3.0110   -11.0120    -1.3110 C.ar  1 <1>  -0.1500 
 25 C       -3.4170   -11.5620    -0.1080 C.ar  1 <1>  -0.1500 
 26 H        0.8530    -2.8210     3.1460 H     1 <1>   0.1500 
 27 H        1.3380    -2.0210    -1.0970 H     1 <1>   0.1500 
 28 H        2.6280     0.1630    -1.8960 H     1 <1>   0.0800 
 29 H        2.1220     1.8330    -1.9050 H     1 <1>   0.0800 
 30 H        0.9450     0.5740    -2.1890 H     1 <1>   0.0800 
 31 H        1.4890    -4.8700     1.2140 H     1 <1>   0.0800 
 32 H        1.2550    -4.4330    -0.4650 H     1 <1>   0.0800 
 33 H       -0.8290    -4.3050     1.5820 H     1 <1>   0.4500 
 34 H        0.0630    -6.5790     1.2670 H     1 <1>   0.0800 
 35 H       -0.4640    -6.5120    -0.3870 H     1 <1>   0.0800 
 36 H       -1.1410    -4.2560    -1.3610 H     1 <1>   0.0800 
 37 H       -1.0810    -2.8480    -0.3380 H     1 <1>   0.0800 
 38 H       -2.3720    -6.2270     1.9620 H     1 <1>   0.0800 
 39 H       -1.9550    -7.7500     1.2280 H     1 <1>   0.0800 
 40 H       -3.3430    -3.2150    -0.7230 H     1 <1>   0.0800 
 41 H       -3.1070    -3.7780     0.9020 H     1 <1>   0.0800 
 42 H       -4.4920    -8.7640     1.4240 H     1 <1>   0.1500 
 43 H       -2.8200    -9.2280    -2.4630 H     1 <1>   0.1500 
 44 H       -4.2800   -11.1790     1.8060 H     1 <1>   0.1500 
 45 H       -2.6130   -11.6480    -2.0840 H     1 <1>   0.1500 
 46 H       -3.3300   -12.6230     0.0570 H     1 <1>   0.1500 
@<TRIPOS>BOND
  1   1   2  1   
  2   1   3  1   
  3   2   4  1   
  4   2   5  2   
  5   3   6  2   
  6   3  26  1   
  7   4   7  2   
  8   4   8  1   
  9   5   6  1   
 10   5  27  1   
 11   6   9  1   
 12   8  28  1   
 13   8  29  1   
 14   8  30  1   
 15   9  10  1   
 16   9  31  1   
 17   9  32  1   
 18  10  11  1   
 19  10  12  1   
 20  10  33  1   
 21  11  13  1   
 22  11  34  1   
 23  11  35  1   
 24  12  14  1   
 25  12  36  1   
 26  12  37  1   
 27  13  15  1   
 28  13  38  1   
 29  13  39  1   
 30  14  16  1   
 31  14  40  1   
 32  14  41  1   
 33  15  16  1   
 34  15  17  1   
 35  16  18  2   
 36  17  19  2   
 37  17  20  1   
 38  18  19  1   
 39  20  21  ar  
 40  20  22  ar  
 41  21  23  ar  
 42  21  42  1   
 43  22  24  ar  
 44  22  43  1   
 45  23  25  ar  
 46  23  44  1   
 47  24  25  ar  
 48  24  45  1   
 49  25  46  1   
@<TRIPOS>SUBSTRUCTURE
  1 ****  10 GROUP 4 **** **** 0

# MOE 2024.06 (io_trps.svl 2023.06)
