@<TRIPOS>MOLECULE
NONAME
55 58 1 0 0 
SMALL
USER_CHARGES


@<TRIPOS>ATOM
  1 O       -0.1160    -0.7060     1.7240 O.2   1 <1>  -0.5700 
  2 C       -0.6870     0.2890     1.3420 C.2   1 <1>   0.5690 
  3 N       -1.9150     0.1860     0.7340 N.am  1 <1>  -0.6600 
  4 C        0.0050     1.6230     1.5810 C.3   1 <1>   0.1570 
  5 C       -2.4400    -1.1130     0.2670 C.3   1 <1>   0.1400 
  6 C       -2.8950     1.2870     0.5370 C.3   1 <1>   0.1400 
  7 N        0.1000     2.4160     0.3380 N.pl3 1 <1>   0.0480 
  8 C       -3.7760    -1.3120     1.0020 C.3   1 <1>   0.4230 
  9 C       -4.2920     0.8720     1.0680 C.3   1 <1>  -0.1600 
 10 C       -0.4400     3.6500     0.1360 C.ar  1 <1>  -0.1520 
 11 C        0.6520     2.0610    -0.8580 C.2   1 <1>   0.0060 
 12 N       -4.0650    -2.7450     1.3910 N.4   1 <1>  -0.9590 
 13 C       -4.9260    -0.4230     0.3190 C.3   1 <1>   0.0000 
 14 C       -0.1920     3.9470    -1.1920 C.ar  1 <1>   0.2270 
 15 C       -1.1220     4.5560     0.9560 C.ar  1 <1>  -0.1500 
 16 N        0.4930     2.9350    -1.7870 N.2   1 <1>  -0.5650 
 17 C        1.3930     0.7570    -1.0900 C.3   1 <1>  -0.0600 
 18 C       -4.0800    -3.6500     0.2260 C.3   1 <1>   0.3430 
 19 C       -3.1200    -3.2340     2.4460 C.3   1 <1>   0.2630 
 20 C       -5.5470    -1.6700    -0.5050 C.3   1 <1>  -0.1600 
 21 C       -6.0920     0.5000    -0.2790 C.3   1 <1>   0.1200 
 22 C       -0.6340     5.1510    -1.7360 C.ar  1 <1>  -0.1500 
 23 C       -1.5550     5.7450     0.4100 C.ar  1 <1>  -0.1500 
 24 C       -4.7210    -2.9090    -0.9310 C.3   1 <1>  -0.1600 
 25 O       -5.6000     1.2000    -1.3770 O.3   1 <1>  -0.6800 
 26 C       -1.3130     6.0430    -0.9360 C.ar  1 <1>  -0.1500 
 27 H        0.9990     1.4460     1.9470 H     1 <1>   0.0800 
 28 H       -0.5360     2.1750     2.3230 H     1 <1>   0.0800 
 29 H       -2.5860    -1.0620    -0.7980 H     1 <1>   0.0800 
 30 H       -1.7460    -1.9040     0.4860 H     1 <1>   0.0800 
 31 H       -2.5740     2.1730     1.0540 H     1 <1>   0.0800 
 32 H       -2.9570     1.5230    -0.5140 H     1 <1>   0.0800 
 33 H       -3.5710    -0.8910     1.9680 H     1 <1>   0.0800 
 34 H       -4.2580     0.7550     2.1390 H     1 <1>   0.0800 
 35 H       -4.8040     1.8170     0.9970 H     1 <1>   0.0800 
 36 H       -5.0170    -2.7420     1.7810 H     1 <1>   0.4500 
 37 H       -1.3020     4.3350     1.9920 H     1 <1>   0.1500 
 38 H        1.8960     0.7920    -2.0400 H     1 <1>   0.0800 
 39 H        0.7030    -0.0660    -1.1020 H     1 <1>   0.0800 
 40 H        2.1260     0.6000    -0.3210 H     1 <1>   0.0800 
 41 H       -3.0770    -3.9430    -0.0430 H     1 <1>   0.0800 
 42 H       -4.6470    -4.5380     0.4600 H     1 <1>   0.0800 
 43 H       -2.1080    -3.2410     2.0750 H     1 <1>   0.0800 
 44 H       -3.3820    -4.2340     2.7510 H     1 <1>   0.0800 
 45 H       -3.1590    -2.5910     3.3110 H     1 <1>   0.0800 
 46 H       -6.4110    -2.0330     0.0310 H     1 <1>   0.0800 
 47 H       -5.8940    -1.3760    -1.4880 H     1 <1>   0.0800 
 48 H       -6.5120     1.2040     0.4220 H     1 <1>   0.0800 
 49 H       -6.9940     0.0040    -0.6050 H     1 <1>   0.0800 
 50 H       -0.4290     5.3510    -2.7710 H     1 <1>   0.1500 
 51 H       -2.0820     6.4620     1.0160 H     1 <1>   0.1500 
 52 H       -3.9570    -2.6140    -1.6290 H     1 <1>   0.0800 
 53 H       -5.3550    -3.5990    -1.4630 H     1 <1>   0.0800 
 54 H       -6.2870     1.7750    -1.7730 H     1 <1>   0.4000 
 55 H       -1.6600     6.9770    -1.3410 H     1 <1>   0.1500 
@<TRIPOS>BOND
  1   1   2  2   
  2   2   3  am  
  3   2   4  1   
  4   3   5  1   
  5   3   6  1   
  6   4   7  1   
  7   4  27  1   
  8   4  28  1   
  9   5   8  1   
 10   5  29  1   
 11   5  30  1   
 12   6   9  1   
 13   6  31  1   
 14   6  32  1   
 15   7  10  1   
 16   7  11  1   
 17   8  12  1   
 18   8  13  1   
 19   8  33  1   
 20   9  13  1   
 21   9  34  1   
 22   9  35  1   
 23  10  14  ar  
 24  10  15  ar  
 25  11  16  2   
 26  11  17  1   
 27  12  18  1   
 28  12  19  1   
 29  12  36  1   
 30  13  20  1   
 31  13  21  1   
 32  14  16  1   
 33  14  22  ar  
 34  15  23  ar  
 35  15  37  1   
 36  17  38  1   
 37  17  39  1   
 38  17  40  1   
 39  18  24  1   
 40  18  41  1   
 41  18  42  1   
 42  19  43  1   
 43  19  44  1   
 44  19  45  1   
 45  20  24  1   
 46  20  46  1   
 47  20  47  1   
 48  21  25  1   
 49  21  48  1   
 50  21  49  1   
 51  22  26  ar  
 52  22  50  1   
 53  23  26  ar  
 54  23  51  1   
 55  24  52  1   
 56  24  53  1   
 57  25  54  1   
 58  26  55  1   
@<TRIPOS>SUBSTRUCTURE
  1 ****   6 GROUP 4 **** **** 0

# MOE 2024.06 (io_trps.svl 2023.06)
