@<TRIPOS>MOLECULE
NONAME
53 55 1 0 0 
SMALL
USER_CHARGES


@<TRIPOS>ATOM
  1 O       -5.5280    -0.9610     0.8850 O.co2 1 <1>  -0.9000 
  2 C       -5.7540    -0.0830     1.7220 C.2   1 <1>   0.9060 
  3 O       -6.7790    -0.1390     2.4120 O.co2 1 <1>  -0.9000 
  4 C       -4.9710     1.2160     1.6810 C.3   1 <1>   0.0140 
  5 O       -5.8450     2.3220     1.4360 O.3   1 <1>  -0.3630 
  6 C       -5.8630     2.9080     0.2200 C.ar  1 <1>   0.0830 
  7 C       -6.4510     2.3200    -0.9020 C.ar  1 <1>  -0.1440 
  8 C       -5.3090     4.1750     0.1340 C.ar  1 <1>  -0.1500 
  9 C       -6.4570     3.0250    -2.0980 C.ar  1 <1>  -0.1500 
 10 C       -7.0820     0.9340    -0.8930 C.3   1 <1>   0.4870 
 11 C       -5.3230     4.8660    -1.0630 C.ar  1 <1>  -0.1500 
 12 C       -5.8980     4.2890    -2.1800 C.ar  1 <1>  -0.1500 
 13 N       -8.1260     0.7820     0.1560 N.4   1 <1>  -0.9590 
 14 C       -8.5940    -0.6400     0.1970 C.3   1 <1>   0.3430 
 15 C       -9.1560     1.8500     0.1570 C.3   1 <1>   0.3430 
 16 C       -9.5830    -0.9450     1.3370 C.3   1 <1>   0.1400 
 17 C       -9.7610     1.9850     1.5530 C.3   1 <1>  -0.1600 
 18 N      -10.8870    -0.2350     1.1250 N.am  1 <1>  -0.6600 
 19 C      -10.9940     1.1030     1.7800 C.3   1 <1>   0.1400 
 20 C      -11.9530    -0.7660     0.4430 C.2   1 <1>   0.5690 
 21 O      -12.9220    -0.1030     0.1650 O.2   1 <1>  -0.5700 
 22 C      -11.9400    -2.2210     0.0030 C.3   1 <1>  -0.0990 
 23 C      -13.2780    -2.6640    -0.6060 C.3   1 <1>   0.0960 
 24 N      -13.2090    -4.0850    -0.9930 N.pl3 1 <1>   0.0480 
 25 C      -13.4030    -5.1640    -0.2340 C.2   1 <1>   0.0360 
 26 C      -12.8990    -4.6130    -2.1770 C.2   1 <1>   0.0360 
 27 N      -13.2220    -6.2540    -0.8960 N.2   1 <1>  -0.3380 
 28 N      -12.8990    -5.9000    -2.1420 N.2   1 <1>  -0.3380 
 29 H       -4.2230     1.1720     0.9120 H     1 <1>   0.0800 
 30 H       -4.5040     1.3690     2.6340 H     1 <1>   0.0800 
 31 H       -4.8700     4.6160     1.0110 H     1 <1>   0.1500 
 32 H       -6.8950     2.5990    -2.9850 H     1 <1>   0.1500 
 33 H       -6.3070     0.2010    -0.7530 H     1 <1>   0.0800 
 34 H       -7.5250     0.7490    -1.8560 H     1 <1>   0.0800 
 35 H       -4.8890     5.8490    -1.1240 H     1 <1>   0.1500 
 36 H       -5.9070     4.8250    -3.1140 H     1 <1>   0.1500 
 37 H       -7.6020     0.8630     1.0610 H     1 <1>   0.4500 
 38 H       -7.7330    -1.2750     0.3380 H     1 <1>   0.0800 
 39 H       -9.0490    -0.9040    -0.7410 H     1 <1>   0.0800 
 40 H       -9.9230     1.6430    -0.5700 H     1 <1>   0.0800 
 41 H       -8.6890     2.7890    -0.0940 H     1 <1>   0.0800 
 42 H       -9.1530    -0.6590     2.2820 H     1 <1>   0.0800 
 43 H       -9.7340    -2.0070     1.3830 H     1 <1>   0.0800 
 44 H      -10.0680     3.0060     1.6900 H     1 <1>   0.0800 
 45 H       -9.0140     1.7880     2.3030 H     1 <1>   0.0800 
 46 H      -11.8580     1.6230     1.4010 H     1 <1>   0.0800 
 47 H      -11.1440     0.9650     2.8370 H     1 <1>   0.0800 
 48 H      -11.7370    -2.8330     0.8620 H     1 <1>   0.0800 
 49 H      -11.1580    -2.3530    -0.7210 H     1 <1>   0.0800 
 50 H      -13.5070    -2.0750    -1.4770 H     1 <1>   0.0800 
 51 H      -14.0730    -2.5350     0.1080 H     1 <1>   0.0800 
 52 H      -13.6750    -5.1170     0.8050 H     1 <1>   0.1500 
 53 H      -12.6760    -4.0250    -3.0490 H     1 <1>   0.1500 
@<TRIPOS>BOND
  1   1   2  ar  
  2   2   3  ar  
  3   2   4  1   
  4   4   5  1   
  5   4  29  1   
  6   4  30  1   
  7   5   6  1   
  8   6   7  ar  
  9   6   8  ar  
 10   7   9  ar  
 11   7  10  1   
 12   8  11  ar  
 13   8  31  1   
 14   9  12  ar  
 15   9  32  1   
 16  10  13  1   
 17  10  33  1   
 18  10  34  1   
 19  11  12  ar  
 20  11  35  1   
 21  12  36  1   
 22  13  14  1   
 23  13  15  1   
 24  13  37  1   
 25  14  16  1   
 26  14  38  1   
 27  14  39  1   
 28  15  17  1   
 29  15  40  1   
 30  15  41  1   
 31  16  18  1   
 32  16  42  1   
 33  16  43  1   
 34  17  19  1   
 35  17  44  1   
 36  17  45  1   
 37  18  19  1   
 38  18  20  am  
 39  19  46  1   
 40  19  47  1   
 41  20  21  2   
 42  20  22  1   
 43  22  23  1   
 44  22  48  1   
 45  22  49  1   
 46  23  24  1   
 47  23  50  1   
 48  23  51  1   
 49  24  25  1   
 50  24  26  1   
 51  25  27  2   
 52  25  52  1   
 53  26  28  2   
 54  26  53  1   
 55  27  28  1   
@<TRIPOS>SUBSTRUCTURE
  1 ****  14 GROUP 4 **** **** 0

# MOE 2024.06 (io_trps.svl 2023.06)
