@<TRIPOS>MOLECULE
NONAME
38 39 1 0 0 
SMALL
USER_CHARGES


@<TRIPOS>ATOM
  1 S       -0.5330    -0.7870    -0.9510 S.3   1 <1>  -0.0800 
  2 C       -1.4090    -1.2430     0.5060 C.2   1 <1>  -0.0450 
  3 C       -0.8150     0.9370    -0.7170 C.2   1 <1>  -0.0450 
  4 C       -1.5080    -2.6450     0.8260 C.2   1 <1>   0.7150 
  5 C       -1.8590    -0.1070     1.1020 C.2   1 <1>  -0.1500 
  6 C       -0.3070     1.8950    -1.6570 C.2   1 <1>   0.5940 
  7 C       -1.5360     1.0940     0.4230 C.2   1 <1>  -0.1500 
  8 O       -0.5160    -3.3450     0.7330 O.2   1 <1>  -0.5700 
  9 N       -2.6960    -3.2240     1.2290 N.am  1 <1>  -0.6600 
 10 O       -0.5040     3.0780    -1.5460 O.2   1 <1>  -0.5700 
 11 C        0.5110     1.4380    -2.8470 C.3   1 <1>  -0.1790 
 12 C       -2.7400    -4.6610     1.6180 C.3   1 <1>   0.3200 
 13 C       -4.0240    -2.5580     1.0700 C.3   1 <1>   0.1400 
 14 C       -3.3940    -5.4640     0.5120 C.2   1 <1>  -0.3320 
 15 C       -4.4080    -2.4240    -0.4090 C.3   1 <1>   0.1200 
 16 N       -4.7120    -5.7290     0.4240 N.pl3 1 <1>   0.0330 
 17 C       -2.8220    -6.0420    -0.5660 C.2   1 <1>   0.0770 
 18 O       -5.7480    -2.0750    -0.4830 O.3   1 <1>  -0.6800 
 19 C       -4.8550    -6.4490    -0.7090 C.2   1 <1>   0.0060 
 20 N       -3.7430    -6.6580    -1.3310 N.2   1 <1>  -0.5650 
 21 C       -6.1970    -6.9530    -1.1950 C.3   1 <1>  -0.0600 
 22 H       -2.4130    -0.0810     2.0240 H     1 <1>   0.1500 
 23 H       -1.8460     2.0540     0.8030 H     1 <1>   0.1500 
 24 H        1.3860     0.9160    -2.5100 H     1 <1>   0.0800 
 25 H        0.8180     2.2890    -3.4280 H     1 <1>   0.0800 
 26 H       -0.0780     0.7900    -3.4690 H     1 <1>   0.0800 
 27 H       -3.2890    -4.7720     2.5370 H     1 <1>   0.0800 
 28 H       -1.7470    -5.0410     1.7900 H     1 <1>   0.0800 
 29 H       -4.0090    -1.5860     1.5260 H     1 <1>   0.0800 
 30 H       -4.7750    -3.1400     1.5740 H     1 <1>   0.0800 
 31 H       -4.2760    -3.3560    -0.9320 H     1 <1>   0.0800 
 32 H       -3.8290    -1.6530    -0.8880 H     1 <1>   0.0800 
 33 H       -5.4610    -5.4420     1.0600 H     1 <1>   0.2700 
 34 H       -1.7780    -6.0410    -0.8370 H     1 <1>   0.1500 
 35 H       -6.0220    -1.9720    -1.4170 H     1 <1>   0.4000 
 36 H       -6.8640    -6.1270    -1.3610 H     1 <1>   0.0800 
 37 H       -6.6250    -7.6210    -0.4710 H     1 <1>   0.0800 
 38 H       -6.0690    -7.4850    -2.1210 H     1 <1>   0.0800 
@<TRIPOS>BOND
  1   1   2  1   
  2   1   3  1   
  3   2   4  1   
  4   2   5  2   
  5   3   6  1   
  6   3   7  2   
  7   4   8  2   
  8   4   9  am  
  9   5   7  1   
 10   5  22  1   
 11   6  10  2   
 12   6  11  1   
 13   7  23  1   
 14   9  12  1   
 15   9  13  1   
 16  11  24  1   
 17  11  25  1   
 18  11  26  1   
 19  12  14  1   
 20  12  27  1   
 21  12  28  1   
 22  13  15  1   
 23  13  29  1   
 24  13  30  1   
 25  14  16  1   
 26  14  17  2   
 27  15  18  1   
 28  15  31  1   
 29  15  32  1   
 30  16  19  1   
 31  16  33  1   
 32  17  20  1   
 33  17  34  1   
 34  18  35  1   
 35  19  20  2   
 36  19  21  1   
 37  21  36  1   
 38  21  37  1   
 39  21  38  1   
@<TRIPOS>SUBSTRUCTURE
  1 ****   4 GROUP 4 **** **** 0

# MOE 2024.06 (io_trps.svl 2023.06)
