@<TRIPOS>MOLECULE
NONAME
43 46 1 0 0 
SMALL
USER_CHARGES


@<TRIPOS>ATOM
  1 S       -1.4180    -0.7660    -1.1890 S.3   1 <1>  -0.3320 
  2 C       -0.8310    -2.3820    -0.6540 C.ar  1 <1>   0.1020 
  3 C        0.0040     0.4040    -1.0480 C.3   1 <1>  -0.0100 
  4 C       -1.7190    -3.4200    -0.6710 C.ar  1 <1>  -0.1500 
  5 C        0.4880    -2.5800    -0.2330 C.ar  1 <1>  -0.1500 
  6 C       -1.3410    -4.7090    -0.2680 C.ar  1 <1>   0.3100 
  7 C        0.8850    -3.8280     0.1660 C.ar  1 <1>  -0.1500 
  8 N       -2.2810    -5.6820    -0.3100 N.ar  1 <1>  -0.6200 
  9 C       -0.0070    -4.9240     0.1620 C.ar  1 <1>   0.0000 
 10 C       -1.9200    -6.8650     0.0750 C.ar  1 <1>   0.4100 
 11 C        0.3480    -6.2330     0.5610 C.ar  1 <1>  -0.1430 
 12 N       -2.9010    -7.8030     0.0330 N.pl3 1 <1>  -0.8690 
 13 C       -0.6200    -7.1870     0.5070 C.ar  1 <1>  -0.1500 
 14 C        1.7560    -6.5750     1.0270 C.3   1 <1>  -0.0970 
 15 C       -3.1900    -8.6450     1.2200 C.3   1 <1>   0.3900 
 16 C       -4.6320    -9.1420     1.2070 C.2   1 <1>   0.1080 
 17 N       -5.3690    -9.2520     2.2800 N.2   1 <1>  -0.7070 
 18 C       -5.3350    -9.5420     0.0730 C.2   1 <1>  -0.1810 
 19 N       -6.5610    -9.7220     1.8410 N.pl3 1 <1>   0.3000 
 20 C       -6.5380    -9.8980     0.5080 C.2   1 <1>  -0.3320 
 21 C       -5.1990    -9.6980    -1.4160 C.3   1 <1>   0.0210 
 22 C       -7.4700   -10.3680    -0.5710 C.3   1 <1>   0.0200 
 23 C       -6.5490   -10.3480    -1.8160 C.3   1 <1>  -0.1600 
 24 H       -0.3410     1.3720    -1.3650 H     1 <1>   0.0800 
 25 H        0.7900     0.0500    -1.6900 H     1 <1>   0.0800 
 26 H        0.3130     0.4290    -0.0190 H     1 <1>   0.0800 
 27 H       -2.7320    -3.2680    -0.9940 H     1 <1>   0.1500 
 28 H        1.1850    -1.7650    -0.2200 H     1 <1>   0.1500 
 29 H        1.8980    -3.9790     0.4880 H     1 <1>   0.1500 
 30 H       -3.7700    -7.3810    -0.3050 H     1 <1>   0.4000 
 31 H       -0.4240    -8.2040     0.7820 H     1 <1>   0.1500 
 32 H        2.0070    -5.9950     1.8970 H     1 <1>   0.0800 
 33 H        2.4640    -6.3670     0.2460 H     1 <1>   0.0800 
 34 H        1.8310    -7.6170     1.2830 H     1 <1>   0.0800 
 35 H       -3.0300    -8.0710     2.1160 H     1 <1>   0.0800 
 36 H       -2.5300    -9.4930     1.2290 H     1 <1>   0.0800 
 37 H       -7.3510    -9.9060     2.4710 H     1 <1>   0.2700 
 38 H       -4.3640   -10.3310    -1.6610 H     1 <1>   0.0800 
 39 H       -5.0780    -8.7340    -1.8780 H     1 <1>   0.0800 
 40 H       -8.2910    -9.6820    -0.6830 H     1 <1>   0.0800 
 41 H       -7.8360   -11.3600    -0.3680 H     1 <1>   0.0800 
 42 H       -6.3710   -11.3580    -2.1400 H     1 <1>   0.0800 
 43 H       -7.0080    -9.8030    -2.6210 H     1 <1>   0.0800 
@<TRIPOS>BOND
  1   1   2  1   
  2   1   3  1   
  3   2   4  ar  
  4   2   5  ar  
  5   3  24  1   
  6   3  25  1   
  7   3  26  1   
  8   4   6  ar  
  9   4  27  1   
 10   5   7  ar  
 11   5  28  1   
 12   6   8  ar  
 13   6   9  ar  
 14   7   9  ar  
 15   7  29  1   
 16   8  10  ar  
 17   9  11  ar  
 18  10  12  1   
 19  10  13  ar  
 20  11  13  ar  
 21  11  14  1   
 22  12  15  1   
 23  12  30  1   
 24  13  31  1   
 25  14  32  1   
 26  14  33  1   
 27  14  34  1   
 28  15  16  1   
 29  15  35  1   
 30  15  36  1   
 31  16  17  2   
 32  16  18  1   
 33  17  19  1   
 34  18  20  2   
 35  18  21  1   
 36  19  20  1   
 37  19  37  1   
 38  20  22  1   
 39  21  23  1   
 40  21  38  1   
 41  21  39  1   
 42  22  23  1   
 43  22  40  1   
 44  22  41  1   
 45  23  42  1   
 46  23  43  1   
@<TRIPOS>SUBSTRUCTURE
  1 ****  10 GROUP 4 **** **** 0

# MOE 2024.06 (io_trps.svl 2023.06)
