@<TRIPOS>MOLECULE
NONAME
45 47 1 0 0 
SMALL
USER_CHARGES


@<TRIPOS>ATOM
  1 S        2.8070    -0.4390     2.4840 S.3   1 <1>  -0.0800 
  2 C        1.4590    -0.3500     1.3790 C.2   1 <1>   0.1980 
  3 C        2.6490    -2.1650     2.4920 C.2   1 <1>  -0.1100 
  4 N        0.9700    -1.4820     1.0680 N.2   1 <1>  -0.5650 
  5 C        1.0400     1.0400     0.9290 C.3   1 <1>   0.0200 
  6 C        1.6320    -2.5580     1.6920 C.2   1 <1>   0.1410 
  7 C       -0.1460     1.0170    -0.0480 C.3   1 <1>  -0.1600 
  8 C        1.2530    -3.9620     1.4990 C.2   1 <1>   0.7160 
  9 C       -0.5490     2.4290    -0.4850 C.3   1 <1>  -0.2400 
 10 O        1.8270    -4.8120     2.1590 O.2   1 <1>  -0.5700 
 11 N        0.2890    -4.4040     0.6100 N.am  1 <1>  -0.6600 
 12 C       -0.4420    -3.5870    -0.3910 C.3   1 <1>   0.1400 
 13 C       -0.1090    -5.8300     0.5070 C.3   1 <1>   0.1400 
 14 C       -1.1890    -4.5970    -1.2600 C.3   1 <1>   0.2000 
 15 C       -1.3490    -5.8390    -0.3880 C.3   1 <1>  -0.0800 
 16 O       -2.4310    -4.1220    -1.6500 O.3   1 <1>  -0.6800 
 17 C       -1.5140    -7.1320    -1.2000 C.3   1 <1>   0.0210 
 18 C       -1.5400    -8.3470    -0.2930 C.2   1 <1>   0.1080 
 19 N       -2.4440    -8.5240     0.6210 N.2   1 <1>  -0.7070 
 20 C       -0.6140    -9.3840    -0.3240 C.2   1 <1>  -0.1500 
 21 N       -2.1160    -9.6930     1.2020 N.pl3 1 <1>   0.3000 
 22 C       -1.0100   -10.2330     0.6480 C.2   1 <1>  -0.3320 
 23 C       -0.3900   -11.5460     1.0880 C.3   1 <1>  -0.0600 
 24 H        3.3290    -2.7390     3.0950 H     1 <1>   0.1500 
 25 H        0.7760     1.6130     1.7990 H     1 <1>   0.0800 
 26 H        1.8820     1.5140     0.4580 H     1 <1>   0.0800 
 27 H        0.1200     0.4370    -0.9160 H     1 <1>   0.0800 
 28 H       -0.9860     0.5360     0.4240 H     1 <1>   0.0800 
 29 H        0.2700     2.9190    -0.9820 H     1 <1>   0.0800 
 30 H       -0.8430     3.0190     0.3660 H     1 <1>   0.0800 
 31 H       -1.3800     2.3780    -1.1670 H     1 <1>   0.0800 
 32 H       -1.1290    -2.9350     0.1190 H     1 <1>   0.0800 
 33 H        0.2470    -3.0100    -0.9840 H     1 <1>   0.0800 
 34 H        0.6970    -6.3860     0.0590 H     1 <1>   0.0800 
 35 H       -0.3270    -6.2420     1.4790 H     1 <1>   0.0800 
 36 H       -0.6130    -4.8080    -2.1450 H     1 <1>   0.0800 
 37 H       -2.2020    -5.7200     0.2580 H     1 <1>   0.0800 
 38 H       -3.0090    -4.0170    -0.8690 H     1 <1>   0.4000 
 39 H       -0.7080    -7.2320    -1.9040 H     1 <1>   0.0800 
 40 H       -2.4360    -7.0940    -1.7510 H     1 <1>   0.0800 
 41 H        0.2270    -9.4660    -0.9890 H     1 <1>   0.1500 
 42 H       -2.6660   -10.0940     1.9710 H     1 <1>   0.2700 
 43 H        0.4810   -11.7610     0.4950 H     1 <1>   0.0800 
 44 H       -1.0940   -12.3500     0.9650 H     1 <1>   0.0800 
 45 H       -0.0960   -11.4910     2.1210 H     1 <1>   0.0800 
@<TRIPOS>BOND
  1   1   2  1   
  2   1   3  1   
  3   2   4  2   
  4   2   5  1   
  5   3   6  2   
  6   3  24  1   
  7   4   6  1   
  8   5   7  1   
  9   5  25  1   
 10   5  26  1   
 11   6   8  1   
 12   7   9  1   
 13   7  27  1   
 14   7  28  1   
 15   8  10  2   
 16   8  11  am  
 17   9  29  1   
 18   9  30  1   
 19   9  31  1   
 20  11  12  1   
 21  11  13  1   
 22  12  14  1   
 23  12  32  1   
 24  12  33  1   
 25  13  15  1   
 26  13  34  1   
 27  13  35  1   
 28  14  15  1   
 29  14  16  1   
 30  14  36  1   
 31  15  17  1   
 32  15  37  1   
 33  16  38  1   
 34  17  18  1   
 35  17  39  1   
 36  17  40  1   
 37  18  19  2   
 38  18  20  1   
 39  19  21  1   
 40  20  22  2   
 41  20  41  1   
 42  21  22  1   
 43  21  42  1   
 44  22  23  1   
 45  23  43  1   
 46  23  44  1   
 47  23  45  1   
@<TRIPOS>SUBSTRUCTURE
  1 ****  11 GROUP 4 **** **** 0

# MOE 2024.06 (io_trps.svl 2023.06)
