@<TRIPOS>MOLECULE
NONAME
40 41 1 0 0 
SMALL
USER_CHARGES


@<TRIPOS>ATOM
  1 F       -0.2380    -1.3930     0.2820 F     1 <1>  -0.3400 
  2 C       -0.8490    -1.6750     1.4250 C.3   1 <1>   1.0200 
  3 F       -0.2210    -0.9930     2.3710 F     1 <1>  -0.3400 
  4 F       -2.0680    -1.1630     1.3300 F     1 <1>  -0.3400 
  5 C       -0.8730    -3.1750     1.7090 C.3   1 <1>  -0.1600 
  6 C       -1.6000    -4.0010     0.6220 C.3   1 <1>  -0.0990 
  7 C       -1.6120    -5.5000     0.8980 C.2   1 <1>   0.5690 
  8 O       -1.1540    -5.8900     1.9450 O.2   1 <1>  -0.5700 
  9 N       -2.1340    -6.3560    -0.0310 N.am  1 <1>  -0.6600 
 10 C       -2.1600    -7.8370     0.2370 C.3   1 <1>   0.3640 
 11 C       -2.8010    -5.9060    -1.2950 C.3   1 <1>   0.1400 
 12 C       -1.0030    -8.5780    -0.4560 C.ar  1 <1>  -0.1440 
 13 C       -3.5410    -8.4660    -0.1400 C.3   1 <1>   0.2000 
 14 C       -3.4570    -7.0660    -2.0580 C.3   1 <1>   0.1200 
 15 C       -0.7710    -9.9000    -0.0950 C.ar  1 <1>  -0.1500 
 16 C       -0.1690    -8.0010    -1.4090 C.ar  1 <1>  -0.1500 
 17 O       -4.2380    -7.8090    -1.1770 O.3   1 <1>  -0.5600 
 18 C       -4.4840    -8.4920     1.0690 C.3   1 <1>   0.1200 
 19 C        0.2450   -10.6330    -0.6820 C.ar  1 <1>  -0.1500 
 20 C        0.8480    -8.7320    -1.9990 C.ar  1 <1>  -0.1500 
 21 O       -4.0470    -9.4300     2.0000 O.3   1 <1>  -0.6800 
 22 C        1.0550   -10.0500    -1.6380 C.ar  1 <1>  -0.1500 
 23 H        0.1420    -3.5150     1.7980 H     1 <1>   0.0800 
 24 H       -1.3550    -3.3270     2.6580 H     1 <1>   0.0800 
 25 H       -1.1180    -3.8380    -0.3240 H     1 <1>   0.0800 
 26 H       -2.6190    -3.6680     0.5480 H     1 <1>   0.0800 
 27 H       -2.0140    -8.0010     1.2910 H     1 <1>   0.0800 
 28 H       -3.5650    -5.1880    -1.0550 H     1 <1>   0.0800 
 29 H       -2.0800    -5.4270    -1.9340 H     1 <1>   0.0800 
 30 H       -3.3950    -9.4780    -0.4720 H     1 <1>   0.0800 
 31 H       -2.7230    -7.7140    -2.5070 H     1 <1>   0.0800 
 32 H       -4.1010    -6.6870    -2.8320 H     1 <1>   0.0800 
 33 H       -1.3820   -10.3700     0.6570 H     1 <1>   0.1500 
 34 H       -0.2910    -6.9760    -1.7020 H     1 <1>   0.1500 
 35 H       -5.4820    -8.7600     0.7680 H     1 <1>   0.0800 
 36 H       -4.4970    -7.5280     1.5490 H     1 <1>   0.0800 
 37 H        0.4090   -11.6560    -0.3910 H     1 <1>   0.1500 
 38 H        1.4830    -8.2720    -2.7360 H     1 <1>   0.1500 
 39 H       -4.3210   -10.3310     1.7390 H     1 <1>   0.4000 
 40 H        1.8460   -10.6180    -2.0960 H     1 <1>   0.1500 
@<TRIPOS>BOND
  1   1   2  1   
  2   2   3  1   
  3   2   4  1   
  4   2   5  1   
  5   5   6  1   
  6   5  23  1   
  7   5  24  1   
  8   6   7  1   
  9   6  25  1   
 10   6  26  1   
 11   7   8  2   
 12   7   9  am  
 13   9  10  1   
 14   9  11  1   
 15  10  12  1   
 16  10  13  1   
 17  10  27  1   
 18  11  14  1   
 19  11  28  1   
 20  11  29  1   
 21  12  15  ar  
 22  12  16  ar  
 23  13  17  1   
 24  13  18  1   
 25  13  30  1   
 26  14  17  1   
 27  14  31  1   
 28  14  32  1   
 29  15  19  ar  
 30  15  33  1   
 31  16  20  ar  
 32  16  34  1   
 33  18  21  1   
 34  18  35  1   
 35  18  36  1   
 36  19  22  ar  
 37  19  37  1   
 38  20  22  ar  
 39  20  38  1   
 40  21  39  1   
 41  22  40  1   
@<TRIPOS>SUBSTRUCTURE
  1 ****   9 GROUP 4 **** **** 0

# MOE 2024.06 (io_trps.svl 2023.06)
