@<TRIPOS>MOLECULE
NONAME
39 41 1 0 0 
SMALL
USER_CHARGES


@<TRIPOS>ATOM
  1 S        0.6200    -1.8790     0.5290 S.3   1 <1>  -0.0800 
  2 C       -0.9790    -1.4170     0.0330 C.2   1 <1>  -0.1400 
  3 C       -0.0760    -3.2820     1.3200 C.2   1 <1>   0.1980 
  4 C       -1.8600    -2.3190     0.4790 C.2   1 <1>   0.0460 
  5 C       -1.2400    -0.1730    -0.7860 C.3   1 <1>   0.0200 
  6 N       -1.3410    -3.3790     1.2160 N.2   1 <1>  -0.5650 
  7 C        0.8730    -4.2180     2.0300 C.3   1 <1>  -0.0600 
  8 C       -3.3540    -2.1980     0.1870 C.3   1 <1>   0.4010 
  9 C       -2.7560     0.1090    -0.7920 C.3   1 <1>  -0.1600 
 10 N       -3.8710    -3.5110    -0.2150 N.am  1 <1>  -0.7300 
 11 C       -3.5960    -1.1800    -0.9500 C.3   1 <1>  -0.1600 
 12 C       -5.1690    -3.8900    -0.1920 C.2   1 <1>   0.5690 
 13 O       -6.0560    -3.0980     0.0170 O.2   1 <1>  -0.5700 
 14 C       -5.5390    -5.3520    -0.4150 C.3   1 <1>   0.1310 
 15 S       -4.1210    -6.3570    -0.9980 S.3   1 <1>  -0.4600 
 16 C       -4.8420    -7.9870    -1.3310 C.3   1 <1>   0.1650 
 17 C       -5.3150    -8.5980    -0.0080 C.3   1 <1>  -0.1950 
 18 C       -4.3380    -9.1800     0.9630 C.3   1 <1>  -0.2000 
 19 C       -5.2680   -10.0790     0.1990 C.3   1 <1>  -0.2000 
 20 H       -0.8900    -0.3380    -1.7900 H     1 <1>   0.0800 
 21 H       -0.7100     0.6660    -0.3700 H     1 <1>   0.0800 
 22 H        1.3930    -3.6880     2.8060 H     1 <1>   0.0800 
 23 H        1.5830    -4.6150     1.3300 H     1 <1>   0.0800 
 24 H        0.3200    -5.0290     2.4680 H     1 <1>   0.0800 
 25 H       -3.8570    -1.8780     1.0830 H     1 <1>   0.0800 
 26 H       -2.9890     0.7970    -1.5860 H     1 <1>   0.0800 
 27 H       -3.0240     0.5810     0.1380 H     1 <1>   0.0800 
 28 H       -3.1400    -4.2300    -0.2620 H     1 <1>   0.3700 
 29 H       -4.6410    -0.9290    -0.9720 H     1 <1>   0.0800 
 30 H       -3.3410    -1.6410    -1.8890 H     1 <1>   0.0800 
 31 H       -6.3100    -5.4230    -1.1590 H     1 <1>   0.0800 
 32 H       -5.8790    -5.7800     0.5080 H     1 <1>   0.0800 
 33 H       -4.0660    -8.5810    -1.7810 H     1 <1>   0.0800 
 34 H       -5.6530    -7.8560    -2.0250 H     1 <1>   0.0800 
 35 H       -6.1720    -8.0900     0.3960 H     1 <1>   0.1000 
 36 H       -4.5070    -9.0240     2.0150 H     1 <1>   0.1000 
 37 H       -3.2910    -9.1710     0.7100 H     1 <1>   0.1000 
 38 H       -4.8490   -10.7110    -0.5650 H     1 <1>   0.1000 
 39 H       -6.0740   -10.5550     0.7310 H     1 <1>   0.1000 
@<TRIPOS>BOND
  1   1   2  1   
  2   1   3  1   
  3   2   4  2   
  4   2   5  1   
  5   3   6  2   
  6   3   7  1   
  7   4   6  1   
  8   4   8  1   
  9   5   9  1   
 10   5  20  1   
 11   5  21  1   
 12   7  22  1   
 13   7  23  1   
 14   7  24  1   
 15   8  10  1   
 16   8  11  1   
 17   8  25  1   
 18   9  11  1   
 19   9  26  1   
 20   9  27  1   
 21  10  12  am  
 22  10  28  1   
 23  11  29  1   
 24  11  30  1   
 25  12  13  2   
 26  12  14  1   
 27  14  15  1   
 28  14  31  1   
 29  14  32  1   
 30  15  16  1   
 31  16  17  1   
 32  16  33  1   
 33  16  34  1   
 34  17  18  1   
 35  17  19  1   
 36  17  35  1   
 37  18  19  1   
 38  18  36  1   
 39  18  37  1   
 40  19  38  1   
 41  19  39  1   
@<TRIPOS>SUBSTRUCTURE
  1 ****  10 GROUP 4 **** **** 0

# MOE 2024.06 (io_trps.svl 2023.06)
