@<TRIPOS>MOLECULE
NONAME
46 49 1 0 0 
SMALL
USER_CHARGES


@<TRIPOS>ATOM
  1 O       -0.2630    -0.1310    -0.0960 O.2   1 <1>  -0.5700 
  2 C       -0.2230     1.0850    -0.0450 C.2   1 <1>   0.6900 
  3 N       -1.3840     1.8140    -0.0530 N.am  1 <1>  -0.6600 
  4 N        0.9670     1.7530    -0.0090 N.am  1 <1>  -0.5470 
  5 C       -1.4660     3.2170     0.4530 C.3   1 <1>   0.1400 
  6 C       -2.6670     1.1500    -0.4280 C.3   1 <1>   0.1400 
  7 C        2.2860     1.2920     0.1120 C.ar  1 <1>   0.1170 
  8 C       -2.8430     3.4750     1.0610 C.3   1 <1>  -0.1600 
  9 C       -3.6570     2.1750    -0.9830 C.3   1 <1>  -0.1600 
 10 C        3.3150     2.0800    -0.4020 C.ar  1 <1>  -0.1500 
 11 C        2.6040     0.0850     0.7460 C.ar  1 <1>  -0.1500 
 12 C       -3.9480     3.3240     0.0020 C.3   1 <1>   0.4180 
 13 C        4.6150     1.6380    -0.2710 C.ar  1 <1>   0.0830 
 14 C        3.9190    -0.3460     0.8680 C.ar  1 <1>  -0.1500 
 15 O       -3.9740     4.4900    -0.7850 O.3   1 <1>  -0.5600 
 16 C       -5.3010     3.0960     0.6760 C.2   1 <1>  -0.2880 
 17 O        5.7370     2.2330    -0.6900 O.3   1 <1>  -0.3630 
 18 C        4.9110     0.4590     0.3460 C.ar  1 <1>   0.0830 
 19 C       -4.6870     5.5960    -0.3020 C.3   1 <1>   0.1200 
 20 C       -6.3260     3.9490     0.6140 C.2   1 <1>  -0.2760 
 21 C        6.8150     1.3740    -0.3220 C.3   1 <1>   0.4000 
 22 O        6.2350     0.2550     0.3440 O.3   1 <1>  -0.3630 
 23 C       -6.1740     5.2580    -0.1370 C.3   1 <1>  -0.0220 
 24 C       -7.6870     3.7100     1.2430 C.3   1 <1>  -0.1020 
 25 H        0.8640     2.7330    -0.2450 H     1 <1>   0.3700 
 26 H       -1.2980     3.9000    -0.3630 H     1 <1>   0.0800 
 27 H       -0.7120     3.3800     1.2050 H     1 <1>   0.0800 
 28 H       -3.0790     0.6660     0.4410 H     1 <1>   0.0800 
 29 H       -2.4780     0.3940    -1.1720 H     1 <1>   0.0800 
 30 H       -2.8760     4.4510     1.5040 H     1 <1>   0.0800 
 31 H       -2.9990     2.7650     1.8530 H     1 <1>   0.0800 
 32 H       -4.5730     1.6770    -1.2410 H     1 <1>   0.0800 
 33 H       -3.2400     2.5700    -1.8920 H     1 <1>   0.0800 
 34 H        3.1150     3.0110    -0.8960 H     1 <1>   0.1500 
 35 H        1.8170    -0.5250     1.1500 H     1 <1>   0.1500 
 36 H        4.1660    -1.2730     1.3510 H     1 <1>   0.1500 
 37 H       -5.3480     2.1600     1.2030 H     1 <1>   0.1500 
 38 H       -4.5640     6.3990    -1.0070 H     1 <1>   0.0800 
 39 H       -4.2660     5.8950     0.6400 H     1 <1>   0.0800 
 40 H        7.4760     1.8920     0.3510 H     1 <1>   0.0800 
 41 H        7.3280     1.0410    -1.2070 H     1 <1>   0.0800 
 42 H       -6.6410     5.1820    -1.1030 H     1 <1>   0.0800 
 43 H       -6.6480     6.0570     0.4050 H     1 <1>   0.0800 
 44 H       -7.9020     4.4750     1.9670 H     1 <1>   0.0800 
 45 H       -7.7100     2.7550     1.7390 H     1 <1>   0.0800 
 46 H       -8.4510     3.7190     0.4870 H     1 <1>   0.0800 
@<TRIPOS>BOND
  1   1   2  2   
  2   2   3  am  
  3   2   4  am  
  4   3   5  1   
  5   3   6  1   
  6   4   7  1   
  7   4  25  1   
  8   5   8  1   
  9   5  26  1   
 10   5  27  1   
 11   6   9  1   
 12   6  28  1   
 13   6  29  1   
 14   7  10  ar  
 15   7  11  ar  
 16   8  12  1   
 17   8  30  1   
 18   8  31  1   
 19   9  12  1   
 20   9  32  1   
 21   9  33  1   
 22  10  13  ar  
 23  10  34  1   
 24  11  14  ar  
 25  11  35  1   
 26  12  15  1   
 27  12  16  1   
 28  13  17  1   
 29  13  18  ar  
 30  14  18  ar  
 31  14  36  1   
 32  15  19  1   
 33  16  20  2   
 34  16  37  1   
 35  17  21  1   
 36  18  22  1   
 37  19  23  1   
 38  19  38  1   
 39  19  39  1   
 40  20  23  1   
 41  20  24  1   
 42  21  22  1   
 43  21  40  1   
 44  21  41  1   
 45  23  42  1   
 46  23  43  1   
 47  24  44  1   
 48  24  45  1   
 49  24  46  1   
@<TRIPOS>SUBSTRUCTURE
  1 ****   3 GROUP 4 **** **** 0

# MOE 2024.06 (io_trps.svl 2023.06)
