@<TRIPOS>MOLECULE
NONAME
47 49 1 0 0 
SMALL
USER_CHARGES


@<TRIPOS>ATOM
  1 O        0.5960    -1.7960    -1.9210 O.2   1 <1>  -0.5700 
  2 C        0.0760    -2.4060    -0.9870 C.2   1 <1>   0.6160 
  3 N        0.7080    -2.4970     0.2520 N.am  1 <1>  -0.2980 
  4 C       -1.1690    -3.0390    -1.1230 C.2   1 <1>  -0.1360 
  5 N        0.1760    -3.1520     1.3310 N.2   1 <1>  -0.5120 
  6 C        2.0270    -1.8540     0.4470 C.3   1 <1>   0.0600 
  7 C       -1.7270    -3.7080    -0.0670 C.2   1 <1>   0.1140 
  8 C       -0.9780    -3.7130     1.1580 C.2   1 <1>   0.3760 
  9 N       -2.9630    -4.3540    -0.1830 N.pl3 1 <1>  -0.8380 
 10 C       -3.3140    -5.5560     0.6470 C.3   1 <1>   0.2090 
 11 C       -3.9690    -3.9550    -1.2270 C.3   1 <1>   0.2090 
 12 C       -4.1740    -6.5680    -0.1320 C.3   1 <1>   0.1400 
 13 C       -5.3840    -4.4670    -0.9110 C.3   1 <1>   0.1400 
 14 N       -5.4100    -5.9500    -0.7070 N.am  1 <1>  -0.6600 
 15 C       -6.5210    -6.6930    -1.0290 C.2   1 <1>   0.7150 
 16 O       -7.5330    -6.1160    -1.3790 O.2   1 <1>  -0.5700 
 17 C       -6.4840    -8.1280    -0.9480 C.2   1 <1>  -0.2370 
 18 N       -7.2460    -8.9020    -0.0980 N.pl3 1 <1>   0.0480 
 19 C       -5.6850    -8.9700    -1.6780 C.2   1 <1>  -0.1500 
 20 C       -6.8980   -10.1980    -0.3100 C.2   1 <1>  -0.3020 
 21 C       -8.2700    -8.5100     0.9170 C.3   1 <1>   0.1760 
 22 C       -5.9440   -10.2730    -1.2740 C.2   1 <1>  -0.1500 
 23 C       -9.6040    -8.1610     0.2480 C.3   1 <1>  -0.2400 
 24 C       -7.7830    -7.3850     1.8400 C.3   1 <1>  -0.2400 
 25 H       -1.6350    -2.9750    -2.0830 H     1 <1>   0.1500 
 26 H        2.7340    -2.2700    -0.2470 H     1 <1>   0.0800 
 27 H        2.3730    -2.0210     1.4510 H     1 <1>   0.0800 
 28 H        1.9380    -0.7960     0.2730 H     1 <1>   0.0800 
 29 H       -1.4170    -4.2210     1.9960 H     1 <1>   0.0600 
 30 H       -3.8550    -5.2370     1.5210 H     1 <1>   0.0800 
 31 H       -2.4140    -6.0500     0.9710 H     1 <1>   0.0800 
 32 H       -3.6650    -4.3520    -2.1800 H     1 <1>   0.0800 
 33 H       -3.9960    -2.8820    -1.3040 H     1 <1>   0.0800 
 34 H       -4.4450    -7.3730     0.5280 H     1 <1>   0.0800 
 35 H       -3.5840    -6.9780    -0.9320 H     1 <1>   0.0800 
 36 H       -6.0400    -4.1980    -1.7210 H     1 <1>   0.0800 
 37 H       -5.7450    -3.9840    -0.0200 H     1 <1>   0.0800 
 38 H       -4.9770    -8.6890    -2.4390 H     1 <1>   0.1500 
 39 H       -7.3460   -11.0120     0.2300 H     1 <1>   0.1500 
 40 H       -8.4370    -9.3750     1.5350 H     1 <1>   0.0800 
 41 H       -5.4720   -11.1580    -1.6660 H     1 <1>   0.1500 
 42 H       -9.5160    -7.2750    -0.3510 H     1 <1>   0.0800 
 43 H      -10.3560    -7.9880     0.9960 H     1 <1>   0.0800 
 44 H       -9.9270    -8.9750    -0.3760 H     1 <1>   0.0800 
 45 H       -7.7430    -6.4440     1.3220 H     1 <1>   0.0800 
 46 H       -6.8110    -7.6210     2.2350 H     1 <1>   0.0800 
 47 H       -8.4650    -7.2750     2.6640 H     1 <1>   0.0800 
@<TRIPOS>BOND
  1   1   2  2   
  2   2   3  am  
  3   2   4  1   
  4   3   5  1   
  5   3   6  1   
  6   4   7  2   
  7   4  25  1   
  8   5   8  2   
  9   6  26  1   
 10   6  27  1   
 11   6  28  1   
 12   7   8  1   
 13   7   9  1   
 14   8  29  1   
 15   9  10  1   
 16   9  11  1   
 17  10  12  1   
 18  10  30  1   
 19  10  31  1   
 20  11  13  1   
 21  11  32  1   
 22  11  33  1   
 23  12  14  1   
 24  12  34  1   
 25  12  35  1   
 26  13  14  1   
 27  13  36  1   
 28  13  37  1   
 29  14  15  am  
 30  15  16  2   
 31  15  17  1   
 32  17  18  1   
 33  17  19  2   
 34  18  20  1   
 35  18  21  1   
 36  19  22  1   
 37  19  38  1   
 38  20  22  2   
 39  20  39  1   
 40  21  23  1   
 41  21  24  1   
 42  21  40  1   
 43  22  41  1   
 44  23  42  1   
 45  23  43  1   
 46  23  44  1   
 47  24  45  1   
 48  24  46  1   
 49  24  47  1   
@<TRIPOS>SUBSTRUCTURE
  1 ****  12 GROUP 4 **** **** 0

# MOE 2024.06 (io_trps.svl 2023.06)
