@<TRIPOS>MOLECULE
NONAME
46 48 1 0 0 
SMALL
USER_CHARGES


@<TRIPOS>ATOM
  1 O       -0.1330     0.6880    -0.9080 O.2   1 <1>  -0.5700 
  2 C       -0.1090     1.8870    -0.6840 C.2   1 <1>   0.7150 
  3 N       -1.2860     2.6010    -0.8250 N.am  1 <1>  -0.6600 
  4 C        1.1350     2.5010    -0.2690 C.2   1 <1>   0.0550 
  5 C       -2.4550     2.0570    -1.5730 C.3   1 <1>   0.1400 
  6 C       -1.5380     3.9280    -0.1980 C.3   1 <1>   0.1400 
  7 O        1.4620     3.7260    -0.6640 O.3   1 <1>  -0.2800 
  8 C        2.1340     2.0200     0.5000 C.2   1 <1>   0.0460 
  9 C       -3.6550     1.9380    -0.6310 C.3   1 <1>  -0.1600 
 10 C       -2.7320     3.8190     0.7530 C.3   1 <1>  -0.1600 
 11 C        2.6400     3.8980    -0.0990 C.2   1 <1>   0.2980 
 12 N        3.0950     2.9300     0.6080 N.2   1 <1>  -0.5650 
 13 C        2.2840     0.6840     1.1980 C.3   1 <1>  -0.0590 
 14 C       -3.9790     3.2740     0.0430 C.3   1 <1>   0.4180 
 15 C        3.3340     5.2290    -0.3490 C.3   1 <1>   0.0200 
 16 O       -4.3510     4.1560    -0.9890 O.3   1 <1>  -0.5600 
 17 C       -5.1310     3.0870     1.0260 C.2   1 <1>  -0.2880 
 18 C        4.6890     5.3690     0.3610 C.3   1 <1>  -0.2400 
 19 C       -5.0940     5.2890    -0.6340 C.3   1 <1>   0.1200 
 20 C       -6.2630     3.7940     0.9970 C.2   1 <1>  -0.2760 
 21 C       -6.4510     4.8830    -0.0430 C.3   1 <1>  -0.0220 
 22 C       -7.4310     3.5890     1.9460 C.3   1 <1>  -0.1020 
 23 H       -2.2280     1.0930    -1.9950 H     1 <1>   0.0800 
 24 H       -2.6930     2.7240    -2.3840 H     1 <1>   0.0800 
 25 H       -1.7440     4.6490    -0.9700 H     1 <1>   0.0800 
 26 H       -0.6830     4.2630     0.3600 H     1 <1>   0.0800 
 27 H       -3.4330     1.1980     0.1150 H     1 <1>   0.0800 
 28 H       -4.5160     1.6010    -1.1780 H     1 <1>   0.0800 
 29 H       -2.9440     4.7750     1.1920 H     1 <1>   0.0800 
 30 H       -2.4690     3.1550     1.5560 H     1 <1>   0.0800 
 31 H        1.4070     0.0780     1.0680 H     1 <1>   0.0800 
 32 H        2.4440     0.8420     2.2490 H     1 <1>   0.0800 
 33 H        3.1310     0.1610     0.7930 H     1 <1>   0.0800 
 34 H        2.6800     6.0160    -0.0200 H     1 <1>   0.0800 
 35 H        3.4780     5.3380    -1.4080 H     1 <1>   0.0800 
 36 H       -4.9400     2.3140     1.7480 H     1 <1>   0.1500 
 37 H        4.5600     5.2760     1.4250 H     1 <1>   0.0800 
 38 H        5.1260     6.3280     0.1460 H     1 <1>   0.0800 
 39 H        5.3610     4.5980     0.0290 H     1 <1>   0.0800 
 40 H       -5.2360     5.8800    -1.5210 H     1 <1>   0.0800 
 41 H       -4.5300     5.8630     0.0780 H     1 <1>   0.0800 
 42 H       -7.0980     4.5300    -0.8270 H     1 <1>   0.0800 
 43 H       -6.9030     5.7510     0.4020 H     1 <1>   0.0800 
 44 H       -8.3170     3.3340     1.3910 H     1 <1>   0.0800 
 45 H       -7.6180     4.4870     2.5070 H     1 <1>   0.0800 
 46 H       -7.2200     2.7920     2.6360 H     1 <1>   0.0800 
@<TRIPOS>BOND
  1   1   2  2   
  2   2   3  am  
  3   2   4  1   
  4   3   5  1   
  5   3   6  1   
  6   4   7  1   
  7   4   8  2   
  8   5   9  1   
  9   5  23  1   
 10   5  24  1   
 11   6  10  1   
 12   6  25  1   
 13   6  26  1   
 14   7  11  1   
 15   8  12  1   
 16   8  13  1   
 17   9  14  1   
 18   9  27  1   
 19   9  28  1   
 20  10  14  1   
 21  10  29  1   
 22  10  30  1   
 23  11  12  2   
 24  11  15  1   
 25  13  31  1   
 26  13  32  1   
 27  13  33  1   
 28  14  16  1   
 29  14  17  1   
 30  15  18  1   
 31  15  34  1   
 32  15  35  1   
 33  16  19  1   
 34  17  20  2   
 35  17  36  1   
 36  18  37  1   
 37  18  38  1   
 38  18  39  1   
 39  19  21  1   
 40  19  40  1   
 41  19  41  1   
 42  20  21  1   
 43  20  22  1   
 44  21  42  1   
 45  21  43  1   
 46  22  44  1   
 47  22  45  1   
 48  22  46  1   
@<TRIPOS>SUBSTRUCTURE
  1 ****   6 GROUP 4 **** **** 0

# MOE 2024.06 (io_trps.svl 2023.06)
