@<TRIPOS>MOLECULE
NONAME
48 50 1 0 0 
SMALL
USER_CHARGES


@<TRIPOS>ATOM
  1 S        0.0430    -0.3650     1.4890 S.3   1 <1>  -0.3320 
  2 C        1.2780     0.5800     0.5790 C.ar  1 <1>   0.1010 
  3 C       -0.0040    -2.0430     0.7140 C.3   1 <1>   0.0700 
  4 C        1.9310     0.0690    -0.5310 C.ar  1 <1>  -0.1500 
  5 C        1.5540     1.8560     1.0360 C.ar  1 <1>  -0.1500 
  6 C       -1.0140    -2.8940     1.4800 C.3   1 <1>   0.1400 
  7 C        2.8740     0.8480    -1.1810 C.ar  1 <1>  -0.1500 
  8 C        2.4970     2.6280     0.3800 C.ar  1 <1>  -0.1500 
  9 N       -0.9470    -4.3090     1.0150 N.am  1 <1>  -0.6600 
 10 C        3.1620     2.1270    -0.7290 C.ar  1 <1>  -0.1440 
 11 C       -1.6880    -4.7410    -0.0790 C.2   1 <1>   0.7160 
 12 C       -0.0550    -5.2000     1.8090 C.3   1 <1>   0.0600 
 13 C        4.1940     2.9780    -1.4470 C.3   1 <1>  -0.0960 
 14 O       -2.2070    -3.8770    -0.7710 O.2   1 <1>  -0.5700 
 15 C       -1.8700    -6.1480    -0.4490 C.2   1 <1>   0.2030 
 16 N       -1.5800    -7.2280     0.2620 N.2   1 <1>  -0.7070 
 17 C       -2.4200    -6.5410    -1.6680 C.2   1 <1>  -0.1500 
 18 N       -1.9380    -8.2710    -0.4910 N.pl3 1 <1>   0.3140 
 19 C       -2.4590    -7.8980    -1.6810 C.2   1 <1>  -0.2370 
 20 C       -1.7710    -9.6390     0.0180 C.3   1 <1>   0.0960 
 21 C       -2.9220    -8.7650    -2.7250 C.2   1 <1>   0.7150 
 22 C       -3.1110   -10.3680    -0.0380 C.3   1 <1>   0.2000 
 23 O       -3.1030    -8.3240    -3.8390 O.2   1 <1>  -0.5700 
 24 N       -3.1820   -10.0910    -2.5870 N.am  1 <1>  -0.7300 
 25 O       -3.0900   -11.4030     0.8900 O.3   1 <1>  -0.6800 
 26 C       -3.4290   -10.9730    -1.4140 C.3   1 <1>   0.1400 
 27 H        0.9870    -2.4520     0.7850 H     1 <1>   0.0800 
 28 H       -0.3030    -1.9190    -0.3110 H     1 <1>   0.0800 
 29 H        1.7230    -0.9150    -0.9000 H     1 <1>   0.1500 
 30 H        1.0350     2.2370     1.8970 H     1 <1>   0.1500 
 31 H       -2.0050    -2.5040     1.3170 H     1 <1>   0.0800 
 32 H       -0.8080    -2.8490     2.5350 H     1 <1>   0.0800 
 33 H        3.3820     0.4560    -2.0440 H     1 <1>   0.1500 
 34 H        2.7090     3.6210     0.7380 H     1 <1>   0.1500 
 35 H        0.6790    -4.6220     2.3430 H     1 <1>   0.0800 
 36 H        0.4610    -5.8820     1.1560 H     1 <1>   0.0800 
 37 H       -0.6430    -5.7640     2.5120 H     1 <1>   0.0800 
 38 H        4.9430     2.3560    -1.9030 H     1 <1>   0.0800 
 39 H        4.6810     3.6410    -0.7550 H     1 <1>   0.0800 
 40 H        3.7150     3.5630    -2.2110 H     1 <1>   0.0800 
 41 H       -2.7470    -5.8720    -2.4460 H     1 <1>   0.1500 
 42 H       -1.4360    -9.5700     1.0370 H     1 <1>   0.0800 
 43 H       -1.0280   -10.1410    -0.5730 H     1 <1>   0.0800 
 44 H       -3.9040    -9.7030     0.2660 H     1 <1>   0.0800 
 45 H       -3.4660   -10.5010    -3.4810 H     1 <1>   0.3700 
 46 H       -2.3600   -12.0300     0.7210 H     1 <1>   0.4000 
 47 H       -4.4650   -11.2680    -1.4230 H     1 <1>   0.0800 
 48 H       -2.8320   -11.8590    -1.5480 H     1 <1>   0.0800 
@<TRIPOS>BOND
  1   1   2  1   
  2   1   3  1   
  3   2   4  ar  
  4   2   5  ar  
  5   3   6  1   
  6   3  27  1   
  7   3  28  1   
  8   4   7  ar  
  9   4  29  1   
 10   5   8  ar  
 11   5  30  1   
 12   6   9  1   
 13   6  31  1   
 14   6  32  1   
 15   7  10  ar  
 16   7  33  1   
 17   8  10  ar  
 18   8  34  1   
 19   9  11  am  
 20   9  12  1   
 21  10  13  1   
 22  11  14  2   
 23  11  15  1   
 24  12  35  1   
 25  12  36  1   
 26  12  37  1   
 27  13  38  1   
 28  13  39  1   
 29  13  40  1   
 30  15  16  2   
 31  15  17  1   
 32  16  18  1   
 33  17  19  2   
 34  17  41  1   
 35  18  19  1   
 36  18  20  1   
 37  19  21  1   
 38  20  22  1   
 39  20  42  1   
 40  20  43  1   
 41  21  23  2   
 42  21  24  am  
 43  22  25  1   
 44  22  26  1   
 45  22  44  1   
 46  24  26  1   
 47  24  45  1   
 48  25  46  1   
 49  26  47  1   
 50  26  48  1   
@<TRIPOS>SUBSTRUCTURE
  1 ****  11 GROUP 4 **** **** 0

# MOE 2024.06 (io_trps.svl 2023.06)
