@<TRIPOS>MOLECULE
NONAME
54 57 1 0 0 
SMALL
USER_CHARGES


@<TRIPOS>ATOM
  1 O        0.5010     2.5120     2.2720 O.2   1 <1>  -0.5700 
  2 C       -0.1580     2.7040     1.2670 C.2   1 <1>   0.5440 
  3 N       -1.5030     2.3970     1.2930 N.am  1 <1>  -0.6600 
  4 C        0.4910     3.2600     0.0950 C.ar  1 <1>   0.0860 
  5 C       -2.4960     2.9890     0.3330 C.3   1 <1>   0.1400 
  6 C       -2.0590     1.6240     2.4450 C.3   1 <1>   0.1400 
  7 C        1.3980     4.3040     0.1890 C.ar  1 <1>  -0.1500 
  8 C        0.2720     2.7930    -1.1930 C.ar  1 <1>  -0.1500 
  9 C       -3.7760     3.4420     1.0580 C.3   1 <1>   0.1440 
 10 C       -3.4760     1.1170     2.1470 C.3   1 <1>  -0.1600 
 11 C        1.9950     4.8220    -0.9450 C.ar  1 <1>   0.1670 
 12 C        0.9140     3.3760    -2.2700 C.ar  1 <1>   0.1660 
 13 C       -4.7440     4.0890     0.0840 C.ar  1 <1>   0.1660 
 14 C       -4.4570     2.2450     1.7670 C.3   1 <1>  -0.1600 
 15 C       -3.4870     4.6040     2.0490 C.3   1 <1>  -0.1600 
 16 N        1.7650     4.3800    -2.1680 N.ar  1 <1>  -0.6200 
 17 C        2.9830     5.9630    -0.8330 C.3   1 <1>  -0.0970 
 18 C        0.6610     2.8700    -3.6740 C.3   1 <1>  -0.0970 
 19 N       -5.1020     3.5850    -1.0700 N.ar  1 <1>  -0.6200 
 20 C       -5.2130     5.2780     0.5540 C.ar  1 <1>  -0.1430 
 21 C       -4.6370     5.6150     1.9050 C.3   1 <1>  -0.0170 
 22 C       -5.9730     4.3200    -1.7670 C.ar  1 <1>   0.7200 
 23 C       -6.1010     5.9670    -0.2320 C.ar  1 <1>   0.1600 
 24 N       -6.4880     5.4970    -1.3950 N.ar  1 <1>  -0.6200 
 25 N       -6.3810     3.8160    -2.9870 N.pl3 1 <1>  -0.8380 
 26 C       -6.1960     2.3860    -3.3560 C.3   1 <1>   0.1290 
 27 C       -7.1080     4.6520    -3.9810 C.3   1 <1>   0.1290 
 28 H       -2.7550     2.2480    -0.4040 H     1 <1>   0.0800 
 29 H       -2.0680     3.8320    -0.1810 H     1 <1>   0.0800 
 30 H       -2.0710     2.2570     3.3160 H     1 <1>   0.0800 
 31 H       -1.4120     0.7880     2.6530 H     1 <1>   0.0800 
 32 H        1.6300     4.7030     1.1600 H     1 <1>   0.1500 
 33 H       -0.4000     1.9700    -1.3450 H     1 <1>   0.1500 
 34 H       -3.8530     0.5820     3.0000 H     1 <1>   0.0800 
 35 H       -3.4100     0.4140     1.3350 H     1 <1>   0.0800 
 36 H       -5.2040     1.8220     1.1160 H     1 <1>   0.0800 
 37 H       -4.9730     2.5900     2.6450 H     1 <1>   0.0800 
 38 H       -2.5730     5.0960     1.7640 H     1 <1>   0.0800 
 39 H       -3.3770     4.2670     3.0640 H     1 <1>   0.0800 
 40 H        3.1150     6.2650     0.1900 H     1 <1>   0.0800 
 41 H        2.6270     6.8020    -1.4020 H     1 <1>   0.0800 
 42 H        3.9330     5.6540    -1.2300 H     1 <1>   0.0800 
 43 H       -0.0420     2.0580    -3.6760 H     1 <1>   0.0800 
 44 H        1.5860     2.5310    -4.1040 H     1 <1>   0.0800 
 45 H        0.2720     3.6690    -4.2780 H     1 <1>   0.0800 
 46 H       -4.2810     6.6300     1.9470 H     1 <1>   0.0800 
 47 H       -5.3830     5.4560     2.6650 H     1 <1>   0.0800 
 48 H       -6.5000     6.9110     0.0950 H     1 <1>   0.1500 
 49 H       -6.1310     1.7710    -2.4750 H     1 <1>   0.0800 
 50 H       -5.2910     2.2770    -3.9270 H     1 <1>   0.0800 
 51 H       -7.0310     2.0450    -3.9440 H     1 <1>   0.0800 
 52 H       -6.8040     5.6820    -3.9010 H     1 <1>   0.0800 
 53 H       -8.1660     4.5860    -3.8020 H     1 <1>   0.0800 
 54 H       -6.8920     4.3130    -4.9790 H     1 <1>   0.0800 
@<TRIPOS>BOND
  1   1   2  2   
  2   2   3  am  
  3   2   4  1   
  4   3   5  1   
  5   3   6  1   
  6   4   7  ar  
  7   4   8  ar  
  8   5   9  1   
  9   5  28  1   
 10   5  29  1   
 11   6  10  1   
 12   6  30  1   
 13   6  31  1   
 14   7  11  ar  
 15   7  32  1   
 16   8  12  ar  
 17   8  33  1   
 18   9  13  1   
 19   9  14  1   
 20   9  15  1   
 21  10  14  1   
 22  10  34  1   
 23  10  35  1   
 24  11  16  ar  
 25  11  17  1   
 26  12  16  ar  
 27  12  18  1   
 28  13  19  ar  
 29  13  20  ar  
 30  14  36  1   
 31  14  37  1   
 32  15  21  1   
 33  15  38  1   
 34  15  39  1   
 35  17  40  1   
 36  17  41  1   
 37  17  42  1   
 38  18  43  1   
 39  18  44  1   
 40  18  45  1   
 41  19  22  ar  
 42  20  21  1   
 43  20  23  ar  
 44  21  46  1   
 45  21  47  1   
 46  22  24  ar  
 47  22  25  1   
 48  23  24  ar  
 49  23  48  1   
 50  25  26  1   
 51  25  27  1   
 52  26  49  1   
 53  26  50  1   
 54  26  51  1   
 55  27  52  1   
 56  27  53  1   
 57  27  54  1   
@<TRIPOS>SUBSTRUCTURE
  1 ****   5 GROUP 4 **** **** 0

# MOE 2024.06 (io_trps.svl 2023.06)
