@<TRIPOS>MOLECULE
NONAME
44 45 1 0 0 
SMALL
USER_CHARGES


@<TRIPOS>ATOM
  1 CL      -4.4070     1.0020     1.4500 Cl    1 <1>  -0.1770 
  2 C       -2.6990     1.2410     1.1640 C.ar  1 <1>   0.1770 
  3 C       -2.2390     1.5730    -0.1040 C.ar  1 <1>  -0.1440 
  4 C       -1.8360     1.0730     2.2340 C.ar  1 <1>  -0.1500 
  5 C       -0.8670     1.7180    -0.2470 C.ar  1 <1>   0.1900 
  6 C       -3.1940     1.7520    -1.2900 C.3   1 <1>   0.0440 
  7 C       -0.4710     1.2310     2.0550 C.ar  1 <1>  -0.1500 
  8 F       -0.3710     2.0120    -1.4190 F     1 <1>  -0.1900 
  9 C        0.0200     1.5550     0.8020 C.ar  1 <1>  -0.1500 
 10 C       -3.5850     0.4430    -1.9560 C.2   1 <1>   0.5690 
 11 O       -4.3250     0.4740    -2.9070 O.2   1 <1>  -0.5700 
 12 N       -3.1220    -0.7340    -1.4640 N.am  1 <1>  -0.7300 
 13 C       -3.4010    -2.0760    -2.0210 C.3   1 <1>   0.2200 
 14 C       -4.4920    -2.7730    -1.2230 C.3   1 <1>  -0.0800 
 15 C       -2.2170    -2.9810    -1.7130 C.3   1 <1>   0.1200 
 16 C       -3.7220    -3.3300    -0.0190 C.3   1 <1>   0.1200 
 17 C       -5.7110    -1.8910    -0.8760 C.3   1 <1>  -0.0550 
 18 O       -2.3670    -3.3230    -0.3680 O.3   1 <1>  -0.5600 
 19 S       -7.0680    -2.7810    -0.1110 S.o2  1 <1>   1.3330 
 20 O       -7.2650    -4.0110    -0.8460 O.2   1 <1>  -0.6500 
 21 O       -8.1820    -1.8830     0.0880 O.2   1 <1>  -0.6500 
 22 N       -6.4700    -3.1890     1.4270 N.am  1 <1>  -0.8490 
 23 C       -7.1250    -4.3810     1.9740 C.3   1 <1>   0.1160 
 24 C       -6.5610    -2.0880     2.3930 C.3   1 <1>   0.1160 
 25 H       -2.2310     0.8180     3.2020 H     1 <1>   0.1500 
 26 H       -2.7500     2.3820    -2.0380 H     1 <1>   0.0800 
 27 H       -4.0920     2.2450    -0.9680 H     1 <1>   0.0800 
 28 H        0.2050     1.1020     2.8850 H     1 <1>   0.1500 
 29 H        1.0760     1.6800     0.6360 H     1 <1>   0.1500 
 30 H       -2.5200    -0.7490    -0.6360 H     1 <1>   0.3700 
 31 H       -3.6190    -2.0170    -3.0740 H     1 <1>   0.0800 
 32 H       -4.8360    -3.6120    -1.8040 H     1 <1>   0.0800 
 33 H       -1.2680    -2.4970    -1.8640 H     1 <1>   0.0800 
 34 H       -2.2650    -3.8860    -2.2930 H     1 <1>   0.0800 
 35 H       -4.0210    -4.3370     0.2170 H     1 <1>   0.0800 
 36 H       -3.8350    -2.7050     0.8500 H     1 <1>   0.0800 
 37 H       -6.0700    -1.4520    -1.7880 H     1 <1>   0.0800 
 38 H       -5.4110    -1.0870    -0.2350 H     1 <1>   0.0800 
 39 H       -6.7190    -4.6190     2.9420 H     1 <1>   0.0800 
 40 H       -6.9600    -5.2240     1.3240 H     1 <1>   0.0800 
 41 H       -8.1860    -4.2160     2.0640 H     1 <1>   0.0800 
 42 H       -6.0860    -2.3660     3.3170 H     1 <1>   0.0800 
 43 H       -7.5930    -1.8420     2.5890 H     1 <1>   0.0800 
 44 H       -6.0680    -1.2130     2.0080 H     1 <1>   0.0800 
@<TRIPOS>BOND
  1   1   2  1   
  2   2   3  ar  
  3   2   4  ar  
  4   3   5  ar  
  5   3   6  1   
  6   4   7  ar  
  7   4  25  1   
  8   5   8  1   
  9   5   9  ar  
 10   6  10  1   
 11   6  26  1   
 12   6  27  1   
 13   7   9  ar  
 14   7  28  1   
 15   9  29  1   
 16  10  11  2   
 17  10  12  am  
 18  12  13  1   
 19  12  30  1   
 20  13  14  1   
 21  13  15  1   
 22  13  31  1   
 23  14  16  1   
 24  14  17  1   
 25  14  32  1   
 26  15  18  1   
 27  15  33  1   
 28  15  34  1   
 29  16  18  1   
 30  16  35  1   
 31  16  36  1   
 32  17  19  1   
 33  17  37  1   
 34  17  38  1   
 35  19  20  2   
 36  19  21  2   
 37  19  22  am  
 38  22  23  1   
 39  22  24  1   
 40  23  39  1   
 41  23  40  1   
 42  23  41  1   
 43  24  42  1   
 44  24  43  1   
 45  24  44  1   
@<TRIPOS>SUBSTRUCTURE
  1 ****  12 GROUP 4 **** **** 0

# MOE 2024.06 (io_trps.svl 2023.06)
