@<TRIPOS>MOLECULE
NONAME
45 46 1 0 0 
SMALL
USER_CHARGES


@<TRIPOS>ATOM
  1 F       -0.5890    -0.0010     0.6350 F     1 <1>  -0.1900 
  2 C       -1.5550    -0.8130     0.2560 C.ar  1 <1>   0.1900 
  3 C       -2.8730    -0.3760     0.1240 C.ar  1 <1>   0.4100 
  4 C       -1.2550    -2.1210    -0.0020 C.ar  1 <1>   0.1600 
  5 N       -3.8060    -1.2360    -0.2430 N.ar  1 <1>  -0.6200 
  6 N       -3.2860     0.9350     0.3600 N.pl3 1 <1>  -0.8380 
  7 N       -2.1830    -2.9830    -0.3730 N.ar  1 <1>  -0.6200 
  8 C       -3.4080    -2.4740    -0.4740 C.ar  1 <1>   0.7200 
  9 C       -2.5360     2.0810    -0.2200 C.3   1 <1>   0.1290 
 10 C       -4.7030     1.2250     0.7170 C.3   1 <1>   0.1290 
 11 N       -4.4000    -3.3110    -0.8510 N.pl3 1 <1>  -0.8690 
 12 C       -4.3970    -4.7370    -0.4610 C.3   1 <1>   0.2090 
 13 C       -5.7730    -5.3740    -0.7150 C.3   1 <1>   0.2000 
 14 O       -6.7710    -4.6240    -0.0960 O.3   1 <1>  -0.6800 
 15 C       -5.8390    -6.8130    -0.1920 C.3   1 <1>   0.1200 
 16 O       -7.1570    -7.3030    -0.3480 O.3   1 <1>  -0.3630 
 17 C       -7.4910    -8.5610     0.0340 C.ar  1 <1>   0.0820 
 18 C       -8.7950    -8.9580    -0.2040 C.ar  1 <1>  -0.1500 
 19 C       -6.6040    -9.4480     0.6400 C.ar  1 <1>  -0.1500 
 20 C       -9.2280   -10.2230     0.1510 C.ar  1 <1>   0.0820 
 21 C       -7.0320   -10.7160     0.9970 C.ar  1 <1>  -0.1500 
 22 O      -10.5230   -10.5250    -0.1210 O.3   1 <1>  -0.3620 
 23 C       -8.3380   -11.1070     0.7560 C.ar  1 <1>  -0.1500 
 24 C      -11.0660   -11.7840     0.2050 C.3   1 <1>   0.0400 
 25 H       -0.2430    -2.4690     0.0980 H     1 <1>   0.1500 
 26 H       -1.7550     1.7310    -0.8720 H     1 <1>   0.0800 
 27 H       -2.0980     2.6630     0.5720 H     1 <1>   0.0800 
 28 H       -3.2000     2.7050    -0.7930 H     1 <1>   0.0800 
 29 H       -5.1060     0.4220     1.3110 H     1 <1>   0.0800 
 30 H       -5.2910     1.3230    -0.1790 H     1 <1>   0.0800 
 31 H       -4.7610     2.1360     1.2870 H     1 <1>   0.0800 
 32 H       -5.3150    -2.8830    -0.6870 H     1 <1>   0.4000 
 33 H       -4.1470    -4.8200     0.5830 H     1 <1>   0.0800 
 34 H       -3.6450    -5.2550    -1.0310 H     1 <1>   0.0800 
 35 H       -5.9690    -5.3740    -1.7730 H     1 <1>   0.0800 
 36 H       -7.6020    -5.1440    -0.1130 H     1 <1>   0.4000 
 37 H       -5.5850    -6.8410     0.8530 H     1 <1>   0.0800 
 38 H       -5.1720    -7.4450    -0.7510 H     1 <1>   0.0800 
 39 H       -9.4830    -8.2780    -0.6700 H     1 <1>   0.1500 
 40 H       -5.5860    -9.1760     0.8420 H     1 <1>   0.1500 
 41 H       -6.3460   -11.4010     1.4650 H     1 <1>   0.1500 
 42 H       -8.6410   -12.0960     1.0430 H     1 <1>   0.1500 
 43 H      -12.0970   -11.7910    -0.0990 H     1 <1>   0.0800 
 44 H      -10.9980   -11.9290     1.2690 H     1 <1>   0.0800 
 45 H      -10.5230   -12.5460    -0.3250 H     1 <1>   0.0800 
@<TRIPOS>BOND
  1   1   2  1   
  2   2   3  ar  
  3   2   4  ar  
  4   3   5  ar  
  5   3   6  1   
  6   4   7  ar  
  7   4  25  1   
  8   5   8  ar  
  9   6   9  1   
 10   6  10  1   
 11   7   8  ar  
 12   8  11  1   
 13   9  26  1   
 14   9  27  1   
 15   9  28  1   
 16  10  29  1   
 17  10  30  1   
 18  10  31  1   
 19  11  12  1   
 20  11  32  1   
 21  12  13  1   
 22  12  33  1   
 23  12  34  1   
 24  13  14  1   
 25  13  15  1   
 26  13  35  1   
 27  14  36  1   
 28  15  16  1   
 29  15  37  1   
 30  15  38  1   
 31  16  17  1   
 32  17  18  ar  
 33  17  19  ar  
 34  18  20  ar  
 35  18  39  1   
 36  19  21  ar  
 37  19  40  1   
 38  20  22  1   
 39  20  23  ar  
 40  21  23  ar  
 41  21  41  1   
 42  22  24  1   
 43  23  42  1   
 44  24  43  1   
 45  24  44  1   
 46  24  45  1   
@<TRIPOS>SUBSTRUCTURE
  1 ****  13 GROUP 4 **** **** 0

# MOE 2024.06 (io_trps.svl 2023.06)
