@<TRIPOS>MOLECULE
NONAME
45 47 1 0 0 
SMALL
USER_CHARGES


@<TRIPOS>ATOM
  1 CL      -0.1220    -2.0620     0.8300 Cl    1 <1>  -0.1230 
  2 C       -1.1380    -0.6340     0.7300 C.2   1 <1>   0.1230 
  3 C       -2.3610    -0.5360     0.0640 C.2   1 <1>   0.2030 
  4 C       -0.8850     0.5580     1.2920 C.2   1 <1>  -0.3020 
  5 N       -2.8380     0.6930     0.2250 N.2   1 <1>  -0.7070 
  6 C       -2.9490    -1.6400    -0.6780 C.2   1 <1>   0.7160 
  7 N       -1.9300     1.3430     0.9690 N.pl3 1 <1>   0.3140 
  8 O       -2.3080    -2.1510    -1.5850 O.2   1 <1>  -0.5700 
  9 N       -4.2000    -2.1620    -0.3920 N.am  1 <1>  -0.6600 
 10 C       -2.1040     2.7490     1.3520 C.3   1 <1>   0.0160 
 11 C       -4.7120    -3.3730    -1.1250 C.3   1 <1>   0.1400 
 12 C       -5.0810    -1.6290     0.7000 C.3   1 <1>   0.1400 
 13 C       -5.7340    -4.1270    -0.2680 C.3   1 <1>   0.2000 
 14 C       -6.5470    -1.7840     0.2940 C.3   1 <1>  -0.1600 
 15 O       -6.1280    -5.3040    -0.8850 O.3   1 <1>  -0.6800 
 16 C       -6.9740    -3.2740     0.0990 C.3   1 <1>  -0.1060 
 17 C       -7.4680    -3.9360     1.3880 C.2   1 <1>   0.9060 
 18 C       -8.0810    -3.3310    -0.9960 C.3   1 <1>  -0.0170 
 19 O       -7.3300    -3.3710     2.4780 O.co2 1 <1>  -0.9000 
 20 O       -7.9190    -5.0890     1.3060 O.co2 1 <1>  -0.9000 
 21 C       -9.2310    -2.3450    -0.7910 C.ar  1 <1>  -0.1430 
 22 C      -10.1570    -2.5500     0.2200 C.ar  1 <1>  -0.1500 
 23 C       -9.3680    -1.2390    -1.6180 C.ar  1 <1>  -0.1500 
 24 C      -11.2020    -1.6630     0.4060 C.ar  1 <1>  -0.1500 
 25 C      -10.4130    -0.3500    -1.4350 C.ar  1 <1>  -0.1500 
 26 C      -11.3320    -0.5620    -0.4220 C.ar  1 <1>  -0.1500 
 27 H       -0.0490     0.8790     1.8840 H     1 <1>   0.1500 
 28 H       -2.0360     2.8380     2.4200 H     1 <1>   0.0800 
 29 H       -3.0700     3.0870     1.0230 H     1 <1>   0.0800 
 30 H       -1.3390     3.3390     0.8850 H     1 <1>   0.0800 
 31 H       -5.1710    -3.0580    -2.0440 H     1 <1>   0.0800 
 32 H       -3.8930    -4.0330    -1.3510 H     1 <1>   0.0800 
 33 H       -4.8990    -2.1720     1.6130 H     1 <1>   0.0800 
 34 H       -4.8830    -0.5890     0.8800 H     1 <1>   0.0800 
 35 H       -5.2270    -4.4230     0.6360 H     1 <1>   0.0800 
 36 H       -7.1770    -1.3210     1.0340 H     1 <1>   0.0800 
 37 H       -6.6810    -1.2310    -0.6180 H     1 <1>   0.0800 
 38 H       -6.8210    -5.6930    -0.2880 H     1 <1>   0.4000 
 39 H       -7.6310    -3.1440    -1.9540 H     1 <1>   0.0800 
 40 H       -8.5030    -4.3200    -1.0450 H     1 <1>   0.0800 
 41 H      -10.0600    -3.4050     0.8710 H     1 <1>   0.1500 
 42 H       -8.6570    -1.0660    -2.4060 H     1 <1>   0.1500 
 43 H      -11.9070    -1.8350     1.1990 H     1 <1>   0.1500 
 44 H      -10.5090     0.5050    -2.0790 H     1 <1>   0.1500 
 45 H      -12.1440     0.1280    -0.2750 H     1 <1>   0.1500 
@<TRIPOS>BOND
  1   1   2  1   
  2   2   3  1   
  3   2   4  2   
  4   3   5  2   
  5   3   6  1   
  6   4   7  1   
  7   4  27  1   
  8   5   7  1   
  9   6   8  2   
 10   6   9  am  
 11   7  10  1   
 12   9  11  1   
 13   9  12  1   
 14  10  28  1   
 15  10  29  1   
 16  10  30  1   
 17  11  13  1   
 18  11  31  1   
 19  11  32  1   
 20  12  14  1   
 21  12  33  1   
 22  12  34  1   
 23  13  15  1   
 24  13  16  1   
 25  13  35  1   
 26  14  16  1   
 27  14  36  1   
 28  14  37  1   
 29  15  38  1   
 30  16  17  1   
 31  16  18  1   
 32  17  19  ar  
 33  17  20  ar  
 34  18  21  1   
 35  18  39  1   
 36  18  40  1   
 37  21  22  ar  
 38  21  23  ar  
 39  22  24  ar  
 40  22  41  1   
 41  23  25  ar  
 42  23  42  1   
 43  24  26  ar  
 44  24  43  1   
 45  25  26  ar  
 46  25  44  1   
 47  26  45  1   
@<TRIPOS>SUBSTRUCTURE
  1 ****  14 GROUP 4 **** **** 0

# MOE 2024.06 (io_trps.svl 2023.06)
