@<TRIPOS>MOLECULE
NONAME
43 45 1 0 0 
SMALL
USER_CHARGES


@<TRIPOS>ATOM
  1 S       -0.6430     0.6440     0.5330 S.o2  1 <1>   1.4470 
  2 O       -0.4130    -0.3520     1.5560 O.2   1 <1>  -0.6500 
  3 O       -1.4110     1.8150     0.9020 O.2   1 <1>  -0.6500 
  4 N       -1.4360    -0.1190    -0.7590 N.am  1 <1>  -0.8490 
  5 C        0.8950     1.1970    -0.2290 C.ar  1 <1>  -0.0090 
  6 C       -0.9220    -1.4600    -1.1260 C.3   1 <1>   0.1960 
  7 C       -2.8950    -0.0510    -0.7350 C.3   1 <1>   0.1960 
  8 C        0.8880     2.1220    -1.2610 C.ar  1 <1>   0.1900 
  9 C        2.1510     0.7430     0.1450 C.ar  1 <1>   0.1900 
 10 C       -1.8610    -2.6550    -0.8020 C.3   1 <1>  -0.1060 
 11 C       -3.4750    -0.9840     0.3310 C.3   1 <1>  -0.1600 
 12 F       -0.2450     2.6130    -1.6850 F     1 <1>  -0.1900 
 13 C        2.0360     2.5760    -1.8910 C.ar  1 <1>  -0.1500 
 14 F        2.2770    -0.1290     1.1060 F     1 <1>  -0.1900 
 15 C        3.3260     1.1690    -0.4550 C.ar  1 <1>  -0.1500 
 16 C       -2.7560    -2.9190    -2.0220 C.2   1 <1>   0.9060 
 17 C       -2.6990    -2.3060     0.4560 C.3   1 <1>   0.2000 
 18 C       -1.0270    -3.9520    -0.5900 C.3   1 <1>  -0.0650 
 19 C        3.2680     2.0940    -1.4830 C.ar  1 <1>  -0.1500 
 20 O       -3.9630    -3.1690    -1.8730 O.co2 1 <1>  -0.9000 
 21 O       -2.2460    -2.9230    -3.1480 O.co2 1 <1>  -0.9000 
 22 O       -3.6170    -3.3080     0.7050 O.3   1 <1>  -0.6800 
 23 C       -0.0190    -3.9360     0.5730 C.3   1 <1>  -0.1950 
 24 C        1.4100    -3.5300     0.3830 C.3   1 <1>  -0.2000 
 25 C        1.0610    -4.9690     0.6250 C.3   1 <1>  -0.2000 
 26 H       -0.6930    -1.4530    -2.1780 H     1 <1>   0.0800 
 27 H        0.0160    -1.6030    -0.6280 H     1 <1>   0.0800 
 28 H       -3.2230     0.9600    -0.5640 H     1 <1>   0.0800 
 29 H       -3.2680    -0.3440    -1.7030 H     1 <1>   0.0800 
 30 H       -4.5010    -1.1750     0.0720 H     1 <1>   0.0800 
 31 H       -3.4630    -0.4850     1.2830 H     1 <1>   0.0800 
 32 H        1.9590     3.2950    -2.6870 H     1 <1>   0.1500 
 33 H        4.2700     0.7790    -0.1190 H     1 <1>   0.1500 
 34 H       -2.0590    -2.2400     1.3160 H     1 <1>   0.0800 
 35 H       -1.7110    -4.7670    -0.4240 H     1 <1>   0.0800 
 36 H       -0.5040    -4.1760    -1.5040 H     1 <1>   0.0800 
 37 H        4.1720     2.4360    -1.9610 H     1 <1>   0.1500 
 38 H       -4.0540    -3.4720    -0.1820 H     1 <1>   0.4000 
 39 H       -0.4810    -3.7110     1.5190 H     1 <1>   0.1000 
 40 H        1.7530    -3.2470    -0.5960 H     1 <1>   0.1000 
 41 H        1.8760    -2.9580     1.1670 H     1 <1>   0.1000 
 42 H        1.3030    -5.4100     1.5760 H     1 <1>   0.1000 
 43 H        1.1510    -5.6670    -0.1900 H     1 <1>   0.1000 
@<TRIPOS>BOND
  1   1   2  2   
  2   1   3  2   
  3   1   4  am  
  4   1   5  1   
  5   4   6  1   
  6   4   7  1   
  7   5   8  ar  
  8   5   9  ar  
  9   6  10  1   
 10   6  26  1   
 11   6  27  1   
 12   7  11  1   
 13   7  28  1   
 14   7  29  1   
 15   8  12  1   
 16   8  13  ar  
 17   9  14  1   
 18   9  15  ar  
 19  10  16  1   
 20  10  17  1   
 21  10  18  1   
 22  11  17  1   
 23  11  30  1   
 24  11  31  1   
 25  13  19  ar  
 26  13  32  1   
 27  15  19  ar  
 28  15  33  1   
 29  16  20  ar  
 30  16  21  ar  
 31  17  22  1   
 32  17  34  1   
 33  18  23  1   
 34  18  35  1   
 35  18  36  1   
 36  19  37  1   
 37  22  38  1   
 38  23  24  1   
 39  23  25  1   
 40  23  39  1   
 41  24  25  1   
 42  24  40  1   
 43  24  41  1   
 44  25  42  1   
 45  25  43  1   
@<TRIPOS>SUBSTRUCTURE
  1 ****   6 GROUP 4 **** **** 0

# MOE 2024.06 (io_trps.svl 2023.06)
