@<TRIPOS>MOLECULE
NONAME
60 63 1 0 0 
SMALL
USER_CHARGES


@<TRIPOS>ATOM
  1 CL      -0.4500     0.7440     0.0180 Cl    1 <1>  -0.1770 
  2 C       -2.1570     1.0350    -0.1880 C.ar  1 <1>   0.1770 
  3 C       -3.0230     0.7750     0.8550 C.ar  1 <1>  -0.1500 
  4 C       -2.6240     1.5240    -1.3930 C.ar  1 <1>  -0.1500 
  5 C       -4.3770     1.0070     0.6870 C.ar  1 <1>  -0.1500 
  6 C       -3.9790     1.7510    -1.5510 C.ar  1 <1>  -0.1500 
  7 C       -4.8870     1.4940    -0.5200 C.ar  1 <1>   0.0530 
  8 C       -6.2970     1.7270    -0.7100 C.2   1 <1>   0.0870 
  9 O       -6.7170     2.6400    -1.5520 O.3   1 <1>  -0.0190 
 10 C       -7.4060     1.1500    -0.1790 C.2   1 <1>  -0.0860 
 11 N       -8.0220     2.7160    -1.6190 N.2   1 <1>  -0.4100 
 12 C       -8.4540     1.8360    -0.7940 C.2   1 <1>   0.3720 
 13 C       -7.5680     0.0750     0.7440 C.2   1 <1>   0.7160 
 14 N       -9.8100     1.6250    -0.6020 N.pl3 1 <1>  -0.8520 
 15 O       -7.5030     0.2950     1.9400 O.2   1 <1>  -0.5700 
 16 N       -7.8250    -1.2080     0.3130 N.am  1 <1>  -0.6600 
 17 C      -10.3140     1.9450     0.7640 C.3   1 <1>   0.2090 
 18 C       -8.4070    -2.2320     1.2090 C.3   1 <1>   0.1400 
 19 C       -8.1430    -1.5450    -1.0970 C.3   1 <1>   0.1400 
 20 C      -11.8350     2.1650     0.7800 C.3   1 <1>   0.1200 
 21 C       -9.6270    -2.7390     0.4310 C.3   1 <1>   0.0000 
 22 C       -9.0980    -2.7370    -1.0140 C.3   1 <1>  -0.1600 
 23 O      -12.5250     1.0250     0.3380 O.3   1 <1>  -0.5600 
 24 C      -10.7900    -1.7390     0.6010 C.3   1 <1>  -0.1600 
 25 C      -10.0930    -4.1310     0.8890 C.3   1 <1>  -0.1600 
 26 C      -13.8950     1.2420     0.2030 C.3   1 <1>   0.0400 
 27 C      -12.0790    -2.1920    -0.0720 C.3   1 <1>   0.3430 
 28 C      -11.3840    -4.5550     0.1860 C.3   1 <1>   0.3430 
 29 N      -12.4560    -3.5450     0.4350 N.4   1 <1>  -0.9590 
 30 C      -13.7560    -3.9830    -0.1530 C.3   1 <1>   0.2630 
 31 H       -2.6400     0.3980     1.7870 H     1 <1>   0.1500 
 32 H       -1.9320     1.7230    -2.1920 H     1 <1>   0.1500 
 33 H       -5.0400     0.8120     1.5100 H     1 <1>   0.1500 
 34 H       -4.3420     2.1310    -2.4900 H     1 <1>   0.1500 
 35 H      -10.3220     2.1830    -1.2930 H     1 <1>   0.4000 
 36 H       -9.8290     2.8390     1.1200 H     1 <1>   0.0800 
 37 H      -10.0650     1.1480     1.4430 H     1 <1>   0.0800 
 38 H       -8.6800    -1.8240     2.1680 H     1 <1>   0.0800 
 39 H       -7.6850    -3.0180     1.3520 H     1 <1>   0.0800 
 40 H       -7.2440    -1.7970    -1.6350 H     1 <1>   0.0800 
 41 H       -8.6320    -0.7180    -1.5830 H     1 <1>   0.0800 
 42 H      -12.0830     2.9950     0.1410 H     1 <1>   0.0800 
 43 H      -12.1560     2.3860     1.7830 H     1 <1>   0.0800 
 44 H       -8.5270    -3.6290    -1.2060 H     1 <1>   0.0800 
 45 H       -9.8690    -2.6650    -1.7600 H     1 <1>   0.0800 
 46 H      -10.5220    -0.7930     0.1740 H     1 <1>   0.0800 
 47 H      -10.9860    -1.5660     1.6440 H     1 <1>   0.0800 
 48 H      -10.2560    -4.1310     1.9530 H     1 <1>   0.0800 
 49 H       -9.3270    -4.8600     0.6860 H     1 <1>   0.0800 
 50 H      -14.3540     0.3300    -0.1320 H     1 <1>   0.0800 
 51 H      -14.0620     2.0160    -0.5270 H     1 <1>   0.0800 
 52 H      -14.3070     1.5280     1.1550 H     1 <1>   0.0800 
 53 H      -11.9360    -2.2240    -1.1400 H     1 <1>   0.0800 
 54 H      -12.8580    -1.4780     0.1430 H     1 <1>   0.0800 
 55 H      -11.6940    -5.5190     0.5570 H     1 <1>   0.0800 
 56 H      -11.2040    -4.6410    -0.8740 H     1 <1>   0.0800 
 57 H      -12.5680    -3.4580     1.4550 H     1 <1>   0.4500 
 58 H      -13.6700    -4.0750    -1.2240 H     1 <1>   0.0800 
 59 H      -14.5280    -3.2650     0.0710 H     1 <1>   0.0800 
 60 H      -14.0480    -4.9380     0.2530 H     1 <1>   0.0800 
@<TRIPOS>BOND
  1   1   2  1   
  2   2   3  ar  
  3   2   4  ar  
  4   3   5  ar  
  5   3  31  1   
  6   4   6  ar  
  7   4  32  1   
  8   5   7  ar  
  9   5  33  1   
 10   6   7  ar  
 11   6  34  1   
 12   7   8  1   
 13   8   9  1   
 14   8  10  2   
 15   9  11  1   
 16  10  12  1   
 17  10  13  1   
 18  11  12  2   
 19  12  14  1   
 20  13  15  2   
 21  13  16  am  
 22  14  17  1   
 23  14  35  1   
 24  16  18  1   
 25  16  19  1   
 26  17  20  1   
 27  17  36  1   
 28  17  37  1   
 29  18  21  1   
 30  18  38  1   
 31  18  39  1   
 32  19  22  1   
 33  19  40  1   
 34  19  41  1   
 35  20  23  1   
 36  20  42  1   
 37  20  43  1   
 38  21  22  1   
 39  21  24  1   
 40  21  25  1   
 41  22  44  1   
 42  22  45  1   
 43  23  26  1   
 44  24  27  1   
 45  24  46  1   
 46  24  47  1   
 47  25  28  1   
 48  25  48  1   
 49  25  49  1   
 50  26  50  1   
 51  26  51  1   
 52  26  52  1   
 53  27  29  1   
 54  27  53  1   
 55  27  54  1   
 56  28  29  1   
 57  28  55  1   
 58  28  56  1   
 59  29  30  1   
 60  29  57  1   
 61  30  58  1   
 62  30  59  1   
 63  30  60  1   
@<TRIPOS>SUBSTRUCTURE
  1 ****  13 GROUP 4 **** **** 0

# MOE 2024.06 (io_trps.svl 2023.06)
