@<TRIPOS>MOLECULE
NONAME
38 39 1 0 0 
SMALL
USER_CHARGES


@<TRIPOS>ATOM
  1 O        0.1330     0.1750    -0.6620 O.2   1 <1>  -0.5700 
  2 C        1.2350    -0.3110    -0.7270 C.2   1 <1>   0.5690 
  3 N        2.3950     0.4070    -0.6550 N.am  1 <1>  -0.4940 
  4 C        1.3360    -1.8120    -0.8690 C.3   1 <1>  -0.0990 
  5 C        2.5680     1.8070    -0.5270 C.2   1 <1>  -0.0880 
  6 C        1.1200    -2.4990     0.4830 C.3   1 <1>   0.0200 
  7 N        3.4620     2.4020     0.3110 N.pl3 1 <1>   0.3140 
  8 C        1.9300     2.8160    -1.1700 C.2   1 <1>  -0.1810 
  9 C        1.2130    -4.0080     0.3340 C.2   1 <1>  -0.3320 
 10 N        3.4180     3.7480     0.2150 N.2   1 <1>  -0.7070 
 11 C        4.3730     1.7430     1.2700 C.3   1 <1>   0.0960 
 12 C        2.4960     3.9810    -0.6660 C.2   1 <1>   0.1390 
 13 C        0.8350     2.7550    -2.2180 C.3   1 <1>  -0.0590 
 14 N        0.2460    -4.8050    -0.1800 N.pl3 1 <1>   0.3140 
 15 C        2.2400    -4.8160     0.6760 C.2   1 <1>  -0.1500 
 16 C        3.6220     1.2900     2.5300 C.3   1 <1>  -0.2400 
 17 N        0.6280    -6.0920    -0.1860 N.2   1 <1>  -0.7070 
 18 C       -1.0800    -4.4150    -0.6800 C.3   1 <1>   0.0160 
 19 C        1.8180    -6.0920     0.3290 C.2   1 <1>   0.1390 
 20 H        3.2530    -0.1420    -0.6770 H     1 <1>   0.3700 
 21 H        2.2960    -2.0850    -1.2670 H     1 <1>   0.0800 
 22 H        0.5860    -2.1350    -1.5660 H     1 <1>   0.0800 
 23 H        0.1610    -2.2250     0.8910 H     1 <1>   0.0800 
 24 H        1.8730    -2.1660     1.1770 H     1 <1>   0.0800 
 25 H        5.1410     2.4470     1.5380 H     1 <1>   0.0800 
 26 H        4.8360     0.9040     0.7860 H     1 <1>   0.0800 
 27 H        2.2090     4.9740    -0.9680 H     1 <1>   0.1500 
 28 H        0.8710     1.8170    -2.7410 H     1 <1>   0.0800 
 29 H        0.9540     3.5510    -2.9300 H     1 <1>   0.0800 
 30 H       -0.1250     2.8470    -1.7420 H     1 <1>   0.0800 
 31 H        3.1870    -4.5660     1.1180 H     1 <1>   0.1500 
 32 H        3.1780     2.1430     3.0150 H     1 <1>   0.0800 
 33 H        4.3050     0.8240     3.2170 H     1 <1>   0.0800 
 34 H        2.8490     0.5860     2.2780 H     1 <1>   0.0800 
 35 H       -1.5030    -3.6670    -0.0380 H     1 <1>   0.0800 
 36 H       -1.7170    -5.2800    -0.6890 H     1 <1>   0.0800 
 37 H       -0.9810    -4.0340    -1.6790 H     1 <1>   0.0800 
 38 H        2.4030    -6.9870     0.4660 H     1 <1>   0.1500 
@<TRIPOS>BOND
  1   1   2  2   
  2   2   3  am  
  3   2   4  1   
  4   3   5  1   
  5   3  20  1   
  6   4   6  1   
  7   4  21  1   
  8   4  22  1   
  9   5   7  1   
 10   5   8  2   
 11   6   9  1   
 12   6  23  1   
 13   6  24  1   
 14   7  10  1   
 15   7  11  1   
 16   8  12  1   
 17   8  13  1   
 18   9  14  1   
 19   9  15  2   
 20  10  12  2   
 21  11  16  1   
 22  11  25  1   
 23  11  26  1   
 24  12  27  1   
 25  13  28  1   
 26  13  29  1   
 27  13  30  1   
 28  14  17  1   
 29  14  18  1   
 30  15  19  1   
 31  15  31  1   
 32  16  32  1   
 33  16  33  1   
 34  16  34  1   
 35  17  19  2   
 36  18  35  1   
 37  18  36  1   
 38  18  37  1   
 39  19  38  1   
@<TRIPOS>SUBSTRUCTURE
  1 ****   2 GROUP 4 **** **** 0

# MOE 2024.06 (io_trps.svl 2023.06)
