@<TRIPOS>MOLECULE
NONAME
47 49 1 0 0 
SMALL
USER_CHARGES


@<TRIPOS>ATOM
  1 O        2.0980    -4.5340    -0.4400 O.3   1 <1>  -0.3630 
  2 C        0.9030    -4.8320     0.1430 C.ar  1 <1>   0.0830 
  3 C        3.2760    -4.4300     0.3310 C.3   1 <1>   0.0400 
  4 C       -0.2190    -4.8510    -0.6790 C.ar  1 <1>   0.0830 
  5 C        0.7460    -5.1230     1.4950 C.ar  1 <1>  -0.1500 
  6 O       -0.0850    -4.6060    -1.9930 O.3   1 <1>  -0.5330 
  7 C       -1.4700    -5.1380    -0.1730 C.ar  1 <1>  -0.1500 
  8 C       -0.5070    -5.4360     2.0010 C.ar  1 <1>  -0.1500 
  9 C       -1.6180    -5.4530     1.1690 C.ar  1 <1>  -0.1430 
 10 C       -2.9880    -5.8410     1.6790 C.3   1 <1>   0.4860 
 11 N       -3.2510    -7.1970     1.1530 N.4   1 <1>  -0.9590 
 12 C       -4.6320    -7.4830     0.6830 C.3   1 <1>   0.3430 
 13 C       -2.7970    -8.3400     1.9740 C.3   1 <1>   0.3430 
 14 C       -4.8120    -9.0010     0.8180 C.3   1 <1>   0.2000 
 15 C       -3.4830    -9.5570     1.3480 C.3   1 <1>  -0.0800 
 16 O       -5.8110    -9.2610     1.7490 O.3   1 <1>  -0.6800 
 17 C       -2.6360   -10.2290     0.2380 C.3   1 <1>   0.0210 
 18 C       -1.7630    -9.2960    -0.5900 C.2   1 <1>   0.1080 
 19 N       -2.2000    -8.2640    -1.2490 N.2   1 <1>  -0.7070 
 20 C       -0.3880    -9.4560    -0.7210 C.2   1 <1>  -0.1500 
 21 N       -1.0940    -7.7480    -1.8440 N.pl3 1 <1>   0.3000 
 22 C        0.0100    -8.4480    -1.5220 C.2   1 <1>  -0.3320 
 23 C        1.4040    -8.1010    -2.0130 C.3   1 <1>  -0.0600 
 24 H        4.0850    -4.1620    -0.3250 H     1 <1>   0.0800 
 25 H        3.4800    -5.3810     0.7910 H     1 <1>   0.0800 
 26 H        3.1420    -3.6630     1.0740 H     1 <1>   0.0800 
 27 H        1.5860    -5.1160     2.1650 H     1 <1>   0.1500 
 28 H        0.8360    -4.3200    -2.1760 H     1 <1>   0.4500 
 29 H       -2.3120    -5.1250    -0.8430 H     1 <1>   0.1500 
 30 H       -0.6000    -5.6670     3.0490 H     1 <1>   0.1500 
 31 H       -3.7160    -5.1440     1.2980 H     1 <1>   0.0800 
 32 H       -3.0200    -5.8320     2.7560 H     1 <1>   0.0800 
 33 H       -2.6740    -7.2830     0.2840 H     1 <1>   0.4500 
 34 H       -5.3650    -6.9720     1.2850 H     1 <1>   0.0800 
 35 H       -4.7360    -7.1890    -0.3490 H     1 <1>   0.0800 
 36 H       -1.7220    -8.4330     1.9550 H     1 <1>   0.0800 
 37 H       -3.1310    -8.2150     2.9910 H     1 <1>   0.0800 
 38 H       -5.1140    -9.4420    -0.1170 H     1 <1>   0.0800 
 39 H       -3.6650   -10.3050     2.1000 H     1 <1>   0.0800 
 40 H       -5.5520    -9.0370     2.6630 H     1 <1>   0.4000 
 41 H       -3.2720   -10.7860    -0.4270 H     1 <1>   0.0800 
 42 H       -1.9850   -10.9470     0.7060 H     1 <1>   0.0800 
 43 H        0.2150   -10.2280    -0.2750 H     1 <1>   0.1500 
 44 H       -1.1060    -6.9030    -2.4360 H     1 <1>   0.2700 
 45 H        2.1180    -8.8110    -1.6370 H     1 <1>   0.0800 
 46 H        1.6860    -7.1200    -1.6740 H     1 <1>   0.0800 
 47 H        1.4350    -8.1220    -3.0880 H     1 <1>   0.0800 
@<TRIPOS>BOND
  1   1   2  1   
  2   1   3  1   
  3   2   4  ar  
  4   2   5  ar  
  5   3  24  1   
  6   3  25  1   
  7   3  26  1   
  8   4   6  1   
  9   4   7  ar  
 10   5   8  ar  
 11   5  27  1   
 12   6  28  1   
 13   7   9  ar  
 14   7  29  1   
 15   8   9  ar  
 16   8  30  1   
 17   9  10  1   
 18  10  11  1   
 19  10  31  1   
 20  10  32  1   
 21  11  12  1   
 22  11  13  1   
 23  11  33  1   
 24  12  14  1   
 25  12  34  1   
 26  12  35  1   
 27  13  15  1   
 28  13  36  1   
 29  13  37  1   
 30  14  15  1   
 31  14  16  1   
 32  14  38  1   
 33  15  17  1   
 34  15  39  1   
 35  16  40  1   
 36  17  18  1   
 37  17  41  1   
 38  17  42  1   
 39  18  19  2   
 40  18  20  1   
 41  19  21  1   
 42  20  22  2   
 43  20  43  1   
 44  21  22  1   
 45  21  44  1   
 46  22  23  1   
 47  23  45  1   
 48  23  46  1   
 49  23  47  1   
@<TRIPOS>SUBSTRUCTURE
  1 ****   9 GROUP 4 **** **** 0

# MOE 2024.06 (io_trps.svl 2023.06)
