@<TRIPOS>MOLECULE
NONAME
57 60 1 0 0 
SMALL
USER_CHARGES


@<TRIPOS>ATOM
  1 O       -1.7240     0.3070    -1.4350 O.2   1 <1>  -0.5700 
  2 C       -1.6500     0.0260    -0.2630 C.2   1 <1>   0.5690 
  3 N       -1.7320    -1.2600     0.1670 N.am  1 <1>  -0.7300 
  4 C       -1.4420     1.1800     0.7360 C.3   1 <1>   0.4040 
  5 C       -1.8350    -2.4540    -0.7130 C.3   1 <1>   0.2200 
  6 N       -0.7760     2.3880     0.1160 N.4   1 <1>  -0.9590 
  7 C       -3.2210    -3.0880    -0.6310 C.3   1 <1>  -0.0800 
  8 C       -1.0010    -3.5600    -0.0870 C.3   1 <1>   0.1200 
  9 C        0.6390     2.0840    -0.2420 C.3   1 <1>   0.3430 
 10 C       -0.9710     3.6110     0.9430 C.3   1 <1>   0.3430 
 11 C       -3.1270    -3.9390     0.6460 C.3   1 <1>   0.1200 
 12 C       -4.4050    -2.0990    -0.6640 C.3   1 <1>  -0.0170 
 13 O       -1.7720    -3.9880     0.9910 O.3   1 <1>  -0.5600 
 14 C        1.2680     3.1750    -1.1100 C.3   1 <1>  -0.1600 
 15 C       -0.9880     4.8460     0.0440 C.3   1 <1>  -0.1600 
 16 C       -5.8100    -2.7140    -0.6860 C.ar  1 <1>  -0.1440 
 17 C        1.5690     4.4670    -0.3370 C.3   1 <1>  -0.1600 
 18 C        0.3930     5.4500    -0.2610 C.3   1 <1>  -0.1600 
 19 C       -6.9440    -1.8750    -0.5360 C.ar  1 <1>   0.0000 
 20 C       -6.0500    -4.0500    -0.8510 C.ar  1 <1>  -0.1500 
 21 C       -8.2240    -2.4820    -0.5260 C.ar  1 <1>   0.3100 
 22 C       -6.8840    -0.4670    -0.4050 C.ar  1 <1>  -0.1500 
 23 C       -7.3590    -4.5460    -0.8370 C.ar  1 <1>   0.1600 
 24 N       -8.4140    -3.8150    -0.6760 N.ar  1 <1>  -0.6200 
 25 C       -9.3610    -1.6750    -0.3580 C.ar  1 <1>  -0.1500 
 26 C       -8.0120     0.2920    -0.2480 C.ar  1 <1>  -0.1500 
 27 C       -9.2680    -0.3170    -0.2200 C.ar  1 <1>  -0.1500 
 28 H       -1.7060    -1.5310     1.1570 H     1 <1>   0.3700 
 29 H       -0.8540     0.8240     1.5640 H     1 <1>   0.0800 
 30 H       -2.4120     1.4590     1.1080 H     1 <1>   0.0800 
 31 H       -1.5350    -2.2260    -1.7230 H     1 <1>   0.0800 
 32 H       -1.2620     2.5260    -0.7860 H     1 <1>   0.4500 
 33 H       -3.3120    -3.7540    -1.4710 H     1 <1>   0.0800 
 34 H       -0.0400    -3.2240     0.2610 H     1 <1>   0.0800 
 35 H       -0.8790    -4.3890    -0.7630 H     1 <1>   0.0800 
 36 H        1.2270     1.9540     0.6520 H     1 <1>   0.0800 
 37 H        0.6700     1.1590    -0.7970 H     1 <1>   0.0800 
 38 H       -1.9230     3.5510     1.4440 H     1 <1>   0.0800 
 39 H       -0.2000     3.6980     1.6920 H     1 <1>   0.0800 
 40 H       -3.4750    -4.9450     0.4860 H     1 <1>   0.0800 
 41 H       -3.6630    -3.4970     1.4680 H     1 <1>   0.0800 
 42 H       -4.3010    -1.4740    -1.5340 H     1 <1>   0.0800 
 43 H       -4.3410    -1.4690     0.2040 H     1 <1>   0.0800 
 44 H        2.2060     2.7860    -1.4650 H     1 <1>   0.0800 
 45 H        0.6650     3.3710    -1.9800 H     1 <1>   0.0800 
 46 H       -1.4990     4.6190    -0.8750 H     1 <1>   0.0800 
 47 H       -1.5690     5.6080     0.5350 H     1 <1>   0.0800 
 48 H        1.9110     4.2260     0.6560 H     1 <1>   0.0800 
 49 H        2.3850     4.9760    -0.8250 H     1 <1>   0.0800 
 50 H        0.3260     5.9850    -1.1940 H     1 <1>   0.0800 
 51 H        0.6280     6.1830     0.4930 H     1 <1>   0.0800 
 52 H       -5.2690    -4.7700    -0.9950 H     1 <1>   0.1500 
 53 H       -5.9330     0.0280    -0.4340 H     1 <1>   0.1500 
 54 H       -7.4960    -5.6060    -0.9660 H     1 <1>   0.1500 
 55 H      -10.3160    -2.1660    -0.3450 H     1 <1>   0.1500 
 56 H       -7.9520     1.3620    -0.1480 H     1 <1>   0.1500 
 57 H      -10.1490     0.2890    -0.0940 H     1 <1>   0.1500 
@<TRIPOS>BOND
  1   1   2  2   
  2   2   3  am  
  3   2   4  1   
  4   3   5  1   
  5   3  28  1   
  6   4   6  1   
  7   4  29  1   
  8   4  30  1   
  9   5   7  1   
 10   5   8  1   
 11   5  31  1   
 12   6   9  1   
 13   6  10  1   
 14   6  32  1   
 15   7  11  1   
 16   7  12  1   
 17   7  33  1   
 18   8  13  1   
 19   8  34  1   
 20   8  35  1   
 21   9  14  1   
 22   9  36  1   
 23   9  37  1   
 24  10  15  1   
 25  10  38  1   
 26  10  39  1   
 27  11  13  1   
 28  11  40  1   
 29  11  41  1   
 30  12  16  1   
 31  12  42  1   
 32  12  43  1   
 33  14  17  1   
 34  14  44  1   
 35  14  45  1   
 36  15  18  1   
 37  15  46  1   
 38  15  47  1   
 39  16  19  ar  
 40  16  20  ar  
 41  17  18  1   
 42  17  48  1   
 43  17  49  1   
 44  18  50  1   
 45  18  51  1   
 46  19  21  ar  
 47  19  22  ar  
 48  20  23  ar  
 49  20  52  1   
 50  21  24  ar  
 51  21  25  ar  
 52  22  26  ar  
 53  22  53  1   
 54  23  24  ar  
 55  23  54  1   
 56  25  27  ar  
 57  25  55  1   
 58  26  27  ar  
 59  26  56  1   
 60  27  57  1   
@<TRIPOS>SUBSTRUCTURE
  1 ****  12 GROUP 4 **** **** 0

# MOE 2024.06 (io_trps.svl 2023.06)
