@<TRIPOS>MOLECULE
NONAME
49 52 1 0 0 
SMALL
USER_CHARGES


@<TRIPOS>ATOM
  1 O        0.0850     1.0850     0.5770 O.2   1 <1>  -0.5700 
  2 C       -0.6850     1.7330    -0.1090 C.2   1 <1>   0.7150 
  3 N       -2.0380     1.5040     0.0170 N.am  1 <1>  -0.6600 
  4 C       -0.1660     2.7260    -1.0080 C.2   1 <1>  -0.2370 
  5 C       -3.0870     2.5220    -0.3010 C.3   1 <1>   0.1400 
  6 C       -2.5690     0.3240     0.7530 C.3   1 <1>   0.1400 
  7 N        0.9080     3.5120    -0.7370 N.pl3 1 <1>   0.3140 
  8 C       -0.5690     3.0950    -2.2570 C.2   1 <1>  -0.1500 
  9 C       -3.7320     3.0540     0.9930 C.3   1 <1>   0.1440 
 10 C       -3.2100     0.7820     2.0690 C.3   1 <1>  -0.1600 
 11 N        1.1780     4.3670    -1.7360 N.2   1 <1>  -0.7070 
 12 C        1.7390     3.5080     0.4780 C.3   1 <1>   0.0160 
 13 C        0.2890     4.1050    -2.6450 C.2   1 <1>   0.1390 
 14 C       -4.8620     4.0110     0.6670 C.ar  1 <1>   0.1660 
 15 C       -4.2680     1.8800     1.8440 C.3   1 <1>  -0.1600 
 16 C       -2.7560     3.9560     1.7980 C.3   1 <1>  -0.1600 
 17 N       -5.8240     3.7790    -0.1920 N.ar  1 <1>  -0.6200 
 18 C       -4.7670     5.1650     1.3820 C.ar  1 <1>  -0.1430 
 19 C       -3.5680     5.1640     2.2960 C.3   1 <1>  -0.0170 
 20 C       -6.7180     4.7620    -0.3250 C.ar  1 <1>   0.7200 
 21 C       -5.7310     6.1200     1.1800 C.ar  1 <1>   0.1600 
 22 N       -6.7110     5.9290     0.3280 N.ar  1 <1>  -0.6200 
 23 N       -7.7460     4.5510    -1.2230 N.pl3 1 <1>  -0.8380 
 24 C       -8.0890     3.1950    -1.7300 C.3   1 <1>   0.1290 
 25 C       -8.6290     5.6580    -1.6850 C.3   1 <1>   0.1290 
 26 H       -3.8440     2.0600    -0.9120 H     1 <1>   0.0800 
 27 H       -2.6840     3.3490    -0.8540 H     1 <1>   0.0800 
 28 H       -1.7840    -0.3850     0.9560 H     1 <1>   0.0800 
 29 H       -3.3060    -0.1660     0.1400 H     1 <1>   0.0800 
 30 H       -1.3810     2.6960    -2.8380 H     1 <1>   0.1500 
 31 H       -2.4330     1.1370     2.7220 H     1 <1>   0.0800 
 32 H       -3.6690    -0.0640     2.5490 H     1 <1>   0.0800 
 33 H        1.1070     3.5850     1.3430 H     1 <1>   0.0800 
 34 H        2.4170     4.3400     0.4480 H     1 <1>   0.0800 
 35 H        2.2960     2.5900     0.5170 H     1 <1>   0.0800 
 36 H        0.2420     4.6240    -3.5880 H     1 <1>   0.1500 
 37 H       -5.1080     1.4440     1.3300 H     1 <1>   0.0800 
 38 H       -4.6260     2.2450     2.7910 H     1 <1>   0.0800 
 39 H       -1.9850     4.3220     1.1420 H     1 <1>   0.0800 
 40 H       -2.2820     3.4380     2.6110 H     1 <1>   0.0800 
 41 H       -3.0060     6.0790     2.2180 H     1 <1>   0.0800 
 42 H       -3.8900     5.0140     3.3120 H     1 <1>   0.0800 
 43 H       -5.7000     7.0490     1.7210 H     1 <1>   0.1500 
 44 H       -7.8040     2.4410    -1.0170 H     1 <1>   0.0800 
 45 H       -7.5690     3.0160    -2.6550 H     1 <1>   0.0800 
 46 H       -9.1490     3.1180    -1.8960 H     1 <1>   0.0800 
 47 H       -8.0980     6.5940    -1.6770 H     1 <1>   0.0800 
 48 H       -9.4810     5.7340    -1.0320 H     1 <1>   0.0800 
 49 H       -8.9640     5.4690    -2.6890 H     1 <1>   0.0800 
@<TRIPOS>BOND
  1   1   2  2   
  2   2   3  am  
  3   2   4  1   
  4   3   5  1   
  5   3   6  1   
  6   4   7  1   
  7   4   8  2   
  8   5   9  1   
  9   5  26  1   
 10   5  27  1   
 11   6  10  1   
 12   6  28  1   
 13   6  29  1   
 14   7  11  1   
 15   7  12  1   
 16   8  13  1   
 17   8  30  1   
 18   9  14  1   
 19   9  15  1   
 20   9  16  1   
 21  10  15  1   
 22  10  31  1   
 23  10  32  1   
 24  11  13  2   
 25  12  33  1   
 26  12  34  1   
 27  12  35  1   
 28  13  36  1   
 29  14  17  ar  
 30  14  18  ar  
 31  15  37  1   
 32  15  38  1   
 33  16  19  1   
 34  16  39  1   
 35  16  40  1   
 36  17  20  ar  
 37  18  19  1   
 38  18  21  ar  
 39  19  41  1   
 40  19  42  1   
 41  20  22  ar  
 42  20  23  1   
 43  21  22  ar  
 44  21  43  1   
 45  23  24  1   
 46  23  25  1   
 47  24  44  1   
 48  24  45  1   
 49  24  46  1   
 50  25  47  1   
 51  25  48  1   
 52  25  49  1   
@<TRIPOS>SUBSTRUCTURE
  1 ****   5 GROUP 4 **** **** 0

# MOE 2024.06 (io_trps.svl 2023.06)
