@<TRIPOS>MOLECULE
NONAME
36 36 1 0 0 
SMALL
USER_CHARGES


@<TRIPOS>ATOM
  1 O        0.4340    -1.9060     2.4230 O.2   1 <1>  -0.5700 
  2 C        0.1950    -2.0870     1.2690 C.2   1 <1>   0.4480 
  3 C        1.2640    -1.9450     0.2130 C.3   1 <1>  -0.0380 
  4 C       -1.1920    -2.4610     0.7790 C.3   1 <1>  -0.0990 
  5 C        1.2650    -3.1880    -0.6620 C.2   1 <1>   0.3280 
  6 C       -1.1660    -3.7010    -0.1390 C.3   1 <1>   0.0000 
  7 N        2.2620    -3.9270    -0.9190 N.2   1 <1>  -0.5120 
  8 C       -0.1030    -3.5120    -1.2430 C.3   1 <1>  -0.0990 
  9 C       -0.8470    -4.9600     0.6880 C.3   1 <1>  -0.2400 
 10 C       -2.5470    -3.8860    -0.7860 C.3   1 <1>  -0.2400 
 11 N        3.5310    -3.7150    -0.3910 N.am  1 <1>  -0.3680 
 12 C        4.6810    -4.4210    -0.6630 C.2   1 <1>   0.5690 
 13 O        4.7440    -5.3210    -1.4670 O.2   1 <1>  -0.5700 
 14 C        5.9510    -4.0340     0.1000 C.3   1 <1>  -0.0190 
 15 C        5.8000    -4.2390     1.6170 C.3   1 <1>  -0.2400 
 16 C        6.3890    -2.5900    -0.2000 C.3   1 <1>  -0.2400 
 17 H        2.2090    -1.7860     0.6930 H     1 <1>   0.0800 
 18 H        1.0480    -1.0860    -0.3920 H     1 <1>   0.0800 
 19 H       -1.5930    -1.6180     0.2460 H     1 <1>   0.0800 
 20 H       -1.8280    -2.6410     1.6280 H     1 <1>   0.0800 
 21 H       -0.0320    -4.4070    -1.8380 H     1 <1>   0.0800 
 22 H       -0.3920    -2.7120    -1.9010 H     1 <1>   0.0800 
 23 H        0.1080    -4.8820     1.1770 H     1 <1>   0.0800 
 24 H       -0.8240    -5.8300     0.0560 H     1 <1>   0.0800 
 25 H       -1.5950    -5.1160     1.4460 H     1 <1>   0.0800 
 26 H       -2.8110    -3.0290    -1.3810 H     1 <1>   0.0800 
 27 H       -3.3030    -4.0200    -0.0330 H     1 <1>   0.0800 
 28 H       -2.5510    -4.7530    -1.4250 H     1 <1>   0.0800 
 29 H        3.6410    -2.9860     0.3140 H     1 <1>   0.3700 
 30 H        6.7330    -4.6910    -0.2420 H     1 <1>   0.0800 
 31 H        5.0560    -3.5790     2.0290 H     1 <1>   0.0800 
 32 H        6.7360    -4.0530     2.1130 H     1 <1>   0.0800 
 33 H        5.5060    -5.2540     1.8200 H     1 <1>   0.0800 
 34 H        5.6650    -1.8800     0.1570 H     1 <1>   0.0800 
 35 H        6.5070    -2.4570    -1.2610 H     1 <1>   0.0800 
 36 H        7.3340    -2.3830     0.2730 H     1 <1>   0.0800 
@<TRIPOS>BOND
  1   1   2  2   
  2   2   3  1   
  3   2   4  1   
  4   3   5  1   
  5   3  17  1   
  6   3  18  1   
  7   4   6  1   
  8   4  19  1   
  9   4  20  1   
 10   5   7  2   
 11   5   8  1   
 12   6   8  1   
 13   6   9  1   
 14   6  10  1   
 15   7  11  1   
 16   8  21  1   
 17   8  22  1   
 18   9  23  1   
 19   9  24  1   
 20   9  25  1   
 21  10  26  1   
 22  10  27  1   
 23  10  28  1   
 24  11  12  am  
 25  11  29  1   
 26  12  13  2   
 27  12  14  1   
 28  14  15  1   
 29  14  16  1   
 30  14  30  1   
 31  15  31  1   
 32  15  32  1   
 33  15  33  1   
 34  16  34  1   
 35  16  35  1   
 36  16  36  1   
@<TRIPOS>SUBSTRUCTURE
  1 ****   5 GROUP 4 **** **** 0

# MOE 2024.06 (io_trps.svl 2023.06)
