@<TRIPOS>MOLECULE
NONAME
53 57 1 0 0 
SMALL
USER_CHARGES


@<TRIPOS>ATOM
  1 O       -1.1760     0.8110     1.7740 O.2   1 <1>  -0.5700 
  2 C       -2.0970     1.3720     1.2030 C.2   1 <1>   0.7150 
  3 N       -3.3380     0.7620     1.2190 N.am  1 <1>  -0.6600 
  4 C       -1.8310     2.6250     0.5370 C.2   1 <1>   0.0550 
  5 C       -4.3660     0.9190     0.1530 C.3   1 <1>   0.1400 
  6 C       -3.7070    -0.2260     2.2720 C.3   1 <1>   0.1400 
  7 O       -2.7780     3.4810     0.2250 O.3   1 <1>  -0.0190 
  8 C       -0.6720     3.1930     0.1330 C.2   1 <1>  -0.1500 
  9 C       -4.6160    -0.4390    -0.5070 C.3   1 <1>  -0.1600 
 10 C       -3.9450    -1.5910     1.6270 C.3   1 <1>  -0.1600 
 11 N       -2.3300     4.5480    -0.3620 N.2   1 <1>  -0.4100 
 12 C       -1.0520     4.4040    -0.4280 C.2   1 <1>   0.1080 
 13 C       -4.9990    -1.5120     0.5200 C.3   1 <1>   0.4600 
 14 C       -0.1120     5.4350    -1.0410 C.3   1 <1>   0.1010 
 15 O       -6.2080    -1.1390     1.1480 O.3   1 <1>  -0.5600 
 16 C       -5.1750    -2.8720    -0.1430 C.2   1 <1>  -0.3320 
 17 C        0.6360     4.8470    -2.2440 C.3   1 <1>  -0.2400 
 18 C        0.8790     5.9590     0.0050 C.3   1 <1>  -0.2400 
 19 C       -7.4160    -1.4140     0.4790 C.3   1 <1>   0.1200 
 20 N       -4.1920    -3.6280    -0.7210 N.pl3 1 <1>   0.0330 
 21 C       -6.3510    -3.5210    -0.2440 C.2   1 <1>  -0.1810 
 22 C       -7.6250    -2.9270     0.3030 C.3   1 <1>   0.0210 
 23 C       -4.7670    -4.7830    -1.1930 C.ar  1 <1>  -0.1520 
 24 C       -6.1290    -4.7470    -0.9050 C.ar  1 <1>   0.0000 
 25 C       -4.2050    -5.8750    -1.8580 C.ar  1 <1>  -0.1500 
 26 C       -6.9450    -5.8180    -1.2830 C.ar  1 <1>  -0.1500 
 27 C       -5.0190    -6.9220    -2.2250 C.ar  1 <1>  -0.1500 
 28 C       -6.3900    -6.8930    -1.9380 C.ar  1 <1>  -0.1500 
 29 H       -4.0440     1.6130    -0.6020 H     1 <1>   0.0800 
 30 H       -5.2770     1.2920     0.5920 H     1 <1>   0.0800 
 31 H       -4.6040     0.1060     2.7660 H     1 <1>   0.0800 
 32 H       -2.9300    -0.3030     3.0140 H     1 <1>   0.0800 
 33 H        0.3250     2.8050     0.2250 H     1 <1>   0.1500 
 34 H       -3.7170    -0.7410    -1.0120 H     1 <1>   0.0800 
 35 H       -5.3820    -0.3520    -1.2530 H     1 <1>   0.0800 
 36 H       -4.2680    -2.2970     2.3700 H     1 <1>   0.0800 
 37 H       -3.0140    -1.9430     1.2240 H     1 <1>   0.0800 
 38 H       -0.7090     6.2630    -1.3860 H     1 <1>   0.0800 
 39 H        1.2620     4.0280    -1.9400 H     1 <1>   0.0800 
 40 H        1.2490     5.6000    -2.7050 H     1 <1>   0.0800 
 41 H       -0.0700     4.4890    -2.9720 H     1 <1>   0.0800 
 42 H        1.5100     5.1660     0.3630 H     1 <1>   0.0800 
 43 H        0.3410     6.3730     0.8400 H     1 <1>   0.0800 
 44 H        1.4970     6.7300    -0.4190 H     1 <1>   0.0800 
 45 H       -7.3960    -0.9260    -0.4790 H     1 <1>   0.0800 
 46 H       -8.2160    -0.9940     1.0620 H     1 <1>   0.0800 
 47 H       -3.1960    -3.3970    -0.7850 H     1 <1>   0.2700 
 48 H       -8.4390    -3.1050    -0.3750 H     1 <1>   0.0800 
 49 H       -7.8590    -3.3790     1.2500 H     1 <1>   0.0800 
 50 H       -3.1520    -5.8900    -2.0740 H     1 <1>   0.1500 
 51 H       -7.9940    -5.7820    -1.0550 H     1 <1>   0.1500 
 52 H       -4.6100    -7.7750    -2.7380 H     1 <1>   0.1500 
 53 H       -7.0040    -7.7240    -2.2350 H     1 <1>   0.1500 
@<TRIPOS>BOND
  1   1   2  2   
  2   2   3  am  
  3   2   4  1   
  4   3   5  1   
  5   3   6  1   
  6   4   7  1   
  7   4   8  2   
  8   5   9  1   
  9   5  29  1   
 10   5  30  1   
 11   6  10  1   
 12   6  31  1   
 13   6  32  1   
 14   7  11  1   
 15   8  12  1   
 16   8  33  1   
 17   9  13  1   
 18   9  34  1   
 19   9  35  1   
 20  10  13  1   
 21  10  36  1   
 22  10  37  1   
 23  11  12  2   
 24  12  14  1   
 25  13  15  1   
 26  13  16  1   
 27  14  17  1   
 28  14  18  1   
 29  14  38  1   
 30  15  19  1   
 31  16  20  1   
 32  16  21  2   
 33  17  39  1   
 34  17  40  1   
 35  17  41  1   
 36  18  42  1   
 37  18  43  1   
 38  18  44  1   
 39  19  22  1   
 40  19  45  1   
 41  19  46  1   
 42  20  23  1   
 43  20  47  1   
 44  21  22  1   
 45  21  24  1   
 46  22  48  1   
 47  22  49  1   
 48  23  24  ar  
 49  23  25  ar  
 50  24  26  ar  
 51  25  27  ar  
 52  25  50  1   
 53  26  28  ar  
 54  26  51  1   
 55  27  28  ar  
 56  27  52  1   
 57  28  53  1   
@<TRIPOS>SUBSTRUCTURE
  1 ****   9 GROUP 4 **** **** 0

# MOE 2024.06 (io_trps.svl 2023.06)
