@<TRIPOS>MOLECULE
NONAME
50 53 1 0 0 
SMALL
USER_CHARGES


@<TRIPOS>ATOM
  1 O       -0.1670     0.5540    -0.3800 O.3   1 <1>  -0.6800 
  2 C        0.7990    -0.4260    -0.5700 C.3   1 <1>   0.2000 
  3 C        0.6820    -1.4230     0.5890 C.3   1 <1>  -0.0800 
  4 C        2.1700     0.2460    -0.4140 C.3   1 <1>   0.3430 
  5 C        1.6200    -0.8350     1.6440 C.3   1 <1>   0.3430 
  6 C        1.0110    -2.8870     0.1940 C.3   1 <1>  -0.0170 
  7 N        2.7370    -0.2490     0.8730 N.4   1 <1>  -0.9590 
  8 C        2.4830    -3.2580     0.0110 C.ar  1 <1>   0.1670 
  9 C        3.6000     0.7220     1.5690 C.3   1 <1>   0.5240 
 10 N        3.2050    -2.5390    -0.7950 N.ar  1 <1>  -0.6200 
 11 C        2.9880    -4.3690     0.7060 C.ar  1 <1>  -0.1500 
 12 C        4.9100     0.7310     0.8200 C.2   1 <1>  -0.1810 
 13 C        4.5060    -2.8890    -0.9810 C.ar  1 <1>   0.3100 
 14 C        4.2880    -4.7420     0.5440 C.ar  1 <1>  -0.1500 
 15 C        5.2910     1.6030    -0.1980 C.2   1 <1>   0.1080 
 16 C        5.9580    -0.1110     0.9680 C.2   1 <1>  -0.3320 
 17 C        5.0940    -3.9930    -0.3280 C.ar  1 <1>   0.0000 
 18 C        5.3050    -2.1190    -1.8420 C.ar  1 <1>  -0.1500 
 19 N        6.4620     1.3180    -0.6630 N.2   1 <1>  -0.7070 
 20 C        4.5040     2.7700    -0.7570 C.3   1 <1>  -0.0590 
 21 N        6.8830     0.2670     0.0610 N.pl3 1 <1>   0.3000 
 22 C        6.1750    -1.2760     1.9210 C.3   1 <1>  -0.0600 
 23 C        6.4500    -4.2920    -0.5710 C.ar  1 <1>  -0.1500 
 24 C        6.6220    -2.4220    -2.0600 C.ar  1 <1>  -0.1500 
 25 C        7.2000    -3.5230    -1.4190 C.ar  1 <1>  -0.1500 
 26 H       -1.0480     0.2470    -0.6820 H     1 <1>   0.4000 
 27 H        0.6660    -0.8610    -1.5470 H     1 <1>   0.0800 
 28 H       -0.3250    -1.4240     0.9720 H     1 <1>   0.0800 
 29 H        2.0480     1.3150    -0.4030 H     1 <1>   0.0800 
 30 H        2.8200    -0.0350    -1.2270 H     1 <1>   0.0800 
 31 H        1.9640    -1.5840     2.3380 H     1 <1>   0.0800 
 32 H        1.1030    -0.0540     2.1780 H     1 <1>   0.0800 
 33 H        0.4940    -3.1290    -0.7190 H     1 <1>   0.0800 
 34 H        0.5940    -3.5280     0.9500 H     1 <1>   0.0800 
 35 H        3.3530    -1.0320     0.5760 H     1 <1>   0.4500 
 36 H        3.1500     1.7010     1.5820 H     1 <1>   0.0800 
 37 H        3.7770     0.4020     2.5820 H     1 <1>   0.0800 
 38 H        2.3440    -4.9330     1.3570 H     1 <1>   0.1500 
 39 H        4.7050    -5.5920     1.0560 H     1 <1>   0.1500 
 40 H        4.8550    -1.2750    -2.3320 H     1 <1>   0.1500 
 41 H        3.7180     3.0700    -0.0910 H     1 <1>   0.0800 
 42 H        4.0870     2.5020    -1.7100 H     1 <1>   0.0800 
 43 H        5.1670     3.6040    -0.9000 H     1 <1>   0.0800 
 44 H        7.8010    -0.1700    -0.0920 H     1 <1>   0.2700 
 45 H        5.2770    -1.5030     2.4660 H     1 <1>   0.0800 
 46 H        6.9510    -1.0340     2.6260 H     1 <1>   0.0800 
 47 H        6.4730    -2.1530     1.3750 H     1 <1>   0.0800 
 48 H        6.8880    -5.1430    -0.0790 H     1 <1>   0.1500 
 49 H        7.2210    -1.8240    -2.7270 H     1 <1>   0.1500 
 50 H        8.2350    -3.7550    -1.6070 H     1 <1>   0.1500 
@<TRIPOS>BOND
  1   1   2  1   
  2   1  26  1   
  3   2   3  1   
  4   2   4  1   
  5   2  27  1   
  6   3   5  1   
  7   3   6  1   
  8   3  28  1   
  9   4   7  1   
 10   4  29  1   
 11   4  30  1   
 12   5   7  1   
 13   5  31  1   
 14   5  32  1   
 15   6   8  1   
 16   6  33  1   
 17   6  34  1   
 18   7   9  1   
 19   7  35  1   
 20   8  10  ar  
 21   8  11  ar  
 22   9  12  1   
 23   9  36  1   
 24   9  37  1   
 25  10  13  ar  
 26  11  14  ar  
 27  11  38  1   
 28  12  15  1   
 29  12  16  2   
 30  13  17  ar  
 31  13  18  ar  
 32  14  17  ar  
 33  14  39  1   
 34  15  19  2   
 35  15  20  1   
 36  16  21  1   
 37  16  22  1   
 38  17  23  ar  
 39  18  24  ar  
 40  18  40  1   
 41  19  21  1   
 42  20  41  1   
 43  20  42  1   
 44  20  43  1   
 45  21  44  1   
 46  22  45  1   
 47  22  46  1   
 48  22  47  1   
 49  23  25  ar  
 50  23  48  1   
 51  24  25  ar  
 52  24  49  1   
 53  25  50  1   
@<TRIPOS>SUBSTRUCTURE
  1 ****  10 GROUP 4 **** **** 0

# MOE 2024.06 (io_trps.svl 2023.06)
