@<TRIPOS>MOLECULE
NONAME
51 54 1 0 0 
SMALL
USER_CHARGES


@<TRIPOS>ATOM
  1 O       -1.0980    -0.4520     0.5490 O.2   1 <1>  -0.5700 
  2 C       -2.0420     0.3160     0.5270 C.2   1 <1>   0.5440 
  3 N       -1.7940     1.6710     0.6010 N.am  1 <1>  -0.6600 
  4 C       -3.3780    -0.2180     0.4120 C.ar  1 <1>   0.0860 
  5 C       -0.4640     2.2080     1.0240 C.3   1 <1>   0.1400 
  6 C       -2.6750     2.7120    -0.0100 C.3   1 <1>   0.1400 
  7 C       -3.6380    -1.2860    -0.4420 C.ar  1 <1>   0.1600 
  8 C       -4.4580     0.2760     1.1380 C.ar  1 <1>  -0.1500 
  9 C        0.1720     3.0320    -0.1060 C.3   1 <1>   0.1200 
 10 C       -1.9070     3.5180    -1.0730 C.3   1 <1>   0.1200 
 11 N       -4.8150    -1.8530    -0.6450 N.ar  1 <1>  -0.6200 
 12 C       -5.6870    -0.3050     0.9450 C.ar  1 <1>  -0.1500 
 13 O       -0.7120     4.0230    -0.5490 O.3   1 <1>  -0.5600 
 14 C       -5.8380    -1.3590     0.0440 C.ar  1 <1>   0.4100 
 15 N       -7.0770    -1.9390    -0.1510 N.pl3 1 <1>  -0.8380 
 16 C       -7.1830    -3.3480    -0.6440 C.3   1 <1>   0.2090 
 17 C       -8.2510    -1.0840    -0.4760 C.3   1 <1>   0.1290 
 18 C       -6.5890    -4.3210     0.3740 C.3   1 <1>   0.0960 
 19 N       -6.8420    -5.7050    -0.0600 N.pl3 1 <1>   0.0480 
 20 C       -8.0070    -6.4160     0.1180 C.ar  1 <1>  -0.1520 
 21 C       -5.9800    -6.4900    -0.7740 C.2   1 <1>  -0.3020 
 22 C       -7.8600    -7.6580    -0.4910 C.ar  1 <1>   0.0000 
 23 C       -9.1990    -6.0790     0.7680 C.ar  1 <1>  -0.1500 
 24 C       -6.5650    -7.6800    -1.0480 C.2   1 <1>  -0.1500 
 25 C       -8.9120    -8.5790    -0.4560 C.ar  1 <1>  -0.1500 
 26 C      -10.2270    -6.9940     0.7950 C.ar  1 <1>  -0.1500 
 27 C      -10.0830    -8.2450     0.1830 C.ar  1 <1>  -0.1500 
 28 H        0.2020     1.4090     1.3010 H     1 <1>   0.0800 
 29 H       -0.5960     2.8370     1.8870 H     1 <1>   0.0800 
 30 H       -3.0190     3.3820     0.7590 H     1 <1>   0.0800 
 31 H       -3.5340     2.2610    -0.4730 H     1 <1>   0.0800 
 32 H       -2.8050    -1.6920    -0.9930 H     1 <1>   0.1500 
 33 H       -4.3210     1.0830     1.8370 H     1 <1>   0.1500 
 34 H        0.4280     2.3960    -0.9370 H     1 <1>   0.0800 
 35 H        1.0640     3.5190     0.2450 H     1 <1>   0.0800 
 36 H       -2.4980     4.3530    -1.4060 H     1 <1>   0.0800 
 37 H       -1.6760     2.8990    -1.9230 H     1 <1>   0.0800 
 38 H       -6.5460     0.0340     1.4920 H     1 <1>   0.1500 
 39 H       -6.6630    -3.4410    -1.5830 H     1 <1>   0.0800 
 40 H       -8.2180    -3.5960    -0.8010 H     1 <1>   0.0800 
 41 H       -8.0000    -0.0410    -0.3910 H     1 <1>   0.0800 
 42 H       -9.0590    -1.3070     0.1990 H     1 <1>   0.0800 
 43 H       -8.5730    -1.2730    -1.4860 H     1 <1>   0.0800 
 44 H       -7.0430    -4.1690     1.3350 H     1 <1>   0.0800 
 45 H       -5.5290    -4.1710     0.4560 H     1 <1>   0.0800 
 46 H       -4.9960    -6.1500    -1.0450 H     1 <1>   0.1500 
 47 H       -9.3050    -5.1190     1.2390 H     1 <1>   0.1500 
 48 H       -6.1560    -8.5140    -1.5890 H     1 <1>   0.1500 
 49 H       -8.7860    -9.5350    -0.9310 H     1 <1>   0.1500 
 50 H      -11.1520    -6.7560     1.2890 H     1 <1>   0.1500 
 51 H      -10.9010    -8.9420     0.2180 H     1 <1>   0.1500 
@<TRIPOS>BOND
  1   1   2  2   
  2   2   3  am  
  3   2   4  1   
  4   3   5  1   
  5   3   6  1   
  6   4   7  ar  
  7   4   8  ar  
  8   5   9  1   
  9   5  28  1   
 10   5  29  1   
 11   6  10  1   
 12   6  30  1   
 13   6  31  1   
 14   7  11  ar  
 15   7  32  1   
 16   8  12  ar  
 17   8  33  1   
 18   9  13  1   
 19   9  34  1   
 20   9  35  1   
 21  10  13  1   
 22  10  36  1   
 23  10  37  1   
 24  11  14  ar  
 25  12  14  ar  
 26  12  38  1   
 27  14  15  1   
 28  15  16  1   
 29  15  17  1   
 30  16  18  1   
 31  16  39  1   
 32  16  40  1   
 33  17  41  1   
 34  17  42  1   
 35  17  43  1   
 36  18  19  1   
 37  18  44  1   
 38  18  45  1   
 39  19  20  1   
 40  19  21  1   
 41  20  22  ar  
 42  20  23  ar  
 43  21  24  2   
 44  21  46  1   
 45  22  24  1   
 46  22  25  ar  
 47  23  26  ar  
 48  23  47  1   
 49  24  48  1   
 50  25  27  ar  
 51  25  49  1   
 52  26  27  ar  
 53  26  50  1   
 54  27  51  1   
@<TRIPOS>SUBSTRUCTURE
  1 ****  11 GROUP 4 **** **** 0

# MOE 2024.06 (io_trps.svl 2023.06)
