@<TRIPOS>MOLECULE
NONAME
60 62 1 0 0 
SMALL
USER_CHARGES


@<TRIPOS>ATOM
  1 O        1.2290    -0.2980    -1.2250 O.2   1 <1>  -0.5700 
  2 C        1.8270    -0.5340    -0.2020 C.2   1 <1>   0.5690 
  3 N        2.4720     0.4690     0.4950 N.am  1 <1>  -0.6600 
  4 C        1.7960    -2.0080     0.2630 C.3   1 <1>   0.4040 
  5 C        3.4620     0.2540     1.6010 C.3   1 <1>   0.1400 
  6 C        2.0880     1.8960     0.2350 C.3   1 <1>   0.1400 
  7 N        0.6050    -2.7710    -0.2740 N.4   1 <1>  -0.9590 
  8 C        4.9230     0.3010     1.0930 C.3   1 <1>   0.3430 
  9 C        3.2840     2.8500     0.1570 C.3   1 <1>  -0.1600 
 10 C       -0.6650    -2.3180     0.3670 C.3   1 <1>   0.3430 
 11 C        0.8230    -4.2440    -0.2500 C.3   1 <1>   0.3430 
 12 N        5.3950     1.6400     0.5930 N.4   1 <1>  -0.9590 
 13 C        4.5270     2.2290    -0.4740 C.3   1 <1>   0.3430 
 14 C       -1.8130    -2.4270    -0.6360 C.3   1 <1>  -0.1600 
 15 C       -0.2310    -4.9980    -1.0640 C.3   1 <1>  -0.1600 
 16 C        6.8090     1.4850     0.1130 C.3   1 <1>   0.3430 
 17 C       -2.4910    -3.8050    -0.7100 C.3   1 <1>  -0.1600 
 18 C       -1.6120    -5.0230    -0.3940 C.3   1 <1>  -0.1600 
 19 C        7.5620     2.8140    -0.0350 C.3   1 <1>   0.0200 
 20 C        8.9990     2.5140    -0.4190 C.2   1 <1>   0.0060 
 21 N        9.4340     1.3070    -0.5880 N.2   1 <1>  -0.5650 
 22 N        9.9450     3.4680    -0.6170 N.pl3 1 <1>   0.0480 
 23 C       10.7290     1.4730    -0.9140 C.2   1 <1>   0.0770 
 24 C       11.0550     2.7820    -0.9360 C.2   1 <1>  -0.3020 
 25 C        9.8340     4.9350    -0.5190 C.3   1 <1>   0.0160 
 26 H        1.7880    -2.0410     1.3380 H     1 <1>   0.0800 
 27 H        2.7000    -2.4760    -0.0850 H     1 <1>   0.0800 
 28 H        3.2940    -0.7050     2.0580 H     1 <1>   0.0800 
 29 H        3.3200     0.9940     2.3710 H     1 <1>   0.0800 
 30 H        1.4150     2.2290     1.0080 H     1 <1>   0.0800 
 31 H        1.5490     1.9660    -0.6960 H     1 <1>   0.0800 
 32 H        0.5220    -2.4730    -1.2610 H     1 <1>   0.4500 
 33 H        5.0320    -0.4270     0.3070 H     1 <1>   0.0800 
 34 H        5.5670    -0.0060     1.9010 H     1 <1>   0.0800 
 35 H        3.5040     3.2550     1.1290 H     1 <1>   0.0800 
 36 H        2.9790     3.6810    -0.4540 H     1 <1>   0.0800 
 37 H       -0.5720    -1.2800     0.6450 H     1 <1>   0.0800 
 38 H       -0.8800    -2.8900     1.2550 H     1 <1>   0.0800 
 39 H        0.8110    -4.6030     0.7670 H     1 <1>   0.0800 
 40 H        1.7910    -4.4660    -0.6700 H     1 <1>   0.0800 
 41 H        5.4090     2.2940     1.3870 H     1 <1>   0.4500 
 42 H        5.0670     3.0080    -0.9860 H     1 <1>   0.0800 
 43 H        4.2500     1.4830    -1.2020 H     1 <1>   0.0800 
 44 H       -1.4680    -2.1330    -1.6120 H     1 <1>   0.0800 
 45 H       -2.5670    -1.7120    -0.3550 H     1 <1>   0.0800 
 46 H        0.1070    -6.0170    -1.1430 H     1 <1>   0.0800 
 47 H       -0.2920    -4.6130    -2.0680 H     1 <1>   0.0800 
 48 H        6.8270     0.9680    -0.8330 H     1 <1>   0.0800 
 49 H        7.3620     0.8800     0.8150 H     1 <1>   0.0800 
 50 H       -2.9080    -3.9220    -1.6970 H     1 <1>   0.0800 
 51 H       -3.3240    -3.8190    -0.0260 H     1 <1>   0.0800 
 52 H       -1.5000    -5.1300     0.6720 H     1 <1>   0.0800 
 53 H       -2.1410    -5.8990    -0.7350 H     1 <1>   0.0800 
 54 H        7.5580     3.3470     0.8980 H     1 <1>   0.0800 
 55 H        7.1210     3.4180    -0.8050 H     1 <1>   0.0800 
 56 H       11.3700     0.6300    -1.1200 H     1 <1>   0.1500 
 57 H       12.0000     3.2450    -1.1570 H     1 <1>   0.1500 
 58 H        9.1210     5.2900    -1.2400 H     1 <1>   0.0800 
 59 H       10.7910     5.3810    -0.7190 H     1 <1>   0.0800 
 60 H        9.5190     5.2050     0.4720 H     1 <1>   0.0800 
@<TRIPOS>BOND
  1   1   2  2   
  2   2   3  am  
  3   2   4  1   
  4   3   5  1   
  5   3   6  1   
  6   4   7  1   
  7   4  26  1   
  8   4  27  1   
  9   5   8  1   
 10   5  28  1   
 11   5  29  1   
 12   6   9  1   
 13   6  30  1   
 14   6  31  1   
 15   7  10  1   
 16   7  11  1   
 17   7  32  1   
 18   8  12  1   
 19   8  33  1   
 20   8  34  1   
 21   9  13  1   
 22   9  35  1   
 23   9  36  1   
 24  10  14  1   
 25  10  37  1   
 26  10  38  1   
 27  11  15  1   
 28  11  39  1   
 29  11  40  1   
 30  12  13  1   
 31  12  16  1   
 32  12  41  1   
 33  13  42  1   
 34  13  43  1   
 35  14  17  1   
 36  14  44  1   
 37  14  45  1   
 38  15  18  1   
 39  15  46  1   
 40  15  47  1   
 41  16  19  1   
 42  16  48  1   
 43  16  49  1   
 44  17  18  1   
 45  17  50  1   
 46  17  51  1   
 47  18  52  1   
 48  18  53  1   
 49  19  20  1   
 50  19  54  1   
 51  19  55  1   
 52  20  21  2   
 53  20  22  1   
 54  21  23  1   
 55  22  24  1   
 56  22  25  1   
 57  23  24  2   
 58  23  56  1   
 59  24  57  1   
 60  25  58  1   
 61  25  59  1   
 62  25  60  1   
@<TRIPOS>SUBSTRUCTURE
  1 ****   8 GROUP 4 **** **** 0

# MOE 2024.06 (io_trps.svl 2023.06)
