@<TRIPOS>MOLECULE
NONAME
24 24 1 0 0 
SMALL
USER_CHARGES


@<TRIPOS>ATOM
  1 BR       0.2960    -0.0640    -1.0250 Br    1 <1>  -0.1110 
  2 C       -1.4070    -0.8540    -0.5940 C.ar  1 <1>   0.1110 
  3 C       -2.5470    -0.0670    -0.5030 C.ar  1 <1>   0.0820 
  4 C       -1.4600    -2.2180    -0.3890 C.ar  1 <1>  -0.1500 
  5 O       -2.5110     1.2680    -0.7030 O.3   1 <1>  -0.3630 
  6 C       -3.7600    -0.6690    -0.2200 C.ar  1 <1>  -0.1500 
  7 C       -2.6810    -2.8000    -0.0970 C.ar  1 <1>  -0.1500 
  8 C       -2.1180     2.0550     0.3960 C.3   1 <1>   0.1200 
  9 C       -3.8610    -2.0500    -0.0080 C.ar  1 <1>   0.0860 
 10 C       -2.1180     3.5150    -0.0440 C.3   1 <1>  -0.2400 
 11 C       -5.1180    -2.7090     0.2930 C.2   1 <1>   0.4230 
 12 O       -5.1990    -3.8820     0.5490 O.2   1 <1>  -0.5700 
 13 C       -6.4170    -1.9260     0.2970 C.3   1 <1>  -0.1790 
 14 H       -0.5650    -2.8110    -0.4600 H     1 <1>   0.1500 
 15 H       -4.6280    -0.0380    -0.1700 H     1 <1>   0.1500 
 16 H       -2.7290    -3.8650     0.0650 H     1 <1>   0.1500 
 17 H       -1.1330     1.7500     0.7070 H     1 <1>   0.0800 
 18 H       -2.8180     1.8950     1.1980 H     1 <1>   0.0800 
 19 H       -1.4220     3.6550    -0.8520 H     1 <1>   0.0800 
 20 H       -1.8220     4.1430     0.7760 H     1 <1>   0.0800 
 21 H       -3.1030     3.8060    -0.3630 H     1 <1>   0.0800 
 22 H       -6.5640    -1.4500    -0.6540 H     1 <1>   0.0800 
 23 H       -6.3990    -1.1870     1.0760 H     1 <1>   0.0800 
 24 H       -7.2430    -2.5910     0.4770 H     1 <1>   0.0800 
@<TRIPOS>BOND
  1   1   2  1   
  2   2   3  ar  
  3   2   4  ar  
  4   3   5  1   
  5   3   6  ar  
  6   4   7  ar  
  7   4  14  1   
  8   5   8  1   
  9   6   9  ar  
 10   6  15  1   
 11   7   9  ar  
 12   7  16  1   
 13   8  10  1   
 14   8  17  1   
 15   8  18  1   
 16   9  11  1   
 17  10  19  1   
 18  10  20  1   
 19  10  21  1   
 20  11  12  2   
 21  11  13  1   
 22  13  22  1   
 23  13  23  1   
 24  13  24  1   
@<TRIPOS>SUBSTRUCTURE
  1 ****   6 GROUP 4 **** **** 0

# MOE 2024.06 (io_trps.svl 2023.06)
