@<TRIPOS>MOLECULE
NONAME
58 60 1 0 0 
SMALL
USER_CHARGES


@<TRIPOS>ATOM
  1 O       -0.3160    -0.1330     0.6330 O.2   1 <1>  -0.5700 
  2 C       -1.1740     0.6580     0.3260 C.2   1 <1>   0.5690 
  3 N       -2.3300     0.2340    -0.2870 N.am  1 <1>  -0.6600 
  4 C       -0.9310     2.1180     0.6580 C.3   1 <1>  -0.0990 
  5 C       -2.5090    -1.2020    -0.6390 C.3   1 <1>   0.1400 
  6 C       -3.5640     1.0490    -0.4670 C.3   1 <1>   0.1400 
  7 C       -0.5690     2.9290    -0.5910 C.3   1 <1>  -0.0160 
  8 C       -3.5980    -1.8160     0.2690 C.3   1 <1>   0.4230 
  9 C       -4.6540     0.4680     0.4430 C.3   1 <1>  -0.1600 
 10 C       -0.4590     4.4030    -0.2430 C.ar  1 <1>  -0.1440 
 11 N       -3.7410    -3.3260     0.1280 N.4   1 <1>  -0.9590 
 12 C       -4.9460    -1.0390     0.1770 C.3   1 <1>   0.0000 
 13 C        0.7150     4.9070     0.2920 C.ar  1 <1>  -0.1500 
 14 C       -1.5330     5.2550    -0.4510 C.ar  1 <1>  -0.1500 
 15 C       -5.0290    -3.8720     0.6670 C.3   1 <1>   0.3430 
 16 C       -3.4860    -3.8770    -1.2440 C.3   1 <1>   0.2630 
 17 C       -5.9130    -1.5620     1.2800 C.3   1 <1>  -0.1600 
 18 C       -5.5790    -1.2270    -1.2320 C.3   1 <1>   0.1200 
 19 C        0.8210     6.2480     0.6210 C.ar  1 <1>  -0.1440 
 20 C       -1.4390     6.5980    -0.1260 C.ar  1 <1>  -0.1440 
 21 C       -5.5800    -2.9820     1.7790 C.3   1 <1>  -0.1600 
 22 O       -6.6600    -0.3830    -1.4250 O.3   1 <1>  -0.6800 
 23 C       -0.2610     7.0880     0.4120 C.ar  1 <1>  -0.1500 
 24 C        2.1090     6.7900     1.2110 C.3   1 <1>  -0.0970 
 25 C       -2.6210     7.5220    -0.3550 C.3   1 <1>  -0.0970 
 26 H       -1.7910     2.5360     1.1440 H     1 <1>   0.0800 
 27 H       -0.1170     2.1800     1.3580 H     1 <1>   0.0800 
 28 H       -2.7790    -1.2660    -1.6770 H     1 <1>   0.0800 
 29 H       -1.5860    -1.7380    -0.5010 H     1 <1>   0.0800 
 30 H       -3.3970     2.0810    -0.2170 H     1 <1>   0.0800 
 31 H       -3.8740     1.0150    -1.4980 H     1 <1>   0.0800 
 32 H       -1.3140     2.7940    -1.3540 H     1 <1>   0.0800 
 33 H        0.3690     2.5800    -0.9890 H     1 <1>   0.0800 
 34 H       -3.2440    -1.6430     1.2720 H     1 <1>   0.0800 
 35 H       -4.3290     0.6060     1.4600 H     1 <1>   0.0800 
 36 H       -5.5490     1.0550     0.3270 H     1 <1>   0.0800 
 37 H       -2.9990    -3.7070     0.7370 H     1 <1>   0.4500 
 38 H        1.5510     4.2510     0.4570 H     1 <1>   0.1500 
 39 H       -2.4480     4.8740    -0.8660 H     1 <1>   0.1500 
 40 H       -5.7620    -3.9240    -0.1220 H     1 <1>   0.0800 
 41 H       -4.8750    -4.8720     1.0420 H     1 <1>   0.0800 
 42 H       -4.2030    -3.4850    -1.9480 H     1 <1>   0.0800 
 43 H       -3.5670    -4.9520    -1.2360 H     1 <1>   0.0800 
 44 H       -2.4950    -3.6180    -1.5790 H     1 <1>   0.0800 
 45 H       -5.8980    -0.9100     2.1380 H     1 <1>   0.0800 
 46 H       -6.9270    -1.5480     0.9180 H     1 <1>   0.0800 
 47 H       -5.9280    -2.2330    -1.3800 H     1 <1>   0.0800 
 48 H       -4.8760    -0.9950    -2.0120 H     1 <1>   0.0800 
 49 H       -6.4720    -3.4300     2.1840 H     1 <1>   0.0800 
 50 H       -4.8620    -2.9340     2.5810 H     1 <1>   0.0800 
 51 H       -7.4040    -0.5870    -0.8240 H     1 <1>   0.4000 
 52 H       -0.1840     8.1280     0.6700 H     1 <1>   0.1500 
 53 H        2.2330     7.8260     0.9560 H     1 <1>   0.0800 
 54 H        2.9540     6.2440     0.8320 H     1 <1>   0.0800 
 55 H        2.0860     6.6950     2.2820 H     1 <1>   0.0800 
 56 H       -2.2880     8.5370    -0.4800 H     1 <1>   0.0800 
 57 H       -3.2860     7.4760     0.4890 H     1 <1>   0.0800 
 58 H       -3.1580     7.2310    -1.2390 H     1 <1>   0.0800 
@<TRIPOS>BOND
  1   1   2  2   
  2   2   3  am  
  3   2   4  1   
  4   3   5  1   
  5   3   6  1   
  6   4   7  1   
  7   4  26  1   
  8   4  27  1   
  9   5   8  1   
 10   5  28  1   
 11   5  29  1   
 12   6   9  1   
 13   6  30  1   
 14   6  31  1   
 15   7  10  1   
 16   7  32  1   
 17   7  33  1   
 18   8  11  1   
 19   8  12  1   
 20   8  34  1   
 21   9  12  1   
 22   9  35  1   
 23   9  36  1   
 24  10  13  ar  
 25  10  14  ar  
 26  11  15  1   
 27  11  16  1   
 28  11  37  1   
 29  12  17  1   
 30  12  18  1   
 31  13  19  ar  
 32  13  38  1   
 33  14  20  ar  
 34  14  39  1   
 35  15  21  1   
 36  15  40  1   
 37  15  41  1   
 38  16  42  1   
 39  16  43  1   
 40  16  44  1   
 41  17  21  1   
 42  17  45  1   
 43  17  46  1   
 44  18  22  1   
 45  18  47  1   
 46  18  48  1   
 47  19  23  ar  
 48  19  24  1   
 49  20  23  ar  
 50  20  25  1   
 51  21  49  1   
 52  21  50  1   
 53  22  51  1   
 54  23  52  1   
 55  24  53  1   
 56  24  54  1   
 57  24  55  1   
 58  25  56  1   
 59  25  57  1   
 60  25  58  1   
@<TRIPOS>SUBSTRUCTURE
  1 ****   6 GROUP 4 **** **** 0

# MOE 2024.06 (io_trps.svl 2023.06)
