@<TRIPOS>MOLECULE
NONAME
48 50 1 0 0 
SMALL
USER_CHARGES


@<TRIPOS>ATOM
  1 O        2.4440    -1.6680     0.7040 O.3   1 <1>  -0.5600 
  2 C        1.3200    -1.7080     1.5310 C.3   1 <1>   0.1200 
  3 C        2.1910    -1.3570    -0.6260 C.3   1 <1>   0.1200 
  4 C        0.5470    -3.0250     1.3500 C.3   1 <1>   0.1900 
  5 C        1.5420    -2.5420    -1.3590 C.3   1 <1>  -0.0800 
  6 N       -0.4260    -2.9420     0.2140 N.3   1 <1>  -0.8100 
  7 C        1.5410    -4.2110     1.2420 C.3   1 <1>   0.3430 
  8 C        0.0160    -2.6030    -1.1550 C.3   1 <1>   0.1100 
  9 C        2.2920    -3.8670    -1.1100 C.3   1 <1>   0.3430 
 10 C       -1.7120    -3.6540     0.3440 C.3   1 <1>   0.2540 
 11 N        1.6060    -4.7740    -0.1430 N.4   1 <1>  -0.9590 
 12 C       -1.4840    -5.1420     0.1680 C.ar  1 <1>  -0.1440 
 13 C        2.1620    -6.1550    -0.1530 C.3   1 <1>   0.2630 
 14 C       -1.4870    -5.7340    -1.0730 C.ar  1 <1>   0.1600 
 15 C       -1.2310    -5.9590     1.2450 C.ar  1 <1>   0.1600 
 16 N       -1.2100    -7.0060    -1.2390 N.ar  1 <1>  -0.6200 
 17 N       -0.9480    -7.2330     1.1040 N.ar  1 <1>  -0.6200 
 18 C       -0.9790    -7.7050    -0.1360 C.ar  1 <1>   0.4770 
 19 C       -0.7150    -9.2060    -0.3280 C.3   1 <1>   0.0630 
 20 C       -1.6930   -10.0690     0.4860 C.3   1 <1>  -0.2400 
 21 C        0.7350    -9.5850     0.0180 C.3   1 <1>  -0.2400 
 22 H        1.6840    -1.6470     2.5420 H     1 <1>   0.0800 
 23 H        0.6930    -0.8510     1.3480 H     1 <1>   0.0800 
 24 H        1.5800    -0.4710    -0.6750 H     1 <1>   0.0800 
 25 H        3.1430    -1.1300    -1.0750 H     1 <1>   0.0800 
 26 H       -0.0190    -3.1540     2.2560 H     1 <1>   0.0800 
 27 H        1.6820    -2.3200    -2.4020 H     1 <1>   0.0800 
 28 H        1.2130    -4.9810     1.9190 H     1 <1>   0.0800 
 29 H        2.5200    -3.8950     1.5620 H     1 <1>   0.0800 
 30 H       -0.3890    -3.3160    -1.8510 H     1 <1>   0.0800 
 31 H       -0.4070    -1.6450    -1.4120 H     1 <1>   0.0800 
 32 H        3.2900    -3.6500    -0.7620 H     1 <1>   0.0800 
 33 H        2.3790    -4.3810    -2.0530 H     1 <1>   0.0800 
 34 H       -2.1410    -3.4540     1.3120 H     1 <1>   0.0800 
 35 H       -2.4050    -3.2920    -0.3980 H     1 <1>   0.0800 
 36 H        0.6130    -4.8120    -0.4280 H     1 <1>   0.4500 
 37 H        3.1940    -6.1470     0.1570 H     1 <1>   0.0800 
 38 H        2.0960    -6.5760    -1.1430 H     1 <1>   0.0800 
 39 H        1.6010    -6.7850     0.5200 H     1 <1>   0.0800 
 40 H       -1.7130    -5.1560    -1.9540 H     1 <1>   0.1500 
 41 H       -1.2460    -5.5610     2.2460 H     1 <1>   0.1500 
 42 H       -0.8740    -9.4380    -1.3670 H     1 <1>   0.0800 
 43 H       -1.5540    -9.9080     1.5410 H     1 <1>   0.0800 
 44 H       -1.5420   -11.1130     0.2730 H     1 <1>   0.0800 
 45 H       -2.7060    -9.8120     0.2330 H     1 <1>   0.0800 
 46 H        0.9440    -9.3650     1.0510 H     1 <1>   0.0800 
 47 H        1.4180    -9.0380    -0.6050 H     1 <1>   0.0800 
 48 H        0.8930   -10.6360    -0.1480 H     1 <1>   0.0800 
@<TRIPOS>BOND
  1   1   2  1   
  2   1   3  1   
  3   2   4  1   
  4   2  22  1   
  5   2  23  1   
  6   3   5  1   
  7   3  24  1   
  8   3  25  1   
  9   4   6  1   
 10   4   7  1   
 11   4  26  1   
 12   5   8  1   
 13   5   9  1   
 14   5  27  1   
 15   6   8  1   
 16   6  10  1   
 17   7  11  1   
 18   7  28  1   
 19   7  29  1   
 20   8  30  1   
 21   8  31  1   
 22   9  11  1   
 23   9  32  1   
 24   9  33  1   
 25  10  12  1   
 26  10  34  1   
 27  10  35  1   
 28  11  13  1   
 29  11  36  1   
 30  12  14  ar  
 31  12  15  ar  
 32  13  37  1   
 33  13  38  1   
 34  13  39  1   
 35  14  16  ar  
 36  14  40  1   
 37  15  17  ar  
 38  15  41  1   
 39  16  18  ar  
 40  17  18  ar  
 41  18  19  1   
 42  19  20  1   
 43  19  21  1   
 44  19  42  1   
 45  20  43  1   
 46  20  44  1   
 47  20  45  1   
 48  21  46  1   
 49  21  47  1   
 50  21  48  1   
@<TRIPOS>SUBSTRUCTURE
  1 ****  11 GROUP 4 **** **** 0

# MOE 2024.06 (io_trps.svl 2023.06)
