@<TRIPOS>MOLECULE
NONAME
39 41 1 0 0 
SMALL
USER_CHARGES


@<TRIPOS>ATOM
  1 O       -2.7840     2.1370    -0.6770 O.2   1 <1>  -0.5700 
  2 C       -2.2490     1.6520     0.2920 C.2   1 <1>   0.5690 
  3 N       -2.1270     0.3080     0.4420 N.am  1 <1>  -0.7300 
  4 C       -1.6860     2.5770     1.3430 C.3   1 <1>   0.1570 
  5 C       -2.5490    -0.7000    -0.5570 C.3   1 <1>   0.2200 
  6 N       -0.3080     2.8940     0.9760 N.pl3 1 <1>   0.3140 
  7 C       -3.7160    -1.5000    -0.0010 C.3   1 <1>  -0.0800 
  8 C       -1.4710    -1.7700    -0.6720 C.3   1 <1>   0.1200 
  9 N        0.7460     2.4950     1.6660 N.2   1 <1>  -0.4180 
 10 C        0.1270     3.5760    -0.0800 C.2   1 <1>   0.2700 
 11 C       -3.0120    -2.5840     0.8290 C.3   1 <1>   0.1200 
 12 C       -4.5780    -2.0990    -1.1290 C.3   1 <1>  -0.0170 
 13 O       -1.6760    -2.6200     0.4140 O.3   1 <1>  -0.5600 
 14 N        1.7690     2.9400     1.0330 N.2   1 <1>   0.0000 
 15 N        1.4070     3.6170    -0.0580 N.2   1 <1>  -0.3380 
 16 N       -0.6520     4.1480    -1.0740 N.pl3 1 <1>  -0.8840 
 17 C       -5.7540    -2.8890    -0.5750 C.ar  1 <1>  -0.1440 
 18 C       -6.8600    -2.2620    -0.0370 C.ar  1 <1>  -0.1500 
 19 C       -5.7810    -4.2690    -0.5840 C.ar  1 <1>  -0.1500 
 20 C       -7.9060    -3.0240     0.4580 C.ar  1 <1>   0.1600 
 21 C       -6.8770    -4.9360    -0.0630 C.ar  1 <1>   0.1600 
 22 N       -7.9400    -4.3460     0.4600 N.ar  1 <1>  -0.6200 
 23 H       -1.6130    -0.1010     1.2300 H     1 <1>   0.3700 
 24 H       -1.7020     2.1080     2.3070 H     1 <1>   0.0800 
 25 H       -2.2560     3.4860     1.3730 H     1 <1>   0.0800 
 26 H       -2.7630    -0.2320    -1.5040 H     1 <1>   0.0800 
 27 H       -4.3440    -0.8880     0.6220 H     1 <1>   0.0800 
 28 H       -0.4740    -1.3650    -0.6330 H     1 <1>   0.0800 
 29 H       -1.5950    -2.3480    -1.5710 H     1 <1>   0.0800 
 30 H       -3.4410    -3.5610     0.6960 H     1 <1>   0.0800 
 31 H       -3.0200    -2.3320     1.8750 H     1 <1>   0.0800 
 32 H       -3.9810    -2.7360    -1.7580 H     1 <1>   0.0800 
 33 H       -4.9600    -1.3030    -1.7460 H     1 <1>   0.0800 
 34 H       -1.4990     3.6250    -1.3480 H     1 <1>   0.4000 
 35 H       -0.1150     4.4550    -1.8900 H     1 <1>   0.4000 
 36 H       -6.9200    -1.1900     0.0020 H     1 <1>   0.1500 
 37 H       -4.9620    -4.8350    -0.9890 H     1 <1>   0.1500 
 38 H       -8.7600    -2.5180     0.8740 H     1 <1>   0.1500 
 39 H       -6.8790    -6.0130    -0.0770 H     1 <1>   0.1500 
@<TRIPOS>BOND
  1   1   2  2   
  2   2   3  am  
  3   2   4  1   
  4   3   5  1   
  5   3  23  1   
  6   4   6  1   
  7   4  24  1   
  8   4  25  1   
  9   5   7  1   
 10   5   8  1   
 11   5  26  1   
 12   6   9  1   
 13   6  10  1   
 14   7  11  1   
 15   7  12  1   
 16   7  27  1   
 17   8  13  1   
 18   8  28  1   
 19   8  29  1   
 20   9  14  2   
 21  10  15  2   
 22  10  16  1   
 23  11  13  1   
 24  11  30  1   
 25  11  31  1   
 26  12  17  1   
 27  12  32  1   
 28  12  33  1   
 29  14  15  1   
 30  16  34  1   
 31  16  35  1   
 32  17  18  ar  
 33  17  19  ar  
 34  18  20  ar  
 35  18  36  1   
 36  19  21  ar  
 37  19  37  1   
 38  20  22  ar  
 39  20  38  1   
 40  21  22  ar  
 41  21  39  1   
@<TRIPOS>SUBSTRUCTURE
  1 ****   5 GROUP 4 **** **** 0

# MOE 2024.06 (io_trps.svl 2023.06)
