@<TRIPOS>MOLECULE
NONAME
52 55 1 0 0 
SMALL
USER_CHARGES


@<TRIPOS>ATOM
  1 CL       5.2220     0.0540     0.6810 Cl    1 <1>  -0.1770 
  2 C        4.1330     1.3670     0.3150 C.ar  1 <1>   0.1770 
  3 C        3.0560     1.1580    -0.5310 C.ar  1 <1>   0.1600 
  4 C        4.3540     2.6070     0.8670 C.ar  1 <1>  -0.1500 
  5 N        2.1820     2.1010    -0.8600 N.ar  1 <1>  -0.6200 
  6 C        3.4610     3.6160     0.5340 C.ar  1 <1>   0.0860 
  7 C        2.4020     3.2890    -0.3120 C.ar  1 <1>   0.1600 
  8 C        3.6110     4.9590     1.0430 C.2   1 <1>   0.5440 
  9 O        3.5340     5.1370     2.2420 O.2   1 <1>  -0.5700 
 10 N        3.8640     6.0300     0.2080 N.am  1 <1>  -0.6600 
 11 C        4.3350     5.8590    -1.2020 C.3   1 <1>   0.1400 
 12 C        3.9100     7.4270     0.7330 C.3   1 <1>   0.1400 
 13 C        5.8250     5.4920    -1.2500 C.3   1 <1>   0.1400 
 14 C        5.2790     8.1000     0.5450 C.3   1 <1>  -0.1600 
 15 N        6.7140     6.6180    -0.8230 N.am  1 <1>  -0.6600 
 16 C        6.4770     7.1440     0.5530 C.3   1 <1>   0.1400 
 17 C        7.7290     7.0550    -1.6460 C.2   1 <1>   0.6300 
 18 O        7.8810     6.5880    -2.7530 O.2   1 <1>  -0.5700 
 19 C        8.7120     8.1530    -1.2040 C.3   1 <1>   0.0320 
 20 C        9.8440     7.6080    -0.3370 C.ar  1 <1>  -0.0320 
 21 C        9.1210     9.1930    -2.2120 C.3   1 <1>  -0.2000 
 22 C        8.2430     9.5790    -1.0690 C.3   1 <1>  -0.2000 
 23 C       10.0350     8.0310     0.9710 C.ar  1 <1>  -0.1500 
 24 C       10.7060     6.6610    -0.8670 C.ar  1 <1>  -0.1500 
 25 C       11.0690     7.5140     1.7330 C.ar  1 <1>  -0.1500 
 26 C       11.7390     6.1430    -0.1060 C.ar  1 <1>  -0.1500 
 27 C       11.9270     6.5670     1.1980 C.ar  1 <1>  -0.1430 
 28 C       13.0590     5.9980     2.0340 C.3   1 <1>  -0.0970 
 29 H        2.9120     0.1770    -0.9480 H     1 <1>   0.1500 
 30 H        5.1810     2.7880     1.5300 H     1 <1>   0.1500 
 31 H        1.6960     4.0690    -0.5500 H     1 <1>   0.1500 
 32 H        4.1720     6.7650    -1.7610 H     1 <1>   0.0800 
 33 H        3.7700     5.0830    -1.6850 H     1 <1>   0.0800 
 34 H        3.6740     7.4290     1.7840 H     1 <1>   0.0800 
 35 H        3.1520     8.0120     0.2420 H     1 <1>   0.0800 
 36 H        6.0600     5.1990    -2.2590 H     1 <1>   0.0800 
 37 H        6.0120     4.6380    -0.6230 H     1 <1>   0.0800 
 38 H        5.4000     8.8050     1.3480 H     1 <1>   0.0800 
 39 H        5.2770     8.6690    -0.3670 H     1 <1>   0.0800 
 40 H        6.3100     6.3290     1.2380 H     1 <1>   0.0800 
 41 H        7.3440     7.6730     0.9000 H     1 <1>   0.0800 
 42 H        8.7010     9.1360    -3.2020 H     1 <1>   0.1000 
 43 H       10.1450     9.5210    -2.2190 H     1 <1>   0.1000 
 44 H        8.6630    10.2160    -0.3120 H     1 <1>   0.1000 
 45 H        7.2170     9.8160    -1.2850 H     1 <1>   0.1000 
 46 H        9.3830     8.7650     1.4050 H     1 <1>   0.1500 
 47 H       10.5690     6.3250    -1.8810 H     1 <1>   0.1500 
 48 H       11.2020     7.8510     2.7460 H     1 <1>   0.1500 
 49 H       12.3950     5.4070    -0.5370 H     1 <1>   0.1500 
 50 H       13.3970     6.7220     2.7530 H     1 <1>   0.0800 
 51 H       13.8900     5.7300     1.4070 H     1 <1>   0.0800 
 52 H       12.7200     5.1210     2.5550 H     1 <1>   0.0800 
@<TRIPOS>BOND
  1   1   2  1   
  2   2   3  ar  
  3   2   4  ar  
  4   3   5  ar  
  5   3  29  1   
  6   4   6  ar  
  7   4  30  1   
  8   5   7  ar  
  9   6   7  ar  
 10   6   8  1   
 11   7  31  1   
 12   8   9  2   
 13   8  10  am  
 14  10  11  1   
 15  10  12  1   
 16  11  13  1   
 17  11  32  1   
 18  11  33  1   
 19  12  14  1   
 20  12  34  1   
 21  12  35  1   
 22  13  15  1   
 23  13  36  1   
 24  13  37  1   
 25  14  16  1   
 26  14  38  1   
 27  14  39  1   
 28  15  16  1   
 29  15  17  am  
 30  16  40  1   
 31  16  41  1   
 32  17  18  2   
 33  17  19  1   
 34  19  20  1   
 35  19  21  1   
 36  19  22  1   
 37  20  23  ar  
 38  20  24  ar  
 39  21  22  1   
 40  21  42  1   
 41  21  43  1   
 42  22  44  1   
 43  22  45  1   
 44  23  25  ar  
 45  23  46  1   
 46  24  26  ar  
 47  24  47  1   
 48  25  27  ar  
 49  25  48  1   
 50  26  27  ar  
 51  26  49  1   
 52  27  28  1   
 53  28  50  1   
 54  28  51  1   
 55  28  52  1   
@<TRIPOS>SUBSTRUCTURE
  1 ****  15 GROUP 4 **** **** 0

# MOE 2024.06 (io_trps.svl 2023.06)
