@<TRIPOS>MOLECULE
NONAME
50 52 1 0 0 
SMALL
USER_CHARGES


@<TRIPOS>ATOM
  1 CL      -1.7710    -0.0460    -1.9800 Cl    1 <1>  -0.1770 
  2 C       -2.5150     0.8120    -0.6510 C.ar  1 <1>   0.1770 
  3 C       -3.2140     0.1120     0.3220 C.ar  1 <1>  -0.1440 
  4 C       -2.3980     2.1890    -0.6080 C.ar  1 <1>  -0.1500 
  5 C       -3.7880     0.8230     1.3680 C.ar  1 <1>  -0.1500 
  6 C       -3.3380    -1.3980     0.2530 C.3   1 <1>   0.4870 
  7 C       -2.9840     2.8870     0.4330 C.ar  1 <1>  -0.1500 
  8 C       -3.6750     2.2030     1.4190 C.ar  1 <1>  -0.1500 
  9 N       -4.0810    -1.8420    -0.9740 N.4   1 <1>  -0.9590 
 10 C       -5.5430    -1.5440    -1.0860 C.3   1 <1>   0.4230 
 11 C       -3.8410    -3.3000    -1.1910 C.3   1 <1>   0.2630 
 12 C       -5.8460    -0.1510    -1.6330 C.3   1 <1>  -0.1600 
 13 C       -6.3520    -1.6400     0.2090 C.3   1 <1>  -0.1600 
 14 C       -7.3070     0.1080    -1.2390 C.3   1 <1>  -0.0800 
 15 C       -7.6350    -0.8470    -0.0860 C.3   1 <1>  -0.0800 
 16 C       -7.6050     1.5200    -0.7110 C.3   1 <1>  -0.1600 
 17 C       -8.1470     0.0410     1.0610 C.3   1 <1>  -0.1600 
 18 C       -8.6420     1.3350     0.4030 C.3   1 <1>   0.4230 
 19 N      -10.0200     1.1600    -0.1630 N.4   1 <1>  -0.9590 
 20 C      -10.4850     2.3620    -0.9300 C.3   1 <1>   0.2630 
 21 C      -11.0440     0.8610     0.8920 C.3   1 <1>   0.2630 
 22 H       -1.8520     2.7080    -1.3760 H     1 <1>   0.1500 
 23 H       -4.3200     0.3190     2.1580 H     1 <1>   0.1500 
 24 H       -3.8260    -1.7690     1.1380 H     1 <1>   0.0800 
 25 H       -2.3420    -1.8100     0.2340 H     1 <1>   0.0800 
 26 H       -2.8950     3.9600     0.4800 H     1 <1>   0.1500 
 27 H       -4.1160     2.7520     2.2350 H     1 <1>   0.1500 
 28 H       -3.6230    -1.3400    -1.7520 H     1 <1>   0.4500 
 29 H       -5.9790    -2.2410    -1.7850 H     1 <1>   0.0800 
 30 H       -4.2870    -3.8780    -0.3980 H     1 <1>   0.0800 
 31 H       -2.7830    -3.5070    -1.2170 H     1 <1>   0.0800 
 32 H       -4.2700    -3.6150    -2.1290 H     1 <1>   0.0800 
 33 H       -5.2150     0.5900    -1.1880 H     1 <1>   0.0800 
 34 H       -5.7250    -0.1190    -2.7020 H     1 <1>   0.0800 
 35 H       -6.5780    -2.6620     0.4570 H     1 <1>   0.0800 
 36 H       -5.8310    -1.1820     1.0260 H     1 <1>   0.0800 
 37 H       -7.9540    -0.1160    -2.0730 H     1 <1>   0.0800 
 38 H       -8.4130    -1.5220    -0.4050 H     1 <1>   0.0800 
 39 H       -7.8970     2.1970    -1.4920 H     1 <1>   0.0800 
 40 H       -6.7210     1.9300    -0.2520 H     1 <1>   0.0800 
 41 H       -7.3280     0.3120     1.7050 H     1 <1>   0.0800 
 42 H       -8.8750    -0.4600     1.6720 H     1 <1>   0.0800 
 43 H       -8.6270     2.1610     1.0970 H     1 <1>   0.0800 
 44 H       -9.9800     0.3610    -0.8100 H     1 <1>   0.4500 
 45 H      -10.4650     3.2390    -0.3030 H     1 <1>   0.0800 
 46 H      -11.4940     2.2140    -1.2800 H     1 <1>   0.0800 
 47 H       -9.8580     2.5370    -1.7880 H     1 <1>   0.0800 
 48 H      -11.0590     1.6450     1.6320 H     1 <1>   0.0800 
 49 H      -10.8290    -0.0730     1.3830 H     1 <1>   0.0800 
 50 H      -12.0240     0.7880     0.4500 H     1 <1>   0.0800 
@<TRIPOS>BOND
  1   1   2  1   
  2   2   3  ar  
  3   2   4  ar  
  4   3   5  ar  
  5   3   6  1   
  6   4   7  ar  
  7   4  22  1   
  8   5   8  ar  
  9   5  23  1   
 10   6   9  1   
 11   6  24  1   
 12   6  25  1   
 13   7   8  ar  
 14   7  26  1   
 15   8  27  1   
 16   9  10  1   
 17   9  11  1   
 18   9  28  1   
 19  10  12  1   
 20  10  13  1   
 21  10  29  1   
 22  11  30  1   
 23  11  31  1   
 24  11  32  1   
 25  12  14  1   
 26  12  33  1   
 27  12  34  1   
 28  13  15  1   
 29  13  35  1   
 30  13  36  1   
 31  14  15  1   
 32  14  16  1   
 33  14  37  1   
 34  15  17  1   
 35  15  38  1   
 36  16  18  1   
 37  16  39  1   
 38  16  40  1   
 39  17  18  1   
 40  17  41  1   
 41  17  42  1   
 42  18  19  1   
 43  18  43  1   
 44  19  20  1   
 45  19  21  1   
 46  19  44  1   
 47  20  45  1   
 48  20  46  1   
 49  20  47  1   
 50  21  48  1   
 51  21  49  1   
 52  21  50  1   
@<TRIPOS>SUBSTRUCTURE
  1 ****  12 GROUP 4 **** **** 0

# MOE 2024.06 (io_trps.svl 2023.06)
