@<TRIPOS>MOLECULE
NONAME
49 51 1 0 0 
SMALL
USER_CHARGES


@<TRIPOS>ATOM
  1 S        0.2090     0.6640    -0.2590 S.3   1 <1>  -0.0800 
  2 C        1.4520    -0.4720    -0.7690 C.2   1 <1>   0.4620 
  3 C       -0.6760    -0.6500     0.4540 C.2   1 <1>  -0.1100 
  4 N        1.2000    -1.6800    -0.4220 N.2   1 <1>  -0.5650 
  5 N        2.5590    -0.0210    -1.4650 N.pl3 1 <1>  -0.8220 
  6 C       -0.0020    -1.8040     0.2690 C.2   1 <1>   0.1730 
  7 C        2.8620     1.4160    -1.6700 C.3   1 <1>   0.2090 
  8 C        3.4310    -0.9990    -2.1820 C.3   1 <1>   0.1290 
  9 C       -0.4230    -3.1200     0.7210 C.ar  1 <1>   0.0540 
 10 C        3.4540     2.0080    -0.3810 C.3   1 <1>  -0.0800 
 11 C        0.5080    -4.1330     0.9680 C.ar  1 <1>  -0.1500 
 12 C       -1.7750    -3.4120     0.9260 C.ar  1 <1>  -0.1500 
 13 C        3.7960     3.4900    -0.5090 C.3   1 <1>   0.3430 
 14 C        4.7500     1.3410     0.0800 C.3   1 <1>  -0.1600 
 15 C        0.1160    -5.3860     1.4060 C.ar  1 <1>  -0.1500 
 16 C       -2.1870    -4.6590     1.3650 C.ar  1 <1>  -0.1500 
 17 N        5.1400     3.6720     0.1290 N.4   1 <1>  -0.9590 
 18 C        5.4450     2.4240     0.8780 C.3   1 <1>   0.3430 
 19 C       -1.2300    -5.6260     1.5990 C.ar  1 <1>   0.1900 
 20 C        5.2280     4.8770     1.0160 C.3   1 <1>   0.3430 
 21 F       -1.6100    -6.8040     2.0130 F     1 <1>  -0.1900 
 22 C        5.1030     6.1960     0.2440 C.3   1 <1>   0.1200 
 23 O        5.1640     7.2190     1.1770 O.3   1 <1>  -0.5600 
 24 C        5.0930     8.5020     0.6350 C.3   1 <1>   0.0400 
 25 H       -1.6060    -0.4240     0.9400 H     1 <1>   0.1500 
 26 H        1.9600     1.9380    -1.9450 H     1 <1>   0.0800 
 27 H        3.5600     1.5240    -2.4840 H     1 <1>   0.0800 
 28 H        3.0410    -1.9990    -2.0940 H     1 <1>   0.0800 
 29 H        4.4220    -0.9840    -1.7650 H     1 <1>   0.0800 
 30 H        3.4790    -0.7510    -3.2280 H     1 <1>   0.0800 
 31 H        2.7230     1.9200     0.4030 H     1 <1>   0.0800 
 32 H        1.5540    -3.9320     0.8130 H     1 <1>   0.1500 
 33 H       -2.5170    -2.6580     0.7350 H     1 <1>   0.1500 
 34 H        3.0470     4.0780    -0.0030 H     1 <1>   0.0800 
 35 H        3.8350     3.7850    -1.5450 H     1 <1>   0.0800 
 36 H        5.3640     1.0650    -0.7590 H     1 <1>   0.0800 
 37 H        4.5590     0.4630     0.6750 H     1 <1>   0.0800 
 38 H        0.8360    -6.1620     1.5950 H     1 <1>   0.1500 
 39 H       -3.2260    -4.8820     1.5220 H     1 <1>   0.1500 
 40 H        5.8440     3.7530    -0.6170 H     1 <1>   0.4500 
 41 H        6.5060     2.2490     0.9570 H     1 <1>   0.0800 
 42 H        5.0130     2.4710     1.8660 H     1 <1>   0.0800 
 43 H        6.1760     4.8780     1.5280 H     1 <1>   0.0800 
 44 H        4.4460     4.8380     1.7570 H     1 <1>   0.0800 
 45 H        4.1580     6.2630    -0.2660 H     1 <1>   0.0800 
 46 H        5.9210     6.3150    -0.4460 H     1 <1>   0.0800 
 47 H        5.1460     9.2110     1.4430 H     1 <1>   0.0800 
 48 H        4.1580     8.6210     0.1140 H     1 <1>   0.0800 
 49 H        5.9230     8.6580    -0.0330 H     1 <1>   0.0800 
@<TRIPOS>BOND
  1   1   2  1   
  2   1   3  1   
  3   2   4  2   
  4   2   5  1   
  5   3   6  2   
  6   3  25  1   
  7   4   6  1   
  8   5   7  1   
  9   5   8  1   
 10   6   9  1   
 11   7  10  1   
 12   7  26  1   
 13   7  27  1   
 14   8  28  1   
 15   8  29  1   
 16   8  30  1   
 17   9  11  ar  
 18   9  12  ar  
 19  10  13  1   
 20  10  14  1   
 21  10  31  1   
 22  11  15  ar  
 23  11  32  1   
 24  12  16  ar  
 25  12  33  1   
 26  13  17  1   
 27  13  34  1   
 28  13  35  1   
 29  14  18  1   
 30  14  36  1   
 31  14  37  1   
 32  15  19  ar  
 33  15  38  1   
 34  16  19  ar  
 35  16  39  1   
 36  17  18  1   
 37  17  20  1   
 38  17  40  1   
 39  18  41  1   
 40  18  42  1   
 41  19  21  1   
 42  20  22  1   
 43  20  43  1   
 44  20  44  1   
 45  22  23  1   
 46  22  45  1   
 47  22  46  1   
 48  23  24  1   
 49  24  47  1   
 50  24  48  1   
 51  24  49  1   
@<TRIPOS>SUBSTRUCTURE
  1 ****   2 GROUP 4 **** **** 0

# MOE 2024.06 (io_trps.svl 2023.06)
