@<TRIPOS>MOLECULE
NONAME
45 46 1 0 0 
SMALL
USER_CHARGES


@<TRIPOS>ATOM
  1 O       -0.5740     0.4570    -1.3470 O.2   1 <1>  -0.5700 
  2 C        0.2820    -0.0850    -0.6810 C.2   1 <1>   0.5690 
  3 N        1.2740     0.6030    -0.0350 N.am  1 <1>  -0.4940 
  4 C        0.2870    -1.6330    -0.5360 C.3   1 <1>   0.3410 
  5 C        1.6490     1.9680     0.0240 C.2   1 <1>  -0.0880 
  6 O        1.4200    -1.9950     0.2400 O.3   1 <1>  -0.5600 
  7 C       -0.9900    -2.0930     0.1890 C.3   1 <1>  -0.2400 
  8 C        0.3980    -2.2910    -1.9230 C.3   1 <1>  -0.2400 
  9 N        0.8540     3.0670    -0.0970 N.pl3 1 <1>   0.3140 
 10 C        2.8990     2.4340     0.2440 C.2   1 <1>  -0.1810 
 11 C        1.6710    -3.3340     0.5440 C.3   1 <1>   0.1200 
 12 N        1.5590     4.2070     0.0420 N.2   1 <1>  -0.7070 
 13 C       -0.6040     3.1360    -0.2570 C.3   1 <1>   0.0160 
 14 C        2.7960     3.8310     0.2330 C.2   1 <1>   0.2350 
 15 C        4.1690     1.6310     0.4740 C.3   1 <1>  -0.0590 
 16 C        2.9510    -3.3720     1.3680 C.3   1 <1>  -0.2400 
 17 C        3.8860     4.7630     0.4250 C.ar  1 <1>   0.0540 
 18 C        5.0420     4.7090    -0.3520 C.ar  1 <1>  -0.1500 
 19 C        3.8090     5.7520     1.4020 C.ar  1 <1>  -0.1500 
 20 C        6.0870     5.5930    -0.1480 C.ar  1 <1>  -0.1500 
 21 C        4.8490     6.6400     1.6120 C.ar  1 <1>  -0.1500 
 22 C        5.9930     6.5590     0.8380 C.ar  1 <1>  -0.1500 
 23 H        1.9220    -0.0480     0.4210 H     1 <1>   0.3700 
 24 H       -1.0010    -1.7130     1.1940 H     1 <1>   0.0800 
 25 H       -1.0760    -3.1630     0.2020 H     1 <1>   0.0800 
 26 H       -1.8530    -1.7060    -0.3240 H     1 <1>   0.0800 
 27 H        1.3410    -2.0410    -2.3750 H     1 <1>   0.0800 
 28 H       -0.3850    -1.9200    -2.5610 H     1 <1>   0.0800 
 29 H        0.2900    -3.3580    -1.8680 H     1 <1>   0.0800 
 30 H        1.8020    -3.8950    -0.3650 H     1 <1>   0.0800 
 31 H        0.8530    -3.7350     1.1160 H     1 <1>   0.0800 
 32 H       -1.0650     2.3750     0.3430 H     1 <1>   0.0800 
 33 H       -0.8490     2.9880    -1.2910 H     1 <1>   0.0800 
 34 H       -0.9500     4.1020     0.0600 H     1 <1>   0.0800 
 35 H        3.9380     0.6080     0.7080 H     1 <1>   0.0800 
 36 H        4.7250     2.0510     1.2930 H     1 <1>   0.0800 
 37 H        4.7800     1.6510    -0.4100 H     1 <1>   0.0800 
 38 H        3.7690    -2.9670     0.8010 H     1 <1>   0.0800 
 39 H        3.1850    -4.3890     1.6290 H     1 <1>   0.0800 
 40 H        2.8250    -2.8070     2.2740 H     1 <1>   0.0800 
 41 H        5.1140     3.9690    -1.1280 H     1 <1>   0.1500 
 42 H        2.9140     5.8160     1.9960 H     1 <1>   0.1500 
 43 H        6.9720     5.5330    -0.7580 H     1 <1>   0.1500 
 44 H        4.7660     7.3940     2.3750 H     1 <1>   0.1500 
 45 H        6.8030     7.2490     0.9990 H     1 <1>   0.1500 
@<TRIPOS>BOND
  1   1   2  2   
  2   2   3  am  
  3   2   4  1   
  4   3   5  1   
  5   3  23  1   
  6   4   6  1   
  7   4   7  1   
  8   4   8  1   
  9   5   9  1   
 10   5  10  2   
 11   6  11  1   
 12   7  24  1   
 13   7  25  1   
 14   7  26  1   
 15   8  27  1   
 16   8  28  1   
 17   8  29  1   
 18   9  12  1   
 19   9  13  1   
 20  10  14  1   
 21  10  15  1   
 22  11  16  1   
 23  11  30  1   
 24  11  31  1   
 25  12  14  2   
 26  13  32  1   
 27  13  33  1   
 28  13  34  1   
 29  14  17  1   
 30  15  35  1   
 31  15  36  1   
 32  15  37  1   
 33  16  38  1   
 34  16  39  1   
 35  16  40  1   
 36  17  18  ar  
 37  17  19  ar  
 38  18  20  ar  
 39  18  41  1   
 40  19  21  ar  
 41  19  42  1   
 42  20  22  ar  
 43  20  43  1   
 44  21  22  ar  
 45  21  44  1   
 46  22  45  1   
@<TRIPOS>SUBSTRUCTURE
  1 ****   5 GROUP 4 **** **** 0

# MOE 2024.06 (io_trps.svl 2023.06)
