@<TRIPOS>MOLECULE
NONAME
56 58 1 0 0 
SMALL
USER_CHARGES


@<TRIPOS>ATOM
  1 O       -0.9170     0.0410    -1.5760 O.2   1 <1>  -0.5700 
  2 C       -1.2690     0.7680    -0.6740 C.2   1 <1>   0.5690 
  3 N       -2.5330     0.6310    -0.1350 N.am  1 <1>  -0.6600 
  4 C       -0.2250     1.8230    -0.1810 C.3   1 <1>   0.3410 
  5 C       -3.3600    -0.5740    -0.4690 C.3   1 <1>   0.1400 
  6 C       -3.2730     1.6690     0.6440 C.3   1 <1>   0.1400 
  7 O       -0.2300     1.9330     1.2160 O.3   1 <1>  -0.6800 
  8 C        1.2200     1.4250    -0.5530 C.3   1 <1>  -0.1600 
  9 C       -0.5160     3.2250    -0.7570 C.3   1 <1>  -0.1600 
 10 C       -4.5580    -0.2390    -1.3710 C.3   1 <1>   0.1400 
 11 C       -4.1420     2.4940    -0.3100 C.3   1 <1>  -0.1600 
 12 C        2.2820     2.4150    -0.0590 C.3   1 <1>   0.3430 
 13 C        0.7020     4.1560    -0.8080 C.3   1 <1>   0.3430 
 14 N       -5.6400     0.4440    -0.5950 N.am  1 <1>  -0.6600 
 15 C       -5.5580     1.9370    -0.5160 C.3   1 <1>   0.1400 
 16 N        1.6840     3.7530     0.2300 N.4   1 <1>  -0.9590 
 17 C       -6.7100    -0.2060    -0.0130 C.2   1 <1>   0.5690 
 18 C        2.7230     4.7930     0.4850 C.3   1 <1>   0.2630 
 19 O       -7.4780     0.3930     0.7050 O.2   1 <1>  -0.5700 
 20 C       -6.9790    -1.7020    -0.2570 C.3   1 <1>  -0.0190 
 21 C       -8.3960    -2.1770     0.0920 C.3   1 <1>  -0.1600 
 22 C       -6.0830    -2.6520     0.5500 C.3   1 <1>  -0.1600 
 23 C       -8.2750    -3.6950     0.1720 C.3   1 <1>  -0.1600 
 24 C       -6.8710    -3.9570     0.7210 C.3   1 <1>  -0.1600 
 25 H       -3.7100    -1.0250     0.4420 H     1 <1>   0.0800 
 26 H       -2.7550    -1.3080    -0.9710 H     1 <1>   0.0800 
 27 H       -2.5940     2.3250     1.1520 H     1 <1>   0.0800 
 28 H       -3.8850     1.2000     1.3970 H     1 <1>   0.0800 
 29 H       -0.5470     1.0850     1.5970 H     1 <1>   0.4000 
 30 H        1.2980     1.3620    -1.6240 H     1 <1>   0.0800 
 31 H        1.4420     0.4420    -0.1770 H     1 <1>   0.0800 
 32 H       -1.3030     3.6960    -0.1980 H     1 <1>   0.0800 
 33 H       -0.8760     3.1180    -1.7650 H     1 <1>   0.0800 
 34 H       -4.9260    -1.1500    -1.8010 H     1 <1>   0.0800 
 35 H       -4.2350     0.3820    -2.1890 H     1 <1>   0.0800 
 36 H       -3.6520     2.6050    -1.2600 H     1 <1>   0.0800 
 37 H       -4.2520     3.4820     0.0990 H     1 <1>   0.0800 
 38 H        3.0580     2.5040    -0.8020 H     1 <1>   0.0800 
 39 H        2.7260     2.0300     0.8450 H     1 <1>   0.0800 
 40 H        0.3830     5.1740    -0.6510 H     1 <1>   0.0800 
 41 H        1.1660     4.0940    -1.7800 H     1 <1>   0.0800 
 42 H       -5.9780     2.3540    -1.4160 H     1 <1>   0.0800 
 43 H       -6.1650     2.2850     0.3030 H     1 <1>   0.0800 
 44 H        1.1210     3.6010     1.0890 H     1 <1>   0.4500 
 45 H        3.3180     4.9540    -0.3990 H     1 <1>   0.0800 
 46 H        3.3730     4.4820     1.2880 H     1 <1>   0.0800 
 47 H        2.2580     5.7250     0.7640 H     1 <1>   0.0800 
 48 H       -6.8480    -1.9060    -1.3030 H     1 <1>   0.0800 
 49 H       -9.1190    -1.8620    -0.6400 H     1 <1>   0.0800 
 50 H       -8.6860    -1.7980     1.0580 H     1 <1>   0.0800 
 51 H       -5.8910    -2.2240     1.5200 H     1 <1>   0.0800 
 52 H       -5.1470    -2.8330     0.0530 H     1 <1>   0.0800 
 53 H       -8.3580    -4.1120    -0.8170 H     1 <1>   0.0800 
 54 H       -9.0390    -4.1230     0.7980 H     1 <1>   0.0800 
 55 H       -6.9230    -4.2150     1.7650 H     1 <1>   0.0800 
 56 H       -6.4050    -4.7680     0.1870 H     1 <1>   0.0800 
@<TRIPOS>BOND
  1   1   2  2   
  2   2   3  am  
  3   2   4  1   
  4   3   5  1   
  5   3   6  1   
  6   4   7  1   
  7   4   8  1   
  8   4   9  1   
  9   5  10  1   
 10   5  25  1   
 11   5  26  1   
 12   6  11  1   
 13   6  27  1   
 14   6  28  1   
 15   7  29  1   
 16   8  12  1   
 17   8  30  1   
 18   8  31  1   
 19   9  13  1   
 20   9  32  1   
 21   9  33  1   
 22  10  14  1   
 23  10  34  1   
 24  10  35  1   
 25  11  15  1   
 26  11  36  1   
 27  11  37  1   
 28  12  16  1   
 29  12  38  1   
 30  12  39  1   
 31  13  16  1   
 32  13  40  1   
 33  13  41  1   
 34  14  15  1   
 35  14  17  am  
 36  15  42  1   
 37  15  43  1   
 38  16  18  1   
 39  16  44  1   
 40  17  19  2   
 41  17  20  1   
 42  18  45  1   
 43  18  46  1   
 44  18  47  1   
 45  20  21  1   
 46  20  22  1   
 47  20  48  1   
 48  21  23  1   
 49  21  49  1   
 50  21  50  1   
 51  22  24  1   
 52  22  51  1   
 53  22  52  1   
 54  23  24  1   
 55  23  53  1   
 56  23  54  1   
 57  24  55  1   
 58  24  56  1   
@<TRIPOS>SUBSTRUCTURE
  1 ****   3 GROUP 4 **** **** 0

# MOE 2024.06 (io_trps.svl 2023.06)
