@<TRIPOS>MOLECULE
NONAME
50 53 1 0 0 
SMALL
USER_CHARGES


@<TRIPOS>ATOM
  1 S       -0.1060    -0.2060    -0.3070 S.3   1 <1>  -0.0800 
  2 C       -0.9160    -1.3190     0.7450 C.2   1 <1>   0.4420 
  3 C       -0.1440     0.9370     0.9930 C.2   1 <1>   0.1980 
  4 N       -1.1580    -0.8090     1.8970 N.2   1 <1>  -0.3380 
  5 N       -1.1850    -2.5670     0.2230 N.am  1 <1>  -0.4940 
  6 N       -0.7140     0.4780     2.0320 N.2   1 <1>  -0.3380 
  7 C        0.4780     2.3030     0.7730 C.3   1 <1>   0.1640 
  8 C       -1.8190    -3.6280     0.8080 C.2   1 <1>   0.5690 
  9 C        1.9420     2.1840     0.3740 C.ar  1 <1>  -0.1440 
 10 O       -2.2520    -3.6000     1.9300 O.2   1 <1>  -0.5700 
 11 C       -1.9750    -4.9030    -0.0160 C.3   1 <1>  -0.0190 
 12 C        2.3710     2.5820    -0.8840 C.ar  1 <1>  -0.1500 
 13 C        2.8610     1.6660     1.2730 C.ar  1 <1>  -0.1500 
 14 C       -3.4020    -5.0830    -0.5960 C.3   1 <1>   0.2800 
 15 C       -1.7710    -6.1630     0.8380 C.3   1 <1>  -0.0990 
 16 C        3.7040     2.4650    -1.2460 C.ar  1 <1>  -0.1430 
 17 C        4.1930     1.5480     0.9180 C.ar  1 <1>  -0.1500 
 18 O       -4.0280    -5.9810     0.2870 O.3   1 <1>  -0.4300 
 19 C       -3.3440    -5.7740    -1.9770 C.3   1 <1>  -0.1600 
 20 C       -4.2710    -3.8080    -0.6750 C.3   1 <1>  -0.1600 
 21 C       -3.1820    -6.6230     1.0640 C.2   1 <1>   0.6590 
 22 C        4.6130     1.9470    -0.3380 C.ar  1 <1>  -0.1500 
 23 C        4.1700     2.9020    -2.6220 C.3   1 <1>  -0.0970 
 24 C       -4.7350    -6.0320    -2.5780 C.3   1 <1>  -0.1600 
 25 C       -5.6570    -4.0670    -1.2880 C.3   1 <1>  -0.1600 
 26 O       -3.5000    -7.4990     1.8200 O.2   1 <1>  -0.5700 
 27 C       -5.5470    -4.7350    -2.6630 C.3   1 <1>  -0.1600 
 28 H       -0.8510    -2.6990    -0.7260 H     1 <1>   0.3700 
 29 H        0.4040     2.8720     1.6820 H     1 <1>   0.0800 
 30 H       -0.0790     2.8210     0.0140 H     1 <1>   0.0800 
 31 H       -1.2460    -4.8810    -0.8050 H     1 <1>   0.0800 
 32 H        1.6680     2.9870    -1.5900 H     1 <1>   0.1500 
 33 H        2.5440     1.3490     2.2530 H     1 <1>   0.1500 
 34 H       -1.2780    -5.9740     1.7750 H     1 <1>   0.0800 
 35 H       -1.2450    -6.9240     0.2940 H     1 <1>   0.0800 
 36 H        4.9030     1.1450     1.6190 H     1 <1>   0.1500 
 37 H       -2.8140    -6.7070    -1.9020 H     1 <1>   0.0800 
 38 H       -2.7970    -5.1460    -2.6580 H     1 <1>   0.0800 
 39 H       -3.7680    -3.0710    -1.2740 H     1 <1>   0.0800 
 40 H       -4.4090    -3.3930     0.3100 H     1 <1>   0.0800 
 41 H        5.6500     1.8530    -0.6060 H     1 <1>   0.1500 
 42 H        3.3560     2.8800    -3.3240 H     1 <1>   0.0800 
 43 H        4.9430     2.2460    -2.9800 H     1 <1>   0.0800 
 44 H        4.5590     3.9030    -2.5730 H     1 <1>   0.0800 
 45 H       -5.2640    -6.7430    -1.9650 H     1 <1>   0.0800 
 46 H       -4.6330    -6.4590    -3.5610 H     1 <1>   0.0800 
 47 H       -6.1920    -3.1370    -1.3790 H     1 <1>   0.0800 
 48 H       -6.2230    -4.7050    -0.6280 H     1 <1>   0.0800 
 49 H       -6.5340    -4.9540    -3.0340 H     1 <1>   0.0800 
 50 H       -5.0770    -4.0580    -3.3560 H     1 <1>   0.0800 
@<TRIPOS>BOND
  1   1   2  1   
  2   1   3  1   
  3   2   4  2   
  4   2   5  1   
  5   3   6  2   
  6   3   7  1   
  7   4   6  1   
  8   5   8  am  
  9   5  28  1   
 10   7   9  1   
 11   7  29  1   
 12   7  30  1   
 13   8  10  2   
 14   8  11  1   
 15   9  12  ar  
 16   9  13  ar  
 17  11  14  1   
 18  11  15  1   
 19  11  31  1   
 20  12  16  ar  
 21  12  32  1   
 22  13  17  ar  
 23  13  33  1   
 24  14  18  1   
 25  14  19  1   
 26  14  20  1   
 27  15  21  1   
 28  15  34  1   
 29  15  35  1   
 30  16  22  ar  
 31  16  23  1   
 32  17  22  ar  
 33  17  36  1   
 34  18  21  1   
 35  19  24  1   
 36  19  37  1   
 37  19  38  1   
 38  20  25  1   
 39  20  39  1   
 40  20  40  1   
 41  21  26  2   
 42  22  41  1   
 43  23  42  1   
 44  23  43  1   
 45  23  44  1   
 46  24  27  1   
 47  24  45  1   
 48  24  46  1   
 49  25  27  1   
 50  25  47  1   
 51  25  48  1   
 52  27  49  1   
 53  27  50  1   
@<TRIPOS>SUBSTRUCTURE
  1 ****   5 GROUP 4 **** **** 0

# MOE 2024.06 (io_trps.svl 2023.06)
