@<TRIPOS>MOLECULE
NONAME
46 48 1 0 0 
SMALL
USER_CHARGES


@<TRIPOS>ATOM
  1 F       -0.7170     0.7990     0.7380 F     1 <1>  -0.1900 
  2 C       -1.8190     0.9820     0.0590 C.ar  1 <1>   0.1900 
  3 C       -2.9500     0.2860     0.4310 C.ar  1 <1>  -0.1500 
  4 C       -1.8040     1.8680    -1.0020 C.ar  1 <1>  -0.1500 
  5 C       -4.1270     0.4750    -0.2860 C.ar  1 <1>   0.1000 
  6 C       -2.9760     2.0580    -1.7160 C.ar  1 <1>  -0.1500 
  7 N       -5.3030    -0.1940     0.0410 N.pl3 1 <1>  -0.8380 
  8 C       -4.1210     1.3660    -1.3570 C.ar  1 <1>  -0.1500 
  9 C       -6.3030     0.5550     0.8230 C.3   1 <1>   0.2090 
 10 C       -5.2480    -1.6420     0.3170 C.3   1 <1>   0.2090 
 11 C       -7.6810     0.0030     0.4730 C.3   1 <1>  -0.1600 
 12 C       -6.6060    -2.2390    -0.0390 C.3   1 <1>  -0.1600 
 13 C       -7.7510    -1.5190     0.6940 C.3   1 <1>   0.4230 
 14 N       -9.0570    -2.0650     0.2160 N.4   1 <1>  -0.9590 
 15 C       -9.2690    -3.5210     0.5190 C.3   1 <1>   0.3430 
 16 C      -10.2890    -1.2980     0.5840 C.3   1 <1>   0.3430 
 17 C      -10.3370    -4.0540    -0.4410 C.3   1 <1>   0.2000 
 18 C      -11.4770    -1.7870    -0.2480 C.3   1 <1>  -0.1600 
 19 O       -9.9120    -3.7630    -1.7310 O.3   1 <1>  -0.6800 
 20 C      -11.6590    -3.3210    -0.1890 C.3   1 <1>  -0.1860 
 21 C      -12.7100    -3.8030    -1.1610 C.2   1 <1>   0.9060 
 22 O      -13.7860    -4.1830    -0.7070 O.co2 1 <1>  -0.9000 
 23 O      -12.4280    -3.8070    -2.3650 O.co2 1 <1>  -0.9000 
 24 H       -2.9150    -0.3860     1.2660 H     1 <1>   0.1500 
 25 H       -0.9000     2.3910    -1.2580 H     1 <1>   0.1500 
 26 H       -2.9960     2.7400    -2.5480 H     1 <1>   0.1500 
 27 H       -5.0300     1.5070    -1.9120 H     1 <1>   0.1500 
 28 H       -6.0970     0.4420     1.8750 H     1 <1>   0.0800 
 29 H       -6.2480     1.6030     0.5770 H     1 <1>   0.0800 
 30 H       -4.4760    -2.0950    -0.2830 H     1 <1>   0.0800 
 31 H       -5.0170    -1.8060     1.3570 H     1 <1>   0.0800 
 32 H       -7.8840     0.2370    -0.5570 H     1 <1>   0.0800 
 33 H       -8.3920     0.5110     1.0960 H     1 <1>   0.0800 
 34 H       -6.5740    -3.2790     0.2190 H     1 <1>   0.0800 
 35 H       -6.7390    -2.1530    -1.1030 H     1 <1>   0.0800 
 36 H       -7.6540    -1.7070     1.7510 H     1 <1>   0.0800 
 37 H       -9.0410    -2.0750    -0.8220 H     1 <1>   0.4500 
 38 H       -8.3700    -4.0880     0.3610 H     1 <1>   0.0800 
 39 H       -9.5890    -3.6540     1.5380 H     1 <1>   0.0800 
 40 H      -10.5020    -1.4280     1.6320 H     1 <1>   0.0800 
 41 H      -10.1540    -0.2480     0.3890 H     1 <1>   0.0800 
 42 H      -10.4650    -5.1200    -0.3530 H     1 <1>   0.0800 
 43 H      -12.3800    -1.3130     0.0980 H     1 <1>   0.0800 
 44 H      -11.3380    -1.4830    -1.2720 H     1 <1>   0.0800 
 45 H      -10.7400    -3.8230    -2.3060 H     1 <1>   0.4000 
 46 H      -12.0050    -3.5860     0.7930 H     1 <1>   0.0800 
@<TRIPOS>BOND
  1   1   2  1   
  2   2   3  ar  
  3   2   4  ar  
  4   3   5  ar  
  5   3  24  1   
  6   4   6  ar  
  7   4  25  1   
  8   5   7  1   
  9   5   8  ar  
 10   6   8  ar  
 11   6  26  1   
 12   7   9  1   
 13   7  10  1   
 14   8  27  1   
 15   9  11  1   
 16   9  28  1   
 17   9  29  1   
 18  10  12  1   
 19  10  30  1   
 20  10  31  1   
 21  11  13  1   
 22  11  32  1   
 23  11  33  1   
 24  12  13  1   
 25  12  34  1   
 26  12  35  1   
 27  13  14  1   
 28  13  36  1   
 29  14  15  1   
 30  14  16  1   
 31  14  37  1   
 32  15  17  1   
 33  15  38  1   
 34  15  39  1   
 35  16  18  1   
 36  16  40  1   
 37  16  41  1   
 38  17  19  1   
 39  17  20  1   
 40  17  42  1   
 41  18  20  1   
 42  18  43  1   
 43  18  44  1   
 44  19  45  1   
 45  20  21  1   
 46  20  46  1   
 47  21  22  ar  
 48  21  23  ar  
@<TRIPOS>SUBSTRUCTURE
  1 ****  13 GROUP 4 **** **** 0

# MOE 2024.06 (io_trps.svl 2023.06)
