@<TRIPOS>MOLECULE
NONAME
45 46 1 0 0 
SMALL
USER_CHARGES


@<TRIPOS>ATOM
  1 O        2.7270    -1.0820     2.9230 O.2   1 <1>  -0.5700 
  2 C        2.2380    -1.3140     1.8440 C.2   1 <1>   0.5690 
  3 N        2.0560    -0.3960     0.8510 N.am  1 <1>  -0.5470 
  4 C        1.7650    -2.7370     1.5350 C.3   1 <1>   0.1710 
  5 C        2.3280     0.9750     0.7000 C.ar  1 <1>   0.1170 
  6 N        1.6100    -3.0250     0.0700 N.3   1 <1>  -0.8100 
  7 C        1.9180     1.6320    -0.4670 C.ar  1 <1>  -0.1430 
  8 C        3.0020     1.6940     1.6810 C.ar  1 <1>  -0.1500 
  9 C        0.7780    -4.2300    -0.1600 C.3   1 <1>   0.1100 
 10 C        2.9320    -3.2090    -0.5540 C.3   1 <1>   0.0300 
 11 C        2.1910     2.9890    -0.6320 C.ar  1 <1>  -0.1430 
 12 C        1.1690     0.8290    -1.5370 C.3   1 <1>  -0.0970 
 13 C        3.2710     3.0360     1.5160 C.ar  1 <1>  -0.1500 
 14 C       -0.7240    -3.9640     0.0260 C.3   1 <1>   0.2000 
 15 C        2.8670     3.6800     0.3630 C.ar  1 <1>  -0.1500 
 16 C        1.7770     3.7690    -1.8730 C.3   1 <1>  -0.0970 
 17 O       -1.4040    -5.1490    -0.2860 O.3   1 <1>  -0.5600 
 18 C       -1.2220    -2.8190    -0.8810 C.3   1 <1>   0.1200 
 19 C       -2.7960    -5.0320    -0.2160 C.3   1 <1>   0.1200 
 20 O       -2.6170    -2.7090    -0.8210 O.3   1 <1>  -0.5600 
 21 C       -3.2800    -3.8980    -1.1360 C.3   1 <1>   0.1200 
 22 H        1.6640    -0.8470     0.0210 H     1 <1>   0.3700 
 23 H        0.8210    -2.8570     2.0330 H     1 <1>   0.0800 
 24 H        2.4550    -3.4340     1.9770 H     1 <1>   0.0800 
 25 H        3.3240     1.2100     2.5830 H     1 <1>   0.1500 
 26 H        1.0880    -5.0220     0.5010 H     1 <1>   0.0800 
 27 H        0.9190    -4.5660    -1.1740 H     1 <1>   0.0800 
 28 H        3.5480    -2.3390    -0.4010 H     1 <1>   0.0800 
 29 H        2.8200    -3.3570    -1.6150 H     1 <1>   0.0800 
 30 H        3.4330    -4.0650    -0.1340 H     1 <1>   0.0800 
 31 H        0.2650     0.4240    -1.1180 H     1 <1>   0.0800 
 32 H        1.7860     0.0210    -1.8850 H     1 <1>   0.0800 
 33 H        0.8940     1.4170    -2.3890 H     1 <1>   0.0800 
 34 H        3.7930     3.5790     2.2840 H     1 <1>   0.1500 
 35 H       -0.9290    -3.7300     1.0540 H     1 <1>   0.0800 
 36 H        3.0850     4.7270     0.2500 H     1 <1>   0.1500 
 37 H        2.2330     3.3410    -2.7470 H     1 <1>   0.0800 
 38 H        2.0830     4.7980    -1.8070 H     1 <1>   0.0800 
 39 H        0.7070     3.7460    -1.9820 H     1 <1>   0.0800 
 40 H       -0.9330    -2.9930    -1.9020 H     1 <1>   0.0800 
 41 H       -0.8040    -1.8830    -0.5590 H     1 <1>   0.0800 
 42 H       -3.0770    -4.8350     0.8050 H     1 <1>   0.0800 
 43 H       -3.2230    -5.9700    -0.5210 H     1 <1>   0.0800 
 44 H       -4.3340    -3.7330    -1.0070 H     1 <1>   0.0800 
 45 H       -3.0870    -4.1390    -2.1670 H     1 <1>   0.0800 
@<TRIPOS>BOND
  1   1   2  2   
  2   2   3  am  
  3   2   4  1   
  4   3   5  1   
  5   3  22  1   
  6   4   6  1   
  7   4  23  1   
  8   4  24  1   
  9   5   7  ar  
 10   5   8  ar  
 11   6   9  1   
 12   6  10  1   
 13   7  11  ar  
 14   7  12  1   
 15   8  13  ar  
 16   8  25  1   
 17   9  14  1   
 18   9  26  1   
 19   9  27  1   
 20  10  28  1   
 21  10  29  1   
 22  10  30  1   
 23  11  15  ar  
 24  11  16  1   
 25  12  31  1   
 26  12  32  1   
 27  12  33  1   
 28  13  15  ar  
 29  13  34  1   
 30  14  17  1   
 31  14  18  1   
 32  14  35  1   
 33  15  36  1   
 34  16  37  1   
 35  16  38  1   
 36  16  39  1   
 37  17  19  1   
 38  18  20  1   
 39  18  40  1   
 40  18  41  1   
 41  19  21  1   
 42  19  42  1   
 43  19  43  1   
 44  20  21  1   
 45  21  44  1   
 46  21  45  1   
@<TRIPOS>SUBSTRUCTURE
  1 ****   3 GROUP 4 **** **** 0

# MOE 2024.06 (io_trps.svl 2023.06)
