@<TRIPOS>MOLECULE
NONAME
48 50 1 0 0 
SMALL
USER_CHARGES


@<TRIPOS>ATOM
  1 O       -0.6260    -0.0010    -2.2630 O.2   1 <1>  -0.5700 
  2 C       -1.3980     0.6830    -1.6340 C.2   1 <1>   0.5690 
  3 N       -2.5110     0.1450    -1.0450 N.am  1 <1>  -0.6600 
  4 C       -1.0880     2.1690    -1.5260 C.3   1 <1>  -0.0990 
  5 C       -3.5240     0.8550    -0.2260 C.3   1 <1>   0.1400 
  6 C       -2.8030    -1.3080    -1.0830 C.3   1 <1>   0.1400 
  7 C        0.0770     2.4710    -0.5630 C.3   1 <1>  -0.0800 
  8 C       -4.4500    -0.2380     0.3120 C.3   1 <1>   0.2000 
  9 C       -3.6980    -1.5560     0.1310 C.3   1 <1>  -0.0800 
 10 C       -0.2450     2.0530     0.8840 C.3   1 <1>  -0.1600 
 11 C        0.4400     3.9660    -0.6190 C.3   1 <1>  -0.1600 
 12 O       -4.7390    -0.0410     1.6530 O.3   1 <1>  -0.6800 
 13 C       -4.6440    -2.7600    -0.0180 C.3   1 <1>  -0.0170 
 14 C        0.9130     2.3850     1.8350 C.3   1 <1>  -0.1600 
 15 C        1.5960     4.3000     0.3330 C.3   1 <1>  -0.1600 
 16 C       -3.8780    -4.0620    -0.1800 C.ar  1 <1>   0.1670 
 17 C        1.2740     3.8740     1.7700 C.3   1 <1>  -0.1600 
 18 N       -3.4910    -4.3660    -1.4090 N.ar  1 <1>  -0.6200 
 19 C       -3.6210    -4.8510     0.9320 C.ar  1 <1>  -0.1500 
 20 C       -2.8180    -5.4990    -1.5350 C.ar  1 <1>   0.1600 
 21 C       -2.9210    -6.0290     0.7860 C.ar  1 <1>  -0.1500 
 22 C       -2.5110    -6.3530    -0.4900 C.ar  1 <1>  -0.1500 
 23 H       -0.8170     2.5040    -2.5110 H     1 <1>   0.0800 
 24 H       -1.9600     2.7210    -1.2350 H     1 <1>   0.0800 
 25 H       -3.0400     1.3770     0.5800 H     1 <1>   0.0800 
 26 H       -4.0760     1.5450    -0.8390 H     1 <1>   0.0800 
 27 H       -3.3210    -1.5390    -1.9980 H     1 <1>   0.0800 
 28 H       -1.8980    -1.8910    -1.0340 H     1 <1>   0.0800 
 29 H        0.9330     1.9060    -0.8940 H     1 <1>   0.0800 
 30 H       -5.3750    -0.2340    -0.2390 H     1 <1>   0.0800 
 31 H       -3.0470    -1.7190     0.9720 H     1 <1>   0.0800 
 32 H       -1.1280     2.5670     1.2200 H     1 <1>   0.0800 
 33 H       -0.4340     0.9940     0.9270 H     1 <1>   0.0800 
 34 H        0.7250     4.2330    -1.6220 H     1 <1>   0.0800 
 35 H       -0.4180     4.5570    -0.3500 H     1 <1>   0.0800 
 36 H       -3.9200    -0.0860     2.1840 H     1 <1>   0.4000 
 37 H       -5.2840    -2.6230    -0.8720 H     1 <1>   0.0800 
 38 H       -5.2760    -2.8230     0.8510 H     1 <1>   0.0800 
 39 H        0.6400     2.1230     2.8420 H     1 <1>   0.0800 
 40 H        1.7740     1.7970     1.5630 H     1 <1>   0.0800 
 41 H        2.4870     3.7920     0.0030 H     1 <1>   0.0800 
 42 H        1.7920     5.3580     0.3060 H     1 <1>   0.0800 
 43 H        2.1240     4.0660     2.4030 H     1 <1>   0.0800 
 44 H        0.4480     4.4580     2.1390 H     1 <1>   0.0800 
 45 H       -3.9640    -4.5480     1.9040 H     1 <1>   0.1500 
 46 H       -2.4930    -5.7610    -2.5280 H     1 <1>   0.1500 
 47 H       -2.7040    -6.6650     1.6260 H     1 <1>   0.1500 
 48 H       -1.9600    -7.2560    -0.6750 H     1 <1>   0.1500 
@<TRIPOS>BOND
  1   1   2  2   
  2   2   3  am  
  3   2   4  1   
  4   3   5  1   
  5   3   6  1   
  6   4   7  1   
  7   4  23  1   
  8   4  24  1   
  9   5   8  1   
 10   5  25  1   
 11   5  26  1   
 12   6   9  1   
 13   6  27  1   
 14   6  28  1   
 15   7  10  1   
 16   7  11  1   
 17   7  29  1   
 18   8   9  1   
 19   8  12  1   
 20   8  30  1   
 21   9  13  1   
 22   9  31  1   
 23  10  14  1   
 24  10  32  1   
 25  10  33  1   
 26  11  15  1   
 27  11  34  1   
 28  11  35  1   
 29  12  36  1   
 30  13  16  1   
 31  13  37  1   
 32  13  38  1   
 33  14  17  1   
 34  14  39  1   
 35  14  40  1   
 36  15  17  1   
 37  15  41  1   
 38  15  42  1   
 39  16  18  ar  
 40  16  19  ar  
 41  17  43  1   
 42  17  44  1   
 43  18  20  ar  
 44  19  21  ar  
 45  19  45  1   
 46  20  22  ar  
 47  20  46  1   
 48  21  22  ar  
 49  21  47  1   
 50  22  48  1   
@<TRIPOS>SUBSTRUCTURE
  1 ****   3 GROUP 4 **** **** 0

# MOE 2024.06 (io_trps.svl 2023.06)
