@<TRIPOS>MOLECULE
NONAME
42 43 1 0 0 
SMALL
USER_CHARGES


@<TRIPOS>ATOM
  1 S       -0.6150     0.3210    -0.8390 S.o2  1 <1>   1.3330 
  2 O        0.3650    -0.3730    -1.6430 O.2   1 <1>  -0.6500 
  3 O       -1.3720     1.4240    -1.3790 O.2   1 <1>  -0.6500 
  4 N       -1.7540    -0.8240    -0.3710 N.am  1 <1>  -0.9140 
  5 C        0.1080     0.8180     0.7370 C.3   1 <1>  -0.0550 
  6 C       -1.4080    -2.2210    -0.6200 C.3   1 <1>   0.2760 
  7 C        1.2690     1.8360     0.7060 C.3   1 <1>  -0.0800 
  8 C       -2.5610    -3.1130    -0.1720 C.3   1 <1>  -0.0800 
  9 C       -0.3340    -2.7010     0.3510 C.3   1 <1>   0.1200 
 10 C        0.8670     3.1700     0.0640 C.3   1 <1>  -0.2400 
 11 C        2.5260     1.2760     0.0290 C.3   1 <1>  -0.2400 
 12 C       -2.3030    -3.2760     1.3340 C.3   1 <1>   0.1200 
 13 C       -3.9790    -2.6220    -0.5270 C.3   1 <1>  -0.0170 
 14 O       -1.0060    -2.8010     1.5670 O.3   1 <1>  -0.5600 
 15 C       -5.0240    -3.6360    -0.0910 C.ar  1 <1>  -0.1440 
 16 C       -5.7710    -3.4710     1.0580 C.ar  1 <1>  -0.1500 
 17 C       -5.2770    -4.7780    -0.8240 C.ar  1 <1>  -0.1500 
 18 C       -6.7030    -4.4330     1.4120 C.ar  1 <1>   0.1600 
 19 C       -6.2320    -5.6780    -0.3820 C.ar  1 <1>   0.1600 
 20 N       -6.9490    -5.5330     0.7200 N.ar  1 <1>  -0.6200 
 21 H       -1.8920    -0.7360     0.6330 H     1 <1>   0.4200 
 22 H       -0.6720     1.2400     1.3390 H     1 <1>   0.0800 
 23 H        0.4580    -0.0530     1.2530 H     1 <1>   0.0800 
 24 H       -1.1460    -2.3790    -1.6540 H     1 <1>   0.0800 
 25 H        1.5270     2.0420     1.7320 H     1 <1>   0.0800 
 26 H       -2.4220    -4.0780    -0.6260 H     1 <1>   0.0800 
 27 H        0.5090    -2.0420     0.4380 H     1 <1>   0.0800 
 28 H        0.0130    -3.6830     0.0790 H     1 <1>   0.0800 
 29 H        0.6860     3.0540    -0.9900 H     1 <1>   0.0800 
 30 H        1.6540     3.8930     0.1890 H     1 <1>   0.0800 
 31 H       -0.0250     3.5580     0.5240 H     1 <1>   0.0800 
 32 H        2.3710     1.1380    -1.0270 H     1 <1>   0.0800 
 33 H        2.8020     0.3300     0.4620 H     1 <1>   0.0800 
 34 H        3.3490     1.9570     0.1570 H     1 <1>   0.0800 
 35 H       -2.3580    -4.3080     1.6360 H     1 <1>   0.0800 
 36 H       -2.9820    -2.6880     1.9270 H     1 <1>   0.0800 
 37 H       -4.0490    -2.4720    -1.5900 H     1 <1>   0.0800 
 38 H       -4.1840    -1.6760    -0.0570 H     1 <1>   0.0800 
 39 H       -5.6400    -2.6060     1.6810 H     1 <1>   0.1500 
 40 H       -4.7420    -4.9760    -1.7350 H     1 <1>   0.1500 
 41 H       -7.2780    -4.2890     2.3110 H     1 <1>   0.1500 
 42 H       -6.4170    -6.5630    -0.9660 H     1 <1>   0.1500 
@<TRIPOS>BOND
  1   1   2  2   
  2   1   3  2   
  3   1   4  am  
  4   1   5  1   
  5   4   6  1   
  6   4  21  1   
  7   5   7  1   
  8   5  22  1   
  9   5  23  1   
 10   6   8  1   
 11   6   9  1   
 12   6  24  1   
 13   7  10  1   
 14   7  11  1   
 15   7  25  1   
 16   8  12  1   
 17   8  13  1   
 18   8  26  1   
 19   9  14  1   
 20   9  27  1   
 21   9  28  1   
 22  10  29  1   
 23  10  30  1   
 24  10  31  1   
 25  11  32  1   
 26  11  33  1   
 27  11  34  1   
 28  12  14  1   
 29  12  35  1   
 30  12  36  1   
 31  13  15  1   
 32  13  37  1   
 33  13  38  1   
 34  15  16  ar  
 35  15  17  ar  
 36  16  18  ar  
 37  16  39  1   
 38  17  19  ar  
 39  17  40  1   
 40  18  20  ar  
 41  18  41  1   
 42  19  20  ar  
 43  19  42  1   
@<TRIPOS>SUBSTRUCTURE
  1 ****   6 GROUP 4 **** **** 0

# MOE 2024.06 (io_trps.svl 2023.06)
