@<TRIPOS>MOLECULE
NONAME
47 49 1 0 0 
SMALL
USER_CHARGES


@<TRIPOS>ATOM
  1 O       -0.5230     0.1990     0.4190 O.2   1 <1>  -0.5700 
  2 C       -1.5440     0.8010     0.1400 C.2   1 <1>   0.6160 
  3 N       -2.7370     0.1210     0.1900 N.am  1 <1>  -0.6600 
  4 C       -1.4770     2.1890    -0.2310 C.2   1 <1>  -0.1360 
  5 C       -4.0930     0.7030     0.0750 C.3   1 <1>   0.1400 
  6 C       -2.8100    -1.3300     0.4600 C.3   1 <1>   0.1400 
  7 C       -0.3840     2.9880    -0.1990 C.2   1 <1>  -0.1780 
  8 C       -5.0420    -0.3700     0.6300 C.3   1 <1>  -0.0800 
  9 C       -4.2950    -1.6970     0.3980 C.3   1 <1>  -0.0800 
 10 C       -0.2670     4.3780    -0.5640 C.ar  1 <1>   0.0280 
 11 C       -6.5090    -0.3370     0.0970 C.3   1 <1>   0.2800 
 12 C       -4.6920    -2.3200    -0.9490 C.3   1 <1>  -0.1600 
 13 C        0.9090     5.0710    -0.2780 C.ar  1 <1>  -0.1500 
 14 C       -1.2870     5.0830    -1.2030 C.ar  1 <1>  -0.1500 
 15 O       -6.5520     0.2400    -1.1590 O.3   1 <1>  -0.6800 
 16 C       -7.0490    -1.7700    -0.0630 C.3   1 <1>  -0.1600 
 17 C       -7.4540     0.4850     1.0020 C.3   1 <1>  -0.1600 
 18 C       -6.1950    -2.6520    -1.0000 C.3   1 <1>  -0.1600 
 19 C        1.0610     6.4050    -0.6080 C.ar  1 <1>  -0.1500 
 20 C       -1.1420     6.4180    -1.5350 C.ar  1 <1>  -0.1500 
 21 C       -7.0830     1.9680     1.1800 C.3   1 <1>  -0.2400 
 22 C        0.0330     7.0830    -1.2380 C.ar  1 <1>  -0.1500 
 23 H       -2.4110     2.5900    -0.5630 H     1 <1>   0.1500 
 24 H       -4.1700     1.6170     0.6350 H     1 <1>   0.0800 
 25 H       -4.2800     0.9000    -0.9660 H     1 <1>   0.0800 
 26 H       -2.2260    -1.8760    -0.2610 H     1 <1>   0.0800 
 27 H       -2.4170    -1.5180     1.4450 H     1 <1>   0.0800 
 28 H        0.5380     2.5510     0.1440 H     1 <1>   0.1500 
 29 H       -5.0760    -0.2360     1.6960 H     1 <1>   0.0800 
 30 H       -4.5180    -2.4020     1.1790 H     1 <1>   0.0800 
 31 H       -4.4620    -1.6190    -1.7350 H     1 <1>   0.0800 
 32 H       -4.1190    -3.2120    -1.1340 H     1 <1>   0.0800 
 33 H        1.7170     4.5580     0.2120 H     1 <1>   0.1500 
 34 H       -2.2070     4.5900    -1.4510 H     1 <1>   0.1500 
 35 H       -7.4530     0.1560    -1.5180 H     1 <1>   0.4000 
 36 H       -7.0600    -2.2290     0.9100 H     1 <1>   0.0800 
 37 H       -8.0670    -1.7560    -0.4090 H     1 <1>   0.0800 
 38 H       -8.4520     0.4280     0.6040 H     1 <1>   0.0800 
 39 H       -7.4840     0.0260     1.9750 H     1 <1>   0.0800 
 40 H       -6.3450    -3.6830    -0.7330 H     1 <1>   0.0800 
 41 H       -6.5340    -2.5300    -2.0150 H     1 <1>   0.0800 
 42 H        1.9780     6.9170    -0.3750 H     1 <1>   0.1500 
 43 H       -1.9440     6.9410    -2.0270 H     1 <1>   0.1500 
 44 H       -6.9950     2.4570     0.2260 H     1 <1>   0.0800 
 45 H       -6.1550     2.0700     1.7110 H     1 <1>   0.0800 
 46 H       -7.8480     2.4690     1.7470 H     1 <1>   0.0800 
 47 H        0.1480     8.1220    -1.4960 H     1 <1>   0.1500 
@<TRIPOS>BOND
  1   1   2  2   
  2   2   3  am  
  3   2   4  1   
  4   3   5  1   
  5   3   6  1   
  6   4   7  2   
  7   4  23  1   
  8   5   8  1   
  9   5  24  1   
 10   5  25  1   
 11   6   9  1   
 12   6  26  1   
 13   6  27  1   
 14   7  10  1   
 15   7  28  1   
 16   8   9  1   
 17   8  11  1   
 18   8  29  1   
 19   9  12  1   
 20   9  30  1   
 21  10  13  ar  
 22  10  14  ar  
 23  11  15  1   
 24  11  16  1   
 25  11  17  1   
 26  12  18  1   
 27  12  31  1   
 28  12  32  1   
 29  13  19  ar  
 30  13  33  1   
 31  14  20  ar  
 32  14  34  1   
 33  15  35  1   
 34  16  18  1   
 35  16  36  1   
 36  16  37  1   
 37  17  21  1   
 38  17  38  1   
 39  17  39  1   
 40  18  40  1   
 41  18  41  1   
 42  19  22  ar  
 43  19  42  1   
 44  20  22  ar  
 45  20  43  1   
 46  21  44  1   
 47  21  45  1   
 48  21  46  1   
 49  22  47  1   
@<TRIPOS>SUBSTRUCTURE
  1 ****   5 GROUP 4 **** **** 0

# MOE 2024.06 (io_trps.svl 2023.06)
