@<TRIPOS>MOLECULE
NONAME
41 43 1 0 0 
SMALL
USER_CHARGES


@<TRIPOS>ATOM
  1 N        0.6670    -0.3940     0.3300 N.ar  1 <1>  -0.6200 
  2 C        0.9880    -1.5690    -0.1600 C.ar  1 <1>   0.7710 
  3 C        1.4710     0.6230     0.0810 C.ar  1 <1>   0.4100 
  4 N        2.0980    -1.7820    -0.8840 N.ar  1 <1>  -0.1790 
  5 N        0.1350    -2.5630     0.1040 N.pl3 1 <1>  -0.8690 
  6 N        1.0760     1.8290     0.5620 N.pl3 1 <1>  -0.8380 
  7 C        2.6800     0.4600    -0.6450 C.ar  1 <1>  -0.1430 
  8 C        2.9690    -0.7740    -1.1300 C.ar  1 <1>   0.2110 
  9 C        0.1070    -4.0050    -0.2450 C.3   1 <1>   0.2890 
 10 C        0.8820     3.0220    -0.3090 C.3   1 <1>   0.1290 
 11 C        0.4480     1.9610     1.9080 C.3   1 <1>   0.1290 
 12 C        3.6610     1.6140    -0.8520 C.3   1 <1>  -0.0970 
 13 C       -1.1580    -4.3630    -1.0460 C.3   1 <1>  -0.0170 
 14 C        0.0890    -4.8860     1.0170 C.3   1 <1>  -0.0170 
 15 C       -1.5090    -5.7340    -0.5280 C.ar  1 <1>  -0.1430 
 16 C       -0.8150    -6.0260     0.6200 C.ar  1 <1>  -0.1430 
 17 C       -2.3970    -6.6460    -1.0690 C.ar  1 <1>  -0.1500 
 18 C       -0.9870    -7.2380     1.2630 C.ar  1 <1>  -0.1500 
 19 C       -2.5760    -7.8650    -0.4320 C.ar  1 <1>  -0.1500 
 20 C       -1.8740    -8.1590     0.7280 C.ar  1 <1>  -0.1500 
 21 H        2.2490    -2.7260    -1.2170 H     1 <1>   0.4570 
 22 H       -0.6750    -2.2640     0.6620 H     1 <1>   0.4000 
 23 H        3.8640    -0.9850    -1.6930 H     1 <1>   0.1500 
 24 H        0.9630    -4.2840    -0.8340 H     1 <1>   0.0800 
 25 H        1.0350     2.7650    -1.3420 H     1 <1>   0.0800 
 26 H        1.5750     3.7960    -0.0280 H     1 <1>   0.0800 
 27 H       -0.1220     3.3960    -0.2020 H     1 <1>   0.0800 
 28 H        0.6930     1.1110     2.5210 H     1 <1>   0.0800 
 29 H       -0.6220     2.0190     1.8080 H     1 <1>   0.0800 
 30 H        0.8080     2.8500     2.3960 H     1 <1>   0.0800 
 31 H        3.7820     2.1630     0.0660 H     1 <1>   0.0800 
 32 H        3.2990     2.2850    -1.6090 H     1 <1>   0.0800 
 33 H        4.6290     1.2560    -1.1530 H     1 <1>   0.0800 
 34 H       -0.9640    -4.3880    -2.1030 H     1 <1>   0.0800 
 35 H       -1.9680    -3.6890    -0.8300 H     1 <1>   0.0800 
 36 H       -0.3460    -4.3700     1.8540 H     1 <1>   0.0800 
 37 H        1.0720    -5.2420     1.2650 H     1 <1>   0.0800 
 38 H       -2.9430    -6.4180    -1.9670 H     1 <1>   0.1500 
 39 H       -0.4460    -7.4670     2.1640 H     1 <1>   0.1500 
 40 H       -3.2630    -8.5860    -0.8400 H     1 <1>   0.1500 
 41 H       -2.0200    -9.1070     1.2150 H     1 <1>   0.1500 
@<TRIPOS>BOND
  1   1   2  ar  
  2   1   3  ar  
  3   2   4  ar  
  4   2   5  1   
  5   3   6  1   
  6   3   7  ar  
  7   4   8  ar  
  8   4  21  1   
  9   5   9  1   
 10   5  22  1   
 11   6  10  1   
 12   6  11  1   
 13   7   8  ar  
 14   7  12  1   
 15   8  23  1   
 16   9  13  1   
 17   9  14  1   
 18   9  24  1   
 19  10  25  1   
 20  10  26  1   
 21  10  27  1   
 22  11  28  1   
 23  11  29  1   
 24  11  30  1   
 25  12  31  1   
 26  12  32  1   
 27  12  33  1   
 28  13  15  1   
 29  13  34  1   
 30  13  35  1   
 31  14  16  1   
 32  14  36  1   
 33  14  37  1   
 34  15  16  ar  
 35  15  17  ar  
 36  16  18  ar  
 37  17  19  ar  
 38  17  38  1   
 39  18  20  ar  
 40  18  39  1   
 41  19  20  ar  
 42  19  40  1   
 43  20  41  1   
@<TRIPOS>SUBSTRUCTURE
  1 ****   5 GROUP 4 **** **** 0

# MOE 2024.06 (io_trps.svl 2023.06)
