@<TRIPOS>MOLECULE
NONAME
69 71 1 0 0 
SMALL
USER_CHARGES


@<TRIPOS>ATOM
  1 O       -3.9810     0.9290     0.8840 O.2   1 <1>  -0.5700 
  2 C       -3.6950     0.0750     0.0920 C.2   1 <1>   0.6590 
  3 O       -3.7990    -1.2080     0.4170 O.3   1 <1>  -0.4300 
  4 C       -3.2480     0.4380    -1.3070 C.3   1 <1>  -0.0990 
  5 C       -3.0080    -2.2460    -0.1220 C.3   1 <1>   0.2000 
  6 C       -2.2340    -0.5610    -1.8460 C.3   1 <1>   0.2000 
  7 C       -2.7220    -1.9870    -1.6080 C.3   1 <1>  -0.1600 
  8 C       -3.7540    -3.5600     0.1450 C.3   1 <1>  -0.1600 
  9 O       -1.0330    -0.3760    -1.1870 O.3   1 <1>  -0.6800 
 10 C       -2.9770    -4.8060    -0.3250 C.3   1 <1>  -0.1600 
 11 C       -3.5570    -6.1450     0.1910 C.3   1 <1>  -0.0800 
 12 C       -2.7970    -7.4280    -0.2750 C.3   1 <1>   0.0580 
 13 C       -5.0840    -6.2920    -0.0730 C.3   1 <1>   0.0580 
 14 C       -3.3200    -8.6140     0.5580 C.2   1 <1>  -0.1380 
 15 C       -1.2450    -7.3450    -0.2310 C.3   1 <1>   0.2000 
 16 C       -5.5720    -7.6370     0.4320 C.2   1 <1>  -0.2880 
 17 C       -5.4930    -6.1570    -1.5480 C.3   1 <1>  -0.2400 
 18 C       -4.7510    -8.6560     0.7210 C.2   1 <1>  -0.1500 
 19 C       -2.5100    -9.5390     1.0960 C.2   1 <1>  -0.2880 
 20 O       -0.7830    -6.6620    -1.3830 O.3   1 <1>  -0.4300 
 21 C       -0.5980    -8.7360    -0.2720 C.3   1 <1>  -0.1600 
 22 C       -1.0050    -9.5790     0.9380 C.3   1 <1>   0.0580 
 23 C       -0.0060    -5.5850    -1.5000 C.2   1 <1>   0.6590 
 24 C       -0.5310   -11.0240     0.7580 C.3   1 <1>  -0.2400 
 25 O       -0.3820    -4.7260    -2.2540 O.2   1 <1>  -0.5700 
 26 C        1.3920    -5.4810    -0.8180 C.3   1 <1>   0.0610 
 27 C        1.9410    -4.0280    -1.0280 C.3   1 <1>   0.2000 
 28 C        2.3360    -6.4760    -1.5360 C.3   1 <1>  -0.2400 
 29 C        1.4000    -5.8230     0.6960 C.3   1 <1>  -0.2400 
 30 O        3.2670    -3.9330    -0.6350 O.3   1 <1>  -0.6800 
 31 C        1.2060    -2.9170    -0.2680 C.3   1 <1>  -0.2400 
 32 H       -2.8400     1.4320    -1.3210 H     1 <1>   0.0800 
 33 H       -4.1170     0.4300    -1.9370 H     1 <1>   0.0800 
 34 H       -2.0810    -2.2490     0.4260 H     1 <1>   0.0800 
 35 H       -2.0540    -0.3940    -2.8960 H     1 <1>   0.0800 
 36 H       -3.6180    -2.1570    -2.1780 H     1 <1>   0.0800 
 37 H       -1.9810    -2.6750    -1.9730 H     1 <1>   0.0800 
 38 H       -4.7100    -3.5160    -0.3440 H     1 <1>   0.0800 
 39 H       -3.9210    -3.6360     1.2060 H     1 <1>   0.0800 
 40 H       -1.1610    -0.3300    -0.2200 H     1 <1>   0.4000 
 41 H       -1.9760    -4.7070     0.0480 H     1 <1>   0.0800 
 42 H       -2.9330    -4.8260    -1.4010 H     1 <1>   0.0800 
 43 H       -3.4460    -6.1140     1.2620 H     1 <1>   0.0800 
 44 H       -3.0610    -7.6360    -1.2960 H     1 <1>   0.0800 
 45 H       -5.6000    -5.5370     0.4940 H     1 <1>   0.0800 
 46 H       -0.9570    -6.8140     0.6550 H     1 <1>   0.0800 
 47 H       -6.6410    -7.6990     0.5410 H     1 <1>   0.1500 
 48 H       -5.0440    -6.9320    -2.1420 H     1 <1>   0.0800 
 49 H       -5.2060    -5.2040    -1.9500 H     1 <1>   0.0800 
 50 H       -6.5610    -6.2470    -1.6370 H     1 <1>   0.0800 
 51 H       -5.1430    -9.5840     1.1000 H     1 <1>   0.1500 
 52 H       -2.8910   -10.3440     1.7020 H     1 <1>   0.1500 
 53 H        0.4700    -8.6600    -0.2950 H     1 <1>   0.0800 
 54 H       -0.9220    -9.2340    -1.1700 H     1 <1>   0.0800 
 55 H       -0.5560    -9.1750     1.8300 H     1 <1>   0.0800 
 56 H       -0.9990   -11.4680    -0.1030 H     1 <1>   0.0800 
 57 H       -0.7860   -11.6080     1.6250 H     1 <1>   0.0800 
 58 H        0.5360   -11.0560     0.6290 H     1 <1>   0.0800 
 59 H        1.9240    -3.7980    -2.0820 H     1 <1>   0.0800 
 60 H        2.4470    -6.1960    -2.5700 H     1 <1>   0.0800 
 61 H        1.9470    -7.4750    -1.5050 H     1 <1>   0.0800 
 62 H        3.3130    -6.4800    -1.0860 H     1 <1>   0.0800 
 63 H        0.6380    -5.2710     1.2170 H     1 <1>   0.0800 
 64 H        2.3500    -5.5840     1.1360 H     1 <1>   0.0800 
 65 H        1.2440    -6.8700     0.8620 H     1 <1>   0.0800 
 66 H        3.3290    -3.9380     0.3370 H     1 <1>   0.4000 
 67 H        1.2940    -3.0330     0.7960 H     1 <1>   0.0800 
 68 H        0.1640    -2.9110    -0.5280 H     1 <1>   0.0800 
 69 H        1.6100    -1.9610    -0.5520 H     1 <1>   0.0800 
@<TRIPOS>BOND
  1   1   2  2   
  2   2   3  1   
  3   2   4  1   
  4   3   5  1   
  5   4   6  1   
  6   4  32  1   
  7   4  33  1   
  8   5   7  1   
  9   5   8  1   
 10   5  34  1   
 11   6   7  1   
 12   6   9  1   
 13   6  35  1   
 14   7  36  1   
 15   7  37  1   
 16   8  10  1   
 17   8  38  1   
 18   8  39  1   
 19   9  40  1   
 20  10  11  1   
 21  10  41  1   
 22  10  42  1   
 23  11  12  1   
 24  11  13  1   
 25  11  43  1   
 26  12  14  1   
 27  12  15  1   
 28  12  44  1   
 29  13  16  1   
 30  13  17  1   
 31  13  45  1   
 32  14  18  1   
 33  14  19  2   
 34  15  20  1   
 35  15  21  1   
 36  15  46  1   
 37  16  18  2   
 38  16  47  1   
 39  17  48  1   
 40  17  49  1   
 41  17  50  1   
 42  18  51  1   
 43  19  22  1   
 44  19  52  1   
 45  20  23  1   
 46  21  22  1   
 47  21  53  1   
 48  21  54  1   
 49  22  24  1   
 50  22  55  1   
 51  23  25  2   
 52  23  26  1   
 53  24  56  1   
 54  24  57  1   
 55  24  58  1   
 56  26  27  1   
 57  26  28  1   
 58  26  29  1   
 59  27  30  1   
 60  27  31  1   
 61  27  59  1   
 62  28  60  1   
 63  28  61  1   
 64  28  62  1   
 65  29  63  1   
 66  29  64  1   
 67  29  65  1   
 68  30  66  1   
 69  31  67  1   
 70  31  68  1   
 71  31  69  1   
@<TRIPOS>SUBSTRUCTURE
  1 ****  10 GROUP 4 **** **** 0

# MOE 2024.06 (io_trps.svl 2023.06)
