@<TRIPOS>MOLECULE
NONAME
44 46 1 0 0 
SMALL
USER_CHARGES


@<TRIPOS>ATOM
  1 CL       0.3450    -0.3960     0.3820 Cl    1 <1>  -0.1770 
  2 C       -0.0590    -2.0940     0.3570 C.ar  1 <1>   0.1770 
  3 C        0.6610    -2.9740     1.1430 C.ar  1 <1>  -0.1500 
  4 C       -1.0940    -2.5320    -0.4490 C.ar  1 <1>  -0.1500 
  5 C        0.3360    -4.3190     1.1200 C.ar  1 <1>  -0.1500 
  6 C       -1.4180    -3.8790    -0.4700 C.ar  1 <1>  -0.1500 
  7 C       -0.7000    -4.7790     0.3180 C.ar  1 <1>   0.0830 
  8 O       -0.9500    -6.1110     0.3600 O.3   1 <1>  -0.3630 
  9 C       -2.0170    -6.6830    -0.3580 C.3   1 <1>   0.1200 
 10 C       -2.0320    -8.1790    -0.0340 C.3   1 <1>   0.3430 
 11 N       -3.0020    -8.9600    -0.8800 N.4   1 <1>  -0.9590 
 12 C       -4.4270    -8.5870    -0.6200 C.3   1 <1>   0.3430 
 13 C       -2.9300   -10.4060    -0.5190 C.3   1 <1>   0.3430 
 14 C       -4.8520    -9.3950     0.6100 C.3   1 <1>   0.2000 
 15 C       -4.0140   -10.6780     0.5410 C.3   1 <1>  -0.0800 
 16 O       -4.4840    -8.6860     1.7460 O.3   1 <1>  -0.6800 
 17 C       -4.8730   -11.9100     0.1890 C.3   1 <1>  -0.0170 
 18 C       -4.0510   -13.1910     0.1390 C.ar  1 <1>   0.1670 
 19 N       -3.2150   -13.3110    -0.8810 N.ar  1 <1>  -0.6200 
 20 C       -4.2010   -14.1620     1.1300 C.ar  1 <1>   0.1600 
 21 C       -2.5560   -14.4610    -0.8510 C.ar  1 <1>   0.1600 
 22 N       -3.5330   -15.3000     1.1660 N.ar  1 <1>  -0.6200 
 23 C       -2.7090   -15.4220     0.1400 C.ar  1 <1>   0.1600 
 24 H        1.4610    -2.6090     1.7620 H     1 <1>   0.1500 
 25 H       -1.6340    -1.8220    -1.0490 H     1 <1>   0.1500 
 26 H        0.8860    -5.0180     1.7260 H     1 <1>   0.1500 
 27 H       -2.2230    -4.1980    -1.1030 H     1 <1>   0.1500 
 28 H       -2.9270    -6.2090    -0.0350 H     1 <1>   0.0800 
 29 H       -1.8390    -6.5160    -1.4050 H     1 <1>   0.0800 
 30 H       -2.2760    -8.3020     1.0090 H     1 <1>   0.0800 
 31 H       -1.0380    -8.5640    -0.1920 H     1 <1>   0.0800 
 32 H       -2.7620    -8.8400    -1.8740 H     1 <1>   0.4500 
 33 H       -4.5560    -7.5310    -0.4540 H     1 <1>   0.0800 
 34 H       -5.0310    -8.8890    -1.4600 H     1 <1>   0.0800 
 35 H       -3.1360   -10.9980    -1.3970 H     1 <1>   0.0800 
 36 H       -1.9520   -10.6770    -0.1520 H     1 <1>   0.0800 
 37 H       -5.9170    -9.5580     0.6390 H     1 <1>   0.0800 
 38 H       -3.5340   -10.8670     1.4860 H     1 <1>   0.0800 
 39 H       -4.8690    -9.0800     2.5590 H     1 <1>   0.4000 
 40 H       -5.3480   -11.7750    -0.7680 H     1 <1>   0.0800 
 41 H       -5.6540   -12.0210     0.9210 H     1 <1>   0.0800 
 42 H       -4.9020   -13.9950     1.9280 H     1 <1>   0.1500 
 43 H       -1.8610   -14.6560    -1.6490 H     1 <1>   0.1500 
 44 H       -2.1280   -16.3260     0.0810 H     1 <1>   0.1500 
@<TRIPOS>BOND
  1   1   2  1   
  2   2   3  ar  
  3   2   4  ar  
  4   3   5  ar  
  5   3  24  1   
  6   4   6  ar  
  7   4  25  1   
  8   5   7  ar  
  9   5  26  1   
 10   6   7  ar  
 11   6  27  1   
 12   7   8  1   
 13   8   9  1   
 14   9  10  1   
 15   9  28  1   
 16   9  29  1   
 17  10  11  1   
 18  10  30  1   
 19  10  31  1   
 20  11  12  1   
 21  11  13  1   
 22  11  32  1   
 23  12  14  1   
 24  12  33  1   
 25  12  34  1   
 26  13  15  1   
 27  13  35  1   
 28  13  36  1   
 29  14  15  1   
 30  14  16  1   
 31  14  37  1   
 32  15  17  1   
 33  15  38  1   
 34  16  39  1   
 35  17  18  1   
 36  17  40  1   
 37  17  41  1   
 38  18  19  ar  
 39  18  20  ar  
 40  19  21  ar  
 41  20  22  ar  
 42  20  42  1   
 43  21  23  ar  
 44  21  43  1   
 45  22  23  ar  
 46  23  44  1   
@<TRIPOS>SUBSTRUCTURE
  1 ****  10 GROUP 4 **** **** 0

# MOE 2024.06 (io_trps.svl 2023.06)
