@<TRIPOS>MOLECULE
NONAME
55 58 1 0 0 
SMALL
USER_CHARGES


@<TRIPOS>ATOM
  1 F       -0.9410     0.4570    -2.5720 F     1 <1>  -0.1900 
  2 C       -1.9020    -0.2970    -2.0780 C.ar  1 <1>   0.1900 
  3 C       -2.8290     0.1900    -1.1580 C.ar  1 <1>   0.4100 
  4 C       -1.9800    -1.6000    -2.4790 C.ar  1 <1>   0.1600 
  5 N       -3.7510    -0.6290    -0.6840 N.ar  1 <1>  -0.6200 
  6 N       -2.8520     1.5000    -0.6780 N.pl3 1 <1>  -0.8380 
  7 N       -2.9070    -2.4120    -2.0150 N.ar  1 <1>  -0.6200 
  8 C       -3.7480    -1.8850    -1.1240 C.ar  1 <1>   0.7200 
  9 C       -2.4180     2.6680    -1.4800 C.3   1 <1>   0.2090 
 10 C       -3.7870     1.9250     0.3920 C.3   1 <1>   0.2090 
 11 N       -4.7140    -2.7340    -0.6120 N.pl3 1 <1>  -0.8380 
 12 C       -3.2700     3.8300    -0.9840 C.3   1 <1>  -0.1600 
 13 C       -3.6630     3.4420     0.4370 C.3   1 <1>  -0.1600 
 14 C       -5.3130    -3.8020    -1.4660 C.3   1 <1>   0.2090 
 15 C       -5.5360    -2.3310     0.5620 C.3   1 <1>   0.2090 
 16 C       -5.6940    -5.0860    -0.6910 C.3   1 <1>   0.0000 
 17 C       -5.8700    -3.5490     1.4160 C.3   1 <1>  -0.1600 
 18 C       -6.4880    -4.6720     0.5790 C.3   1 <1>   0.2000 
 19 C       -6.6850    -5.8810    -1.5790 C.3   1 <1>   0.1200 
 20 C       -4.4510    -6.0080    -0.4440 C.3   1 <1>  -0.0170 
 21 O       -6.6740    -5.7580     1.4080 O.3   1 <1>  -0.6800 
 22 O       -6.1030    -6.2820    -2.7790 O.3   1 <1>  -0.6800 
 23 C       -3.6200    -5.8070     0.8200 C.ar  1 <1>  -0.1430 
 24 C       -3.7810    -6.6540     1.9090 C.ar  1 <1>  -0.1500 
 25 C       -2.6760    -4.7950     0.8900 C.ar  1 <1>  -0.1500 
 26 C       -3.0340    -6.4690     3.0590 C.ar  1 <1>  -0.1500 
 27 C       -1.9280    -4.6070     2.0380 C.ar  1 <1>  -0.1500 
 28 C       -2.1090    -5.4420     3.1260 C.ar  1 <1>  -0.1500 
 29 H       -1.2710    -1.9850    -3.1900 H     1 <1>   0.1500 
 30 H       -1.3760     2.8580    -1.2860 H     1 <1>   0.0800 
 31 H       -2.5670     2.4990    -2.5330 H     1 <1>   0.0800 
 32 H       -4.7910     1.6400     0.1240 H     1 <1>   0.0800 
 33 H       -3.5210     1.4730     1.3320 H     1 <1>   0.0800 
 34 H       -2.7360     4.7620    -1.0240 H     1 <1>   0.0800 
 35 H       -4.1500     3.9020    -1.6000 H     1 <1>   0.0800 
 36 H       -4.5780     3.9080     0.7550 H     1 <1>   0.0800 
 37 H       -2.8750     3.7050     1.1210 H     1 <1>   0.0800 
 38 H       -6.1990    -3.3870    -1.9140 H     1 <1>   0.0800 
 39 H       -4.6500    -4.0650    -2.2710 H     1 <1>   0.0800 
 40 H       -5.0040    -1.6230     1.1750 H     1 <1>   0.0800 
 41 H       -6.4400    -1.8620     0.2120 H     1 <1>   0.0800 
 42 H       -6.5700    -3.2510     2.1760 H     1 <1>   0.0800 
 43 H       -4.9760    -3.8730     1.9100 H     1 <1>   0.0800 
 44 H       -7.4690    -4.3430     0.2780 H     1 <1>   0.0800 
 45 H       -7.5580    -5.2950    -1.8140 H     1 <1>   0.0800 
 46 H       -7.0100    -6.7710    -1.0660 H     1 <1>   0.0800 
 47 H       -4.7860    -7.0300    -0.4300 H     1 <1>   0.0800 
 48 H       -3.7900    -5.9380    -1.2900 H     1 <1>   0.0800 
 49 H       -5.8010    -5.9890     1.7920 H     1 <1>   0.4000 
 50 H       -5.9340    -5.5240    -3.3720 H     1 <1>   0.4000 
 51 H       -4.4840    -7.4690     1.8670 H     1 <1>   0.1500 
 52 H       -2.5240    -4.1440     0.0480 H     1 <1>   0.1500 
 53 H       -3.1680    -7.1260     3.9010 H     1 <1>   0.1500 
 54 H       -1.2070    -3.8100     2.0800 H     1 <1>   0.1500 
 55 H       -1.5280    -5.2950     4.0190 H     1 <1>   0.1500 
@<TRIPOS>BOND
  1   1   2  1   
  2   2   3  ar  
  3   2   4  ar  
  4   3   5  ar  
  5   3   6  1   
  6   4   7  ar  
  7   4  29  1   
  8   5   8  ar  
  9   6   9  1   
 10   6  10  1   
 11   7   8  ar  
 12   8  11  1   
 13   9  12  1   
 14   9  30  1   
 15   9  31  1   
 16  10  13  1   
 17  10  32  1   
 18  10  33  1   
 19  11  14  1   
 20  11  15  1   
 21  12  13  1   
 22  12  34  1   
 23  12  35  1   
 24  13  36  1   
 25  13  37  1   
 26  14  16  1   
 27  14  38  1   
 28  14  39  1   
 29  15  17  1   
 30  15  40  1   
 31  15  41  1   
 32  16  18  1   
 33  16  19  1   
 34  16  20  1   
 35  17  18  1   
 36  17  42  1   
 37  17  43  1   
 38  18  21  1   
 39  18  44  1   
 40  19  22  1   
 41  19  45  1   
 42  19  46  1   
 43  20  23  1   
 44  20  47  1   
 45  20  48  1   
 46  21  49  1   
 47  22  50  1   
 48  23  24  ar  
 49  23  25  ar  
 50  24  26  ar  
 51  24  51  1   
 52  25  27  ar  
 53  25  52  1   
 54  26  28  ar  
 55  26  53  1   
 56  27  28  ar  
 57  27  54  1   
 58  28  55  1   
@<TRIPOS>SUBSTRUCTURE
  1 ****  11 GROUP 4 **** **** 0

# MOE 2024.06 (io_trps.svl 2023.06)
