@<TRIPOS>MOLECULE
NONAME
50 53 1 0 0 
SMALL
USER_CHARGES


@<TRIPOS>ATOM
  1 O       -0.9280    -0.9650     0.9900 O.3   1 <1>  -0.5600 
  2 C       -0.0400    -0.4570     0.0390 C.3   1 <1>   0.1200 
  3 C       -2.1010    -0.2040     1.0280 C.3   1 <1>   0.1200 
  4 C       -0.4420     0.9950    -0.1920 C.3   1 <1>   0.2890 
  5 C       -1.9490     0.9070    -0.0130 C.3   1 <1>  -0.0800 
  6 N        0.1630     1.8530     0.8520 N.pl3 1 <1>  -0.8690 
  7 C       -2.6530     2.2240     0.3690 C.3   1 <1>  -0.0170 
  8 C        0.7310     3.0610     0.6530 C.ar  1 <1>   0.7200 
  9 C       -4.1680     2.0470     0.3930 C.ar  1 <1>  -0.1440 
 10 N        1.4680     3.4890     1.6640 N.ar  1 <1>  -0.6200 
 11 N        0.4900     3.6830    -0.4940 N.ar  1 <1>  -0.6200 
 12 C       -4.9460     2.0220    -0.7880 C.ar  1 <1>   0.0000 
 13 C       -4.8200     1.9000     1.5820 C.ar  1 <1>  -0.1500 
 14 C        2.0210     4.6660     1.4990 C.ar  1 <1>   0.1600 
 15 C        1.0570     4.8570    -0.6260 C.ar  1 <1>   0.1600 
 16 C       -6.3420     1.8250    -0.6500 C.ar  1 <1>   0.3100 
 17 C       -4.4250     2.1820    -2.0930 C.ar  1 <1>  -0.1500 
 18 C       -6.2080     1.7190     1.6080 C.ar  1 <1>   0.1600 
 19 C        1.8510     5.4140     0.3540 C.ar  1 <1>  -0.1430 
 20 N       -6.9560     1.6750     0.5510 N.ar  1 <1>  -0.6200 
 21 C       -7.1380     1.7830    -1.8060 C.ar  1 <1>  -0.1500 
 22 C       -5.2290     2.1370    -3.1980 C.ar  1 <1>  -0.1500 
 23 C        2.5090     6.7810     0.1970 C.3   1 <1>   0.0630 
 24 C       -6.6030     1.9330    -3.0560 C.ar  1 <1>  -0.1500 
 25 C        1.4530     7.8790     0.0380 C.3   1 <1>  -0.2400 
 26 C        3.4780     6.7850    -0.9900 C.3   1 <1>  -0.2400 
 27 H        0.9700    -0.5550     0.3950 H     1 <1>   0.0800 
 28 H       -0.1670    -1.0300    -0.8630 H     1 <1>   0.0800 
 29 H       -2.9440    -0.8400     0.8190 H     1 <1>   0.0800 
 30 H       -2.1880     0.2020     2.0210 H     1 <1>   0.0800 
 31 H       -0.1630     1.3320    -1.1760 H     1 <1>   0.0800 
 32 H       -2.3680     0.5430    -0.9340 H     1 <1>   0.0800 
 33 H        0.4210     1.3940     1.7240 H     1 <1>   0.4000 
 34 H       -2.3840     3.0030    -0.3220 H     1 <1>   0.0800 
 35 H       -2.3170     2.5470     1.3390 H     1 <1>   0.0800 
 36 H       -4.2930     1.9160     2.5190 H     1 <1>   0.1500 
 37 H        2.6290     5.0440     2.3030 H     1 <1>   0.1500 
 38 H        0.8840     5.3930    -1.5430 H     1 <1>   0.1500 
 39 H       -3.3720     2.3460    -2.2240 H     1 <1>   0.1500 
 40 H       -6.6820     1.6070     2.5680 H     1 <1>   0.1500 
 41 H       -8.1920     1.6270    -1.6720 H     1 <1>   0.1500 
 42 H       -4.8180     2.2600    -4.1860 H     1 <1>   0.1500 
 43 H        3.0770     6.9970     1.0870 H     1 <1>   0.0800 
 44 H       -7.2260     1.8990    -3.9330 H     1 <1>   0.1500 
 45 H        0.8850     7.7410    -0.8650 H     1 <1>   0.0800 
 46 H        1.9240     8.8450     0.0010 H     1 <1>   0.0800 
 47 H        0.7760     7.8620     0.8740 H     1 <1>   0.0800 
 48 H        2.9560     6.6220    -1.9150 H     1 <1>   0.0800 
 49 H        4.2120     6.0070    -0.8680 H     1 <1>   0.0800 
 50 H        3.9910     7.7290    -1.0480 H     1 <1>   0.0800 
@<TRIPOS>BOND
  1   1   2  1   
  2   1   3  1   
  3   2   4  1   
  4   2  27  1   
  5   2  28  1   
  6   3   5  1   
  7   3  29  1   
  8   3  30  1   
  9   4   5  1   
 10   4   6  1   
 11   4  31  1   
 12   5   7  1   
 13   5  32  1   
 14   6   8  1   
 15   6  33  1   
 16   7   9  1   
 17   7  34  1   
 18   7  35  1   
 19   8  10  ar  
 20   8  11  ar  
 21   9  12  ar  
 22   9  13  ar  
 23  10  14  ar  
 24  11  15  ar  
 25  12  16  ar  
 26  12  17  ar  
 27  13  18  ar  
 28  13  36  1   
 29  14  19  ar  
 30  14  37  1   
 31  15  19  ar  
 32  15  38  1   
 33  16  20  ar  
 34  16  21  ar  
 35  17  22  ar  
 36  17  39  1   
 37  18  20  ar  
 38  18  40  1   
 39  19  23  1   
 40  21  24  ar  
 41  21  41  1   
 42  22  24  ar  
 43  22  42  1   
 44  23  25  1   
 45  23  26  1   
 46  23  43  1   
 47  24  44  1   
 48  25  45  1   
 49  25  46  1   
 50  25  47  1   
 51  26  48  1   
 52  26  49  1   
 53  26  50  1   
@<TRIPOS>SUBSTRUCTURE
  1 ****   7 GROUP 4 **** **** 0

# MOE 2024.06 (io_trps.svl 2023.06)
