@<TRIPOS>MOLECULE
NONAME
43 45 1 0 0 
SMALL
USER_CHARGES


@<TRIPOS>ATOM
  1 CL       0.1070    -0.1220     2.5680 Cl    1 <1>  -0.1770 
  2 C        1.4430     0.6100     1.7120 C.ar  1 <1>   0.1770 
  3 C        2.3210    -0.1960     1.0100 C.ar  1 <1>  -0.1440 
  4 C        1.5880     1.9860     1.7410 C.ar  1 <1>  -0.1500 
  5 C        3.3500     0.4290     0.3280 C.ar  1 <1>   0.1900 
  6 C        2.1690    -1.7000     0.9920 C.3   1 <1>   0.4860 
  7 C        2.6330     2.5820     1.0510 C.ar  1 <1>  -0.1500 
  8 F        4.1760    -0.3220    -0.3540 F     1 <1>  -0.1900 
  9 C        3.5310     1.8060     0.3320 C.ar  1 <1>  -0.1440 
 10 N        1.6890    -2.1500    -0.3470 N.4   1 <1>  -0.9590 
 11 C        4.6790     2.4580    -0.4260 C.3   1 <1>  -0.0970 
 12 C        0.3680    -1.5570    -0.7380 C.3   1 <1>   0.3430 
 13 C        1.4900    -3.6250    -0.3760 C.3   1 <1>   0.3430 
 14 C       -0.7000    -2.6200    -0.4410 C.3   1 <1>   0.2000 
 15 C        0.0470    -3.8500     0.0790 C.3   1 <1>  -0.0800 
 16 O       -1.6030    -2.1830     0.5160 O.3   1 <1>  -0.6800 
 17 C       -0.5650    -5.1710    -0.4250 C.3   1 <1>  -0.0170 
 18 C        0.1720    -6.3910     0.1090 C.ar  1 <1>   0.1670 
 19 N        1.4290    -6.5390    -0.2850 N.ar  1 <1>  -0.6200 
 20 C       -0.4780    -7.2840     0.9610 C.ar  1 <1>   0.1600 
 21 C        1.9780    -7.6390     0.2110 C.ar  1 <1>   0.1600 
 22 N        0.0780    -8.3700     1.4690 N.ar  1 <1>  -0.6200 
 23 C        1.3250    -8.5230     1.0600 C.ar  1 <1>   0.1600 
 24 H        0.8900     2.5870     2.2980 H     1 <1>   0.1500 
 25 H        1.4780    -2.0120     1.7570 H     1 <1>   0.0800 
 26 H        3.1260    -2.1510     1.2050 H     1 <1>   0.0800 
 27 H        2.7410     3.6540     1.0800 H     1 <1>   0.1500 
 28 H        2.4140    -1.8730    -1.0280 H     1 <1>   0.4500 
 29 H        4.6740     3.5250    -0.2940 H     1 <1>   0.0800 
 30 H        4.5960     2.2460    -1.4780 H     1 <1>   0.0800 
 31 H        5.6200     2.0770    -0.0700 H     1 <1>   0.0800 
 32 H        0.1590    -0.6420    -0.2080 H     1 <1>   0.0800 
 33 H        0.3670    -1.3540    -1.7970 H     1 <1>   0.0800 
 34 H        1.6040    -3.9900    -1.3850 H     1 <1>   0.0800 
 35 H        2.1910    -4.1460     0.2580 H     1 <1>   0.0800 
 36 H       -1.2560    -2.8330    -1.3390 H     1 <1>   0.0800 
 37 H        0.0420    -3.8580     1.1550 H     1 <1>   0.0800 
 38 H       -1.1900    -1.9600     1.3760 H     1 <1>   0.4000 
 39 H       -0.5410    -5.2050    -1.5010 H     1 <1>   0.0800 
 40 H       -1.5980    -5.2150    -0.1260 H     1 <1>   0.0800 
 41 H       -1.5010    -7.0960     1.2370 H     1 <1>   0.1500 
 42 H        2.9950    -7.8550    -0.0670 H     1 <1>   0.1500 
 43 H        1.8540    -9.3910     1.4140 H     1 <1>   0.1500 
@<TRIPOS>BOND
  1   1   2  1   
  2   2   3  ar  
  3   2   4  ar  
  4   3   5  ar  
  5   3   6  1   
  6   4   7  ar  
  7   4  24  1   
  8   5   8  1   
  9   5   9  ar  
 10   6  10  1   
 11   6  25  1   
 12   6  26  1   
 13   7   9  ar  
 14   7  27  1   
 15   9  11  1   
 16  10  12  1   
 17  10  13  1   
 18  10  28  1   
 19  11  29  1   
 20  11  30  1   
 21  11  31  1   
 22  12  14  1   
 23  12  32  1   
 24  12  33  1   
 25  13  15  1   
 26  13  34  1   
 27  13  35  1   
 28  14  15  1   
 29  14  16  1   
 30  14  36  1   
 31  15  17  1   
 32  15  37  1   
 33  16  38  1   
 34  17  18  1   
 35  17  39  1   
 36  17  40  1   
 37  18  19  ar  
 38  18  20  ar  
 39  19  21  ar  
 40  20  22  ar  
 41  20  41  1   
 42  21  23  ar  
 43  21  42  1   
 44  22  23  ar  
 45  23  43  1   
@<TRIPOS>SUBSTRUCTURE
  1 ****  10 GROUP 4 **** **** 0

# MOE 2024.06 (io_trps.svl 2023.06)
