@<TRIPOS>MOLECULE
NONAME
45 47 1 0 0 
SMALL
USER_CHARGES


@<TRIPOS>ATOM
  1 O       -0.3140    -0.8240     0.4310 O.2   1 <1>  -0.5700 
  2 C       -0.5910    -1.9920     0.5000 C.2   1 <1>   0.4230 
  3 C       -1.9510    -2.4880     0.4370 C.ar  1 <1>   0.0860 
  4 C        0.5670    -2.9590     0.6600 C.3   1 <1>  -0.1790 
  5 C       -3.0300    -1.6250     0.3620 C.ar  1 <1>  -0.1500 
  6 C       -2.2940    -3.8370     0.4440 C.ar  1 <1>  -0.1500 
  7 C       -4.3380    -2.0890     0.2920 C.ar  1 <1>   0.4100 
  8 C       -3.6190    -4.2160     0.3830 C.ar  1 <1>   0.1600 
  9 N       -4.6370    -3.3820     0.3100 N.ar  1 <1>  -0.6200 
 10 N       -5.3960    -1.2000     0.2020 N.pl3 1 <1>  -0.8380 
 11 C       -6.7140    -1.4750     0.8600 C.3   1 <1>   0.2090 
 12 C       -5.3340     0.0570    -0.5870 C.3   1 <1>   0.2090 
 13 C       -7.8760    -1.4670    -0.1670 C.3   1 <1>   0.0000 
 14 C       -6.4710     0.0900    -1.6140 C.3   1 <1>  -0.1600 
 15 C       -9.2330    -1.6790     0.5260 C.3   1 <1>   0.2000 
 16 C       -7.8470    -0.1460    -0.9670 C.3   1 <1>  -0.1600 
 17 C       -7.8000    -2.7030    -1.0800 C.3   1 <1>  -0.1600 
 18 O       -9.3140    -0.9740     1.7300 O.3   1 <1>  -0.5600 
 19 C       -9.3540    -3.1890     0.7530 C.3   1 <1>  -0.1600 
 20 C       -8.4250    -3.8470    -0.2770 C.3   1 <1>  -0.1600 
 21 C      -10.5970    -0.8630     2.2600 C.3   1 <1>   0.0400 
 22 H        0.4400    -3.5420     1.5520 H     1 <1>   0.0800 
 23 H        1.4890    -2.4110     0.7370 H     1 <1>   0.0800 
 24 H        0.6260    -3.6060    -0.1950 H     1 <1>   0.0800 
 25 H       -2.8530    -0.5670     0.3710 H     1 <1>   0.1500 
 26 H       -1.5410    -4.5990     0.4990 H     1 <1>   0.1500 
 27 H       -3.8610    -5.2650     0.3940 H     1 <1>   0.1500 
 28 H       -6.6860    -2.4130     1.3840 H     1 <1>   0.0800 
 29 H       -6.8810    -0.7070     1.5950 H     1 <1>   0.0800 
 30 H       -5.4230     0.8940     0.0840 H     1 <1>   0.0800 
 31 H       -4.3930     0.1310    -1.1040 H     1 <1>   0.0800 
 32 H       -6.4670     1.0430    -2.1110 H     1 <1>   0.0800 
 33 H       -6.2820    -0.6640    -2.3570 H     1 <1>   0.0800 
 34 H      -10.0180    -1.3440    -0.1310 H     1 <1>   0.0800 
 35 H       -8.6070    -0.1540    -1.7270 H     1 <1>   0.0800 
 36 H       -8.0610     0.6680    -0.2960 H     1 <1>   0.0800 
 37 H       -8.3880    -2.5370    -1.9660 H     1 <1>   0.0800 
 38 H       -6.7920    -2.9330    -1.3790 H     1 <1>   0.0800 
 39 H       -9.0240    -3.4450     1.7450 H     1 <1>   0.0800 
 40 H      -10.3690    -3.5120     0.6130 H     1 <1>   0.0800 
 41 H       -7.6480    -4.3910     0.2330 H     1 <1>   0.0800 
 42 H       -8.9580    -4.5250    -0.9210 H     1 <1>   0.0800 
 43 H      -10.5340    -0.2880     3.1660 H     1 <1>   0.0800 
 44 H      -10.9800    -1.8440     2.4820 H     1 <1>   0.0800 
 45 H      -11.2310    -0.3570     1.5530 H     1 <1>   0.0800 
@<TRIPOS>BOND
  1   1   2  2   
  2   2   3  1   
  3   2   4  1   
  4   3   5  ar  
  5   3   6  ar  
  6   4  22  1   
  7   4  23  1   
  8   4  24  1   
  9   5   7  ar  
 10   5  25  1   
 11   6   8  ar  
 12   6  26  1   
 13   7   9  ar  
 14   7  10  1   
 15   8   9  ar  
 16   8  27  1   
 17  10  11  1   
 18  10  12  1   
 19  11  13  1   
 20  11  28  1   
 21  11  29  1   
 22  12  14  1   
 23  12  30  1   
 24  12  31  1   
 25  13  15  1   
 26  13  16  1   
 27  13  17  1   
 28  14  16  1   
 29  14  32  1   
 30  14  33  1   
 31  15  18  1   
 32  15  19  1   
 33  15  34  1   
 34  16  35  1   
 35  16  36  1   
 36  17  20  1   
 37  17  37  1   
 38  17  38  1   
 39  18  21  1   
 40  19  20  1   
 41  19  39  1   
 42  19  40  1   
 43  20  41  1   
 44  20  42  1   
 45  21  43  1   
 46  21  44  1   
 47  21  45  1   
@<TRIPOS>SUBSTRUCTURE
  1 ****  10 GROUP 4 **** **** 0

# MOE 2024.06 (io_trps.svl 2023.06)
