@<TRIPOS>MOLECULE
NONAME
43 45 1 0 0 
SMALL
USER_CHARGES


@<TRIPOS>ATOM
  1 CL      -2.1350    -1.1750    -1.1700 Cl    1 <1>  -0.1770 
  2 C       -2.5250     0.4440    -0.6510 C.ar  1 <1>   0.1770 
  3 C       -1.7010     1.4870    -1.0180 C.ar  1 <1>  -0.1500 
  4 C       -3.6500     0.6520     0.1210 C.ar  1 <1>  -0.1500 
  5 C       -1.9830     2.7900    -0.6100 C.ar  1 <1>   0.0860 
  6 C       -3.9600     1.9370     0.5320 C.ar  1 <1>  -0.1440 
  7 C       -1.1080     3.8930    -0.9750 C.2   1 <1>   0.5440 
  8 C       -3.1320     2.9860     0.1640 C.ar  1 <1>  -0.1500 
  9 C       -5.2000     2.1790     1.3740 C.3   1 <1>  -0.0960 
 10 O       -0.2370     3.7710    -1.8170 O.2   1 <1>  -0.5700 
 11 N       -1.1590     5.1040    -0.3360 N.am  1 <1>  -0.6600 
 12 C       -0.4750     5.1950     1.0020 C.3   1 <1>   0.2200 
 13 C       -1.2890     6.3390    -1.1710 C.3   1 <1>   0.1400 
 14 C       -0.9680     6.3780     1.8510 C.3   1 <1>   0.1200 
 15 C        1.0680     5.2380     0.8400 C.3   1 <1>   0.3430 
 16 C       -0.2720     7.4540    -0.8570 C.3   1 <1>  -0.0800 
 17 O       -0.2370     7.5310     1.5590 O.3   1 <1>  -0.5600 
 18 N        1.5010     5.6210    -0.5500 N.4   1 <1>  -0.9590 
 19 C       -0.6300     8.2250     0.4230 C.3   1 <1>   0.1200 
 20 C        1.2170     7.0470    -0.9050 C.3   1 <1>   0.3430 
 21 C        2.9220     5.2590    -0.8060 C.3   1 <1>   0.2630 
 22 H       -0.8370     1.2820    -1.6250 H     1 <1>   0.1500 
 23 H       -4.2710    -0.1840     0.3900 H     1 <1>   0.1500 
 24 H       -3.3850     3.9820     0.4800 H     1 <1>   0.1500 
 25 H       -5.4430     3.2260     1.4150 H     1 <1>   0.0800 
 26 H       -5.0380     1.8230     2.3760 H     1 <1>   0.0800 
 27 H       -6.0400     1.6550     0.9540 H     1 <1>   0.0800 
 28 H       -0.7210     4.3050     1.5550 H     1 <1>   0.0800 
 29 H       -1.1930     6.0700    -2.2110 H     1 <1>   0.0800 
 30 H       -2.2870     6.7260    -1.0460 H     1 <1>   0.0800 
 31 H       -0.7910     6.1640     2.8910 H     1 <1>   0.0800 
 32 H       -2.0210     6.5590     1.7190 H     1 <1>   0.0800 
 33 H        1.4470     4.2560     1.0630 H     1 <1>   0.0800 
 34 H        1.4900     5.9190     1.5620 H     1 <1>   0.0800 
 35 H       -0.3980     8.1780    -1.6420 H     1 <1>   0.0800 
 36 H        0.8980     5.0360    -1.1740 H     1 <1>   0.4500 
 37 H       -1.6860     8.4320     0.4850 H     1 <1>   0.0800 
 38 H       -0.1070     9.1660     0.4390 H     1 <1>   0.0800 
 39 H        1.7760     7.6980    -0.2530 H     1 <1>   0.0800 
 40 H        1.5690     7.2160    -1.9090 H     1 <1>   0.0800 
 41 H        3.5760     5.8270    -0.1650 H     1 <1>   0.0800 
 42 H        3.1780     5.4630    -1.8340 H     1 <1>   0.0800 
 43 H        3.0770     4.2090    -0.6200 H     1 <1>   0.0800 
@<TRIPOS>BOND
  1   1   2  1   
  2   2   3  ar  
  3   2   4  ar  
  4   3   5  ar  
  5   3  22  1   
  6   4   6  ar  
  7   4  23  1   
  8   5   7  1   
  9   5   8  ar  
 10   6   8  ar  
 11   6   9  1   
 12   7  10  2   
 13   7  11  am  
 14   8  24  1   
 15   9  25  1   
 16   9  26  1   
 17   9  27  1   
 18  11  12  1   
 19  11  13  1   
 20  12  14  1   
 21  12  15  1   
 22  12  28  1   
 23  13  16  1   
 24  13  29  1   
 25  13  30  1   
 26  14  17  1   
 27  14  31  1   
 28  14  32  1   
 29  15  18  1   
 30  15  33  1   
 31  15  34  1   
 32  16  19  1   
 33  16  20  1   
 34  16  35  1   
 35  17  19  1   
 36  18  20  1   
 37  18  21  1   
 38  18  36  1   
 39  19  37  1   
 40  19  38  1   
 41  20  39  1   
 42  20  40  1   
 43  21  41  1   
 44  21  42  1   
 45  21  43  1   
@<TRIPOS>SUBSTRUCTURE
  1 ****   7 GROUP 4 **** **** 0

# MOE 2024.06 (io_trps.svl 2023.06)
