@<TRIPOS>MOLECULE
NONAME
52 55 1 0 0 
SMALL
USER_CHARGES


@<TRIPOS>ATOM
  1 O       -1.7660    -1.0510    -1.3830 O.2   1 <1>  -0.5700 
  2 C       -2.3340    -0.3760    -0.5520 C.2   1 <1>   0.5440 
  3 N       -1.6110     0.6400    -0.0260 N.am  1 <1>  -0.8000 
  4 C       -3.7030    -0.6540    -0.1510 C.ar  1 <1>   0.0860 
  5 C       -4.4450     0.2190     0.6360 C.ar  1 <1>  -0.1500 
  6 C       -4.3370    -1.8370    -0.5550 C.ar  1 <1>  -0.1500 
  7 C       -5.7590    -0.0470     1.0250 C.ar  1 <1>   0.0860 
  8 C       -5.6320    -2.1260    -0.1910 C.ar  1 <1>  -0.1500 
  9 C       -6.5280     0.8520     1.8450 C.2   1 <1>   0.4690 
 10 C       -6.3610    -1.2410     0.5980 C.ar  1 <1>   0.1000 
 11 O       -6.0730     1.9130     2.2450 O.2   1 <1>  -0.5700 
 12 C       -7.8590     0.4920     2.1760 C.2   1 <1>  -0.1360 
 13 N       -7.6690    -1.5290     0.9650 N.pl3 1 <1>  -0.6000 
 14 C       -8.4190    -0.6640     1.7390 C.2   1 <1>  -0.0380 
 15 C       -9.8630    -1.0280     2.0600 C.3   1 <1>   0.4810 
 16 N      -10.6580    -0.9140     0.8090 N.4   1 <1>  -0.9590 
 17 C      -11.9750    -1.6120     0.9460 C.3   1 <1>   0.3430 
 18 C      -10.8350     0.5100     0.3980 C.3   1 <1>   0.3430 
 19 C      -12.7710    -1.6030    -0.3790 C.3   1 <1>   0.0000 
 20 C      -11.5760     0.5750    -0.9390 C.3   1 <1>  -0.1600 
 21 C      -14.1370    -2.2830    -0.1690 C.3   1 <1>   0.2000 
 22 C      -12.9280    -0.1530    -0.8800 C.3   1 <1>  -0.1600 
 23 C      -12.1040    -2.5170    -1.4210 C.3   1 <1>  -0.1600 
 24 O      -14.6030    -2.0680     1.1170 O.3   1 <1>  -0.6800 
 25 C      -13.9280    -3.7820    -0.4060 C.3   1 <1>  -0.1600 
 26 C      -12.5400    -3.9320    -1.0420 C.3   1 <1>  -0.1600 
 27 H       -0.6510     0.7690    -0.3490 H     1 <1>   0.3700 
 28 H       -1.9260     1.2550     0.7230 H     1 <1>   0.3700 
 29 H       -4.0060     1.1430     0.9650 H     1 <1>   0.1500 
 30 H       -3.7860    -2.5320    -1.1670 H     1 <1>   0.1500 
 31 H       -6.0820    -3.0460    -0.5210 H     1 <1>   0.1500 
 32 H       -8.3860     1.2010     2.7880 H     1 <1>   0.1500 
 33 H       -8.0090    -2.4650     0.7100 H     1 <1>   0.4000 
 34 H      -10.2580    -0.3660     2.8130 H     1 <1>   0.0800 
 35 H       -9.8990    -2.0360     2.4380 H     1 <1>   0.0800 
 36 H      -10.1220    -1.3720     0.0650 H     1 <1>   0.4500 
 37 H      -11.8290    -2.6330     1.2580 H     1 <1>   0.0800 
 38 H      -12.5630    -1.1180     1.7030 H     1 <1>   0.0800 
 39 H      -11.4040     1.0380     1.1460 H     1 <1>   0.0800 
 40 H       -9.8740     0.9900     0.2970 H     1 <1>   0.0800 
 41 H      -11.7430     1.6080    -1.1930 H     1 <1>   0.0800 
 42 H      -10.9590     0.1550    -1.7140 H     1 <1>   0.0800 
 43 H      -14.8630    -1.8970    -0.8670 H     1 <1>   0.0800 
 44 H      -13.3910    -0.1400    -1.8530 H     1 <1>   0.0800 
 45 H      -13.5820     0.3800    -0.2080 H     1 <1>   0.0800 
 46 H      -12.4970    -2.2930    -2.4000 H     1 <1>   0.0800 
 47 H      -11.0330    -2.4260    -1.4620 H     1 <1>   0.0800 
 48 H      -15.4940    -2.4620     1.2200 H     1 <1>   0.4000 
 49 H      -13.9800    -4.3480     0.5090 H     1 <1>   0.0800 
 50 H      -14.6800    -4.1430    -1.0850 H     1 <1>   0.0800 
 51 H      -11.8570    -4.3510    -0.3230 H     1 <1>   0.0800 
 52 H      -12.5690    -4.5800    -1.9030 H     1 <1>   0.0800 
@<TRIPOS>BOND
  1   1   2  2   
  2   2   3  am  
  3   2   4  1   
  4   3  27  1   
  5   3  28  1   
  6   4   5  ar  
  7   4   6  ar  
  8   5   7  ar  
  9   5  29  1   
 10   6   8  ar  
 11   6  30  1   
 12   7   9  1   
 13   7  10  ar  
 14   8  10  ar  
 15   8  31  1   
 16   9  11  2   
 17   9  12  1   
 18  10  13  1   
 19  12  14  2   
 20  12  32  1   
 21  13  14  1   
 22  13  33  1   
 23  14  15  1   
 24  15  16  1   
 25  15  34  1   
 26  15  35  1   
 27  16  17  1   
 28  16  18  1   
 29  16  36  1   
 30  17  19  1   
 31  17  37  1   
 32  17  38  1   
 33  18  20  1   
 34  18  39  1   
 35  18  40  1   
 36  19  21  1   
 37  19  22  1   
 38  19  23  1   
 39  20  22  1   
 40  20  41  1   
 41  20  42  1   
 42  21  24  1   
 43  21  25  1   
 44  21  43  1   
 45  22  44  1   
 46  22  45  1   
 47  23  26  1   
 48  23  46  1   
 49  23  47  1   
 50  24  48  1   
 51  25  26  1   
 52  25  49  1   
 53  25  50  1   
 54  26  51  1   
 55  26  52  1   
@<TRIPOS>SUBSTRUCTURE
  1 ****  13 GROUP 4 **** **** 0

# MOE 2024.06 (io_trps.svl 2023.06)
