@<TRIPOS>MOLECULE
NONAME
40 42 1 0 0 
SMALL
USER_CHARGES


@<TRIPOS>ATOM
  1 F        1.3530    -0.2870     2.2910 F     1 <1>  -0.1900 
  2 C        1.9630    -0.8840     1.3040 C.ar  1 <1>   0.1900 
  3 C        2.6200    -0.1120     0.3680 C.ar  1 <1>  -0.1500 
  4 C        1.9240    -2.2640     1.2390 C.ar  1 <1>  -0.1500 
  5 C        3.2520    -0.7900    -0.6550 C.ar  1 <1>   0.1900 
  6 C        2.5570    -2.9380     0.1910 C.ar  1 <1>   0.0860 
  7 F        3.8880    -0.1000    -1.5610 F     1 <1>  -0.1900 
  8 C        3.2350    -2.1680    -0.7570 C.ar  1 <1>  -0.1500 
  9 C        2.5290    -4.3850     0.0870 C.2   1 <1>   0.5440 
 10 O        3.5570    -4.9860    -0.1580 O.2   1 <1>  -0.5700 
 11 N        1.3650    -5.1010     0.2430 N.am  1 <1>  -0.6600 
 12 C       -0.0030    -4.5530     0.0580 C.3   1 <1>   0.1400 
 13 C        1.3410    -6.5850     0.1780 C.3   1 <1>   0.1400 
 14 C       -0.8370    -5.7430    -0.4120 C.3   1 <1>   0.2000 
 15 C       -0.1390    -6.9690     0.1680 C.3   1 <1>  -0.0800 
 16 O       -2.1420    -5.6660     0.0480 O.3   1 <1>  -0.6800 
 17 C       -0.4340    -8.2610    -0.6080 C.3   1 <1>   0.0210 
 18 C        0.3580    -9.4240    -0.0410 C.2   1 <1>   0.1080 
 19 N        0.2100    -9.8470     1.1760 N.2   1 <1>  -0.7070 
 20 C        1.3220   -10.1460    -0.7360 C.2   1 <1>  -0.1500 
 21 N        1.0840   -10.8650     1.2890 N.pl3 1 <1>   0.3000 
 22 C        1.7710   -11.0640     0.1450 C.2   1 <1>  -0.3320 
 23 C        2.8310   -12.1340    -0.0390 C.3   1 <1>  -0.0600 
 24 H        2.6410     0.9600     0.4330 H     1 <1>   0.1500 
 25 H        1.4090    -2.8180     2.0030 H     1 <1>   0.1500 
 26 H        3.7490    -2.6530    -1.5680 H     1 <1>   0.1500 
 27 H       -0.3680    -4.1870     1.0020 H     1 <1>   0.0800 
 28 H       -0.0090    -3.7680    -0.6780 H     1 <1>   0.0800 
 29 H        1.8300    -6.9060    -0.7260 H     1 <1>   0.0800 
 30 H        1.8510    -7.0130     1.0250 H     1 <1>   0.0800 
 31 H       -0.8560    -5.7700    -1.4880 H     1 <1>   0.0800 
 32 H       -0.4360    -7.1020     1.1940 H     1 <1>   0.0800 
 33 H       -2.1750    -5.8540     1.0070 H     1 <1>   0.4000 
 34 H       -0.1880    -8.1350    -1.6470 H     1 <1>   0.0800 
 35 H       -1.4820    -8.4930    -0.5370 H     1 <1>   0.0800 
 36 H        1.6260    -9.9850    -1.7550 H     1 <1>   0.1500 
 37 H        1.1880   -11.4010     2.1590 H     1 <1>   0.2700 
 38 H        3.2310   -12.0900    -1.0370 H     1 <1>   0.0800 
 39 H        2.4060   -13.1100     0.1160 H     1 <1>   0.0800 
 40 H        3.6350   -11.9850     0.6590 H     1 <1>   0.0800 
@<TRIPOS>BOND
  1   1   2  1   
  2   2   3  ar  
  3   2   4  ar  
  4   3   5  ar  
  5   3  24  1   
  6   4   6  ar  
  7   4  25  1   
  8   5   7  1   
  9   5   8  ar  
 10   6   8  ar  
 11   6   9  1   
 12   8  26  1   
 13   9  10  2   
 14   9  11  am  
 15  11  12  1   
 16  11  13  1   
 17  12  14  1   
 18  12  27  1   
 19  12  28  1   
 20  13  15  1   
 21  13  29  1   
 22  13  30  1   
 23  14  15  1   
 24  14  16  1   
 25  14  31  1   
 26  15  17  1   
 27  15  32  1   
 28  16  33  1   
 29  17  18  1   
 30  17  34  1   
 31  17  35  1   
 32  18  19  2   
 33  18  20  1   
 34  19  21  1   
 35  20  22  2   
 36  20  36  1   
 37  21  22  1   
 38  21  37  1   
 39  22  23  1   
 40  23  38  1   
 41  23  39  1   
 42  23  40  1   
@<TRIPOS>SUBSTRUCTURE
  1 ****  11 GROUP 4 **** **** 0

# MOE 2024.06 (io_trps.svl 2023.06)
