@<TRIPOS>MOLECULE
NONAME
47 49 1 0 0 
SMALL
USER_CHARGES


@<TRIPOS>ATOM
  1 CL      -1.3800    -1.1100    -0.5900 Cl    1 <1>  -0.1770 
  2 C       -2.9570    -0.3710    -0.5330 C.ar  1 <1>   0.1770 
  3 C       -3.8150    -0.6790     0.5060 C.ar  1 <1>  -0.1500 
  4 C       -3.3310     0.5130    -1.5260 C.ar  1 <1>  -0.1500 
  5 C       -5.0680    -0.0940     0.5430 C.ar  1 <1>  -0.1500 
  6 C       -4.5870     1.0920    -1.4790 C.ar  1 <1>  -0.1500 
  7 C       -5.4840     0.7960    -0.4500 C.ar  1 <1>   0.0530 
  8 C       -6.7950     1.3900    -0.4190 C.2   1 <1>   0.0870 
  9 O       -6.9880     2.6140    -0.8420 O.3   1 <1>  -0.0190 
 10 C       -7.9980     0.9240     0.0050 C.2   1 <1>  -0.0860 
 11 N       -8.2280     3.0070    -0.7080 N.2   1 <1>  -0.4100 
 12 C       -8.8520     2.0090    -0.1890 C.2   1 <1>   0.3720 
 13 C       -8.3960    -0.3450     0.5260 C.2   1 <1>   0.7160 
 14 N      -10.2030     1.9960     0.1400 N.pl3 1 <1>  -0.8520 
 15 O       -9.0580    -0.3840     1.5490 O.2   1 <1>  -0.5700 
 16 N       -8.0560    -1.5270    -0.0970 N.am  1 <1>  -0.6600 
 17 C      -10.8310     3.3010     0.4750 C.3   1 <1>   0.2090 
 18 C       -7.7980    -1.6250    -1.5630 C.3   1 <1>   0.1400 
 19 C       -8.1990    -2.8390     0.5920 C.3   1 <1>   0.1400 
 20 C      -12.3390     3.1220     0.6480 C.3   1 <1>   0.1200 
 21 C       -6.5550    -2.4810    -1.8290 C.3   1 <1>  -0.1600 
 22 C       -6.9450    -3.6860     0.3530 C.3   1 <1>  -0.1600 
 23 O      -12.8970     4.3370     1.0430 O.3   1 <1>  -0.5600 
 24 C       -6.6500    -3.8510    -1.1440 C.3   1 <1>  -0.1600 
 25 C      -14.2780     4.2940     1.2060 C.3   1 <1>   0.0400 
 26 H       -3.5010    -1.3660     1.2710 H     1 <1>   0.1500 
 27 H       -2.6460     0.7420    -2.3220 H     1 <1>   0.1500 
 28 H       -5.7330    -0.3320     1.3550 H     1 <1>   0.1500 
 29 H       -4.8820     1.7820    -2.2510 H     1 <1>   0.1500 
 30 H      -10.3740     1.2970     0.8780 H     1 <1>   0.4000 
 31 H      -10.6480     4.0050    -0.3190 H     1 <1>   0.0800 
 32 H      -10.4040     3.6800     1.3880 H     1 <1>   0.0800 
 33 H       -7.6690    -0.6520    -2.0020 H     1 <1>   0.0800 
 34 H       -8.6530    -2.0840    -2.0300 H     1 <1>   0.0800 
 35 H       -9.0660    -3.3460     0.2060 H     1 <1>   0.0800 
 36 H       -8.3360    -2.6960     1.6510 H     1 <1>   0.0800 
 37 H      -12.5420     2.3900     1.4090 H     1 <1>   0.0800 
 38 H      -12.7810     2.8250    -0.2880 H     1 <1>   0.0800 
 39 H       -5.6840    -1.9600    -1.4750 H     1 <1>   0.0800 
 40 H       -6.4390    -2.6170    -2.8900 H     1 <1>   0.0800 
 41 H       -7.0810    -4.6540     0.8030 H     1 <1>   0.0800 
 42 H       -6.1080    -3.2150     0.8380 H     1 <1>   0.0800 
 43 H       -5.7270    -4.3890    -1.2770 H     1 <1>   0.0800 
 44 H       -7.4380    -4.4250    -1.6010 H     1 <1>   0.0800 
 45 H      -14.6090     5.2720     1.5090 H     1 <1>   0.0800 
 46 H      -14.5250     3.5740     1.9670 H     1 <1>   0.0800 
 47 H      -14.7380     4.0300     0.2690 H     1 <1>   0.0800 
@<TRIPOS>BOND
  1   1   2  1   
  2   2   3  ar  
  3   2   4  ar  
  4   3   5  ar  
  5   3  26  1   
  6   4   6  ar  
  7   4  27  1   
  8   5   7  ar  
  9   5  28  1   
 10   6   7  ar  
 11   6  29  1   
 12   7   8  1   
 13   8   9  1   
 14   8  10  2   
 15   9  11  1   
 16  10  12  1   
 17  10  13  1   
 18  11  12  2   
 19  12  14  1   
 20  13  15  2   
 21  13  16  am  
 22  14  17  1   
 23  14  30  1   
 24  16  18  1   
 25  16  19  1   
 26  17  20  1   
 27  17  31  1   
 28  17  32  1   
 29  18  21  1   
 30  18  33  1   
 31  18  34  1   
 32  19  22  1   
 33  19  35  1   
 34  19  36  1   
 35  20  23  1   
 36  20  37  1   
 37  20  38  1   
 38  21  24  1   
 39  21  39  1   
 40  21  40  1   
 41  22  24  1   
 42  22  41  1   
 43  22  42  1   
 44  23  25  1   
 45  24  43  1   
 46  24  44  1   
 47  25  45  1   
 48  25  46  1   
 49  25  47  1   
@<TRIPOS>SUBSTRUCTURE
  1 ****  10 GROUP 4 **** **** 0

# MOE 2024.06 (io_trps.svl 2023.06)
