@<TRIPOS>MOLECULE
NONAME
34 36 1 0 0 
SMALL
USER_CHARGES


@<TRIPOS>ATOM
  1 F       -2.1930    -0.9360    -2.1980 F     1 <1>  -0.1900 
  2 C       -2.4360    -1.2630    -0.9560 C.ar  1 <1>   0.1900 
  3 C       -2.5870    -2.5990    -0.6160 C.ar  1 <1>  -0.1440 
  4 C       -2.5310    -0.2360    -0.0370 C.ar  1 <1>  -0.1500 
  5 C       -2.8590    -2.9170     0.7220 C.ar  1 <1>   0.0860 
  6 C       -2.4730    -3.6920    -1.6790 C.3   1 <1>  -0.0970 
  7 C       -2.7910    -0.5510     1.2830 C.ar  1 <1>  -0.1500 
  8 C       -3.0530    -4.2790     1.1780 C.2   1 <1>   0.5440 
  9 C       -2.9500    -1.8760     1.6480 C.ar  1 <1>  -0.1500 
 10 O       -2.1370    -4.8580     1.7340 O.2   1 <1>  -0.5700 
 11 N       -4.2530    -4.9150     1.0050 N.am  1 <1>  -0.6600 
 12 C       -5.4380    -4.3450     0.3030 C.3   1 <1>   0.2350 
 13 C       -4.4530    -6.3770     1.2090 C.3   1 <1>   0.2350 
 14 C       -6.0740    -5.5190    -0.4170 C.3   1 <1>  -0.2420 
 15 C       -5.4800    -6.7810     0.1630 C.3   1 <1>  -0.2420 
 16 C       -7.4890    -5.1520    -0.8720 C.2   1 <1>   0.9470 
 17 C       -5.2580    -6.4420    -1.2890 C.3   1 <1>  -0.2000 
 18 C       -6.1200    -8.1240     0.5210 C.2   1 <1>   0.9470 
 19 O       -7.7780    -5.2170    -2.0750 O.co2 1 <1>  -0.9000 
 20 O       -8.2600    -4.6240    -0.0590 O.co2 1 <1>  -0.9000 
 21 O       -6.0130    -9.0770    -0.2630 O.co2 1 <1>  -0.9000 
 22 O       -6.5970    -8.2780     1.6530 O.co2 1 <1>  -0.9000 
 23 H       -2.4060     0.7840    -0.3540 H     1 <1>   0.1500 
 24 H       -2.1180    -4.6150    -1.2550 H     1 <1>   0.0800 
 25 H       -1.7870    -3.4060    -2.4550 H     1 <1>   0.0800 
 26 H       -3.4370    -3.8700    -2.1220 H     1 <1>   0.0800 
 27 H       -2.8690     0.2290     2.0220 H     1 <1>   0.1500 
 28 H       -3.1540    -2.1270     2.6760 H     1 <1>   0.1500 
 29 H       -6.1220    -3.9480     1.0330 H     1 <1>   0.0800 
 30 H       -5.1710    -3.5760    -0.3970 H     1 <1>   0.0800 
 31 H       -3.5350    -6.9230     1.0780 H     1 <1>   0.0800 
 32 H       -4.8400    -6.5480     2.1990 H     1 <1>   0.0800 
 33 H       -4.2760    -6.1590    -1.6120 H     1 <1>   0.1000 
 34 H       -5.7810    -7.0310    -2.0240 H     1 <1>   0.1000 
@<TRIPOS>BOND
  1   1   2  1   
  2   2   3  ar  
  3   2   4  ar  
  4   3   5  ar  
  5   3   6  1   
  6   4   7  ar  
  7   4  23  1   
  8   5   8  1   
  9   5   9  ar  
 10   6  24  1   
 11   6  25  1   
 12   6  26  1   
 13   7   9  ar  
 14   7  27  1   
 15   8  10  2   
 16   8  11  am  
 17   9  28  1   
 18  11  12  1   
 19  11  13  1   
 20  12  14  1   
 21  12  29  1   
 22  12  30  1   
 23  13  15  1   
 24  13  31  1   
 25  13  32  1   
 26  14  15  1   
 27  14  16  1   
 28  14  17  1   
 29  15  17  1   
 30  15  18  1   
 31  16  19  ar  
 32  16  20  ar  
 33  17  33  1   
 34  17  34  1   
 35  18  21  ar  
 36  18  22  ar  
@<TRIPOS>SUBSTRUCTURE
  1 ****  12 GROUP 4 **** **** 0

# MOE 2024.06 (io_trps.svl 2023.06)
