@<TRIPOS>MOLECULE
NONAME
54 57 1 0 0 
SMALL
USER_CHARGES


@<TRIPOS>ATOM
  1 O        1.2210     1.7150     1.3710 O.3   1 <1>  -0.0190 
  2 N        2.0470     0.7330     1.5820 N.2   1 <1>  -0.4100 
  3 C        0.8180     1.7530     0.1280 C.2   1 <1>  -0.0400 
  4 C        2.1650     0.1170     0.4610 C.2   1 <1>   0.1080 
  5 C        1.3950     0.7320    -0.5230 C.2   1 <1>  -0.1500 
  6 C       -0.1260     2.8470    -0.3340 C.3   1 <1>   0.0200 
  7 C        3.0270    -1.1070     0.2490 C.3   1 <1>  -0.0590 
  8 C        0.4140     4.2360     0.0400 C.3   1 <1>  -0.0800 
  9 C       -0.3430     5.3820    -0.6250 C.3   1 <1>   0.2000 
 10 C        1.8680     4.4650    -0.3670 C.3   1 <1>   0.2090 
 11 O       -1.4850     5.6800     0.1020 O.3   1 <1>  -0.6800 
 12 C        0.6440     6.5520    -0.6580 C.3   1 <1>   0.2090 
 13 N        1.9990     5.9360    -0.5320 N.pl3 1 <1>  -0.8380 
 14 C        3.1460     6.6620    -0.4820 C.ar  1 <1>   0.4100 
 15 N        3.0340     7.9750    -0.5230 N.ar  1 <1>  -0.6200 
 16 C        4.4050     6.0390    -0.3900 C.ar  1 <1>  -0.1500 
 17 C        4.1340     8.7110    -0.4680 C.ar  1 <1>   0.7710 
 18 C        5.5200     6.8040    -0.3290 C.ar  1 <1>   0.2180 
 19 N        5.3490     8.1460    -0.3670 N.ar  1 <1>  -0.1790 
 20 N        4.0400    10.0690    -0.5080 N.pl3 1 <1>  -0.8380 
 21 C        6.9270     6.2410    -0.2200 C.3   1 <1>  -0.0970 
 22 C        5.1640    11.0540    -0.5940 C.3   1 <1>   0.2090 
 23 C        2.7140    10.7700    -0.4410 C.3   1 <1>   0.2090 
 24 C        5.1800    11.9090     0.6760 C.3   1 <1>  -0.1600 
 25 C        2.6700    11.6350     0.8230 C.3   1 <1>  -0.1600 
 26 C        3.8390    12.6300     0.8780 C.3   1 <1>  -0.1600 
 27 H        1.3120     0.4300    -1.5510 H     1 <1>   0.1500 
 28 H       -0.2510     2.7720    -1.4000 H     1 <1>   0.0800 
 29 H       -1.0880     2.7030     0.1250 H     1 <1>   0.0800 
 30 H        2.4230    -1.9210    -0.1070 H     1 <1>   0.0800 
 31 H        3.4870    -1.3970     1.1770 H     1 <1>   0.0800 
 32 H        3.7960    -0.8940    -0.4690 H     1 <1>   0.0800 
 33 H        0.3710     4.3530     1.1090 H     1 <1>   0.0800 
 34 H       -0.6370     5.1310    -1.6300 H     1 <1>   0.0800 
 35 H        2.0800     3.9840    -1.3070 H     1 <1>   0.0800 
 36 H        2.5340     4.0900     0.3930 H     1 <1>   0.0800 
 37 H       -1.2580     5.8840     1.0300 H     1 <1>   0.4000 
 38 H        0.4770     7.2190     0.1700 H     1 <1>   0.0800 
 39 H        0.5650     7.0910    -1.5860 H     1 <1>   0.0800 
 40 H        4.4610     4.9680    -0.3720 H     1 <1>   0.1500 
 41 H        6.1230     8.7920    -0.3010 H     1 <1>   0.4570 
 42 H        6.9000     5.1660    -0.1980 H     1 <1>   0.0800 
 43 H        7.4000     6.5820     0.6840 H     1 <1>   0.0800 
 44 H        7.5200     6.5440    -1.0650 H     1 <1>   0.0800 
 45 H        6.1170    10.5750    -0.7230 H     1 <1>   0.0800 
 46 H        5.0060    11.6920    -1.4490 H     1 <1>   0.0800 
 47 H        2.5960    11.3920    -1.3120 H     1 <1>   0.0800 
 48 H        1.8870    10.0810    -0.4220 H     1 <1>   0.0800 
 49 H        5.3850    11.2840     1.5270 H     1 <1>   0.0800 
 50 H        5.9670    12.6390     0.6070 H     1 <1>   0.0800 
 51 H        1.7400    12.1740     0.8500 H     1 <1>   0.0800 
 52 H        2.6970    10.9920     1.6850 H     1 <1>   0.0800 
 53 H        3.7120    13.3690     0.1050 H     1 <1>   0.0800 
 54 H        3.8380    13.1430     1.8250 H     1 <1>   0.0800 
@<TRIPOS>BOND
  1   1   2  1   
  2   1   3  1   
  3   2   4  2   
  4   3   5  2   
  5   3   6  1   
  6   4   5  1   
  7   4   7  1   
  8   5  27  1   
  9   6   8  1   
 10   6  28  1   
 11   6  29  1   
 12   7  30  1   
 13   7  31  1   
 14   7  32  1   
 15   8   9  1   
 16   8  10  1   
 17   8  33  1   
 18   9  11  1   
 19   9  12  1   
 20   9  34  1   
 21  10  13  1   
 22  10  35  1   
 23  10  36  1   
 24  11  37  1   
 25  12  13  1   
 26  12  38  1   
 27  12  39  1   
 28  13  14  1   
 29  14  15  ar  
 30  14  16  ar  
 31  15  17  ar  
 32  16  18  ar  
 33  16  40  1   
 34  17  19  ar  
 35  17  20  1   
 36  18  19  ar  
 37  18  21  1   
 38  19  41  1   
 39  20  22  1   
 40  20  23  1   
 41  21  42  1   
 42  21  43  1   
 43  21  44  1   
 44  22  24  1   
 45  22  45  1   
 46  22  46  1   
 47  23  25  1   
 48  23  47  1   
 49  23  48  1   
 50  24  26  1   
 51  24  49  1   
 52  24  50  1   
 53  25  26  1   
 54  25  51  1   
 55  25  52  1   
 56  26  53  1   
 57  26  54  1   
@<TRIPOS>SUBSTRUCTURE
  1 ****  13 GROUP 4 **** **** 0

# MOE 2024.06 (io_trps.svl 2023.06)
