@<TRIPOS>MOLECULE
NONAME
66 69 1 0 0 
SMALL
USER_CHARGES


@<TRIPOS>ATOM
  1 O       -0.6010     0.1820     0.9050 O.2   1 <1>  -0.5700 
  2 C       -1.4540     0.7170     0.2370 C.2   1 <1>   0.5690 
  3 N       -2.4450    -0.0100    -0.3570 N.am  1 <1>  -0.6600 
  4 C       -1.4190     2.2330     0.0700 C.3   1 <1>  -0.0990 
  5 C       -3.6480     0.5150    -1.0540 C.3   1 <1>   0.1400 
  6 C       -2.5590    -1.4820    -0.1860 C.3   1 <1>   0.1400 
  7 C       -0.0720     2.8860     0.4550 C.3   1 <1>  -0.0800 
  8 C       -4.7020    -0.5670    -0.8390 C.3   1 <1>   0.2000 
  9 C       -3.8900    -1.8690    -0.8480 C.3   1 <1>  -0.0800 
 10 C       -0.1720     4.4170     0.4320 C.3   1 <1>  -0.1600 
 11 C        1.0610     2.4680    -0.4990 C.3   1 <1>  -0.1600 
 12 O       -5.2610    -0.3710     0.4150 O.3   1 <1>  -0.6800 
 13 C       -4.6000    -3.0700    -0.1880 C.3   1 <1>  -0.0170 
 14 C        1.1470     5.1190     0.8030 C.3   1 <1>   0.5030 
 15 C        2.4160     3.0990    -0.1470 C.3   1 <1>   0.5030 
 16 C       -3.9050    -4.4340    -0.3040 C.ar  1 <1>  -0.1430 
 17 N        2.2880     4.5500     0.0670 N.4   1 <1>  -0.9060 
 18 C        1.0790     6.5850     0.3800 C.3   1 <1>  -0.2400 
 19 C        1.4210     5.0740     2.3090 C.3   1 <1>  -0.2400 
 20 C        3.3720     2.9430    -1.3280 C.3   1 <1>  -0.2400 
 21 C        3.0610     2.4390     1.0750 C.3   1 <1>  -0.2400 
 22 C       -4.4020    -5.5370     0.4340 C.ar  1 <1>   0.0000 
 23 C       -2.8180    -4.6640    -1.1010 C.ar  1 <1>  -0.1500 
 24 C       -3.7290    -6.7780     0.3130 C.ar  1 <1>   0.3100 
 25 C       -5.5350    -5.4860     1.2810 C.ar  1 <1>  -0.1500 
 26 C       -2.2290    -5.9330    -1.1510 C.ar  1 <1>   0.1600 
 27 N       -2.6450    -6.9580    -0.4820 N.ar  1 <1>  -0.6200 
 28 C       -4.1970    -7.8840     1.0400 C.ar  1 <1>  -0.1500 
 29 C       -5.9680    -6.5840     1.9750 C.ar  1 <1>  -0.1500 
 30 C       -5.2920    -7.7990     1.8570 C.ar  1 <1>  -0.1500 
 31 H       -1.6540     2.4760    -0.9500 H     1 <1>   0.0800 
 32 H       -2.1950     2.6350     0.6950 H     1 <1>   0.0800 
 33 H       -3.9730     1.4630    -0.6610 H     1 <1>   0.0800 
 34 H       -3.4310     0.6100    -2.1040 H     1 <1>   0.0800 
 35 H       -1.7220    -1.9780    -0.6440 H     1 <1>   0.0800 
 36 H       -2.5700    -1.7140     0.8660 H     1 <1>   0.0800 
 37 H        0.1620     2.5660     1.4570 H     1 <1>   0.0800 
 38 H       -5.4900    -0.5460    -1.5730 H     1 <1>   0.0800 
 39 H       -3.6960    -2.1040    -1.8790 H     1 <1>   0.0800 
 40 H       -0.9410     4.7370     1.1140 H     1 <1>   0.0800 
 41 H       -0.4790     4.7310    -0.5510 H     1 <1>   0.0800 
 42 H        0.7880     2.7400    -1.5040 H     1 <1>   0.0800 
 43 H        1.1730     1.3970    -0.4910 H     1 <1>   0.0800 
 44 H       -4.5400    -0.2860     1.0720 H     1 <1>   0.4000 
 45 H       -5.5830    -3.1610    -0.6170 H     1 <1>   0.0800 
 46 H       -4.7250    -2.8490     0.8580 H     1 <1>   0.0800 
 47 H        3.1460     4.8770     0.5120 H     1 <1>   0.4500 
 48 H        2.2640     4.9690    -0.8620 H     1 <1>   0.4500 
 49 H        0.2590     7.0730     0.8800 H     1 <1>   0.0800 
 50 H        0.9150     6.6810    -0.6790 H     1 <1>   0.0800 
 51 H        1.9800     7.1100     0.6460 H     1 <1>   0.0800 
 52 H        0.6830     5.6610     2.8280 H     1 <1>   0.0800 
 53 H        2.3860     5.4850     2.5440 H     1 <1>   0.0800 
 54 H        1.3520     4.0820     2.7080 H     1 <1>   0.0800 
 55 H        3.5110     1.8990    -1.5490 H     1 <1>   0.0800 
 56 H        4.3390     3.3590    -1.1040 H     1 <1>   0.0800 
 57 H        2.9820     3.4120    -2.2140 H     1 <1>   0.0800 
 58 H        3.3250     1.4230     0.8360 H     1 <1>   0.0800 
 59 H        2.3930     2.3830     1.9110 H     1 <1>   0.0800 
 60 H        3.9600     2.9490     1.3690 H     1 <1>   0.0800 
 61 H       -2.3730    -3.9070    -1.7140 H     1 <1>   0.1500 
 62 H       -6.0790    -4.5660     1.3880 H     1 <1>   0.1500 
 63 H       -1.3720    -6.0630    -1.7900 H     1 <1>   0.1500 
 64 H       -3.6620    -8.8090     0.9300 H     1 <1>   0.1500 
 65 H       -6.8300    -6.5260     2.6170 H     1 <1>   0.1500 
 66 H       -5.6400    -8.6560     2.4080 H     1 <1>   0.1500 
@<TRIPOS>BOND
  1   1   2  2   
  2   2   3  am  
  3   2   4  1   
  4   3   5  1   
  5   3   6  1   
  6   4   7  1   
  7   4  31  1   
  8   4  32  1   
  9   5   8  1   
 10   5  33  1   
 11   5  34  1   
 12   6   9  1   
 13   6  35  1   
 14   6  36  1   
 15   7  10  1   
 16   7  11  1   
 17   7  37  1   
 18   8   9  1   
 19   8  12  1   
 20   8  38  1   
 21   9  13  1   
 22   9  39  1   
 23  10  14  1   
 24  10  40  1   
 25  10  41  1   
 26  11  15  1   
 27  11  42  1   
 28  11  43  1   
 29  12  44  1   
 30  13  16  1   
 31  13  45  1   
 32  13  46  1   
 33  14  17  1   
 34  14  18  1   
 35  14  19  1   
 36  15  17  1   
 37  15  20  1   
 38  15  21  1   
 39  16  22  ar  
 40  16  23  ar  
 41  17  47  1   
 42  17  48  1   
 43  18  49  1   
 44  18  50  1   
 45  18  51  1   
 46  19  52  1   
 47  19  53  1   
 48  19  54  1   
 49  20  55  1   
 50  20  56  1   
 51  20  57  1   
 52  21  58  1   
 53  21  59  1   
 54  21  60  1   
 55  22  24  ar  
 56  22  25  ar  
 57  23  26  ar  
 58  23  61  1   
 59  24  27  ar  
 60  24  28  ar  
 61  25  29  ar  
 62  25  62  1   
 63  26  27  ar  
 64  26  63  1   
 65  28  30  ar  
 66  28  64  1   
 67  29  30  ar  
 68  29  65  1   
 69  30  66  1   
@<TRIPOS>SUBSTRUCTURE
  1 ****   6 GROUP 4 **** **** 0

# MOE 2024.06 (io_trps.svl 2023.06)
