@<TRIPOS>MOLECULE
NONAME
54 56 1 0 0 
SMALL
USER_CHARGES


@<TRIPOS>ATOM
  1 S        0.9660    -1.8570     0.3210 S.o2  1 <1>   1.4470 
  2 O        0.8670    -3.1910    -0.2150 O.2   1 <1>  -0.6500 
  3 O        1.7010    -1.6370     1.5430 O.2   1 <1>  -0.6500 
  4 N        1.8790    -1.1000    -0.8340 N.am  1 <1>  -0.9780 
  5 C       -0.6430    -0.9960     0.2870 C.ar  1 <1>  -0.0090 
  6 C       -0.8540     0.2910     0.8000 C.ar  1 <1>  -0.1430 
  7 C       -1.7180    -1.6530    -0.2950 C.ar  1 <1>  -0.1500 
  8 C       -2.1230     0.8680     0.7340 C.ar  1 <1>  -0.1430 
  9 C        0.3140     1.0530     1.4320 C.3   1 <1>  -0.0970 
 10 C       -2.9900    -1.1020    -0.3760 C.ar  1 <1>   0.0860 
 11 C       -3.1640     0.1720     0.1470 C.ar  1 <1>  -0.1500 
 12 C       -2.4290     2.2550     1.2880 C.3   1 <1>  -0.0970 
 13 C       -4.0810    -1.8370    -0.9890 C.2   1 <1>   0.5440 
 14 O       -3.9190    -2.3060    -2.1010 O.2   1 <1>  -0.5700 
 15 N       -5.2870    -2.0320    -0.3430 N.am  1 <1>  -0.6600 
 16 C       -6.4510    -2.5690    -1.1100 C.3   1 <1>   0.2200 
 17 C       -5.4220    -1.8760     1.1380 C.3   1 <1>   0.0600 
 18 C       -6.6150    -4.0730    -0.9310 C.3   1 <1>  -0.1600 
 19 C       -7.8080    -1.9890    -0.7140 C.3   1 <1>  -0.1600 
 20 C       -8.0570    -4.3580    -1.3710 C.3   1 <1>  -0.0800 
 21 C       -8.8230    -3.0210    -1.2250 C.3   1 <1>  -0.0800 
 22 C       -8.6800    -5.5530    -0.6260 C.3   1 <1>   0.1400 
 23 C      -10.0840    -3.1210    -0.3470 C.3   1 <1>  -0.0990 
 24 N      -10.1550    -5.5460    -0.7970 N.am  1 <1>  -0.6600 
 25 C      -10.8620    -4.3820    -0.6670 C.2   1 <1>   0.5690 
 26 C      -10.8050    -6.8540    -1.0750 C.3   1 <1>   0.0600 
 27 O      -12.0620    -4.3160    -0.7870 O.2   1 <1>  -0.5700 
 28 H        1.7750    -1.7020    -1.6470 H     1 <1>   0.4200 
 29 H        2.8310    -1.2420    -0.5070 H     1 <1>   0.4200 
 30 H       -1.5780    -2.6380    -0.7090 H     1 <1>   0.1500 
 31 H        0.1150     2.0990     1.5550 H     1 <1>   0.0800 
 32 H        1.1920     0.9820     0.8160 H     1 <1>   0.0800 
 33 H        0.5380     0.6400     2.4000 H     1 <1>   0.0800 
 34 H       -4.1420     0.6160     0.0780 H     1 <1>   0.1500 
 35 H       -3.4800     2.4750     1.2340 H     1 <1>   0.0800 
 36 H       -1.9020     3.0020     0.7200 H     1 <1>   0.0800 
 37 H       -2.1300     2.3180     2.3190 H     1 <1>   0.0800 
 38 H       -6.3110    -2.3710    -2.1600 H     1 <1>   0.0800 
 39 H       -6.0020    -2.6830     1.5480 H     1 <1>   0.0800 
 40 H       -5.9090    -0.9430     1.3610 H     1 <1>   0.0800 
 41 H       -4.4570    -1.8880     1.6140 H     1 <1>   0.0800 
 42 H       -5.9010    -4.6090    -1.5320 H     1 <1>   0.0800 
 43 H       -6.4820    -4.3360     0.1020 H     1 <1>   0.0800 
 44 H       -7.8950    -1.9050     0.3530 H     1 <1>   0.0800 
 45 H       -7.9660    -1.0250    -1.1640 H     1 <1>   0.0800 
 46 H       -8.0370    -4.6060    -2.4190 H     1 <1>   0.0800 
 47 H       -9.1350    -2.7270    -2.2140 H     1 <1>   0.0800 
 48 H       -8.4630    -5.4900     0.4260 H     1 <1>   0.0800 
 49 H       -8.2650    -6.4710    -1.0050 H     1 <1>   0.0800 
 50 H      -10.7110    -2.2630    -0.5020 H     1 <1>   0.0800 
 51 H       -9.8200    -3.1620     0.6930 H     1 <1>   0.0800 
 52 H      -10.5890    -7.5450    -0.2790 H     1 <1>   0.0800 
 53 H      -10.4370    -7.2520    -2.0040 H     1 <1>   0.0800 
 54 H      -11.8730    -6.7370    -1.1500 H     1 <1>   0.0800 
@<TRIPOS>BOND
  1   1   2  2   
  2   1   3  2   
  3   1   4  am  
  4   1   5  1   
  5   4  28  1   
  6   4  29  1   
  7   5   6  ar  
  8   5   7  ar  
  9   6   8  ar  
 10   6   9  1   
 11   7  10  ar  
 12   7  30  1   
 13   8  11  ar  
 14   8  12  1   
 15   9  31  1   
 16   9  32  1   
 17   9  33  1   
 18  10  11  ar  
 19  10  13  1   
 20  11  34  1   
 21  12  35  1   
 22  12  36  1   
 23  12  37  1   
 24  13  14  2   
 25  13  15  am  
 26  15  16  1   
 27  15  17  1   
 28  16  18  1   
 29  16  19  1   
 30  16  38  1   
 31  17  39  1   
 32  17  40  1   
 33  17  41  1   
 34  18  20  1   
 35  18  42  1   
 36  18  43  1   
 37  19  21  1   
 38  19  44  1   
 39  19  45  1   
 40  20  21  1   
 41  20  22  1   
 42  20  46  1   
 43  21  23  1   
 44  21  47  1   
 45  22  24  1   
 46  22  48  1   
 47  22  49  1   
 48  23  25  1   
 49  23  50  1   
 50  23  51  1   
 51  24  25  am  
 52  24  26  1   
 53  25  27  2   
 54  26  52  1   
 55  26  53  1   
 56  26  54  1   
@<TRIPOS>SUBSTRUCTURE
  1 ****  15 GROUP 4 **** **** 0

# MOE 2024.06 (io_trps.svl 2023.06)
