@<TRIPOS>MOLECULE
NONAME
37 39 1 0 0 
SMALL
USER_CHARGES


@<TRIPOS>ATOM
  1 CL       1.4630     0.9490    -1.6770 Cl    1 <1>  -0.1770 
  2 C        2.3000    -0.2080    -0.6710 C.ar  1 <1>   0.1770 
  3 C        3.0070     0.2310     0.4390 C.ar  1 <1>  -0.1440 
  4 C        2.2550    -1.5440    -1.0190 C.ar  1 <1>  -0.1500 
  5 C        3.6810    -0.7050     1.2120 C.ar  1 <1>  -0.1500 
  6 C        3.0410     1.7030     0.7950 C.3   1 <1>   0.4870 
  7 C        2.9320    -2.4680    -0.2430 C.ar  1 <1>  -0.1500 
  8 C        3.6430    -2.0470     0.8690 C.ar  1 <1>  -0.1500 
  9 N        4.3720     2.2570     0.4310 N.4   1 <1>  -0.9590 
 10 C        4.6470     3.5790     1.1030 C.3   1 <1>   0.3430 
 11 C        4.6320     2.2000    -1.0500 C.3   1 <1>   0.3430 
 12 C        6.1110     4.0910     0.9860 C.3   1 <1>   0.2200 
 13 C        6.1050     2.3920    -1.4370 C.3   1 <1>  -0.0190 
 14 N        6.3720     4.6030    -0.3790 N.am  1 <1>  -0.7300 
 15 C        7.1740     3.0320     1.3760 C.3   1 <1>   0.1200 
 16 C        6.3940     3.8670    -1.5020 C.2   1 <1>   0.5690 
 17 C        7.1540     1.6460    -0.5820 C.3   1 <1>   0.1200 
 18 O        6.9340     1.7720     0.7990 O.3   1 <1>  -0.5600 
 19 O        6.6150     4.3830    -2.5630 O.2   1 <1>  -0.5700 
 20 H        1.6970    -1.8580    -1.8840 H     1 <1>   0.1500 
 21 H        4.2390    -0.4100     2.0850 H     1 <1>   0.1500 
 22 H        2.8770     1.8060     1.8550 H     1 <1>   0.0800 
 23 H        2.2600     2.2380     0.2800 H     1 <1>   0.0800 
 24 H        2.9040    -3.5140    -0.5010 H     1 <1>   0.1500 
 25 H        4.1660    -2.7720     1.4710 H     1 <1>   0.1500 
 26 H        5.0900     1.6130     0.8200 H     1 <1>   0.4500 
 27 H        3.9870     4.3330     0.7070 H     1 <1>   0.0800 
 28 H        4.4270     3.4760     2.1530 H     1 <1>   0.0800 
 29 H        4.3310     1.2320    -1.4160 H     1 <1>   0.0800 
 30 H        4.0300     2.9360    -1.5580 H     1 <1>   0.0800 
 31 H        6.2220     4.9250     1.6570 H     1 <1>   0.0800 
 32 H        6.2120     2.0290    -2.4440 H     1 <1>   0.0800 
 33 H        6.6290     5.5910    -0.4850 H     1 <1>   0.3700 
 34 H        7.1540     2.8890     2.4420 H     1 <1>   0.0800 
 35 H        8.1640     3.3610     1.1060 H     1 <1>   0.0800 
 36 H        8.1500     1.9910    -0.8080 H     1 <1>   0.0800 
 37 H        7.1120     0.5930    -0.8060 H     1 <1>   0.0800 
@<TRIPOS>BOND
  1   1   2  1   
  2   2   3  ar  
  3   2   4  ar  
  4   3   5  ar  
  5   3   6  1   
  6   4   7  ar  
  7   4  20  1   
  8   5   8  ar  
  9   5  21  1   
 10   6   9  1   
 11   6  22  1   
 12   6  23  1   
 13   7   8  ar  
 14   7  24  1   
 15   8  25  1   
 16   9  10  1   
 17   9  11  1   
 18   9  26  1   
 19  10  12  1   
 20  10  27  1   
 21  10  28  1   
 22  11  13  1   
 23  11  29  1   
 24  11  30  1   
 25  12  14  1   
 26  12  15  1   
 27  12  31  1   
 28  13  16  1   
 29  13  17  1   
 30  13  32  1   
 31  14  16  am  
 32  14  33  1   
 33  15  18  1   
 34  15  34  1   
 35  15  35  1   
 36  16  19  2   
 37  17  18  1   
 38  17  36  1   
 39  17  37  1   
@<TRIPOS>SUBSTRUCTURE
  1 ****   9 GROUP 4 **** **** 0

# MOE 2024.06 (io_trps.svl 2023.06)
