@<TRIPOS>MOLECULE
NONAME
53 55 1 0 0 
SMALL
USER_CHARGES


@<TRIPOS>ATOM
  1 CL       1.7100     4.5320     2.3540 Cl    1 <1>  -0.1770 
  2 C        1.6990     4.4650     0.6080 C.ar  1 <1>   0.1770 
  3 C        2.1330     3.3340    -0.0750 C.ar  1 <1>  -0.1440 
  4 C        1.2330     5.5810    -0.0620 C.ar  1 <1>  -0.1500 
  5 C        2.0620     3.3440    -1.4640 C.ar  1 <1>  -0.1500 
  6 C        2.6840     2.1100     0.6580 C.3   1 <1>   0.3640 
  7 C        1.1840     5.5800    -1.4440 C.ar  1 <1>  -0.1500 
  8 C        1.5960     4.4580    -2.1430 C.ar  1 <1>  -0.1500 
  9 N        1.8770     0.9310     0.2660 N.am  1 <1>  -0.7300 
 10 C        4.1800     1.8910     0.3180 C.3   1 <1>   0.2610 
 11 C        2.4100    -0.2880     0.0280 C.2   1 <1>   0.5690 
 12 O        4.6130     0.5950     0.7010 O.3   1 <1>  -0.5600 
 13 C        5.0490     2.9890     0.9520 C.2   1 <1>   0.5690 
 14 O        1.7010    -1.2240    -0.2390 O.2   1 <1>  -0.5700 
 15 C        3.9330    -0.4670     0.0640 C.3   1 <1>   0.1810 
 16 O        4.7590     3.3660     2.0660 O.2   1 <1>  -0.5700 
 17 N        6.1020     3.5540     0.2610 N.am  1 <1>  -0.6600 
 18 C        6.8330     4.7270     0.8380 C.3   1 <1>   0.1400 
 19 C        6.7190     2.9280    -0.9400 C.3   1 <1>   0.1400 
 20 C        6.4000     6.0700     0.2150 C.3   1 <1>  -0.0800 
 21 C        6.1200     3.5070    -2.2220 C.3   1 <1>  -0.2400 
 22 C        7.1040     7.2270     0.9490 C.3   1 <1>  -0.1600 
 23 C        4.8710     6.2730     0.2420 C.3   1 <1>  -0.1600 
 24 C        6.7020     8.5920     0.3750 C.3   1 <1>  -0.1600 
 25 C        4.4660     7.6430    -0.3180 C.3   1 <1>  -0.1600 
 26 C        5.1810     8.7810     0.4180 C.3   1 <1>  -0.1600 
 27 H        0.9120     6.4410     0.4980 H     1 <1>   0.1500 
 28 H        2.3670     2.4810    -2.0320 H     1 <1>   0.1500 
 29 H        2.5900     2.2290     1.7230 H     1 <1>   0.0800 
 30 H        0.8240     6.4460    -1.9740 H     1 <1>   0.1500 
 31 H        1.5500     4.4520    -3.2190 H     1 <1>   0.1500 
 32 H        0.8610     1.0310     0.2780 H     1 <1>   0.3700 
 33 H        4.2870     1.9500    -0.7460 H     1 <1>   0.0800 
 34 H        4.3030    -0.5490    -0.9410 H     1 <1>   0.0800 
 35 H        4.1710    -1.3700     0.5940 H     1 <1>   0.0800 
 36 H        6.6610     4.7700     1.9000 H     1 <1>   0.0800 
 37 H        7.8920     4.5920     0.7010 H     1 <1>   0.0800 
 38 H        7.7840     3.0920    -0.9300 H     1 <1>   0.0800 
 39 H        6.5630     1.8630    -0.9120 H     1 <1>   0.0800 
 40 H        6.7300     6.0920    -0.8060 H     1 <1>   0.0800 
 41 H        6.4220     4.5290    -2.3540 H     1 <1>   0.0800 
 42 H        5.0470     3.4590    -2.2090 H     1 <1>   0.0800 
 43 H        6.4770     2.9480    -3.0680 H     1 <1>   0.0800 
 44 H        6.8440     7.1980     1.9940 H     1 <1>   0.0800 
 45 H        8.1710     7.1110     0.8700 H     1 <1>   0.0800 
 46 H        4.3900     5.5110    -0.3430 H     1 <1>   0.0800 
 47 H        4.5160     6.1820     1.2550 H     1 <1>   0.0800 
 48 H        7.1780     9.3750     0.9410 H     1 <1>   0.0800 
 49 H        7.0430     8.6670    -0.6440 H     1 <1>   0.0800 
 50 H        4.7130     7.6850    -1.3650 H     1 <1>   0.0800 
 51 H        3.4010     7.7670    -0.2250 H     1 <1>   0.0800 
 52 H        4.9200     9.7230    -0.0310 H     1 <1>   0.0800 
 53 H        4.8530     8.8010     1.4440 H     1 <1>   0.0800 
@<TRIPOS>BOND
  1   1   2  1   
  2   2   3  ar  
  3   2   4  ar  
  4   3   5  ar  
  5   3   6  1   
  6   4   7  ar  
  7   4  27  1   
  8   5   8  ar  
  9   5  28  1   
 10   6   9  1   
 11   6  10  1   
 12   6  29  1   
 13   7   8  ar  
 14   7  30  1   
 15   8  31  1   
 16   9  11  am  
 17   9  32  1   
 18  10  12  1   
 19  10  13  1   
 20  10  33  1   
 21  11  14  2   
 22  11  15  1   
 23  12  15  1   
 24  13  16  2   
 25  13  17  am  
 26  15  34  1   
 27  15  35  1   
 28  17  18  1   
 29  17  19  1   
 30  18  20  1   
 31  18  36  1   
 32  18  37  1   
 33  19  21  1   
 34  19  38  1   
 35  19  39  1   
 36  20  22  1   
 37  20  23  1   
 38  20  40  1   
 39  21  41  1   
 40  21  42  1   
 41  21  43  1   
 42  22  24  1   
 43  22  44  1   
 44  22  45  1   
 45  23  25  1   
 46  23  46  1   
 47  23  47  1   
 48  24  26  1   
 49  24  48  1   
 50  24  49  1   
 51  25  26  1   
 52  25  50  1   
 53  25  51  1   
 54  26  52  1   
 55  26  53  1   
@<TRIPOS>SUBSTRUCTURE
  1 ****  13 GROUP 4 **** **** 0

# MOE 2024.06 (io_trps.svl 2023.06)
