@<TRIPOS>MOLECULE
NONAME
45 48 1 0 0 
SMALL
USER_CHARGES


@<TRIPOS>ATOM
  1 S        0.2170     0.3960     1.3570 S.3   1 <1>  -0.0800 
  2 C        1.6710    -0.1520     0.5230 C.ar  1 <1>   0.0400 
  3 C       -0.2570    -1.2560     1.7110 C.2   1 <1>  -0.1100 
  4 C        1.7440    -1.5380     0.5440 C.ar  1 <1>   0.0000 
  5 C        2.6190     0.6560    -0.0760 C.ar  1 <1>  -0.1500 
  6 C        0.6250    -2.1600     1.2220 C.2   1 <1>  -0.0860 
  7 C        2.8450    -2.1290    -0.0750 C.ar  1 <1>  -0.1500 
  8 C        3.7000     0.0450    -0.6860 C.ar  1 <1>  -0.1500 
  9 C        0.5000    -3.5970     1.3330 C.2   1 <1>   0.7160 
 10 C        3.8090    -1.3420    -0.6820 C.ar  1 <1>  -0.1500 
 11 O        1.4310    -4.2680     1.7360 O.2   1 <1>  -0.5700 
 12 N       -0.6680    -4.2270     0.9730 N.am  1 <1>  -0.6600 
 13 C       -1.6980    -3.6390     0.0770 C.3   1 <1>   0.1400 
 14 C       -0.8640    -5.6920     1.0630 C.3   1 <1>   0.1400 
 15 C       -2.5790    -4.8110    -0.3790 C.3   1 <1>   0.2000 
 16 C       -1.6920    -6.0430    -0.1730 C.3   1 <1>  -0.0800 
 17 O       -3.6950    -4.9160     0.4590 O.3   1 <1>  -0.5600 
 18 C       -2.4560    -7.3740    -0.0430 C.3   1 <1>   0.0200 
 19 C       -4.7900    -4.1370     0.0910 C.3   1 <1>   0.0400 
 20 C       -1.5400    -8.5860    -0.0130 C.2   1 <1>  -0.0400 
 21 O       -2.0650    -9.7640     0.1920 O.3   1 <1>  -0.0190 
 22 C       -0.2150    -8.7520    -0.1640 C.2   1 <1>  -0.1500 
 23 N       -1.1670   -10.7070     0.1910 N.2   1 <1>  -0.4100 
 24 C       -0.0420   -10.1260    -0.0210 C.2   1 <1>   0.1080 
 25 C        1.2860   -10.8450    -0.1010 C.3   1 <1>  -0.0590 
 26 H       -1.1680    -1.3940     2.2670 H     1 <1>   0.1500 
 27 H        2.5120     1.7260    -0.0620 H     1 <1>   0.1500 
 28 H        2.9470    -3.2000    -0.0740 H     1 <1>   0.1500 
 29 H        4.4590     0.6410    -1.1630 H     1 <1>   0.1500 
 30 H        4.6560    -1.8080    -1.1560 H     1 <1>   0.1500 
 31 H       -2.2750    -2.8930     0.5940 H     1 <1>   0.0800 
 32 H       -1.2090    -3.1950    -0.7730 H     1 <1>   0.0800 
 33 H        0.0740    -6.2190     1.0820 H     1 <1>   0.0800 
 34 H       -1.4150    -5.9120     1.9620 H     1 <1>   0.0800 
 35 H       -2.9060    -4.7160    -1.4000 H     1 <1>   0.0800 
 36 H       -1.0220    -6.1080    -1.0120 H     1 <1>   0.0800 
 37 H       -3.1310    -7.4800    -0.8740 H     1 <1>   0.0800 
 38 H       -3.0470    -7.3690     0.8560 H     1 <1>   0.0800 
 39 H       -5.5680    -4.2920     0.8190 H     1 <1>   0.0800 
 40 H       -5.1380    -4.4480    -0.8790 H     1 <1>   0.0800 
 41 H       -4.5100    -3.0990     0.0800 H     1 <1>   0.0800 
 42 H        0.5620    -8.0360    -0.3520 H     1 <1>   0.1500 
 43 H        1.9520   -10.4630     0.6500 H     1 <1>   0.0800 
 44 H        1.7220   -10.6990    -1.0710 H     1 <1>   0.0800 
 45 H        1.1430   -11.8980     0.0630 H     1 <1>   0.0800 
@<TRIPOS>BOND
  1   1   2  1   
  2   1   3  1   
  3   2   4  ar  
  4   2   5  ar  
  5   3   6  2   
  6   3  26  1   
  7   4   6  1   
  8   4   7  ar  
  9   5   8  ar  
 10   5  27  1   
 11   6   9  1   
 12   7  10  ar  
 13   7  28  1   
 14   8  10  ar  
 15   8  29  1   
 16   9  11  2   
 17   9  12  am  
 18  10  30  1   
 19  12  13  1   
 20  12  14  1   
 21  13  15  1   
 22  13  31  1   
 23  13  32  1   
 24  14  16  1   
 25  14  33  1   
 26  14  34  1   
 27  15  16  1   
 28  15  17  1   
 29  15  35  1   
 30  16  18  1   
 31  16  36  1   
 32  17  19  1   
 33  18  20  1   
 34  18  37  1   
 35  18  38  1   
 36  19  39  1   
 37  19  40  1   
 38  19  41  1   
 39  20  21  1   
 40  20  22  2   
 41  21  23  1   
 42  22  24  1   
 43  22  42  1   
 44  23  24  2   
 45  24  25  1   
 46  25  43  1   
 47  25  44  1   
 48  25  45  1   
@<TRIPOS>SUBSTRUCTURE
  1 ****  12 GROUP 4 **** **** 0

# MOE 2024.06 (io_trps.svl 2023.06)
