@<TRIPOS>MOLECULE
NONAME
47 49 1 0 0 
SMALL
USER_CHARGES


@<TRIPOS>ATOM
  1 O       -0.1300    -0.2240    -0.6580 O.2   1 <1>  -0.5700 
  2 C        0.9890    -0.6980    -0.6810 C.2   1 <1>   0.5440 
  3 N        2.0950     0.1140    -0.7890 N.am  1 <1>  -0.4940 
  4 C        1.1760    -2.1310    -0.5700 C.ar  1 <1>   0.0860 
  5 C        2.1790     1.5240    -0.9400 C.2   1 <1>  -0.0880 
  6 C        0.3930    -2.8840     0.3000 C.ar  1 <1>  -0.1500 
  7 C        2.1410    -2.8090    -1.3190 C.ar  1 <1>  -0.1500 
  8 N        3.3360     2.2350    -1.0640 N.pl3 1 <1>   0.3140 
  9 C        1.1760     2.4320    -0.9860 C.2   1 <1>  -0.1500 
 10 C        0.5650    -4.2500     0.4420 C.ar  1 <1>   0.0830 
 11 C        2.3240    -4.1740    -1.1870 C.ar  1 <1>  -0.1500 
 12 N        3.0840     3.5660    -1.1810 N.2   1 <1>  -0.7070 
 13 C        4.7190     1.6630    -1.0910 C.3   1 <1>   0.2710 
 14 C        1.7950     3.6640    -1.1330 C.2   1 <1>   0.1080 
 15 O       -0.2510    -4.8770     1.3230 O.3   1 <1>  -0.3630 
 16 C        1.5420    -4.8990    -0.3070 C.ar  1 <1>  -0.1500 
 17 C        5.1960     1.3950     0.3570 C.3   1 <1>  -0.1950 
 18 C        5.6780     2.5330    -1.9270 C.3   1 <1>  -0.2400 
 19 C        1.0810     4.9910    -1.2280 C.3   1 <1>  -0.0590 
 20 C       -0.1940    -6.2860     1.5100 C.3   1 <1>   0.1810 
 21 C        5.7490     2.4640     1.2480 C.3   1 <1>  -0.2000 
 22 C        6.6350     1.3440     0.7780 C.3   1 <1>  -0.2000 
 23 C       -1.2320    -6.7600     2.5230 C.2   1 <1>   0.5690 
 24 O       -1.2560    -7.9210     2.8390 O.2   1 <1>  -0.5700 
 25 N       -2.1160    -5.8960     3.0620 N.am  1 <1>  -0.8000 
 26 H        2.9770    -0.3770    -0.6650 H     1 <1>   0.3700 
 27 H       -0.3690    -2.3900     0.8790 H     1 <1>   0.1500 
 28 H        2.7470    -2.2660    -2.0220 H     1 <1>   0.1500 
 29 H        0.1180     2.2570    -0.9200 H     1 <1>   0.1500 
 30 H        3.0750    -4.6760    -1.7740 H     1 <1>   0.1500 
 31 H        4.6520     0.7160    -1.5910 H     1 <1>   0.0800 
 32 H        1.7060    -5.9580    -0.2240 H     1 <1>   0.1500 
 33 H        4.5480     0.6850     0.8410 H     1 <1>   0.1000 
 34 H        5.8210     3.4940    -1.4680 H     1 <1>   0.0800 
 35 H        5.2690     2.6810    -2.9100 H     1 <1>   0.0800 
 36 H        6.6310     2.0510    -2.0310 H     1 <1>   0.0800 
 37 H        0.0180     4.8510    -1.1680 H     1 <1>   0.0800 
 38 H        1.3240     5.4620    -2.1620 H     1 <1>   0.0800 
 39 H        1.4000     5.6270    -0.4230 H     1 <1>   0.0800 
 40 H        0.7870    -6.5430     1.8650 H     1 <1>   0.0800 
 41 H       -0.3820    -6.7630     0.5660 H     1 <1>   0.0800 
 42 H        5.4320     2.4850     2.2770 H     1 <1>   0.1000 
 43 H        5.8980     3.4540     0.8520 H     1 <1>   0.1000 
 44 H        7.4280     1.5950     0.0960 H     1 <1>   0.1000 
 45 H        6.9390     0.6010     1.4950 H     1 <1>   0.1000 
 46 H       -2.8070    -6.2180     3.7400 H     1 <1>   0.3700 
 47 H       -2.1170    -4.9040     2.8180 H     1 <1>   0.3700 
@<TRIPOS>BOND
  1   1   2  2   
  2   2   3  am  
  3   2   4  1   
  4   3   5  1   
  5   3  26  1   
  6   4   6  ar  
  7   4   7  ar  
  8   5   8  1   
  9   5   9  2   
 10   6  10  ar  
 11   6  27  1   
 12   7  11  ar  
 13   7  28  1   
 14   8  12  1   
 15   8  13  1   
 16   9  14  1   
 17   9  29  1   
 18  10  15  1   
 19  10  16  ar  
 20  11  16  ar  
 21  11  30  1   
 22  12  14  2   
 23  13  17  1   
 24  13  18  1   
 25  13  31  1   
 26  14  19  1   
 27  15  20  1   
 28  16  32  1   
 29  17  21  1   
 30  17  22  1   
 31  17  33  1   
 32  18  34  1   
 33  18  35  1   
 34  18  36  1   
 35  19  37  1   
 36  19  38  1   
 37  19  39  1   
 38  20  23  1   
 39  20  40  1   
 40  20  41  1   
 41  21  22  1   
 42  21  42  1   
 43  21  43  1   
 44  22  44  1   
 45  22  45  1   
 46  23  24  2   
 47  23  25  am  
 48  25  46  1   
 49  25  47  1   
@<TRIPOS>SUBSTRUCTURE
  1 ****   2 GROUP 4 **** **** 0

# MOE 2024.06 (io_trps.svl 2023.06)
