@<TRIPOS>MOLECULE
NONAME
51 53 1 0 0 
SMALL
USER_CHARGES


@<TRIPOS>ATOM
  1 O        1.7580     0.0110    -1.4410 O.2   1 <1>  -0.5700 
  2 C        2.1500    -0.5380    -0.4420 C.2   1 <1>   0.5690 
  3 N        2.9330     0.1320     0.4660 N.am  1 <1>  -0.6600 
  4 C        1.7720    -1.9950    -0.2310 C.3   1 <1>  -0.0990 
  5 C        3.7400    -0.4950     1.5610 C.3   1 <1>   0.1400 
  6 C        2.9910     1.6210     0.4260 C.3   1 <1>   0.1400 
  7 C        0.6270    -2.4360    -1.1580 C.3   1 <1>   0.0960 
  8 C        5.2590    -0.4990     1.2610 C.3   1 <1>   0.3430 
  9 C        4.1070     2.0960    -0.5090 C.3   1 <1>  -0.1600 
 10 N        0.2730    -3.8430    -0.8940 N.pl3 1 <1>   0.0480 
 11 N        5.8030     0.8210     0.7880 N.4   1 <1>  -0.9590 
 12 C        5.3230     1.1760    -0.5820 C.3   1 <1>   0.3430 
 13 C       -0.5380    -4.3360     0.0430 C.2   1 <1>   0.0360 
 14 C        0.7090    -4.9430    -1.5100 C.2   1 <1>   0.0360 
 15 C        7.3070     0.8730     0.8440 C.3   1 <1>   0.5240 
 16 N       -0.5860    -5.6220     0.0060 N.2   1 <1>  -0.3380 
 17 N        0.2130    -6.0110    -0.9890 N.2   1 <1>  -0.3380 
 18 C        7.8150     2.3120     0.7500 C.2   1 <1>   0.3350 
 19 N        7.1840     3.3290     1.1870 N.2   1 <1>  -0.4100 
 20 N        8.9660     2.6080     0.1730 N.2   1 <1>  -0.5650 
 21 O        7.9140     4.3690     0.9190 O.3   1 <1>  -0.0190 
 22 C        8.9680     3.8780     0.3120 C.2   1 <1>   0.2980 
 23 C       10.0490     4.8570    -0.1520 C.3   1 <1>   0.1000 
 24 C        9.5530     5.6840    -1.3460 C.3   1 <1>  -0.2400 
 25 C       11.3650     4.1520    -0.5200 C.3   1 <1>  -0.2400 
 26 H        1.4560    -2.1230     0.7880 H     1 <1>   0.0800 
 27 H        2.6360    -2.6040    -0.4180 H     1 <1>   0.0800 
 28 H        3.4260    -1.5090     1.7280 H     1 <1>   0.0800 
 29 H        3.5610     0.0380     2.4790 H     1 <1>   0.0800 
 30 H        3.1520     2.0040     1.4190 H     1 <1>   0.0800 
 31 H        2.0460     2.0150     0.0840 H     1 <1>   0.0800 
 32 H        0.9200    -2.3380    -2.1890 H     1 <1>   0.0800 
 33 H       -0.2420    -1.8220    -0.9950 H     1 <1>   0.0800 
 34 H        5.4560    -1.2510     0.5150 H     1 <1>   0.0800 
 35 H        5.7720    -0.7970     2.1600 H     1 <1>   0.0800 
 36 H        4.4130     3.0880    -0.2260 H     1 <1>   0.0800 
 37 H        3.6970     2.1750    -1.5010 H     1 <1>   0.0800 
 38 H        5.4880     1.5800     1.4110 H     1 <1>   0.4500 
 39 H        6.0990     1.6810    -1.1360 H     1 <1>   0.0800 
 40 H        5.0580     0.2800    -1.1210 H     1 <1>   0.0800 
 41 H       -1.0800    -3.7240     0.7400 H     1 <1>   0.1500 
 42 H        1.3920    -4.9280    -2.3390 H     1 <1>   0.1500 
 43 H        7.7300     0.3000     0.0370 H     1 <1>   0.0800 
 44 H        7.6580     0.4590     1.7740 H     1 <1>   0.0800 
 45 H       10.2510     5.5280     0.6650 H     1 <1>   0.0800 
 46 H        9.3320     5.0420    -2.1810 H     1 <1>   0.0800 
 47 H       10.3010     6.3960    -1.6470 H     1 <1>   0.0800 
 48 H        8.6600     6.2230    -1.0820 H     1 <1>   0.0800 
 49 H       11.2150     3.4800    -1.3470 H     1 <1>   0.0800 
 50 H       11.7280     3.5860     0.3200 H     1 <1>   0.0800 
 51 H       12.1140     4.8730    -0.7930 H     1 <1>   0.0800 
@<TRIPOS>BOND
  1   1   2  2   
  2   2   3  am  
  3   2   4  1   
  4   3   5  1   
  5   3   6  1   
  6   4   7  1   
  7   4  26  1   
  8   4  27  1   
  9   5   8  1   
 10   5  28  1   
 11   5  29  1   
 12   6   9  1   
 13   6  30  1   
 14   6  31  1   
 15   7  10  1   
 16   7  32  1   
 17   7  33  1   
 18   8  11  1   
 19   8  34  1   
 20   8  35  1   
 21   9  12  1   
 22   9  36  1   
 23   9  37  1   
 24  10  13  1   
 25  10  14  1   
 26  11  12  1   
 27  11  15  1   
 28  11  38  1   
 29  12  39  1   
 30  12  40  1   
 31  13  16  2   
 32  13  41  1   
 33  14  17  2   
 34  14  42  1   
 35  15  18  1   
 36  15  43  1   
 37  15  44  1   
 38  16  17  1   
 39  18  19  2   
 40  18  20  1   
 41  19  21  1   
 42  20  22  2   
 43  21  22  1   
 44  22  23  1   
 45  23  24  1   
 46  23  25  1   
 47  23  45  1   
 48  24  46  1   
 49  24  47  1   
 50  24  48  1   
 51  25  49  1   
 52  25  50  1   
 53  25  51  1   
@<TRIPOS>SUBSTRUCTURE
  1 ****  12 GROUP 4 **** **** 0

# MOE 2024.06 (io_trps.svl 2023.06)
