@<TRIPOS>MOLECULE
NONAME
31 32 1 0 0 
SMALL
USER_CHARGES


@<TRIPOS>ATOM
  1 S        0.5480    -0.1640     0.9400 S.3   1 <1>  -0.0800 
  2 C       -1.1950     0.0460     0.8350 C.2   1 <1>  -0.1400 
  3 C        0.8100     1.5640     0.7920 C.2   1 <1>  -0.1100 
  4 C       -1.5060     1.3500     0.6940 C.2   1 <1>  -0.1810 
  5 C       -2.0480    -1.2100     0.9160 C.3   1 <1>   0.3890 
  6 C       -0.3620     2.2130     0.6720 C.2   1 <1>  -0.1500 
  7 C       -2.9030     1.9240     0.5580 C.3   1 <1>  -0.0590 
  8 N       -2.6130    -1.5480    -0.4240 N.pl3 1 <1>  -0.8380 
  9 C       -3.7980    -2.2670    -0.4890 C.ar  1 <1>   0.4100 
 10 C       -1.6080    -1.6930    -1.5130 C.3   1 <1>   0.1290 
 11 N       -4.0850    -3.0470     0.5470 N.ar  1 <1>  -0.6200 
 12 C       -4.6470    -2.1670    -1.6050 C.ar  1 <1>   0.1600 
 13 C       -5.2200    -3.7060     0.3990 C.ar  1 <1>   0.1670 
 14 N       -5.7820    -2.8220    -1.7640 N.ar  1 <1>  -0.6200 
 15 C       -6.0400    -3.5970    -0.7210 C.ar  1 <1>   0.1600 
 16 C       -5.6020    -4.6190     1.5460 C.3   1 <1>  -0.0970 
 17 H        1.8260     1.9140     0.8110 H     1 <1>   0.1500 
 18 H       -2.8530    -1.0350     1.6090 H     1 <1>   0.0800 
 19 H       -1.4670    -2.0380     1.2820 H     1 <1>   0.0800 
 20 H       -0.4750     3.2770     0.5660 H     1 <1>   0.1500 
 21 H       -3.6370     1.1390     0.5530 H     1 <1>   0.0800 
 22 H       -2.9840     2.4710    -0.3640 H     1 <1>   0.0800 
 23 H       -3.1100     2.5870     1.3780 H     1 <1>   0.0800 
 24 H       -1.3060    -0.7190    -1.8570 H     1 <1>   0.0800 
 25 H       -2.0180    -2.2450    -2.3400 H     1 <1>   0.0800 
 26 H       -0.7430    -2.2180    -1.1460 H     1 <1>   0.0800 
 27 H       -4.3460    -1.5000    -2.3890 H     1 <1>   0.1500 
 28 H       -6.9480    -4.1710    -0.7610 H     1 <1>   0.1500 
 29 H       -5.6990    -4.0410     2.4470 H     1 <1>   0.0800 
 30 H       -4.8320    -5.3550     1.6890 H     1 <1>   0.0800 
 31 H       -6.5320    -5.1210     1.3530 H     1 <1>   0.0800 
@<TRIPOS>BOND
  1   1   2  1   
  2   1   3  1   
  3   2   4  2   
  4   2   5  1   
  5   3   6  2   
  6   3  17  1   
  7   4   6  1   
  8   4   7  1   
  9   5   8  1   
 10   5  18  1   
 11   5  19  1   
 12   6  20  1   
 13   7  21  1   
 14   7  22  1   
 15   7  23  1   
 16   8   9  1   
 17   8  10  1   
 18   9  11  ar  
 19   9  12  ar  
 20  10  24  1   
 21  10  25  1   
 22  10  26  1   
 23  11  13  ar  
 24  12  14  ar  
 25  12  27  1   
 26  13  15  ar  
 27  13  16  1   
 28  14  15  ar  
 29  15  28  1   
 30  16  29  1   
 31  16  30  1   
 32  16  31  1   
@<TRIPOS>SUBSTRUCTURE
  1 ****   8 GROUP 4 **** **** 0

# MOE 2024.06 (io_trps.svl 2023.06)
