@<TRIPOS>MOLECULE
NONAME
51 54 1 0 0 
SMALL
USER_CHARGES


@<TRIPOS>ATOM
  1 S        0.3670     0.3500     1.7910 S.o2  1 <1>   1.4470 
  2 O       -0.0710    -0.4030     2.9460 O.2   1 <1>  -0.6500 
  3 O        0.7710     1.7310     1.9510 O.2   1 <1>  -0.6500 
  4 N       -0.9010     0.3340     0.6660 N.am  1 <1>  -0.8490 
  5 C        1.6770    -0.5800     0.9520 C.ar  1 <1>  -0.0090 
  6 C       -2.1770     0.7140     1.2960 C.3   1 <1>   0.1960 
  7 C       -0.6280     1.1980    -0.4860 C.3   1 <1>   0.1960 
  8 C        2.9720    -0.0790     0.8730 C.ar  1 <1>  -0.1500 
  9 C        1.4090    -1.8270     0.3750 C.ar  1 <1>  -0.1500 
 10 C       -3.3640     0.5020     0.3330 C.3   1 <1>   0.0000 
 11 C       -1.7160     1.0250    -1.5500 C.3   1 <1>  -0.1600 
 12 C        3.9580    -0.8090     0.2290 C.ar  1 <1>   0.1170 
 13 C        2.3910    -2.5610    -0.2700 C.ar  1 <1>  -0.1500 
 14 C       -4.6910     0.8620     1.0290 C.3   1 <1>   0.2000 
 15 C       -3.1150     1.3020    -0.9750 C.3   1 <1>  -0.1600 
 16 C       -3.5930    -0.9900     0.0250 C.3   1 <1>  -0.1600 
 17 N        5.3040    -0.5420     0.0110 N.am  1 <1>  -0.4770 
 18 C        3.6720    -2.0390    -0.3390 C.ar  1 <1>   0.1170 
 19 O       -4.9710     2.2150     0.9960 O.3   1 <1>  -0.6800 
 20 C       -5.7840     0.0760     0.3060 C.3   1 <1>  -0.1600 
 21 C       -5.0740    -1.1180    -0.3460 C.3   1 <1>  -0.1600 
 22 C        5.8240    -1.6040    -0.6790 C.2   1 <1>   0.6900 
 23 C        6.0490     0.6520     0.4670 C.3   1 <1>   0.0600 
 24 N        4.8410    -2.5290    -0.9060 N.am  1 <1>  -0.4770 
 25 O        6.9880    -1.7090    -1.0370 O.2   1 <1>  -0.5700 
 26 C        5.0060    -3.8220    -1.6050 C.3   1 <1>   0.0600 
 27 H       -2.3390     0.1180     2.1780 H     1 <1>   0.0800 
 28 H       -2.1390     1.7470     1.6030 H     1 <1>   0.0800 
 29 H       -0.5870     2.2290    -0.1720 H     1 <1>   0.0800 
 30 H        0.3250     0.9410    -0.9180 H     1 <1>   0.0800 
 31 H        3.2150     0.8740     1.3100 H     1 <1>   0.1500 
 32 H        0.4070    -2.2200     0.4390 H     1 <1>   0.1500 
 33 H       -1.5250     1.7040    -2.3620 H     1 <1>   0.0800 
 34 H       -1.6610     0.0280    -1.9480 H     1 <1>   0.0800 
 35 H        2.1730    -3.5170    -0.7090 H     1 <1>   0.1500 
 36 H       -4.6590     0.5580     2.0620 H     1 <1>   0.0800 
 37 H       -3.8640     1.0750    -1.7130 H     1 <1>   0.0800 
 38 H       -3.1680     2.3560    -0.7660 H     1 <1>   0.0800 
 39 H       -2.9510    -1.3700    -0.7490 H     1 <1>   0.0800 
 40 H       -3.4110    -1.5680     0.9150 H     1 <1>   0.0800 
 41 H       -5.0870     2.5020     0.0720 H     1 <1>   0.4000 
 42 H       -6.5270    -0.2560     1.0090 H     1 <1>   0.0800 
 43 H       -6.2540     0.6740    -0.4550 H     1 <1>   0.0800 
 44 H       -5.4770    -2.0550     0.0020 H     1 <1>   0.0800 
 45 H       -5.1900    -1.0690    -1.4150 H     1 <1>   0.0800 
 46 H        5.6060     1.5360     0.0450 H     1 <1>   0.0800 
 47 H        7.0750     0.5860     0.1480 H     1 <1>   0.0800 
 48 H        6.0170     0.7090     1.5400 H     1 <1>   0.0800 
 49 H        4.3530    -3.8560    -2.4580 H     1 <1>   0.0800 
 50 H        4.7650    -4.6270    -0.9340 H     1 <1>   0.0800 
 51 H        6.0240    -3.9310    -1.9360 H     1 <1>   0.0800 
@<TRIPOS>BOND
  1   1   2  2   
  2   1   3  2   
  3   1   4  am  
  4   1   5  1   
  5   4   6  1   
  6   4   7  1   
  7   5   8  ar  
  8   5   9  ar  
  9   6  10  1   
 10   6  27  1   
 11   6  28  1   
 12   7  11  1   
 13   7  29  1   
 14   7  30  1   
 15   8  12  ar  
 16   8  31  1   
 17   9  13  ar  
 18   9  32  1   
 19  10  14  1   
 20  10  15  1   
 21  10  16  1   
 22  11  15  1   
 23  11  33  1   
 24  11  34  1   
 25  12  17  1   
 26  12  18  ar  
 27  13  18  ar  
 28  13  35  1   
 29  14  19  1   
 30  14  20  1   
 31  14  36  1   
 32  15  37  1   
 33  15  38  1   
 34  16  21  1   
 35  16  39  1   
 36  16  40  1   
 37  17  22  am  
 38  17  23  1   
 39  18  24  1   
 40  19  41  1   
 41  20  21  1   
 42  20  42  1   
 43  20  43  1   
 44  21  44  1   
 45  21  45  1   
 46  22  24  am  
 47  22  25  2   
 48  23  46  1   
 49  23  47  1   
 50  23  48  1   
 51  24  26  1   
 52  26  49  1   
 53  26  50  1   
 54  26  51  1   
@<TRIPOS>SUBSTRUCTURE
  1 ****   5 GROUP 4 **** **** 0

# MOE 2024.06 (io_trps.svl 2023.06)
