@<TRIPOS>MOLECULE
NONAME
49 51 1 0 0 
SMALL
USER_CHARGES


@<TRIPOS>ATOM
  1 O       -0.8600     0.3180     1.2480 O.2   1 <1>  -0.5700 
  2 C       -1.6230     0.8020     0.4460 C.2   1 <1>   0.5690 
  3 N       -2.5070     0.0260    -0.2480 N.am  1 <1>  -0.6600 
  4 C       -1.6040     2.3020     0.2110 C.3   1 <1>  -0.0990 
  5 C       -3.6010     0.4910    -1.1390 C.3   1 <1>   0.1400 
  6 C       -2.5620    -1.4510    -0.1020 C.3   1 <1>   0.1400 
  7 C       -0.3680     2.9970     0.7930 C.3   1 <1>   0.0210 
  8 C       -4.6220    -0.6440    -1.0960 C.3   1 <1>   0.2000 
  9 C       -3.7510    -1.8960    -0.9620 C.3   1 <1>  -0.0800 
 10 C       -0.4040     4.4780     0.4540 C.2   1 <1>  -0.1810 
 11 O       -5.3870    -0.4850     0.0510 O.3   1 <1>  -0.6800 
 12 C       -4.4630    -3.1540    -0.4330 C.3   1 <1>   0.0210 
 13 C        0.1470     5.0880    -0.6720 C.2   1 <1>   0.1080 
 14 C       -0.9710     5.4880     1.1500 C.2   1 <1>  -0.3320 
 15 C       -3.4930    -4.3150    -0.3220 C.2   1 <1>   0.1080 
 16 N       -0.0550     6.3660    -0.6860 N.2   1 <1>  -0.7070 
 17 C        0.9070     4.3870    -1.7750 C.3   1 <1>  -0.0590 
 18 N       -0.7430     6.6140     0.4420 N.pl3 1 <1>   0.3000 
 19 C       -1.7310     5.4730     2.4660 C.3   1 <1>  -0.0600 
 20 N       -2.8180    -4.7680    -1.3330 N.2   1 <1>  -0.7070 
 21 C       -3.2110    -5.0060     0.8510 C.2   1 <1>  -0.1500 
 22 N       -2.0790    -5.7730    -0.8250 N.pl3 1 <1>   0.3000 
 23 C       -2.2990    -5.9350     0.4970 C.2   1 <1>  -0.3320 
 24 C       -1.6120    -6.9830     1.3530 C.3   1 <1>  -0.0600 
 25 H       -1.6360     2.4870    -0.8460 H     1 <1>   0.0800 
 26 H       -2.4840     2.7290     0.6550 H     1 <1>   0.0800 
 27 H       -4.0310     1.4220    -0.8120 H     1 <1>   0.0800 
 28 H       -3.2170     0.5980    -2.1380 H     1 <1>   0.0800 
 29 H       -1.6440    -1.9030    -0.4400 H     1 <1>   0.0800 
 30 H       -2.7160    -1.6990     0.9350 H     1 <1>   0.0800 
 31 H        0.5280     2.5530     0.3950 H     1 <1>   0.0800 
 32 H       -0.3450     2.8700     1.8610 H     1 <1>   0.0800 
 33 H       -5.2770    -0.6640    -1.9500 H     1 <1>   0.0800 
 34 H       -3.3620    -2.1260    -1.9390 H     1 <1>   0.0800 
 35 H       -4.7820    -0.3510     0.8090 H     1 <1>   0.4000 
 36 H       -5.2540    -3.4290    -1.1060 H     1 <1>   0.0800 
 37 H       -4.8970    -2.9680     0.5330 H     1 <1>   0.0800 
 38 H        0.3700     3.5160    -2.1010 H     1 <1>   0.0800 
 39 H        1.8760     4.0970    -1.4160 H     1 <1>   0.0800 
 40 H        1.0300     5.0520    -2.6110 H     1 <1>   0.0800 
 41 H       -1.0410     7.5610     0.7000 H     1 <1>   0.2700 
 42 H       -1.8180     4.4700     2.8430 H     1 <1>   0.0800 
 43 H       -2.7200     5.8710     2.3270 H     1 <1>   0.0800 
 44 H       -1.2140     6.0670     3.1980 H     1 <1>   0.0800 
 45 H       -3.6410    -4.8180     1.8190 H     1 <1>   0.1500 
 46 H       -1.4360    -6.3250    -1.4050 H     1 <1>   0.2700 
 47 H       -1.9540    -6.9110     2.3700 H     1 <1>   0.0800 
 48 H       -0.5470    -6.8350     1.3390 H     1 <1>   0.0800 
 49 H       -1.8360    -7.9690     0.9850 H     1 <1>   0.0800 
@<TRIPOS>BOND
  1   1   2  2   
  2   2   3  am  
  3   2   4  1   
  4   3   5  1   
  5   3   6  1   
  6   4   7  1   
  7   4  25  1   
  8   4  26  1   
  9   5   8  1   
 10   5  27  1   
 11   5  28  1   
 12   6   9  1   
 13   6  29  1   
 14   6  30  1   
 15   7  10  1   
 16   7  31  1   
 17   7  32  1   
 18   8   9  1   
 19   8  11  1   
 20   8  33  1   
 21   9  12  1   
 22   9  34  1   
 23  10  13  1   
 24  10  14  2   
 25  11  35  1   
 26  12  15  1   
 27  12  36  1   
 28  12  37  1   
 29  13  16  2   
 30  13  17  1   
 31  14  18  1   
 32  14  19  1   
 33  15  20  2   
 34  15  21  1   
 35  16  18  1   
 36  17  38  1   
 37  17  39  1   
 38  17  40  1   
 39  18  41  1   
 40  19  42  1   
 41  19  43  1   
 42  19  44  1   
 43  20  22  1   
 44  21  23  2   
 45  21  45  1   
 46  22  23  1   
 47  22  46  1   
 48  23  24  1   
 49  24  47  1   
 50  24  48  1   
 51  24  49  1   
@<TRIPOS>SUBSTRUCTURE
  1 ****   3 GROUP 4 **** **** 0

# MOE 2024.06 (io_trps.svl 2023.06)
