@<TRIPOS>MOLECULE
NONAME
46 48 1 0 0 
SMALL
USER_CHARGES


@<TRIPOS>ATOM
  1 O        5.3910     2.0580    -2.2320 O.2   1 <1>  -0.5700 
  2 C        4.6090     1.3790    -1.6140 C.2   1 <1>   0.5690 
  3 N        3.7590     1.8150    -0.6580 N.am  1 <1>  -0.6600 
  4 C        4.4560    -0.1010    -1.8290 C.3   1 <1>  -0.0990 
  5 C        2.9080     0.7430    -0.1160 C.3   1 <1>   0.1400 
  6 C        3.5640     3.2260    -0.2540 C.3   1 <1>   0.1400 
  7 C        3.5230    -0.5420    -0.6880 C.3   1 <1>  -0.1600 
  8 C        4.3160     3.5000     1.0450 C.3   1 <1>  -0.0990 
  9 C        4.0270     4.9040     1.5210 C.2   1 <1>   0.5690 
 10 O        3.0030     5.0940     2.1320 O.2   1 <1>  -0.5700 
 11 N        4.9330     5.8810     1.2250 N.am  1 <1>  -0.4940 
 12 C        4.9460     7.2570     1.5760 C.2   1 <1>  -0.0880 
 13 N        5.8490     8.2000     1.1530 N.pl3 1 <1>   0.3140 
 14 C        4.0770     7.9020     2.3890 C.2   1 <1>  -0.1500 
 15 N        5.5460     9.4200     1.6780 N.2   1 <1>  -0.7070 
 16 C        6.9810     8.0790     0.1670 C.3   1 <1>   0.3190 
 17 C        4.4960     9.2220     2.4120 C.2   1 <1>   0.1390 
 18 C        7.3100     6.6220    -0.1690 C.ar  1 <1>  -0.1440 
 19 C        8.2370     8.8330     0.6400 C.3   1 <1>  -0.2400 
 20 C        6.8460     6.0810    -1.3610 C.ar  1 <1>  -0.1500 
 21 C        8.0150     5.8090     0.7110 C.ar  1 <1>  -0.1500 
 22 C        7.0690     4.7490    -1.6590 C.ar  1 <1>  -0.1500 
 23 C        8.2410     4.4780     0.4100 C.ar  1 <1>  -0.1500 
 24 C        7.7630     3.9470    -0.7740 C.ar  1 <1>  -0.1500 
 25 H        5.4110    -0.5910    -1.7800 H     1 <1>   0.0800 
 26 H        4.0040    -0.2680    -2.7890 H     1 <1>   0.0800 
 27 H        1.8980     0.8760    -0.4660 H     1 <1>   0.0800 
 28 H        2.9270     0.7430     0.9610 H     1 <1>   0.0800 
 29 H        2.5120     3.4190    -0.1230 H     1 <1>   0.0800 
 30 H        3.9330     3.8750    -1.0310 H     1 <1>   0.0800 
 31 H        4.0970    -1.0250     0.0830 H     1 <1>   0.0800 
 32 H        2.7630    -1.2230    -1.0290 H     1 <1>   0.0800 
 33 H        5.3710     3.3730     0.8880 H     1 <1>   0.0800 
 34 H        3.9940     2.8150     1.8060 H     1 <1>   0.0800 
 35 H        5.7370     5.5650     0.6690 H     1 <1>   0.3700 
 36 H        3.2300     7.4980     2.9140 H     1 <1>   0.1500 
 37 H        6.6430     8.5600    -0.7320 H     1 <1>   0.0800 
 38 H        4.0090    10.0030     2.9720 H     1 <1>   0.1500 
 39 H        8.5400     8.5000     1.6150 H     1 <1>   0.0800 
 40 H        8.0350     9.8890     0.6840 H     1 <1>   0.0800 
 41 H        9.0430     8.6730    -0.0520 H     1 <1>   0.0800 
 42 H        6.2970     6.6860    -2.0640 H     1 <1>   0.1500 
 43 H        8.3830     6.1990     1.6450 H     1 <1>   0.1500 
 44 H        6.6980     4.3270    -2.5800 H     1 <1>   0.1500 
 45 H        8.7870     3.8530     1.0960 H     1 <1>   0.1500 
 46 H        7.9250     2.9090    -1.0150 H     1 <1>   0.1500 
@<TRIPOS>BOND
  1   1   2  2   
  2   2   3  am  
  3   2   4  1   
  4   3   5  1   
  5   3   6  1   
  6   4   7  1   
  7   4  25  1   
  8   4  26  1   
  9   5   7  1   
 10   5  27  1   
 11   5  28  1   
 12   6   8  1   
 13   6  29  1   
 14   6  30  1   
 15   7  31  1   
 16   7  32  1   
 17   8   9  1   
 18   8  33  1   
 19   8  34  1   
 20   9  10  2   
 21   9  11  am  
 22  11  12  1   
 23  11  35  1   
 24  12  13  1   
 25  12  14  2   
 26  13  15  1   
 27  13  16  1   
 28  14  17  1   
 29  14  36  1   
 30  15  17  2   
 31  16  18  1   
 32  16  19  1   
 33  16  37  1   
 34  17  38  1   
 35  18  20  ar  
 36  18  21  ar  
 37  19  39  1   
 38  19  40  1   
 39  19  41  1   
 40  20  22  ar  
 41  20  42  1   
 42  21  23  ar  
 43  21  43  1   
 44  22  24  ar  
 45  22  44  1   
 46  23  24  ar  
 47  23  45  1   
 48  24  46  1   
@<TRIPOS>SUBSTRUCTURE
  1 ****  11 GROUP 4 **** **** 0

# MOE 2024.06 (io_trps.svl 2023.06)
