@<TRIPOS>MOLECULE
NONAME
41 44 1 0 0 
SMALL
USER_CHARGES


@<TRIPOS>ATOM
  1 S       -0.0570     0.1390     0.9810 S.3   1 <1>  -0.0800 
  2 C        1.2490     1.2640     0.6720 C.ar  1 <1>   0.0400 
  3 C        1.0270    -1.1920     0.5990 C.2   1 <1>   0.2280 
  4 C        2.3650     0.5320     0.3160 C.ar  1 <1>   0.2270 
  5 C        1.2350     2.6420     0.7500 C.ar  1 <1>  -0.1500 
  6 N        2.2100    -0.8490     0.2820 N.2   1 <1>  -0.5650 
  7 C        3.5310     1.2240     0.0300 C.ar  1 <1>  -0.1500 
  8 C        2.4000     3.3490     0.4520 C.ar  1 <1>   0.0860 
  9 C        3.5430     2.6070     0.1010 C.ar  1 <1>  -0.1500 
 10 C        2.4160     4.7990     0.5070 C.2   1 <1>   0.5440 
 11 O        1.7060     5.3870     1.2990 O.2   1 <1>  -0.5700 
 12 N        3.2320     5.5040    -0.3460 N.am  1 <1>  -0.4940 
 13 C        3.4040     6.9040    -0.4560 C.2   1 <1>  -0.0880 
 14 N        4.6080     7.5420    -0.4490 N.pl3 1 <1>   0.3140 
 15 C        2.4630     7.8690    -0.6010 C.2   1 <1>  -0.1810 
 16 N        4.4570     8.8800    -0.6100 N.2   1 <1>  -0.7070 
 17 C        5.9410     6.9010    -0.2510 C.3   1 <1>   0.1760 
 18 C        3.1750     9.0590    -0.6890 C.2   1 <1>   0.1390 
 19 C        0.9540     7.7350    -0.6610 C.3   1 <1>  -0.0590 
 20 C        6.7760     7.5480     0.8540 C.3   1 <1>  -0.1600 
 21 C        6.8360     6.9860    -1.4880 C.3   1 <1>  -0.1600 
 22 C        8.2100     7.1100     0.5520 C.3   1 <1>  -0.1600 
 23 C        8.2730     6.8720    -0.9630 C.3   1 <1>  -0.1600 
 24 H        0.6130    -2.1840     0.6620 H     1 <1>   0.1500 
 25 H        0.3380     3.1630     1.0380 H     1 <1>   0.1500 
 26 H        4.4090     0.6650    -0.2400 H     1 <1>   0.1500 
 27 H        4.4640     3.1210    -0.1080 H     1 <1>   0.1500 
 28 H        3.7260     4.9460    -1.0400 H     1 <1>   0.3700 
 29 H        5.7960     5.8680     0.0030 H     1 <1>   0.0800 
 30 H        2.7230    10.0280    -0.8100 H     1 <1>   0.1500 
 31 H        0.6780     6.7330    -0.9330 H     1 <1>   0.0800 
 32 H        0.5470     8.4150    -1.3870 H     1 <1>   0.0800 
 33 H        0.5350     7.9550     0.3040 H     1 <1>   0.0800 
 34 H        6.4560     7.2370     1.8330 H     1 <1>   0.0800 
 35 H        6.7150     8.6210     0.7790 H     1 <1>   0.0800 
 36 H        6.7110     7.9500    -1.9540 H     1 <1>   0.0800 
 37 H        6.6080     6.2130    -2.1990 H     1 <1>   0.0800 
 38 H        8.4230     6.1900     1.0690 H     1 <1>   0.0800 
 39 H        8.9190     7.8570     0.8670 H     1 <1>   0.0800 
 40 H        8.9000     7.6080    -1.4380 H     1 <1>   0.0800 
 41 H        8.6740     5.8940    -1.1650 H     1 <1>   0.0800 
@<TRIPOS>BOND
  1   1   2  1   
  2   1   3  1   
  3   2   4  ar  
  4   2   5  ar  
  5   3   6  2   
  6   3  24  1   
  7   4   6  1   
  8   4   7  ar  
  9   5   8  ar  
 10   5  25  1   
 11   7   9  ar  
 12   7  26  1   
 13   8   9  ar  
 14   8  10  1   
 15   9  27  1   
 16  10  11  2   
 17  10  12  am  
 18  12  13  1   
 19  12  28  1   
 20  13  14  1   
 21  13  15  2   
 22  14  16  1   
 23  14  17  1   
 24  15  18  1   
 25  15  19  1   
 26  16  18  2   
 27  17  20  1   
 28  17  21  1   
 29  17  29  1   
 30  18  30  1   
 31  19  31  1   
 32  19  32  1   
 33  19  33  1   
 34  20  22  1   
 35  20  34  1   
 36  20  35  1   
 37  21  23  1   
 38  21  36  1   
 39  21  37  1   
 40  22  23  1   
 41  22  38  1   
 42  22  39  1   
 43  23  40  1   
 44  23  41  1   
@<TRIPOS>SUBSTRUCTURE
  1 ****  12 GROUP 4 **** **** 0

# MOE 2024.06 (io_trps.svl 2023.06)
