@<TRIPOS>MOLECULE
NONAME
45 47 1 0 0 
SMALL
USER_CHARGES


@<TRIPOS>ATOM
  1 O        0.0620    -4.4410     0.3550 O.3   1 <1>  -0.3630 
  2 C       -1.1300    -3.8150     0.4410 C.ar  1 <1>   0.0830 
  3 C        1.1760    -3.8180    -0.2490 C.3   1 <1>   0.0400 
  4 C       -2.1230    -4.4190     1.1780 C.ar  1 <1>  -0.1500 
  5 C       -1.4450    -2.6130    -0.1680 C.ar  1 <1>  -0.1500 
  6 C       -3.3750    -3.8340     1.2480 C.ar  1 <1>   0.1670 
  7 C       -2.7230    -2.1050    -0.0250 C.ar  1 <1>   0.1600 
  8 N       -3.6980    -2.6930     0.6560 N.ar  1 <1>  -0.6200 
  9 C       -4.4830    -4.5610     1.9970 C.3   1 <1>   0.4870 
 10 N       -5.1060    -5.5470     1.0710 N.4   1 <1>  -0.9590 
 11 C       -5.8880    -4.9560    -0.0520 C.3   1 <1>   0.3430 
 12 C       -5.9020    -6.6580     1.6230 C.3   1 <1>   0.3430 
 13 C       -6.8060    -6.0910    -0.5370 C.3   1 <1>   0.2000 
 14 C       -6.5280    -7.2940     0.3800 C.3   1 <1>  -0.0800 
 15 O       -8.1360    -5.7140    -0.3890 O.3   1 <1>  -0.6800 
 16 C       -5.5940    -8.3450    -0.2770 C.3   1 <1>   0.0210 
 17 C       -4.1220    -7.9530    -0.3560 C.2   1 <1>   0.1080 
 18 N       -3.6910    -6.9090    -0.9980 N.2   1 <1>  -0.7070 
 19 C       -3.0860    -8.6440     0.2610 C.2   1 <1>  -0.1500 
 20 N       -2.3480    -6.9330    -0.8440 N.pl3 1 <1>   0.3000 
 21 C       -1.9670    -7.9620    -0.0610 C.2   1 <1>  -0.3320 
 22 C       -0.5230    -8.2380     0.3180 C.3   1 <1>  -0.0600 
 23 H        2.0220    -4.4750    -0.1520 H     1 <1>   0.0800 
 24 H        1.3760    -2.8910     0.2590 H     1 <1>   0.0800 
 25 H        0.9630    -3.6480    -1.2890 H     1 <1>   0.0800 
 26 H       -1.9090    -5.3470     1.6770 H     1 <1>   0.1500 
 27 H       -0.7260    -2.0680    -0.7490 H     1 <1>   0.1500 
 28 H       -2.9590    -1.1670    -0.5010 H     1 <1>   0.1500 
 29 H       -5.2140    -3.8490     2.3430 H     1 <1>   0.0800 
 30 H       -4.0580    -5.0690     2.8450 H     1 <1>   0.0800 
 31 H       -4.3220    -6.0050     0.5570 H     1 <1>   0.4500 
 32 H       -6.4740    -4.1160     0.2810 H     1 <1>   0.0800 
 33 H       -5.2220    -4.6440    -0.8400 H     1 <1>   0.0800 
 34 H       -5.2870    -7.3600     2.1620 H     1 <1>   0.0800 
 35 H       -6.6740    -6.2740     2.2700 H     1 <1>   0.0800 
 36 H       -6.6400    -6.3110    -1.5790 H     1 <1>   0.0800 
 37 H       -7.4460    -7.7940     0.6360 H     1 <1>   0.0800 
 38 H       -8.3810    -5.5190     0.5360 H     1 <1>   0.4000 
 39 H       -5.9420    -8.5660    -1.2710 H     1 <1>   0.0800 
 40 H       -5.6620    -9.2610     0.2830 H     1 <1>   0.0800 
 41 H       -3.1730    -9.5370     0.8570 H     1 <1>   0.1500 
 42 H       -1.7180    -6.2380    -1.2700 H     1 <1>   0.2700 
 43 H       -0.4640    -9.0990     0.9610 H     1 <1>   0.0800 
 44 H       -0.1010    -7.3940     0.8360 H     1 <1>   0.0800 
 45 H        0.0630    -8.4320    -0.5630 H     1 <1>   0.0800 
@<TRIPOS>BOND
  1   1   2  1   
  2   1   3  1   
  3   2   4  ar  
  4   2   5  ar  
  5   3  23  1   
  6   3  24  1   
  7   3  25  1   
  8   4   6  ar  
  9   4  26  1   
 10   5   7  ar  
 11   5  27  1   
 12   6   8  ar  
 13   6   9  1   
 14   7   8  ar  
 15   7  28  1   
 16   9  10  1   
 17   9  29  1   
 18   9  30  1   
 19  10  11  1   
 20  10  12  1   
 21  10  31  1   
 22  11  13  1   
 23  11  32  1   
 24  11  33  1   
 25  12  14  1   
 26  12  34  1   
 27  12  35  1   
 28  13  14  1   
 29  13  15  1   
 30  13  36  1   
 31  14  16  1   
 32  14  37  1   
 33  15  38  1   
 34  16  17  1   
 35  16  39  1   
 36  16  40  1   
 37  17  18  2   
 38  17  19  1   
 39  18  20  1   
 40  19  21  2   
 41  19  41  1   
 42  20  21  1   
 43  20  42  1   
 44  21  22  1   
 45  22  43  1   
 46  22  44  1   
 47  22  45  1   
@<TRIPOS>SUBSTRUCTURE
  1 ****  10 GROUP 4 **** **** 0

# MOE 2024.06 (io_trps.svl 2023.06)
