@<TRIPOS>MOLECULE
NONAME
51 53 1 0 0 
SMALL
USER_CHARGES


@<TRIPOS>ATOM
  1 O       -0.2430     0.0490    -0.5390 O.2   1 <1>  -0.5700 
  2 C        0.8070    -0.5310    -0.6930 C.2   1 <1>   0.5690 
  3 N        2.0230     0.0640    -0.4440 N.am  1 <1>  -0.4940 
  4 C        0.7250    -2.0160    -1.1620 C.3   1 <1>   0.4840 
  5 C        2.2860     1.3710     0.0490 C.2   1 <1>  -0.0880 
  6 N       -0.2760    -2.8610    -0.4080 N.4   1 <1>  -0.9590 
  7 C        2.0650    -2.7630    -1.1180 C.3   1 <1>  -0.2400 
  8 N        3.5250     1.8970     0.2840 N.pl3 1 <1>   0.3140 
  9 C        1.4000     2.3410     0.3810 C.2   1 <1>  -0.1500 
 10 C       -1.6660    -2.4950    -0.8110 C.3   1 <1>   0.3430 
 11 C       -0.1500    -2.7140     1.0690 C.3   1 <1>   0.3430 
 12 N        3.4360     3.1640     0.7580 N.2   1 <1>  -0.7070 
 13 C        4.8450     1.2320     0.0670 C.3   1 <1>   0.1760 
 14 C        2.1670     3.4150     0.8080 C.2   1 <1>   0.1390 
 15 C       -2.6300    -3.6670    -0.6060 C.3   1 <1>  -0.1600 
 16 C       -0.2940    -4.0720     1.7540 C.3   1 <1>  -0.1600 
 17 C        5.7050     1.1590     1.3290 C.3   1 <1>  -0.1600 
 18 C        5.7330     1.9660    -0.9380 C.3   1 <1>  -0.1600 
 19 C       -2.6930    -4.2540     0.8160 C.3   1 <1>  -0.1600 
 20 C       -1.4080    -4.9920     1.2210 C.3   1 <1>  -0.1600 
 21 C        7.1360     0.9710     0.8180 C.3   1 <1>  -0.1600 
 22 C        7.1570     1.4970    -0.6240 C.3   1 <1>  -0.1600 
 23 H        2.8540    -0.4930    -0.6430 H     1 <1>   0.3700 
 24 H        0.4160    -1.9850    -2.1940 H     1 <1>   0.0800 
 25 H       -0.1370    -3.8500    -0.6410 H     1 <1>   0.4500 
 26 H        2.4700    -2.7860    -0.1220 H     1 <1>   0.0800 
 27 H        2.7750    -2.2800    -1.7670 H     1 <1>   0.0800 
 28 H        1.9430    -3.7710    -1.4730 H     1 <1>   0.0800 
 29 H        0.3270     2.3260     0.3370 H     1 <1>   0.1500 
 30 H       -1.6840    -2.2170    -1.8520 H     1 <1>   0.0800 
 31 H       -1.9990    -1.6410    -0.2420 H     1 <1>   0.0800 
 32 H       -0.9130    -2.0420     1.4320 H     1 <1>   0.0800 
 33 H        0.8060    -2.2910     1.3310 H     1 <1>   0.0800 
 34 H        4.6830     0.2340    -0.2900 H     1 <1>   0.0800 
 35 H        1.7630     4.3560     1.1450 H     1 <1>   0.1500 
 36 H       -2.3950    -4.4470    -1.3100 H     1 <1>   0.0800 
 37 H       -3.6150    -3.3160    -0.8620 H     1 <1>   0.0800 
 38 H       -0.4820    -3.8810     2.7970 H     1 <1>   0.0800 
 39 H        0.6450    -4.5950     1.7060 H     1 <1>   0.0800 
 40 H        5.4030     0.3580     1.9800 H     1 <1>   0.0800 
 41 H        5.6480     2.0940     1.8610 H     1 <1>   0.0800 
 42 H        5.6730     3.0280    -0.7660 H     1 <1>   0.0800 
 43 H        5.4560     1.7530    -1.9550 H     1 <1>   0.0800 
 44 H       -3.5000    -4.9680     0.8350 H     1 <1>   0.0800 
 45 H       -2.9370    -3.4900     1.5360 H     1 <1>   0.0800 
 46 H       -1.6500    -5.6990     1.9980 H     1 <1>   0.0800 
 47 H       -1.0460    -5.5700     0.3870 H     1 <1>   0.0800 
 48 H        7.3980    -0.0730     0.8270 H     1 <1>   0.0800 
 49 H        7.8350     1.5070     1.4390 H     1 <1>   0.0800 
 50 H        7.8560     2.3090    -0.7320 H     1 <1>   0.0800 
 51 H        7.4440     0.7040    -1.2950 H     1 <1>   0.0800 
@<TRIPOS>BOND
  1   1   2  2   
  2   2   3  am  
  3   2   4  1   
  4   3   5  1   
  5   3  23  1   
  6   4   6  1   
  7   4   7  1   
  8   4  24  1   
  9   5   8  1   
 10   5   9  2   
 11   6  10  1   
 12   6  11  1   
 13   6  25  1   
 14   7  26  1   
 15   7  27  1   
 16   7  28  1   
 17   8  12  1   
 18   8  13  1   
 19   9  14  1   
 20   9  29  1   
 21  10  15  1   
 22  10  30  1   
 23  10  31  1   
 24  11  16  1   
 25  11  32  1   
 26  11  33  1   
 27  12  14  2   
 28  13  17  1   
 29  13  18  1   
 30  13  34  1   
 31  14  35  1   
 32  15  19  1   
 33  15  36  1   
 34  15  37  1   
 35  16  20  1   
 36  16  38  1   
 37  16  39  1   
 38  17  21  1   
 39  17  40  1   
 40  17  41  1   
 41  18  22  1   
 42  18  42  1   
 43  18  43  1   
 44  19  20  1   
 45  19  44  1   
 46  19  45  1   
 47  20  46  1   
 48  20  47  1   
 49  21  22  1   
 50  21  48  1   
 51  21  49  1   
 52  22  50  1   
 53  22  51  1   
@<TRIPOS>SUBSTRUCTURE
  1 ****   3 GROUP 4 **** **** 0

# MOE 2024.06 (io_trps.svl 2023.06)
