@<TRIPOS>MOLECULE
NONAME
36 39 1 0 0 
SMALL
USER_CHARGES


@<TRIPOS>ATOM
  1 O       -0.6930    -0.0220    -1.4240 O.2   1 <1>  -0.5700 
  2 C       -1.6850     0.6610    -1.2060 C.2   1 <1>   0.7160 
  3 N       -2.8460     0.0320    -0.8260 N.am  1 <1>  -0.6600 
  4 C       -1.5910     2.1140    -1.2840 C.2   1 <1>   0.2030 
  5 C       -4.0040     0.7910    -0.2760 C.3   1 <1>   0.2350 
  6 C       -2.8400    -1.3650    -0.3110 C.3   1 <1>   0.2350 
  7 N       -2.3330     2.9440    -2.0070 N.2   1 <1>  -0.7070 
  8 C       -0.6660     2.8470    -0.5340 C.2   1 <1>  -0.1810 
  9 C       -4.9000    -0.2360     0.3930 C.3   1 <1>  -0.2420 
 10 C       -4.1830    -1.5660     0.3680 C.3   1 <1>  -0.2420 
 11 N       -1.8880     4.1770    -1.7120 N.pl3 1 <1>   0.3000 
 12 C       -0.8860     4.1370    -0.8160 C.2   1 <1>  -0.3320 
 13 C        0.3910     2.3750     0.4500 C.3   1 <1>   0.3010 
 14 C       -5.7760     0.4210     1.4640 C.2   1 <1>   0.9470 
 15 C       -5.4600    -1.3820    -0.4090 C.3   1 <1>  -0.2000 
 16 C       -4.1010    -2.6910     1.4030 C.2   1 <1>   0.9470 
 17 C       -0.0880     5.2470    -0.1660 C.3   1 <1>   0.0200 
 18 O        1.2650     3.4430     0.7470 O.3   1 <1>  -0.5600 
 19 O       -7.0090     0.3170     1.3970 O.co2 1 <1>  -0.9000 
 20 O       -5.2450     1.1830     2.2860 O.co2 1 <1>  -0.9000 
 21 O       -4.7810    -3.7140     1.2420 O.co2 1 <1>  -0.9000 
 22 O       -3.2370    -2.6310     2.2880 O.co2 1 <1>  -0.9000 
 23 C        0.6430     4.6640     1.0630 C.3   1 <1>   0.1200 
 24 H       -3.6540     1.5090     0.4470 H     1 <1>   0.0800 
 25 H       -4.5330     1.3020    -1.0610 H     1 <1>   0.0800 
 26 H       -2.7110    -2.0680    -1.1140 H     1 <1>   0.0800 
 27 H       -2.0400    -1.4810     0.4010 H     1 <1>   0.0800 
 28 H       -2.2920     5.0220    -2.1310 H     1 <1>   0.2700 
 29 H        0.9750     1.5760     0.0280 H     1 <1>   0.0800 
 30 H       -0.0660     2.0380     1.3650 H     1 <1>   0.0800 
 31 H       -5.4260    -1.3460    -1.4810 H     1 <1>   0.1000 
 32 H       -6.3460    -1.8700    -0.0380 H     1 <1>   0.1000 
 33 H       -0.7350     6.0450     0.1480 H     1 <1>   0.0800 
 34 H        0.6330     5.6370    -0.8620 H     1 <1>   0.0800 
 35 H       -0.0530     4.4850     1.8650 H     1 <1>   0.0800 
 36 H        1.4030     5.3440     1.4050 H     1 <1>   0.0800 
@<TRIPOS>BOND
  1   1   2  2   
  2   2   3  am  
  3   2   4  1   
  4   3   5  1   
  5   3   6  1   
  6   4   7  2   
  7   4   8  1   
  8   5   9  1   
  9   5  24  1   
 10   5  25  1   
 11   6  10  1   
 12   6  26  1   
 13   6  27  1   
 14   7  11  1   
 15   8  12  2   
 16   8  13  1   
 17   9  10  1   
 18   9  14  1   
 19   9  15  1   
 20  10  15  1   
 21  10  16  1   
 22  11  12  1   
 23  11  28  1   
 24  12  17  1   
 25  13  18  1   
 26  13  29  1   
 27  13  30  1   
 28  14  19  ar  
 29  14  20  ar  
 30  15  31  1   
 31  15  32  1   
 32  16  21  ar  
 33  16  22  ar  
 34  17  23  1   
 35  17  33  1   
 36  17  34  1   
 37  18  23  1   
 38  23  35  1   
 39  23  36  1   
@<TRIPOS>SUBSTRUCTURE
  1 ****   3 GROUP 4 **** **** 0

# MOE 2024.06 (io_trps.svl 2023.06)
