@<TRIPOS>MOLECULE
NONAME
60 62 1 0 0 
SMALL
USER_CHARGES


@<TRIPOS>ATOM
  1 O       -0.5490     2.0460     2.6070 O.2   1 <1>  -0.5700 
  2 C       -0.0980     2.7930     1.7680 C.2   1 <1>   0.5690 
  3 N       -0.9220     3.3770     0.8290 N.am  1 <1>  -0.6600 
  4 C        1.4190     3.0140     1.8390 C.3   1 <1>  -0.0190 
  5 C       -2.3990     3.1210     0.8500 C.3   1 <1>   0.1400 
  6 C       -0.5280     4.2490    -0.3120 C.3   1 <1>   0.1400 
  7 C        1.8250     4.4720     2.1420 C.3   1 <1>  -0.1600 
  8 C        2.1880     2.4150     0.6420 C.3   1 <1>  -0.1600 
  9 C       -2.8550     2.4040    -0.4460 C.3   1 <1>   0.0000 
 10 C       -0.9220     3.5770    -1.6330 C.3   1 <1>  -0.1600 
 11 C        3.3450     4.6220     2.2330 C.3   1 <1>   0.1400 
 12 C        3.6980     2.6280     0.7790 C.3   1 <1>   0.1400 
 13 C       -4.3730     2.1550    -0.4420 C.3   1 <1>   0.2000 
 14 C       -2.4220     3.2370    -1.6720 C.3   1 <1>  -0.1600 
 15 C       -2.3060     0.9670    -0.4880 C.3   1 <1>  -0.1600 
 16 N        3.9740     4.0740     1.0010 N.am  1 <1>  -0.6600 
 17 O       -5.0700     3.2500     0.0760 O.3   1 <1>  -0.5600 
 18 C       -4.5860     0.9000     0.4110 C.3   1 <1>  -0.1600 
 19 C       -3.2500     0.1430     0.3920 C.3   1 <1>  -0.1600 
 20 C        4.8010     4.8460     0.2140 C.2   1 <1>   0.5690 
 21 C       -6.4440     3.2340    -0.1530 C.3   1 <1>   0.0400 
 22 O        4.9530     6.0280     0.4340 O.2   1 <1>  -0.5700 
 23 C        5.5330     4.2780    -1.0080 C.3   1 <1>   0.1810 
 24 O        6.3550     3.1810    -0.6920 O.3   1 <1>  -0.5600 
 25 C        7.1070     2.7110    -1.7580 C.3   1 <1>   0.1200 
 26 C        7.8740     1.4890    -1.2700 C.3   1 <1>  -0.2400 
 27 H        1.7470     2.4480     2.6950 H     1 <1>   0.0800 
 28 H       -2.6770     2.5380     1.7100 H     1 <1>   0.0800 
 29 H       -2.9040     4.0670     0.9350 H     1 <1>   0.0800 
 30 H       -1.0410     5.1910    -0.2200 H     1 <1>   0.0800 
 31 H        0.5230     4.4500    -0.3210 H     1 <1>   0.0800 
 32 H        1.3880     4.7720     3.0780 H     1 <1>   0.0800 
 33 H        1.4680     5.1510     1.3940 H     1 <1>   0.0800 
 34 H        1.8710     2.8460    -0.2860 H     1 <1>   0.0800 
 35 H        1.9870     1.3600     0.5880 H     1 <1>   0.0800 
 36 H       -0.6840     4.2360    -2.4480 H     1 <1>   0.0800 
 37 H       -0.3400     2.6810    -1.7570 H     1 <1>   0.0800 
 38 H        3.7190     4.0810     3.0860 H     1 <1>   0.0800 
 39 H        3.5980     5.6610     2.3650 H     1 <1>   0.0800 
 40 H        4.1860     2.2620    -0.1050 H     1 <1>   0.0800 
 41 H        4.0750     2.0690     1.6180 H     1 <1>   0.0800 
 42 H       -4.7030     1.9730    -1.4510 H     1 <1>   0.0800 
 43 H       -2.6510     2.7110    -2.5820 H     1 <1>   0.0800 
 44 H       -2.9850     4.1560    -1.6780 H     1 <1>   0.0800 
 45 H       -2.3540     0.5900    -1.4950 H     1 <1>   0.0800 
 46 H       -1.2880     0.8980    -0.1470 H     1 <1>   0.0800 
 47 H       -4.8280     1.1730     1.4240 H     1 <1>   0.0800 
 48 H       -5.3730     0.2940     0.0000 H     1 <1>   0.0800 
 49 H       -2.8520     0.0910     1.3930 H     1 <1>   0.0800 
 50 H       -3.3610    -0.8570     0.0110 H     1 <1>   0.0800 
 51 H       -6.8620     4.1300     0.2690 H     1 <1>   0.0800 
 52 H       -6.8780     2.3740     0.3260 H     1 <1>   0.0800 
 53 H       -6.6270     3.2120    -1.2130 H     1 <1>   0.0800 
 54 H        6.1510     5.0520    -1.4280 H     1 <1>   0.0800 
 55 H        4.8100     3.9660    -1.7380 H     1 <1>   0.0800 
 56 H        6.4450     2.4460    -2.5660 H     1 <1>   0.0800 
 57 H        7.7860     3.4860    -2.0730 H     1 <1>   0.0800 
 58 H        7.1880     0.7290    -0.9410 H     1 <1>   0.0800 
 59 H        8.5230     1.7630    -0.4580 H     1 <1>   0.0800 
 60 H        8.4720     1.0910    -2.0690 H     1 <1>   0.0800 
@<TRIPOS>BOND
  1   1   2  2   
  2   2   3  am  
  3   2   4  1   
  4   3   5  1   
  5   3   6  1   
  6   4   7  1   
  7   4   8  1   
  8   4  27  1   
  9   5   9  1   
 10   5  28  1   
 11   5  29  1   
 12   6  10  1   
 13   6  30  1   
 14   6  31  1   
 15   7  11  1   
 16   7  32  1   
 17   7  33  1   
 18   8  12  1   
 19   8  34  1   
 20   8  35  1   
 21   9  13  1   
 22   9  14  1   
 23   9  15  1   
 24  10  14  1   
 25  10  36  1   
 26  10  37  1   
 27  11  16  1   
 28  11  38  1   
 29  11  39  1   
 30  12  16  1   
 31  12  40  1   
 32  12  41  1   
 33  13  17  1   
 34  13  18  1   
 35  13  42  1   
 36  14  43  1   
 37  14  44  1   
 38  15  19  1   
 39  15  45  1   
 40  15  46  1   
 41  16  20  am  
 42  17  21  1   
 43  18  19  1   
 44  18  47  1   
 45  18  48  1   
 46  19  49  1   
 47  19  50  1   
 48  20  22  2   
 49  20  23  1   
 50  21  51  1   
 51  21  52  1   
 52  21  53  1   
 53  23  24  1   
 54  23  54  1   
 55  23  55  1   
 56  24  25  1   
 57  25  26  1   
 58  25  56  1   
 59  25  57  1   
 60  26  58  1   
 61  26  59  1   
 62  26  60  1   
@<TRIPOS>SUBSTRUCTURE
  1 ****   3 GROUP 4 **** **** 0

# MOE 2024.06 (io_trps.svl 2023.06)
