@<TRIPOS>MOLECULE
NONAME
42 43 1 0 0 
SMALL
USER_CHARGES


@<TRIPOS>ATOM
  1 F       -1.1470     0.6660     1.1160 F     1 <1>  -0.3400 
  2 C       -2.0540     0.0910     0.3370 C.3   1 <1>   1.0200 
  3 F       -1.5700     0.1260    -0.8980 F     1 <1>  -0.3400 
  4 F       -3.1150     0.8910     0.3460 F     1 <1>  -0.3400 
  5 C       -2.3930    -1.3520     0.8160 C.3   1 <1>   0.1100 
  6 N       -3.2300    -2.2450    -0.0650 N.3   1 <1>  -0.8100 
  7 C       -4.5970    -1.7240    -0.3040 C.3   1 <1>   0.1100 
  8 C       -3.2620    -3.6310     0.4550 C.3   1 <1>   0.1100 
  9 C       -5.4040    -2.6440    -1.2450 C.3   1 <1>   0.3430 
 10 C       -4.0560    -4.5780    -0.4680 C.3   1 <1>   0.3430 
 11 N       -5.4390    -4.0510    -0.7410 N.4   1 <1>  -0.9590 
 12 C       -6.1960    -4.9590    -1.6350 C.3   1 <1>   0.4860 
 13 C       -6.3920    -6.2480    -0.8790 C.ar  1 <1>  -0.1430 
 14 C       -7.3170    -6.3210     0.1530 C.ar  1 <1>   0.0830 
 15 C       -5.6150    -7.3450    -1.1980 C.ar  1 <1>  -0.1500 
 16 O       -8.0270    -5.1990     0.4370 O.3   1 <1>  -0.3630 
 17 C       -7.4560    -7.5180     0.8510 C.ar  1 <1>  -0.1500 
 18 C       -5.7120    -8.5400    -0.4900 C.ar  1 <1>  -0.1790 
 19 C       -9.1210    -5.2450     1.3310 C.3   1 <1>   0.0400 
 20 C       -6.6620    -8.6030     0.5290 C.ar  1 <1>  -0.1500 
 21 C       -4.8330    -9.6570    -0.8040 C.2   1 <1>   0.9790 
 22 O       -3.8610    -9.4780    -1.5610 O.co2 1 <1>  -0.9000 
 23 O       -5.0240   -10.7800    -0.3100 O.co2 1 <1>  -0.9000 
 24 H       -2.8630    -1.2670     1.7790 H     1 <1>   0.0800 
 25 H       -1.4450    -1.8370     0.9670 H     1 <1>   0.0800 
 26 H       -4.5390    -0.7550    -0.7690 H     1 <1>   0.0800 
 27 H       -5.1210    -1.6140     0.6310 H     1 <1>   0.0800 
 28 H       -3.7000    -3.6470     1.4390 H     1 <1>   0.0800 
 29 H       -2.2550    -4.0050     0.5360 H     1 <1>   0.0800 
 30 H       -4.9420    -2.6190    -2.2180 H     1 <1>   0.0800 
 31 H       -6.4070    -2.2620    -1.3400 H     1 <1>   0.0800 
 32 H       -4.1150    -5.5520    -0.0090 H     1 <1>   0.0800 
 33 H       -3.5170    -4.6840    -1.3950 H     1 <1>   0.0800 
 34 H       -5.9620    -4.0840     0.1460 H     1 <1>   0.4500 
 35 H       -5.6530    -5.1370    -2.5480 H     1 <1>   0.0800 
 36 H       -7.1600    -4.5380    -1.8720 H     1 <1>   0.0800 
 37 H       -4.8980    -7.3010    -2.0020 H     1 <1>   0.1500 
 38 H       -8.1640    -7.6290     1.6490 H     1 <1>   0.1500 
 39 H       -9.5890    -4.2770     1.3440 H     1 <1>   0.0800 
 40 H       -8.7620    -5.4900     2.3160 H     1 <1>   0.0800 
 41 H       -9.8230    -5.9840     0.9870 H     1 <1>   0.0800 
 42 H       -6.7610    -9.5300     1.0730 H     1 <1>   0.1500 
@<TRIPOS>BOND
  1   1   2  1   
  2   2   3  1   
  3   2   4  1   
  4   2   5  1   
  5   5   6  1   
  6   5  24  1   
  7   5  25  1   
  8   6   7  1   
  9   6   8  1   
 10   7   9  1   
 11   7  26  1   
 12   7  27  1   
 13   8  10  1   
 14   8  28  1   
 15   8  29  1   
 16   9  11  1   
 17   9  30  1   
 18   9  31  1   
 19  10  11  1   
 20  10  32  1   
 21  10  33  1   
 22  11  12  1   
 23  11  34  1   
 24  12  13  1   
 25  12  35  1   
 26  12  36  1   
 27  13  14  ar  
 28  13  15  ar  
 29  14  16  1   
 30  14  17  ar  
 31  15  18  ar  
 32  15  37  1   
 33  16  19  1   
 34  17  20  ar  
 35  17  38  1   
 36  18  20  ar  
 37  18  21  1   
 38  19  39  1   
 39  19  40  1   
 40  19  41  1   
 41  20  42  1   
 42  21  22  ar  
 43  21  23  ar  
@<TRIPOS>SUBSTRUCTURE
  1 ****  10 GROUP 4 **** **** 0

# MOE 2024.06 (io_trps.svl 2023.06)
