@<TRIPOS>MOLECULE
NONAME
40 42 1 0 0 
SMALL
USER_CHARGES


@<TRIPOS>ATOM
  1 O        0.5920    -0.2460    -0.5800 O.2   1 <1>  -0.5700 
  2 C        1.3420    -1.1130    -0.2100 C.2   1 <1>   0.5690 
  3 N        1.2080    -1.6980     0.9980 N.am  1 <1>  -0.7300 
  4 C        2.4870    -1.5780    -1.0840 C.3   1 <1>  -0.0990 
  5 C        2.1180    -2.7630     1.4680 C.3   1 <1>   0.1400 
  6 C        2.6170    -3.1170    -1.0650 C.3   1 <1>  -0.0800 
  7 C        2.3640    -3.7620     0.3210 C.3   1 <1>  -0.0800 
  8 C        3.9920    -3.5950    -1.5480 C.3   1 <1>  -0.1600 
  9 C        3.5480    -4.6940     0.6130 C.3   1 <1>  -0.1600 
 10 C        4.3310    -4.8160    -0.6910 C.3   1 <1>   0.2200 
 11 N        5.7840    -5.0580    -0.4480 N.am  1 <1>  -0.6600 
 12 C        6.7950    -4.1040    -0.3320 C.2   1 <1>   0.7160 
 13 C        6.1460    -6.5050    -0.4910 C.3   1 <1>   0.0600 
 14 O        7.9100    -4.4450    -0.7020 O.2   1 <1>  -0.5700 
 15 C        6.6440    -2.7410     0.1840 C.2   1 <1>   0.1410 
 16 N        5.6560    -2.2830     1.0140 N.2   1 <1>  -0.5650 
 17 C        7.4860    -1.6970    -0.0750 C.2   1 <1>  -0.3020 
 18 C        5.9260    -1.0370     1.2080 C.2   1 <1>   0.0360 
 19 N        7.0350    -0.6160     0.5670 N.pl3 1 <1>   0.0480 
 20 C        7.6260     0.7320     0.5830 C.3   1 <1>   0.0160 
 21 H        0.4650    -1.3650     1.6140 H     1 <1>   0.3700 
 22 H        2.3410    -1.2290    -2.0890 H     1 <1>   0.0800 
 23 H        3.3810    -1.1250    -0.6970 H     1 <1>   0.0800 
 24 H        3.0470    -2.3110     1.7730 H     1 <1>   0.0800 
 25 H        1.6870    -3.2690     2.3150 H     1 <1>   0.0800 
 26 H        1.8710    -3.5130    -1.7340 H     1 <1>   0.0800 
 27 H        1.4790    -4.3710     0.2370 H     1 <1>   0.0800 
 28 H        4.7090    -2.8110    -1.4320 H     1 <1>   0.0800 
 29 H        3.9580    -3.8640    -2.5890 H     1 <1>   0.0800 
 30 H        3.2030    -5.6600     0.9340 H     1 <1>   0.0800 
 31 H        4.1740    -4.2900     1.3860 H     1 <1>   0.0800 
 32 H        3.9290    -5.6660    -1.2180 H     1 <1>   0.0800 
 33 H        5.4400    -7.0780     0.0840 H     1 <1>   0.0800 
 34 H        7.1270    -6.6640    -0.0770 H     1 <1>   0.0800 
 35 H        6.1410    -6.8480    -1.5110 H     1 <1>   0.0800 
 36 H        8.3730    -1.7070    -0.6830 H     1 <1>   0.1500 
 37 H        5.3390    -0.3760     1.8210 H     1 <1>   0.1500 
 38 H        8.4480     0.7720    -0.1090 H     1 <1>   0.0800 
 39 H        7.9800     0.9530     1.5730 H     1 <1>   0.0800 
 40 H        6.8810     1.4510     0.2950 H     1 <1>   0.0800 
@<TRIPOS>BOND
  1   1   2  2   
  2   2   3  am  
  3   2   4  1   
  4   3   5  1   
  5   3  21  1   
  6   4   6  1   
  7   4  22  1   
  8   4  23  1   
  9   5   7  1   
 10   5  24  1   
 11   5  25  1   
 12   6   7  1   
 13   6   8  1   
 14   6  26  1   
 15   7   9  1   
 16   7  27  1   
 17   8  10  1   
 18   8  28  1   
 19   8  29  1   
 20   9  10  1   
 21   9  30  1   
 22   9  31  1   
 23  10  11  1   
 24  10  32  1   
 25  11  12  am  
 26  11  13  1   
 27  12  14  2   
 28  12  15  1   
 29  13  33  1   
 30  13  34  1   
 31  13  35  1   
 32  15  16  1   
 33  15  17  2   
 34  16  18  2   
 35  17  19  1   
 36  17  36  1   
 37  18  19  1   
 38  18  37  1   
 39  19  20  1   
 40  20  38  1   
 41  20  39  1   
 42  20  40  1   
@<TRIPOS>SUBSTRUCTURE
  1 ****  16 GROUP 4 **** **** 0

# MOE 2024.06 (io_trps.svl 2023.06)
