@<TRIPOS>MOLECULE
NONAME
55 58 1 0 0 
SMALL
USER_CHARGES


@<TRIPOS>ATOM
  1 O        0.5400    -0.0930    -1.4950 O.3   1 <1>  -0.5600 
  2 C        1.8040    -0.7030    -1.5840 C.3   1 <1>   0.2000 
  3 C        0.5440     1.2980    -1.6110 C.3   1 <1>   0.1200 
  4 C        2.7890    -0.1260    -0.5270 C.3   1 <1>   0.5660 
  5 C        1.6330    -2.2180    -1.3820 C.3   1 <1>   0.1200 
  6 C        1.3480     1.9130    -0.4540 C.3   1 <1>   0.3430 
  7 N        2.7420     1.3650    -0.3900 N.4   1 <1>  -0.9590 
  8 C        4.2350    -0.4810    -0.8520 C.ar  1 <1>  -0.1430 
  9 O        1.4150    -2.5030    -0.0360 O.3   1 <1>  -0.6800 
 10 C        3.4480     1.8220     0.8330 C.3   1 <1>   0.4870 
 11 C        5.0040    -1.1170     0.1070 C.ar  1 <1>  -0.1500 
 12 C        4.8160    -0.1590    -2.0720 C.ar  1 <1>  -0.1500 
 13 C        4.0970     3.1400     0.4840 C.ar  1 <1>  -0.1430 
 14 C        6.3390    -1.4100    -0.1130 C.ar  1 <1>   0.0820 
 15 C        6.1460    -0.4530    -2.3130 C.ar  1 <1>  -0.1500 
 16 C        5.3770     3.1610    -0.0890 C.ar  1 <1>  -0.1520 
 17 C        3.4470     4.3370     0.7040 C.ar  1 <1>  -0.1500 
 18 O        6.9550    -2.0100     0.9410 O.3   1 <1>  -0.3630 
 19 C        6.9320    -1.0650    -1.3390 C.ar  1 <1>   0.0820 
 20 N        6.2770     2.1570    -0.3810 N.pl3 1 <1>   0.0330 
 21 C        5.9590     4.3700    -0.4620 C.ar  1 <1>   0.0000 
 22 C        4.0380     5.5510     0.3380 C.ar  1 <1>  -0.1500 
 23 C        8.0860    -2.8390     0.7790 C.3   1 <1>   0.0400 
 24 O        8.2580    -1.3020    -1.5480 O.3   1 <1>  -0.3630 
 25 C        7.3830     2.7220    -0.9440 C.2   1 <1>  -0.3020 
 26 C        5.2820     5.5720    -0.2460 C.ar  1 <1>  -0.1500 
 27 C        7.2220     4.0640    -1.0090 C.2   1 <1>  -0.1500 
 28 C        8.9140    -0.9620    -2.7510 C.3   1 <1>   0.0400 
 29 H        2.1680    -0.5300    -2.5800 H     1 <1>   0.0800 
 30 H        0.9550     1.5730    -2.5680 H     1 <1>   0.0800 
 31 H       -0.4790     1.6310    -1.5680 H     1 <1>   0.0800 
 32 H        2.5300    -0.5660     0.4220 H     1 <1>   0.0800 
 33 H        2.5220    -2.7440    -1.6890 H     1 <1>   0.0800 
 34 H        0.7940    -2.5770    -1.9550 H     1 <1>   0.0800 
 35 H        0.8280     1.6950     0.4650 H     1 <1>   0.0800 
 36 H        1.3810     2.9840    -0.5720 H     1 <1>   0.0800 
 37 H        3.2870     1.7540    -1.1680 H     1 <1>   0.4500 
 38 H        1.0860    -3.4200     0.0740 H     1 <1>   0.4000 
 39 H        2.7590     1.9390     1.6540 H     1 <1>   0.0800 
 40 H        4.2130     1.1210     1.1230 H     1 <1>   0.0800 
 41 H        4.5800    -1.4030     1.0560 H     1 <1>   0.1500 
 42 H        4.2560     0.3290    -2.8520 H     1 <1>   0.1500 
 43 H        6.5560    -0.1860    -3.2690 H     1 <1>   0.1500 
 44 H        2.4740     4.3710     1.1620 H     1 <1>   0.1500 
 45 H        6.1700     1.1480    -0.2110 H     1 <1>   0.2700 
 46 H        3.5120     6.4730     0.5190 H     1 <1>   0.1500 
 47 H        8.2040    -3.4250     1.6730 H     1 <1>   0.0800 
 48 H        8.9540    -2.2210     0.6360 H     1 <1>   0.0800 
 49 H        7.9320    -3.4860    -0.0670 H     1 <1>   0.0800 
 50 H        8.2250     2.1300    -1.2580 H     1 <1>   0.1500 
 51 H        5.7500     6.4960    -0.5350 H     1 <1>   0.1500 
 52 H        7.9090     4.7990    -1.3920 H     1 <1>   0.1500 
 53 H        9.9470    -1.2450    -2.6580 H     1 <1>   0.0800 
 54 H        8.8430     0.1010    -2.9030 H     1 <1>   0.0800 
 55 H        8.4610    -1.5020    -3.5630 H     1 <1>   0.0800 
@<TRIPOS>BOND
  1   1   2  1   
  2   1   3  1   
  3   2   4  1   
  4   2   5  1   
  5   2  29  1   
  6   3   6  1   
  7   3  30  1   
  8   3  31  1   
  9   4   7  1   
 10   4   8  1   
 11   4  32  1   
 12   5   9  1   
 13   5  33  1   
 14   5  34  1   
 15   6   7  1   
 16   6  35  1   
 17   6  36  1   
 18   7  10  1   
 19   7  37  1   
 20   8  11  ar  
 21   8  12  ar  
 22   9  38  1   
 23  10  13  1   
 24  10  39  1   
 25  10  40  1   
 26  11  14  ar  
 27  11  41  1   
 28  12  15  ar  
 29  12  42  1   
 30  13  16  ar  
 31  13  17  ar  
 32  14  18  1   
 33  14  19  ar  
 34  15  19  ar  
 35  15  43  1   
 36  16  20  1   
 37  16  21  ar  
 38  17  22  ar  
 39  17  44  1   
 40  18  23  1   
 41  19  24  1   
 42  20  25  1   
 43  20  45  1   
 44  21  26  ar  
 45  21  27  1   
 46  22  26  ar  
 47  22  46  1   
 48  23  47  1   
 49  23  48  1   
 50  23  49  1   
 51  24  28  1   
 52  25  27  2   
 53  25  50  1   
 54  26  51  1   
 55  27  52  1   
 56  28  53  1   
 57  28  54  1   
 58  28  55  1   
@<TRIPOS>SUBSTRUCTURE
  1 ****   8 GROUP 4 **** **** 0

# MOE 2024.06 (io_trps.svl 2023.06)
