@<TRIPOS>MOLECULE
NONAME
47 50 1 0 0 
SMALL
USER_CHARGES


@<TRIPOS>ATOM
  1 O       -0.4550    -0.0010     0.2520 O.2   1 <1>  -0.5700 
  2 C       -1.4840     0.5740    -0.0070 C.2   1 <1>   0.5690 
  3 N       -2.6030    -0.1030    -0.3950 N.am  1 <1>  -0.6600 
  4 C       -1.5230     2.0870     0.0990 C.3   1 <1>  -0.0990 
  5 C       -3.9030     0.4860    -0.8040 C.3   1 <1>   0.1400 
  6 C       -2.6350    -1.5810    -0.5090 C.3   1 <1>   0.1400 
  7 C       -0.2100     2.6640     0.6460 C.3   1 <1>   0.0960 
  8 C       -4.7180    -0.6910    -1.3410 C.3   1 <1>   0.2000 
  9 C       -4.1090    -1.9400    -0.7070 C.3   1 <1>  -0.0800 
 10 N       -0.3010     4.1320     0.7420 N.pl3 1 <1>   0.0480 
 11 O       -6.0540    -0.5830    -0.9920 O.3   1 <1>  -0.6800 
 12 C       -4.3240    -3.2050    -1.5540 C.3   1 <1>  -0.0170 
 13 C       -0.7200     4.8760     1.7660 C.2   1 <1>   0.0370 
 14 C       -0.0150     5.0470    -0.1850 C.2   1 <1>   0.0360 
 15 C       -3.7370    -4.4340    -0.8660 C.ar  1 <1>  -0.1440 
 16 N       -0.6950     6.1330     1.4880 N.2   1 <1>  -0.3380 
 17 N       -0.2430     6.2430     0.2360 N.2   1 <1>  -0.3380 
 18 C       -4.3950    -5.0900     0.2020 C.ar  1 <1>   0.0000 
 19 C       -2.5350    -4.9360    -1.2690 C.ar  1 <1>  -0.1500 
 20 C       -3.7490    -6.2080     0.7840 C.ar  1 <1>   0.3100 
 21 C       -5.6530    -4.7070     0.7240 C.ar  1 <1>  -0.1500 
 22 C       -1.9860    -6.0530    -0.6290 C.ar  1 <1>   0.1600 
 23 N       -2.5490    -6.6760     0.3570 N.ar  1 <1>  -0.6200 
 24 C       -4.3700    -6.8710     1.8540 C.ar  1 <1>  -0.1500 
 25 C       -6.2330    -5.3770     1.7660 C.ar  1 <1>  -0.1500 
 26 C       -5.5850    -6.4720     2.3420 C.ar  1 <1>  -0.1500 
 27 H       -1.7080     2.4900    -0.8800 H     1 <1>   0.0800 
 28 H       -2.3300     2.3610     0.7520 H     1 <1>   0.0800 
 29 H       -4.3810     0.9230     0.0550 H     1 <1>   0.0800 
 30 H       -3.7600     1.2270    -1.5710 H     1 <1>   0.0800 
 31 H       -2.0460    -1.8760    -1.3600 H     1 <1>   0.0800 
 32 H       -2.2320    -2.0440     0.3770 H     1 <1>   0.0800 
 33 H        0.6090     2.4070    -0.0040 H     1 <1>   0.0800 
 34 H       -0.0060     2.2620     1.6230 H     1 <1>   0.0800 
 35 H       -4.6490    -0.7210    -2.4150 H     1 <1>   0.0800 
 36 H       -4.5300    -2.0820     0.2730 H     1 <1>   0.0800 
 37 H       -6.1600    -0.6110    -0.0220 H     1 <1>   0.4000 
 38 H       -3.8600    -3.0740    -2.5160 H     1 <1>   0.0800 
 39 H       -5.3740    -3.3550    -1.7360 H     1 <1>   0.0800 
 40 H       -1.0390     4.4630     2.7060 H     1 <1>   0.1500 
 41 H        0.3580     4.8030    -1.1620 H     1 <1>   0.1500 
 42 H       -1.9780    -4.4940    -2.0760 H     1 <1>   0.1500 
 43 H       -6.1720    -3.8710     0.2940 H     1 <1>   0.1500 
 44 H       -1.0340    -6.4160    -0.9780 H     1 <1>   0.1500 
 45 H       -3.8540    -7.7120     2.2790 H     1 <1>   0.1500 
 46 H       -7.1900    -5.0740     2.1540 H     1 <1>   0.1500 
 47 H       -6.0490    -6.9910     3.1630 H     1 <1>   0.1500 
@<TRIPOS>BOND
  1   1   2  2   
  2   2   3  am  
  3   2   4  1   
  4   3   5  1   
  5   3   6  1   
  6   4   7  1   
  7   4  27  1   
  8   4  28  1   
  9   5   8  1   
 10   5  29  1   
 11   5  30  1   
 12   6   9  1   
 13   6  31  1   
 14   6  32  1   
 15   7  10  1   
 16   7  33  1   
 17   7  34  1   
 18   8   9  1   
 19   8  11  1   
 20   8  35  1   
 21   9  12  1   
 22   9  36  1   
 23  10  13  1   
 24  10  14  1   
 25  11  37  1   
 26  12  15  1   
 27  12  38  1   
 28  12  39  1   
 29  13  16  2   
 30  13  40  1   
 31  14  17  2   
 32  14  41  1   
 33  15  18  ar  
 34  15  19  ar  
 35  16  17  1   
 36  18  20  ar  
 37  18  21  ar  
 38  19  22  ar  
 39  19  42  1   
 40  20  23  ar  
 41  20  24  ar  
 42  21  25  ar  
 43  21  43  1   
 44  22  23  ar  
 45  22  44  1   
 46  24  26  ar  
 47  24  45  1   
 48  25  26  ar  
 49  25  46  1   
 50  26  47  1   
@<TRIPOS>SUBSTRUCTURE
  1 ****   6 GROUP 4 **** **** 0

# MOE 2024.06 (io_trps.svl 2023.06)
