@<TRIPOS>MOLECULE
NONAME
53 56 1 0 0 
SMALL
USER_CHARGES


@<TRIPOS>ATOM
  1 O       -0.6700     0.2560    -1.5750 O.2   1 <1>  -0.5700 
  2 C       -1.6230     0.8400    -1.0960 C.2   1 <1>   0.7160 
  3 N       -2.6420     0.1060    -0.5380 N.am  1 <1>  -0.6600 
  4 C       -1.6820     2.2790    -1.0880 C.2   1 <1>  -0.0860 
  5 C       -3.6590     0.6580     0.3930 C.3   1 <1>   0.1400 
  6 C       -2.6130    -1.3770    -0.4390 C.3   1 <1>   0.1400 
  7 C       -0.9820     3.2290    -0.4010 C.2   1 <1>  -0.3320 
  8 C       -2.5790     3.0250    -1.8550 C.2   1 <1>   0.1390 
  9 C       -3.8400    -0.4420     1.4370 C.3   1 <1>   0.2000 
 10 C       -3.6590    -1.7290     0.6260 C.3   1 <1>  -0.0800 
 11 N       -1.4670     4.4240    -0.7780 N.pl3 1 <1>   0.3000 
 12 C        0.1420     3.0850     0.6160 C.3   1 <1>   0.1000 
 13 N       -2.4650     4.3010    -1.6710 N.2   1 <1>  -0.7070 
 14 O       -2.8140    -0.3270     2.3640 O.3   1 <1>  -0.6800 
 15 C       -3.3140    -2.9870     1.4430 C.3   1 <1>   0.0210 
 16 C        1.4490     2.6880    -0.0840 C.3   1 <1>  -0.1600 
 17 C       -0.2160     2.0720     1.7140 C.3   1 <1>  -0.1600 
 18 C       -3.1640    -4.1940     0.5370 C.2   1 <1>   0.1080 
 19 C        2.5980     2.5270     0.9230 C.3   1 <1>  -0.1600 
 20 C        0.9250     1.9240     2.7310 C.3   1 <1>  -0.1600 
 21 N       -4.1290    -4.6430    -0.2040 N.2   1 <1>  -0.7070 
 22 C       -1.9990    -4.9390     0.3900 C.2   1 <1>  -0.1500 
 23 C        2.2320     1.5290     2.0300 C.3   1 <1>  -0.1600 
 24 N       -3.6010    -5.7010    -0.8480 N.pl3 1 <1>   0.3000 
 25 C       -2.3100    -5.8990    -0.5060 C.2   1 <1>  -0.3320 
 26 C       -1.4410    -7.0100    -1.0660 C.3   1 <1>  -0.0600 
 27 H       -3.3480     1.5840     0.8450 H     1 <1>   0.0800 
 28 H       -4.5790     0.8100    -0.1440 H     1 <1>   0.0800 
 29 H       -2.8550    -1.8280    -1.3860 H     1 <1>   0.0800 
 30 H       -1.6300    -1.6960    -0.1360 H     1 <1>   0.0800 
 31 H       -3.2940     2.5850    -2.5300 H     1 <1>   0.1500 
 32 H       -4.7820    -0.3880     1.9550 H     1 <1>   0.0800 
 33 H       -4.5830    -1.9180     0.1080 H     1 <1>   0.0800 
 34 H       -1.1460     5.3430    -0.4490 H     1 <1>   0.2700 
 35 H        0.2970     4.0390     1.0930 H     1 <1>   0.0800 
 36 H       -1.9650    -0.2670     1.8810 H     1 <1>   0.4000 
 37 H       -4.1000    -3.1830     2.1490 H     1 <1>   0.0800 
 38 H       -2.4010    -2.8460     1.9920 H     1 <1>   0.0800 
 39 H        1.3060     1.7580    -0.6070 H     1 <1>   0.0800 
 40 H        1.7100     3.4350    -0.8130 H     1 <1>   0.0800 
 41 H       -1.1130     2.3860     2.2190 H     1 <1>   0.0800 
 42 H       -0.4000     1.1110     1.2720 H     1 <1>   0.0800 
 43 H        3.4800     2.1850     0.4080 H     1 <1>   0.0800 
 44 H        2.8250     3.4820     1.3640 H     1 <1>   0.0800 
 45 H        1.0650     2.8550     3.2540 H     1 <1>   0.0800 
 46 H        0.6640     1.1730     3.4570 H     1 <1>   0.0800 
 47 H       -1.0650    -4.7650     0.8940 H     1 <1>   0.1500 
 48 H        3.0290     1.4830     2.7520 H     1 <1>   0.0800 
 49 H        2.1220     0.5480     1.5990 H     1 <1>   0.0800 
 50 H       -4.1450    -6.2660    -1.5100 H     1 <1>   0.2700 
 51 H       -0.4540    -6.9570    -0.6400 H     1 <1>   0.0800 
 52 H       -1.3580    -6.9160    -2.1340 H     1 <1>   0.0800 
 53 H       -1.8650    -7.9690    -0.8280 H     1 <1>   0.0800 
@<TRIPOS>BOND
  1   1   2  2   
  2   2   3  am  
  3   2   4  1   
  4   3   5  1   
  5   3   6  1   
  6   4   7  2   
  7   4   8  1   
  8   5   9  1   
  9   5  27  1   
 10   5  28  1   
 11   6  10  1   
 12   6  29  1   
 13   6  30  1   
 14   7  11  1   
 15   7  12  1   
 16   8  13  2   
 17   8  31  1   
 18   9  10  1   
 19   9  14  1   
 20   9  32  1   
 21  10  15  1   
 22  10  33  1   
 23  11  13  1   
 24  11  34  1   
 25  12  16  1   
 26  12  17  1   
 27  12  35  1   
 28  14  36  1   
 29  15  18  1   
 30  15  37  1   
 31  15  38  1   
 32  16  19  1   
 33  16  39  1   
 34  16  40  1   
 35  17  20  1   
 36  17  41  1   
 37  17  42  1   
 38  18  21  2   
 39  18  22  1   
 40  19  23  1   
 41  19  43  1   
 42  19  44  1   
 43  20  23  1   
 44  20  45  1   
 45  20  46  1   
 46  21  24  1   
 47  22  25  2   
 48  22  47  1   
 49  23  48  1   
 50  23  49  1   
 51  24  25  1   
 52  24  50  1   
 53  25  26  1   
 54  26  51  1   
 55  26  52  1   
 56  26  53  1   
@<TRIPOS>SUBSTRUCTURE
  1 ****   3 GROUP 4 **** **** 0

# MOE 2024.06 (io_trps.svl 2023.06)
