@<TRIPOS>MOLECULE
NONAME
52 54 1 0 0 
SMALL
USER_CHARGES


@<TRIPOS>ATOM
  1 O       -1.8550     1.9390    -1.9410 O.2   1 <1>  -0.5700 
  2 C       -1.1190     2.4380    -1.1200 C.2   1 <1>   0.6900 
  3 N       -1.5290     3.1710    -0.0470 N.am  1 <1>  -0.4200 
  4 N        0.2210     2.3060    -1.1470 N.am  1 <1>  -0.7300 
  5 C       -0.4510     3.5010     0.7150 C.2   1 <1>   0.5690 
  6 C       -2.9340     3.2530     0.4190 C.3   1 <1>   0.2010 
  7 C        0.8100     2.9040     0.0580 C.3   1 <1>   0.3610 
  8 O       -0.4730     4.1610     1.7270 O.2   1 <1>  -0.5700 
  9 C       -3.4260     1.9120     0.9670 C.2   1 <1>   0.5690 
 10 C        1.4490     1.7940     0.8960 C.3   1 <1>  -0.2400 
 11 C        1.8320     3.9600    -0.3660 C.3   1 <1>  -0.2400 
 12 O       -2.9660     1.5500     2.0260 O.2   1 <1>  -0.5700 
 13 N       -4.3620     1.1510     0.3080 N.am  1 <1>  -0.6600 
 14 C       -4.8030    -0.1730     0.8510 C.3   1 <1>   0.1400 
 15 C       -5.0070     1.5010    -0.9910 C.3   1 <1>   0.1400 
 16 C       -6.2030    -0.1030     1.4830 C.3   1 <1>   0.1400 
 17 C       -6.2630     2.3580    -0.7800 C.3   1 <1>  -0.1600 
 18 N       -7.2210     0.4810     0.5510 N.am  1 <1>  -0.6600 
 19 C       -7.1320     1.9610     0.4220 C.3   1 <1>   0.1400 
 20 C       -8.1350    -0.2560    -0.1890 C.2   1 <1>   0.5440 
 21 O       -8.9890     0.3650    -0.8000 O.2   1 <1>  -0.5700 
 22 C       -8.1470    -1.7180    -0.2700 C.ar  1 <1>   0.3960 
 23 N       -7.0080    -2.4330    -0.3080 N.ar  1 <1>  -0.6200 
 24 C       -9.3930    -2.3540    -0.3230 C.ar  1 <1>   0.1600 
 25 C       -7.2100    -3.7350    -0.3940 C.ar  1 <1>   0.1600 
 26 N       -9.5940    -3.6600    -0.3990 N.ar  1 <1>  -0.6200 
 27 C       -8.4640    -4.3380    -0.4360 C.ar  1 <1>   0.1670 
 28 C       -8.5980    -5.8440    -0.5310 C.3   1 <1>  -0.0970 
 29 H        0.6720     1.5600    -1.6720 H     1 <1>   0.3700 
 30 H       -3.5510     3.5930    -0.3880 H     1 <1>   0.0800 
 31 H       -2.9980     3.9780     1.2100 H     1 <1>   0.0800 
 32 H        0.7170     1.0480     1.1490 H     1 <1>   0.0800 
 33 H        1.8310     2.2100     1.8110 H     1 <1>   0.0800 
 34 H        2.2620     1.3340     0.3640 H     1 <1>   0.0800 
 35 H        1.3640     4.7030    -0.9870 H     1 <1>   0.0800 
 36 H        2.6440     3.5080    -0.9040 H     1 <1>   0.0800 
 37 H        2.2270     4.4510     0.5050 H     1 <1>   0.0800 
 38 H       -4.1060    -0.5200     1.5940 H     1 <1>   0.0800 
 39 H       -4.8040    -0.9030     0.0610 H     1 <1>   0.0800 
 40 H       -5.2890     0.5910    -1.4950 H     1 <1>   0.0800 
 41 H       -4.3160     2.0090    -1.6380 H     1 <1>   0.0800 
 42 H       -6.1480     0.4990     2.3730 H     1 <1>   0.0800 
 43 H       -6.5030    -1.0870     1.7940 H     1 <1>   0.0800 
 44 H       -6.8640     2.2950    -1.6690 H     1 <1>   0.0800 
 45 H       -5.9800     3.3880    -0.6710 H     1 <1>   0.0800 
 46 H       -8.1180     2.3810     0.3120 H     1 <1>   0.0800 
 47 H       -6.7060     2.3710     1.3210 H     1 <1>   0.0800 
 48 H      -10.2710    -1.7320    -0.3010 H     1 <1>   0.1500 
 49 H       -6.3360    -4.3610    -0.4330 H     1 <1>   0.1500 
 50 H       -7.6360    -6.3220    -0.5580 H     1 <1>   0.0800 
 51 H       -9.1380    -6.1000    -1.4250 H     1 <1>   0.0800 
 52 H       -9.1460    -6.2100     0.3180 H     1 <1>   0.0800 
@<TRIPOS>BOND
  1   1   2  2   
  2   2   3  am  
  3   2   4  am  
  4   3   5  am  
  5   3   6  1   
  6   4   7  1   
  7   4  29  1   
  8   5   7  1   
  9   5   8  2   
 10   6   9  1   
 11   6  30  1   
 12   6  31  1   
 13   7  10  1   
 14   7  11  1   
 15   9  12  2   
 16   9  13  am  
 17  10  32  1   
 18  10  33  1   
 19  10  34  1   
 20  11  35  1   
 21  11  36  1   
 22  11  37  1   
 23  13  14  1   
 24  13  15  1   
 25  14  16  1   
 26  14  38  1   
 27  14  39  1   
 28  15  17  1   
 29  15  40  1   
 30  15  41  1   
 31  16  18  1   
 32  16  42  1   
 33  16  43  1   
 34  17  19  1   
 35  17  44  1   
 36  17  45  1   
 37  18  19  1   
 38  18  20  am  
 39  19  46  1   
 40  19  47  1   
 41  20  21  2   
 42  20  22  1   
 43  22  23  ar  
 44  22  24  ar  
 45  23  25  ar  
 46  24  26  ar  
 47  24  48  1   
 48  25  27  ar  
 49  25  49  1   
 50  26  27  ar  
 51  27  28  1   
 52  28  50  1   
 53  28  51  1   
 54  28  52  1   
@<TRIPOS>SUBSTRUCTURE
  1 ****  13 GROUP 4 **** **** 0

# MOE 2024.06 (io_trps.svl 2023.06)
