@<TRIPOS>MOLECULE
NONAME
53 55 1 0 0 
SMALL
USER_CHARGES


@<TRIPOS>ATOM
  1 O       -0.5870    -0.0510     1.3640 O.2   1 <1>  -0.5700 
  2 C       -1.2780     0.8190     0.8860 C.2   1 <1>   0.5690 
  3 N       -2.3900     0.4890     0.1420 N.am  1 <1>  -0.6600 
  4 C       -0.8860     2.2660     1.1770 C.3   1 <1>   0.1810 
  5 C       -2.6320    -0.9170    -0.2850 C.3   1 <1>   0.1400 
  6 C       -3.4400     1.4560    -0.2920 C.3   1 <1>   0.1400 
  7 O       -0.8220     3.0330    -0.0160 O.3   1 <1>  -0.3620 
  8 C       -3.9980    -1.4040     0.2460 C.3   1 <1>   0.4230 
  9 C       -4.7950     0.9830     0.2480 C.3   1 <1>  -0.1600 
 10 C       -0.6480     4.3760     0.0250 C.ar  1 <1>   0.0820 
 11 N       -4.2650    -2.8830    -0.0120 N.4   1 <1>  -0.9590 
 12 C       -5.1670    -0.4660    -0.1790 C.3   1 <1>   0.0000 
 13 C       -0.3440     5.0840     1.1850 C.ar  1 <1>  -0.1500 
 14 C       -0.7930     5.0610    -1.1700 C.ar  1 <1>  -0.1500 
 15 C       -5.7070    -3.2750     0.1050 C.3   1 <1>   0.3430 
 16 C       -3.6900    -3.4310    -1.2850 C.3   1 <1>   0.2630 
 17 C       -6.4640    -0.8890     0.5720 C.3   1 <1>  -0.1600 
 18 C       -5.3810    -0.5370    -1.7190 C.3   1 <1>   0.1200 
 19 C       -0.1980     6.4590     1.1380 C.ar  1 <1>  -0.1500 
 20 C       -0.6460     6.4360    -1.2130 C.ar  1 <1>  -0.1500 
 21 C       -6.4500    -2.3490     1.0650 C.3   1 <1>  -0.1600 
 22 O       -6.2710     0.4300    -2.1570 O.3   1 <1>  -0.6800 
 23 C       -0.3500     7.1430    -0.0580 C.ar  1 <1>  -0.1440 
 24 C       -0.1870     8.6520    -0.1050 C.3   1 <1>  -0.0970 
 25 H        0.0840     2.2900     1.6400 H     1 <1>   0.0800 
 26 H       -1.6130     2.7090     1.8310 H     1 <1>   0.0800 
 27 H       -2.5960    -0.9500    -1.3580 H     1 <1>   0.0800 
 28 H       -1.8570    -1.5590     0.0940 H     1 <1>   0.0800 
 29 H       -3.2400     2.4440     0.0850 H     1 <1>   0.0800 
 30 H       -3.4560     1.5150    -1.3670 H     1 <1>   0.0800 
 31 H       -3.9290    -1.2960     1.3160 H     1 <1>   0.0800 
 32 H       -4.7530     1.0500     1.3220 H     1 <1>   0.0800 
 33 H       -5.5530     1.6780    -0.0710 H     1 <1>   0.0800 
 34 H       -3.7790    -3.3670     0.7590 H     1 <1>   0.4500 
 35 H       -0.2130     4.5880     2.1280 H     1 <1>   0.1500 
 36 H       -1.0210     4.5130    -2.0650 H     1 <1>   0.1500 
 37 H       -6.1810    -3.2150    -0.8620 H     1 <1>   0.0800 
 38 H       -5.7830    -4.2950     0.4480 H     1 <1>   0.0800 
 39 H       -4.1210    -2.9370    -2.1400 H     1 <1>   0.0800 
 40 H       -3.8930    -4.4870    -1.3620 H     1 <1>   0.0800 
 41 H       -2.6200    -3.2930    -1.3090 H     1 <1>   0.0800 
 42 H       -6.6250    -0.2630     1.4340 H     1 <1>   0.0800 
 43 H       -7.3220    -0.7440    -0.0610 H     1 <1>   0.0800 
 44 H       -5.7720    -1.4910    -2.0210 H     1 <1>   0.0800 
 45 H       -4.4630    -0.3620    -2.2510 H     1 <1>   0.0800 
 46 H        0.0390     6.9990     2.0380 H     1 <1>   0.1500 
 47 H       -0.7620     6.9530    -2.1490 H     1 <1>   0.1500 
 48 H       -7.4650    -2.6930     1.1750 H     1 <1>   0.0800 
 49 H       -5.9920    -2.4090     2.0380 H     1 <1>   0.0800 
 50 H       -7.1670     0.3090    -1.7840 H     1 <1>   0.4000 
 51 H       -0.4720     9.0910     0.8340 H     1 <1>   0.0800 
 52 H       -0.8060     9.0730    -0.8780 H     1 <1>   0.0800 
 53 H        0.8390     8.9000    -0.3080 H     1 <1>   0.0800 
@<TRIPOS>BOND
  1   1   2  2   
  2   2   3  am  
  3   2   4  1   
  4   3   5  1   
  5   3   6  1   
  6   4   7  1   
  7   4  25  1   
  8   4  26  1   
  9   5   8  1   
 10   5  27  1   
 11   5  28  1   
 12   6   9  1   
 13   6  29  1   
 14   6  30  1   
 15   7  10  1   
 16   8  11  1   
 17   8  12  1   
 18   8  31  1   
 19   9  12  1   
 20   9  32  1   
 21   9  33  1   
 22  10  13  ar  
 23  10  14  ar  
 24  11  15  1   
 25  11  16  1   
 26  11  34  1   
 27  12  17  1   
 28  12  18  1   
 29  13  19  ar  
 30  13  35  1   
 31  14  20  ar  
 32  14  36  1   
 33  15  21  1   
 34  15  37  1   
 35  15  38  1   
 36  16  39  1   
 37  16  40  1   
 38  16  41  1   
 39  17  21  1   
 40  17  42  1   
 41  17  43  1   
 42  18  22  1   
 43  18  44  1   
 44  18  45  1   
 45  19  23  ar  
 46  19  46  1   
 47  20  23  ar  
 48  20  47  1   
 49  21  48  1   
 50  21  49  1   
 51  22  50  1   
 52  23  24  1   
 53  24  51  1   
 54  24  52  1   
 55  24  53  1   
@<TRIPOS>SUBSTRUCTURE
  1 ****   6 GROUP 4 **** **** 0

# MOE 2024.06 (io_trps.svl 2023.06)
