@<TRIPOS>MOLECULE
NONAME
61 64 1 0 0 
SMALL
USER_CHARGES


@<TRIPOS>ATOM
  1 O        0.6790     0.3970    -1.8510 O.3   1 <1>  -0.5600 
  2 C        1.8160    -0.3950    -1.6150 C.3   1 <1>   0.2000 
  3 C        0.9410     1.7600    -1.9860 C.3   1 <1>   0.1200 
  4 C        2.6290     0.1190    -0.3840 C.3   1 <1>   0.3340 
  5 C        1.2810    -1.8350    -1.4780 C.3   1 <1>   0.1200 
  6 C        1.5710     2.2950    -0.6960 C.3   1 <1>   0.1100 
  7 N        2.8360     1.5950    -0.4050 N.3   1 <1>  -0.8100 
  8 C        4.0030    -0.5540    -0.3210 C.ar  1 <1>  -0.1440 
  9 O        2.2520    -2.7560    -1.0980 O.3   1 <1>  -0.6800 
 10 C        3.4440     2.0550     0.8630 C.3   1 <1>   0.2530 
 11 C        4.3280    -1.3840     0.7430 C.ar  1 <1>  -0.1500 
 12 C        4.9430    -0.3410    -1.3210 C.ar  1 <1>  -0.1500 
 13 C        3.6560     3.5650     0.8720 C.ar  1 <1>  -0.1430 
 14 C        5.5680    -1.9950     0.8110 C.ar  1 <1>   0.0830 
 15 C        6.1890    -0.9390    -1.2570 C.ar  1 <1>  -0.1500 
 16 C        4.6960     4.1540     0.1510 C.ar  1 <1>  -0.0230 
 17 C        2.7990     4.3640     1.6130 C.ar  1 <1>  -0.1500 
 18 O        5.8000    -2.8230     1.8580 O.3   1 <1>  -0.3630 
 19 C        6.5180    -1.7510    -0.1860 C.ar  1 <1>   0.0830 
 20 N        5.6000     3.3820    -0.6280 N.pl3 1 <1>   0.5930 
 21 C        4.8510     5.5360     0.1970 C.ar  1 <1>  -0.1500 
 22 C        2.9530     5.7390     1.6500 C.ar  1 <1>   0.0830 
 23 C        5.9040    -4.1940     1.5450 C.3   1 <1>   0.0400 
 24 O        7.7690    -2.2700    -0.1550 O.3   1 <1>  -0.3630 
 25 N        6.7950     2.9380    -0.1610 N.2   1 <1>  -0.7070 
 26 C        5.4950     3.1110    -1.9510 C.2   1 <1>  -0.3020 
 27 C        3.9910     6.3270     0.9350 C.ar  1 <1>  -0.1500 
 28 O        2.0600     6.4340     2.3990 O.3   1 <1>  -0.3620 
 29 C        8.5980    -1.8190     0.8940 C.3   1 <1>   0.0400 
 30 C        7.3860     2.3980    -1.1790 C.2   1 <1>   0.1390 
 31 C        6.6220     2.4790    -2.3370 C.2   1 <1>  -0.1500 
 32 C        2.1650     7.8330     2.5480 C.3   1 <1>   0.0400 
 33 H        2.4290    -0.3360    -2.4960 H     1 <1>   0.0800 
 34 H        1.5990     1.9110    -2.8240 H     1 <1>   0.0800 
 35 H        0.0070     2.2560    -2.1780 H     1 <1>   0.0800 
 36 H        2.0700    -0.1410     0.4980 H     1 <1>   0.0800 
 37 H        0.8780    -2.1580    -2.4220 H     1 <1>   0.0800 
 38 H        0.5040    -1.8690    -0.7350 H     1 <1>   0.0800 
 39 H        0.8770     2.1720     0.1180 H     1 <1>   0.0800 
 40 H        1.7570     3.3470    -0.8260 H     1 <1>   0.0800 
 41 H        3.1220    -2.5460    -1.4980 H     1 <1>   0.4000 
 42 H        2.8140     1.7740     1.6890 H     1 <1>   0.0800 
 43 H        4.4000     1.5790     1.0070 H     1 <1>   0.0800 
 44 H        3.6170    -1.5740     1.5270 H     1 <1>   0.1500 
 45 H        4.7070     0.3100    -2.1450 H     1 <1>   0.1500 
 46 H        6.9170    -0.7660    -2.0280 H     1 <1>   0.1500 
 47 H        1.9940     3.9270     2.1760 H     1 <1>   0.1500 
 48 H        5.6590     5.9930    -0.3490 H     1 <1>   0.1500 
 49 H        6.0110    -4.7420     2.4640 H     1 <1>   0.0800 
 50 H        6.7650    -4.3510     0.9200 H     1 <1>   0.0800 
 51 H        5.0090    -4.5010     1.0340 H     1 <1>   0.0800 
 52 H        4.6230     3.3850    -2.5130 H     1 <1>   0.1500 
 53 H        4.1440     7.3890     0.9440 H     1 <1>   0.1500 
 54 H        9.5920    -2.1900     0.7220 H     1 <1>   0.0800 
 55 H        8.2250    -2.1940     1.8300 H     1 <1>   0.0800 
 56 H        8.5990    -0.7430     0.8980 H     1 <1>   0.0800 
 57 H        8.3610     1.9410    -1.1250 H     1 <1>   0.1500 
 58 H        6.8990     2.1090    -3.3080 H     1 <1>   0.1500 
 59 H        1.3720     8.1600     3.1960 H     1 <1>   0.0800 
 60 H        2.0630     8.2950     1.5820 H     1 <1>   0.0800 
 61 H        3.1170     8.0660     2.9900 H     1 <1>   0.0800 
@<TRIPOS>BOND
  1   1   2  1   
  2   1   3  1   
  3   2   4  1   
  4   2   5  1   
  5   2  33  1   
  6   3   6  1   
  7   3  34  1   
  8   3  35  1   
  9   4   7  1   
 10   4   8  1   
 11   4  36  1   
 12   5   9  1   
 13   5  37  1   
 14   5  38  1   
 15   6   7  1   
 16   6  39  1   
 17   6  40  1   
 18   7  10  1   
 19   8  11  ar  
 20   8  12  ar  
 21   9  41  1   
 22  10  13  1   
 23  10  42  1   
 24  10  43  1   
 25  11  14  ar  
 26  11  44  1   
 27  12  15  ar  
 28  12  45  1   
 29  13  16  ar  
 30  13  17  ar  
 31  14  18  1   
 32  14  19  ar  
 33  15  19  ar  
 34  15  46  1   
 35  16  20  1   
 36  16  21  ar  
 37  17  22  ar  
 38  17  47  1   
 39  18  23  1   
 40  19  24  1   
 41  20  25  1   
 42  20  26  1   
 43  21  27  ar  
 44  21  48  1   
 45  22  27  ar  
 46  22  28  1   
 47  23  49  1   
 48  23  50  1   
 49  23  51  1   
 50  24  29  1   
 51  25  30  2   
 52  26  31  2   
 53  26  52  1   
 54  27  53  1   
 55  28  32  1   
 56  29  54  1   
 57  29  55  1   
 58  29  56  1   
 59  30  31  1   
 60  30  57  1   
 61  31  58  1   
 62  32  59  1   
 63  32  60  1   
 64  32  61  1   
@<TRIPOS>SUBSTRUCTURE
  1 ****  10 GROUP 4 **** **** 0

# MOE 2024.06 (io_trps.svl 2023.06)
