@<TRIPOS>MOLECULE
NONAME
46 49 1 0 0 
SMALL
USER_CHARGES


@<TRIPOS>ATOM
  1 CL       0.2890    -3.6220     1.9970 Cl    1 <1>  -0.1770 
  2 C       -1.1670    -3.2440     1.1100 C.ar  1 <1>   0.1770 
  3 C       -1.2450    -3.4960    -0.2520 C.ar  1 <1>  -0.1440 
  4 C       -2.2300    -2.6900     1.7990 C.ar  1 <1>  -0.1500 
  5 C       -2.4210    -3.1830    -0.9150 C.ar  1 <1>  -0.1500 
  6 C       -0.0710    -4.0970    -1.0110 C.3   1 <1>  -0.0960 
  7 C       -3.3950    -2.3850     1.1190 C.ar  1 <1>  -0.1500 
  8 C       -3.5170    -2.6330    -0.2490 C.ar  1 <1>   0.0860 
  9 C       -4.7400    -2.3250    -0.9630 C.2   1 <1>   0.5440 
 10 O       -4.7270    -1.4410    -1.7980 O.2   1 <1>  -0.5700 
 11 N       -5.9170    -3.0010    -0.7180 N.am  1 <1>  -0.6600 
 12 C       -7.2100    -2.6060    -1.3600 C.3   1 <1>   0.1400 
 13 C       -6.0610    -4.1440     0.2230 C.3   1 <1>   0.1400 
 14 C       -8.2130    -2.1480    -0.2860 C.3   1 <1>   0.1430 
 15 C       -7.0360    -3.7560     1.3420 C.3   1 <1>  -0.1600 
 16 C       -9.5590    -1.8250    -0.9110 C.ar  1 <1>   0.1670 
 17 C       -8.3840    -3.2510     0.7850 C.3   1 <1>  -0.1600 
 18 C       -7.7970    -0.7880     0.3410 C.3   1 <1>  -0.1600 
 19 N      -10.2240    -2.6070    -1.7290 N.ar  1 <1>  -0.6200 
 20 C      -10.0180    -0.6030    -0.5140 C.ar  1 <1>  -0.1440 
 21 C       -9.0650     0.0790     0.4330 C.3   1 <1>  -0.0160 
 22 C      -11.3720    -2.0960    -2.1460 C.ar  1 <1>   0.7200 
 23 C      -11.2310    -0.1850    -1.0060 C.ar  1 <1>   0.1600 
 24 N      -11.9280    -0.9350    -1.8300 N.ar  1 <1>  -0.6200 
 25 N      -12.0780    -2.8650    -2.9760 N.pl3 1 <1>  -0.9000 
 26 H       -2.1370    -2.5000     2.8530 H     1 <1>   0.1500 
 27 H       -2.5100    -3.3580    -1.9740 H     1 <1>   0.1500 
 28 H        0.1770    -5.0600    -0.6020 H     1 <1>   0.0800 
 29 H        0.7870    -3.4540    -0.9270 H     1 <1>   0.0800 
 30 H       -0.3040    -4.2180    -2.0530 H     1 <1>   0.0800 
 31 H       -4.2250    -1.9460     1.6450 H     1 <1>   0.1500 
 32 H       -7.6100    -3.4540    -1.8880 H     1 <1>   0.0800 
 33 H       -7.0620    -1.8200    -2.0810 H     1 <1>   0.0800 
 34 H       -5.1120    -4.4300     0.6410 H     1 <1>   0.0800 
 35 H       -6.4500    -4.9900    -0.3190 H     1 <1>   0.0800 
 36 H       -6.5800    -2.9990     1.9530 H     1 <1>   0.0800 
 37 H       -7.2100    -4.6130     1.9690 H     1 <1>   0.0800 
 38 H       -8.8970    -4.0830     0.3340 H     1 <1>   0.0800 
 39 H       -9.0020    -2.8910     1.5890 H     1 <1>   0.0800 
 40 H       -7.0990    -0.2930    -0.3130 H     1 <1>   0.0800 
 41 H       -7.3280    -0.8990     1.3010 H     1 <1>   0.0800 
 42 H       -8.8690     1.0950     0.1370 H     1 <1>   0.0800 
 43 H       -9.4690     0.0590     1.4300 H     1 <1>   0.0800 
 44 H      -11.6340     0.7720    -0.7200 H     1 <1>   0.1500 
 45 H      -13.0630    -2.6290    -3.0470 H     1 <1>   0.4000 
 46 H      -11.8360    -3.8510    -2.9650 H     1 <1>   0.4000 
@<TRIPOS>BOND
  1   1   2  1   
  2   2   3  ar  
  3   2   4  ar  
  4   3   5  ar  
  5   3   6  1   
  6   4   7  ar  
  7   4  26  1   
  8   5   8  ar  
  9   5  27  1   
 10   6  28  1   
 11   6  29  1   
 12   6  30  1   
 13   7   8  ar  
 14   7  31  1   
 15   8   9  1   
 16   9  10  2   
 17   9  11  am  
 18  11  12  1   
 19  11  13  1   
 20  12  14  1   
 21  12  32  1   
 22  12  33  1   
 23  13  15  1   
 24  13  34  1   
 25  13  35  1   
 26  14  16  1   
 27  14  17  1   
 28  14  18  1   
 29  15  17  1   
 30  15  36  1   
 31  15  37  1   
 32  16  19  ar  
 33  16  20  ar  
 34  17  38  1   
 35  17  39  1   
 36  18  21  1   
 37  18  40  1   
 38  18  41  1   
 39  19  22  ar  
 40  20  21  1   
 41  20  23  ar  
 42  21  42  1   
 43  21  43  1   
 44  22  24  ar  
 45  22  25  1   
 46  23  24  ar  
 47  23  44  1   
 48  25  45  1   
 49  25  46  1   
@<TRIPOS>SUBSTRUCTURE
  1 ****  11 GROUP 4 **** **** 0

# MOE 2024.06 (io_trps.svl 2023.06)
