@<TRIPOS>MOLECULE
NONAME
44 45 1 0 0 
SMALL
USER_CHARGES


@<TRIPOS>ATOM
  1 S       -0.2950    -0.0460     0.0580 S.o2  1 <1>   1.3330 
  2 O       -0.4140    -0.5560     1.4060 O.2   1 <1>  -0.6500 
  3 O       -1.0040     1.1580    -0.3120 O.2   1 <1>  -0.6500 
  4 N       -0.7680    -1.2840    -1.0020 N.am  1 <1>  -0.8490 
  5 C        1.4320     0.1860    -0.3680 C.3   1 <1>  -0.0550 
  6 C       -0.4460    -2.6280    -0.5080 C.3   1 <1>   0.1160 
  7 C       -2.1920    -1.2090    -1.3440 C.3   1 <1>   0.1160 
  8 C        2.1230     1.3240     0.4110 C.3   1 <1>  -0.0800 
  9 C        3.5060     1.6040    -0.1530 C.3   1 <1>   0.2200 
 10 C        2.4650     0.9080     1.8410 C.3   1 <1>   0.1200 
 11 N        3.9020     2.9870     0.1840 N.am  1 <1>  -0.7300 
 12 C        4.3850     0.6080     0.6050 C.3   1 <1>   0.1200 
 13 O        3.6810     0.2320     1.7550 O.3   1 <1>  -0.5600 
 14 C        4.2250     3.9820    -0.6940 C.2   1 <1>   0.7160 
 15 O        4.1530     3.7480    -1.8890 O.2   1 <1>  -0.5700 
 16 C        4.6500     5.2720    -0.1760 C.2   1 <1>   0.2030 
 17 N        4.7690     5.5800     1.1050 N.2   1 <1>  -0.7070 
 18 C        4.9960     6.3720    -0.9680 C.2   1 <1>  -0.1500 
 19 N        5.1840     6.8520     1.1320 N.pl3 1 <1>   0.3140 
 20 C        5.3300     7.3570    -0.1120 C.2   1 <1>  -0.3320 
 21 C        5.4300     7.5500     2.4000 C.3   1 <1>   0.0160 
 22 C        5.7850     8.7710    -0.4320 C.3   1 <1>  -0.0600 
 23 H        1.9660    -0.7310    -0.2080 H     1 <1>   0.0800 
 24 H        1.4810     0.4140    -1.4150 H     1 <1>   0.0800 
 25 H       -0.6820    -3.3640    -1.2580 H     1 <1>   0.0800 
 26 H       -1.0080    -2.8460     0.3860 H     1 <1>   0.0800 
 27 H        0.6040    -2.6990    -0.2800 H     1 <1>   0.0800 
 28 H       -2.4550    -1.9980    -2.0270 H     1 <1>   0.0800 
 29 H       -2.4080    -0.2670    -1.8210 H     1 <1>   0.0800 
 30 H       -2.7950    -1.2920    -0.4550 H     1 <1>   0.0800 
 31 H        1.5000     2.2030     0.3870 H     1 <1>   0.0800 
 32 H        3.5630     1.4530    -1.2180 H     1 <1>   0.0800 
 33 H        1.7360     0.2630     2.2990 H     1 <1>   0.0800 
 34 H        2.6150     1.7730     2.4650 H     1 <1>   0.0800 
 35 H        4.0130     3.2220     1.1750 H     1 <1>   0.3700 
 36 H        5.3330     1.0310     0.8890 H     1 <1>   0.0800 
 37 H        4.5440    -0.2810     0.0210 H     1 <1>   0.0800 
 38 H        4.9840     6.3820    -2.0440 H     1 <1>   0.1500 
 39 H        4.7850     8.4050     2.4630 H     1 <1>   0.0800 
 40 H        6.4570     7.8600     2.4370 H     1 <1>   0.0800 
 41 H        5.2250     6.8830     3.2160 H     1 <1>   0.0800 
 42 H        5.8160     8.9160    -1.4980 H     1 <1>   0.0800 
 43 H        6.7690     8.9450    -0.0350 H     1 <1>   0.0800 
 44 H        5.1030     9.4880    -0.0100 H     1 <1>   0.0800 
@<TRIPOS>BOND
  1   1   2  2   
  2   1   3  2   
  3   1   4  am  
  4   1   5  1   
  5   4   6  1   
  6   4   7  1   
  7   5   8  1   
  8   5  23  1   
  9   5  24  1   
 10   6  25  1   
 11   6  26  1   
 12   6  27  1   
 13   7  28  1   
 14   7  29  1   
 15   7  30  1   
 16   8   9  1   
 17   8  10  1   
 18   8  31  1   
 19   9  11  1   
 20   9  12  1   
 21   9  32  1   
 22  10  13  1   
 23  10  33  1   
 24  10  34  1   
 25  11  14  am  
 26  11  35  1   
 27  12  13  1   
 28  12  36  1   
 29  12  37  1   
 30  14  15  2   
 31  14  16  1   
 32  16  17  2   
 33  16  18  1   
 34  17  19  1   
 35  18  20  2   
 36  18  38  1   
 37  19  20  1   
 38  19  21  1   
 39  20  22  1   
 40  21  39  1   
 41  21  40  1   
 42  21  41  1   
 43  22  42  1   
 44  22  43  1   
 45  22  44  1   
@<TRIPOS>SUBSTRUCTURE
  1 ****  11 GROUP 4 **** **** 0

# MOE 2024.06 (io_trps.svl 2023.06)
