@<TRIPOS>MOLECULE
NONAME
47 50 1 0 0 
SMALL
USER_CHARGES


@<TRIPOS>ATOM
  1 F       -2.3780    -0.4290     1.7410 F     1 <1>  -0.1900 
  2 C       -1.7850    -1.1880     0.8530 C.ar  1 <1>   0.1900 
  3 C       -1.1290    -0.5960    -0.2150 C.ar  1 <1>   0.1900 
  4 C       -1.8320    -2.5700     0.9870 C.ar  1 <1>  -0.1440 
  5 F       -1.1080     0.7060    -0.3370 F     1 <1>  -0.1900 
  6 C       -0.4960    -1.3620    -1.1750 C.ar  1 <1>  -0.1500 
  7 C       -1.1910    -3.3360     0.0200 C.ar  1 <1>  -0.1500 
  8 C       -2.5540    -3.2600     2.1460 C.3   1 <1>   0.0450 
  9 C       -0.5310    -2.7420    -1.0480 C.ar  1 <1>  -0.1500 
 10 C       -3.5620    -4.2980     1.6710 C.2   1 <1>   0.5690 
 11 O       -3.2210    -5.4570     1.7350 O.2   1 <1>  -0.5700 
 12 N       -4.8050    -3.9480     1.2020 N.am  1 <1>  -0.6600 
 13 C       -5.3130    -2.5450     1.0460 C.3   1 <1>   0.1400 
 14 C       -5.7870    -5.0250     0.8660 C.3   1 <1>   0.1400 
 15 C       -5.8420    -2.2730    -0.3830 C.3   1 <1>   0.1430 
 16 C       -7.0070    -4.4960     0.0960 C.3   1 <1>  -0.1600 
 17 C       -6.7370    -1.0470    -0.3010 C.ar  1 <1>   0.1670 
 18 C       -6.5730    -3.5000    -0.9870 C.3   1 <1>  -0.1600 
 19 C       -4.7150    -1.7800    -1.3290 C.3   1 <1>  -0.1600 
 20 N       -7.9550    -1.0210     0.1960 N.ar  1 <1>  -0.6200 
 21 C       -6.1190     0.0630    -0.7950 C.ar  1 <1>  -0.1430 
 22 C       -4.7260    -0.2420    -1.2820 C.3   1 <1>  -0.0160 
 23 C       -8.5350     0.1700     0.1650 C.ar  1 <1>   0.4770 
 24 C       -6.8120     1.2470    -0.7750 C.ar  1 <1>   0.1600 
 25 N       -8.0370     1.3110    -0.2930 N.ar  1 <1>  -0.6200 
 26 C       -9.9390     0.2400     0.7160 C.3   1 <1>  -0.0970 
 27 H        0.0100    -0.8900    -1.9980 H     1 <1>   0.1500 
 28 H       -1.2030    -4.4130     0.0960 H     1 <1>   0.1500 
 29 H       -3.0530    -2.5580     2.7850 H     1 <1>   0.0800 
 30 H       -1.8190    -3.7590     2.7510 H     1 <1>   0.0800 
 31 H       -0.0430    -3.3610    -1.7830 H     1 <1>   0.1500 
 32 H       -4.5610    -1.8210     1.2920 H     1 <1>   0.0800 
 33 H       -6.1210    -2.4110     1.7460 H     1 <1>   0.0800 
 34 H       -6.1090    -5.5080     1.7740 H     1 <1>   0.0800 
 35 H       -5.2870    -5.7640     0.2620 H     1 <1>   0.0800 
 36 H       -7.6900    -4.0190     0.7790 H     1 <1>   0.0800 
 37 H       -7.5270    -5.3230    -0.3530 H     1 <1>   0.0800 
 38 H       -5.9130    -4.0220    -1.6580 H     1 <1>   0.0800 
 39 H       -7.4280    -3.1770    -1.5570 H     1 <1>   0.0800 
 40 H       -4.9440    -2.0710    -2.3390 H     1 <1>   0.0800 
 41 H       -3.7570    -2.1930    -1.0730 H     1 <1>   0.0800 
 42 H       -4.5370     0.1870    -2.2510 H     1 <1>   0.0800 
 43 H       -4.0090     0.1300    -0.5720 H     1 <1>   0.0800 
 44 H       -6.3650     2.1500    -1.1550 H     1 <1>   0.1500 
 45 H      -10.1190    -0.5810     1.3840 H     1 <1>   0.0800 
 46 H      -10.6390     0.1960    -0.0970 H     1 <1>   0.0800 
 47 H      -10.0760     1.1610     1.2500 H     1 <1>   0.0800 
@<TRIPOS>BOND
  1   1   2  1   
  2   2   3  ar  
  3   2   4  ar  
  4   3   5  1   
  5   3   6  ar  
  6   4   7  ar  
  7   4   8  1   
  8   6   9  ar  
  9   6  27  1   
 10   7   9  ar  
 11   7  28  1   
 12   8  10  1   
 13   8  29  1   
 14   8  30  1   
 15   9  31  1   
 16  10  11  2   
 17  10  12  am  
 18  12  13  1   
 19  12  14  1   
 20  13  15  1   
 21  13  32  1   
 22  13  33  1   
 23  14  16  1   
 24  14  34  1   
 25  14  35  1   
 26  15  17  1   
 27  15  18  1   
 28  15  19  1   
 29  16  18  1   
 30  16  36  1   
 31  16  37  1   
 32  17  20  ar  
 33  17  21  ar  
 34  18  38  1   
 35  18  39  1   
 36  19  22  1   
 37  19  40  1   
 38  19  41  1   
 39  20  23  ar  
 40  21  22  1   
 41  21  24  ar  
 42  22  42  1   
 43  22  43  1   
 44  23  25  ar  
 45  23  26  1   
 46  24  25  ar  
 47  24  44  1   
 48  26  45  1   
 49  26  46  1   
 50  26  47  1   
@<TRIPOS>SUBSTRUCTURE
  1 ****  13 GROUP 4 **** **** 0

# MOE 2024.06 (io_trps.svl 2023.06)
