@<TRIPOS>MOLECULE
NONAME
62 64 1 0 0 
SMALL
USER_CHARGES


@<TRIPOS>ATOM
  1 O       -1.4440     0.8100     2.1510 O.2   1 <1>  -0.5700 
  2 C       -1.9390     1.1210     1.0940 C.2   1 <1>   0.5690 
  3 N       -2.5590     0.2090     0.2850 N.am  1 <1>  -0.6600 
  4 C       -1.7520     2.5690     0.6630 C.3   1 <1>  -0.0990 
  5 C       -2.2780    -1.2480     0.5240 C.3   1 <1>   0.3640 
  6 C       -3.5770     0.5770    -0.7490 C.3   1 <1>   0.1400 
  7 C       -0.2500     2.9070     0.5390 C.3   1 <1>  -0.0800 
  8 C       -0.9210    -1.5690    -0.1130 C.ar  1 <1>  -0.1440 
  9 C       -3.3820    -2.2360     0.0430 C.3   1 <1>   0.2000 
 10 C       -4.3310    -0.6190    -1.3520 C.3   1 <1>   0.1200 
 11 C       -0.0280     4.3720     0.1430 C.3   1 <1>  -0.1600 
 12 C        0.4520     2.0120    -0.4980 C.3   1 <1>  -0.1600 
 13 C       -0.7190    -1.5000    -1.4860 C.ar  1 <1>  -0.1500 
 14 C        0.1430    -1.9260     0.7020 C.ar  1 <1>  -0.1500 
 15 O       -4.5520    -1.5900    -0.3840 O.3   1 <1>  -0.5600 
 16 C       -3.7910    -3.2240     1.1450 C.3   1 <1>   0.1200 
 17 C        1.4600     4.7440     0.0130 C.3   1 <1>   0.5030 
 18 C        1.9510     2.3100    -0.6470 C.3   1 <1>   0.5030 
 19 C        0.5190    -1.7930    -2.0320 C.ar  1 <1>  -0.1500 
 20 C        1.3820    -2.2180     0.1590 C.ar  1 <1>  -0.1500 
 21 O       -2.6960    -3.9710     1.5700 O.3   1 <1>  -0.6800 
 22 N        2.1970     3.7550    -0.7920 N.4   1 <1>  -0.9060 
 23 C        1.5890     6.0640    -0.7460 C.3   1 <1>  -0.2400 
 24 C        2.1330     4.9150     1.3770 C.3   1 <1>  -0.2400 
 25 C        2.4690     1.6760    -1.9370 C.3   1 <1>  -0.2400 
 26 C        2.7660     1.7450     0.5190 C.3   1 <1>  -0.2400 
 27 C        1.5710    -2.1540    -1.2090 C.ar  1 <1>  -0.1500 
 28 H       -2.2480     2.7700    -0.2660 H     1 <1>   0.0800 
 29 H       -2.2000     3.1910     1.4160 H     1 <1>   0.0800 
 30 H       -2.1800    -1.3920     1.5870 H     1 <1>   0.0800 
 31 H       -4.3000     1.2320    -0.2940 H     1 <1>   0.0800 
 32 H       -3.1010     1.1170    -1.5480 H     1 <1>   0.0800 
 33 H        0.1890     2.7350     1.5070 H     1 <1>   0.0800 
 34 H       -3.0180    -2.8060    -0.7930 H     1 <1>   0.0800 
 35 H       -3.7820    -1.0570    -2.1660 H     1 <1>   0.0800 
 36 H       -5.2880    -0.2990    -1.7240 H     1 <1>   0.0800 
 37 H       -0.4890     5.0140     0.8750 H     1 <1>   0.0800 
 38 H       -0.5270     4.5590    -0.7930 H     1 <1>   0.0800 
 39 H       -0.0380     2.1270    -1.4490 H     1 <1>   0.0800 
 40 H        0.3470     0.9780    -0.2200 H     1 <1>   0.0800 
 41 H       -1.5220    -1.2180    -2.1390 H     1 <1>   0.1500 
 42 H        0.0080    -1.9790     1.7710 H     1 <1>   0.1500 
 43 H       -4.5420    -3.9040     0.7820 H     1 <1>   0.0800 
 44 H       -4.1730    -2.6890     1.9970 H     1 <1>   0.0800 
 45 H        0.6630    -1.7480    -3.0980 H     1 <1>   0.1500 
 46 H        2.1960    -2.5010     0.8050 H     1 <1>   0.1500 
 47 H       -2.3750    -4.5660     0.8630 H     1 <1>   0.4000 
 48 H        3.1950     3.9170    -0.6550 H     1 <1>   0.4500 
 49 H        1.9950     3.9760    -1.7670 H     1 <1>   0.4500 
 50 H        1.0680     6.8430    -0.2150 H     1 <1>   0.0800 
 51 H        1.1550     5.9960    -1.7280 H     1 <1>   0.0800 
 52 H        2.6180     6.3630    -0.8350 H     1 <1>   0.0800 
 53 H        1.7130     5.7670     1.8830 H     1 <1>   0.0800 
 54 H        3.1900     5.0870     1.2730 H     1 <1>   0.0800 
 55 H        1.9740     4.0740     2.0210 H     1 <1>   0.0800 
 56 H        2.3160     0.6120    -1.9040 H     1 <1>   0.0800 
 57 H        3.5230     1.8500    -2.0610 H     1 <1>   0.0800 
 58 H        1.9440     2.0510    -2.7980 H     1 <1>   0.0800 
 59 H        2.7250     0.6700     0.4940 H     1 <1>   0.0800 
 60 H        2.3720     2.0360     1.4720 H     1 <1>   0.0800 
 61 H        3.7990     2.0350     0.4540 H     1 <1>   0.0800 
 62 H        2.5320    -2.3920    -1.6320 H     1 <1>   0.1500 
@<TRIPOS>BOND
  1   1   2  2   
  2   2   3  am  
  3   2   4  1   
  4   3   5  1   
  5   3   6  1   
  6   4   7  1   
  7   4  28  1   
  8   4  29  1   
  9   5   8  1   
 10   5   9  1   
 11   5  30  1   
 12   6  10  1   
 13   6  31  1   
 14   6  32  1   
 15   7  11  1   
 16   7  12  1   
 17   7  33  1   
 18   8  13  ar  
 19   8  14  ar  
 20   9  15  1   
 21   9  16  1   
 22   9  34  1   
 23  10  15  1   
 24  10  35  1   
 25  10  36  1   
 26  11  17  1   
 27  11  37  1   
 28  11  38  1   
 29  12  18  1   
 30  12  39  1   
 31  12  40  1   
 32  13  19  ar  
 33  13  41  1   
 34  14  20  ar  
 35  14  42  1   
 36  16  21  1   
 37  16  43  1   
 38  16  44  1   
 39  17  22  1   
 40  17  23  1   
 41  17  24  1   
 42  18  22  1   
 43  18  25  1   
 44  18  26  1   
 45  19  27  ar  
 46  19  45  1   
 47  20  27  ar  
 48  20  46  1   
 49  21  47  1   
 50  22  48  1   
 51  22  49  1   
 52  23  50  1   
 53  23  51  1   
 54  23  52  1   
 55  24  53  1   
 56  24  54  1   
 57  24  55  1   
 58  25  56  1   
 59  25  57  1   
 60  25  58  1   
 61  26  59  1   
 62  26  60  1   
 63  26  61  1   
 64  27  62  1   
@<TRIPOS>SUBSTRUCTURE
  1 ****  12 GROUP 4 **** **** 0

# MOE 2024.06 (io_trps.svl 2023.06)
