@<TRIPOS>MOLECULE
NONAME
60 63 1 0 0 
SMALL
USER_CHARGES


@<TRIPOS>ATOM
  1 O       -1.2280    -0.3340     0.0260 O.2   1 <1>  -0.5700 
  2 C       -2.0650     0.5510     0.0140 C.2   1 <1>   0.7160 
  3 N       -3.3650     0.1650    -0.1200 N.am  1 <1>  -0.7300 
  4 C       -1.7240     1.9340     0.1540 C.2   1 <1>  -0.0860 
  5 C       -3.8570    -1.2180    -0.3460 C.3   1 <1>   0.1400 
  6 C       -2.6160     3.0140     0.1020 C.2   1 <1>   0.3720 
  7 C       -0.5270     2.5360     0.3990 C.2   1 <1>   0.0870 
  8 C       -3.4920    -2.1380     0.8490 C.3   1 <1>   0.4230 
  9 N       -2.0110     4.1300     0.3100 N.2   1 <1>  -0.4100 
 10 N       -3.9950     2.9240    -0.1490 N.pl3 1 <1>  -0.8210 
 11 O       -0.7560     3.8210     0.4890 O.3   1 <1>  -0.0190 
 12 C        0.8150     2.0460     0.5670 C.ar  1 <1>   0.0530 
 13 N       -2.8690    -3.4370     0.4550 N.4   1 <1>  -0.9590 
 14 C       -4.7030    -2.4250     1.7330 C.3   1 <1>  -0.2400 
 15 C       -4.3830     3.5010    -1.4700 C.3   1 <1>   0.2090 
 16 C       -4.8380     3.5710     0.9020 C.3   1 <1>   0.2090 
 17 C        1.5960     2.4740     1.6400 C.ar  1 <1>  -0.1500 
 18 C        1.3930     1.1470    -0.3300 C.ar  1 <1>  -0.1500 
 19 C       -1.5180    -3.2630    -0.1390 C.3   1 <1>   0.3430 
 20 C       -3.6320    -4.2910    -0.4900 C.3   1 <1>   0.3430 
 21 C       -5.6880     4.2480    -1.2360 C.3   1 <1>  -0.1600 
 22 C       -5.5950     4.6960     0.2120 C.3   1 <1>  -0.1600 
 23 C        2.8900     2.0200     1.8140 C.ar  1 <1>  -0.1500 
 24 C        2.6860     0.6880    -0.1640 C.ar  1 <1>  -0.1500 
 25 C       -1.2290    -4.6000    -0.8070 C.3   1 <1>  -0.1600 
 26 C       -2.5930    -5.2560    -1.0470 C.3   1 <1>  -0.1600 
 27 C        3.4470     1.1240     0.9170 C.ar  1 <1>   0.0830 
 28 O        4.7200     0.7280     1.1550 O.3   1 <1>  -0.3630 
 29 C        5.3990    -0.1450     0.2800 C.3   1 <1>   0.0400 
 30 H       -4.0360     0.9520    -0.1870 H     1 <1>   0.3700 
 31 H       -3.4120    -1.5820    -1.2550 H     1 <1>   0.0800 
 32 H       -4.9240    -1.1880    -0.4840 H     1 <1>   0.0800 
 33 H       -2.7710    -1.6040     1.4480 H     1 <1>   0.0800 
 34 H       -2.7310    -3.9820     1.3140 H     1 <1>   0.4500 
 35 H       -5.4790    -2.9320     1.1880 H     1 <1>   0.0800 
 36 H       -5.1050    -1.4950     2.0960 H     1 <1>   0.0800 
 37 H       -4.4180    -3.0130     2.5870 H     1 <1>   0.0800 
 38 H       -4.5070     2.7240    -2.2040 H     1 <1>   0.0800 
 39 H       -3.6280     4.1910    -1.8130 H     1 <1>   0.0800 
 40 H       -4.2450     3.9500     1.7190 H     1 <1>   0.0800 
 41 H       -5.5320     2.8430     1.2850 H     1 <1>   0.0800 
 42 H        1.1810     3.1740     2.3450 H     1 <1>   0.1500 
 43 H        0.8170     0.8080    -1.1720 H     1 <1>   0.1500 
 44 H       -0.7800    -3.0110     0.6060 H     1 <1>   0.0800 
 45 H       -1.5390    -2.4860    -0.8860 H     1 <1>   0.0800 
 46 H       -4.0290    -3.6910    -1.2920 H     1 <1>   0.0800 
 47 H       -4.4370    -4.8120     0.0030 H     1 <1>   0.0800 
 48 H       -6.5130     3.5690    -1.3630 H     1 <1>   0.0800 
 49 H       -5.8020     5.0740    -1.9150 H     1 <1>   0.0800 
 50 H       -5.0120     5.5980     0.2810 H     1 <1>   0.0800 
 51 H       -6.5590     4.8650     0.6570 H     1 <1>   0.0800 
 52 H        3.4800     2.3580     2.6470 H     1 <1>   0.1500 
 53 H        3.0870    -0.0030    -0.8810 H     1 <1>   0.1500 
 54 H       -0.6270    -5.2080    -0.1550 H     1 <1>   0.0800 
 55 H       -0.6890    -4.4480    -1.7260 H     1 <1>   0.0800 
 56 H       -2.7710    -5.4330    -2.0940 H     1 <1>   0.0800 
 57 H       -2.6530    -6.1970    -0.5280 H     1 <1>   0.0800 
 58 H        6.3920    -0.2950     0.6630 H     1 <1>   0.0800 
 59 H        5.4470     0.3070    -0.6950 H     1 <1>   0.0800 
 60 H        4.8740    -1.0830     0.2460 H     1 <1>   0.0800 
@<TRIPOS>BOND
  1   1   2  2   
  2   2   3  am  
  3   2   4  1   
  4   3   5  1   
  5   3  30  1   
  6   4   6  1   
  7   4   7  2   
  8   5   8  1   
  9   5  31  1   
 10   5  32  1   
 11   6   9  2   
 12   6  10  1   
 13   7  11  1   
 14   7  12  1   
 15   8  13  1   
 16   8  14  1   
 17   8  33  1   
 18   9  11  1   
 19  10  15  1   
 20  10  16  1   
 21  12  17  ar  
 22  12  18  ar  
 23  13  19  1   
 24  13  20  1   
 25  13  34  1   
 26  14  35  1   
 27  14  36  1   
 28  14  37  1   
 29  15  21  1   
 30  15  38  1   
 31  15  39  1   
 32  16  22  1   
 33  16  40  1   
 34  16  41  1   
 35  17  23  ar  
 36  17  42  1   
 37  18  24  ar  
 38  18  43  1   
 39  19  25  1   
 40  19  44  1   
 41  19  45  1   
 42  20  26  1   
 43  20  46  1   
 44  20  47  1   
 45  21  22  1   
 46  21  48  1   
 47  21  49  1   
 48  22  50  1   
 49  22  51  1   
 50  23  27  ar  
 51  23  52  1   
 52  24  27  ar  
 53  24  53  1   
 54  25  26  1   
 55  25  54  1   
 56  25  55  1   
 57  26  56  1   
 58  26  57  1   
 59  27  28  1   
 60  28  29  1   
 61  29  58  1   
 62  29  59  1   
 63  29  60  1   
@<TRIPOS>SUBSTRUCTURE
  1 ****   2 GROUP 4 **** **** 0

# MOE 2024.06 (io_trps.svl 2023.06)
