@<TRIPOS>MOLECULE
NONAME
47 48 1 0 0 
SMALL
USER_CHARGES


@<TRIPOS>ATOM
  1 S        0.5330     0.7520    -1.4410 S.o2  1 <1>   1.3330 
  2 O        0.6530    -0.5800    -1.9900 O.2   1 <1>  -0.6500 
  3 O       -0.2230     1.7540    -2.1570 O.2   1 <1>  -0.6500 
  4 N       -0.1590     0.6150     0.1050 N.am  1 <1>  -0.8490 
  5 C        2.1860     1.3720    -1.1210 C.3   1 <1>  -0.0550 
  6 C       -0.6370     1.8940     0.6430 C.3   1 <1>   0.1160 
  7 C       -1.2440    -0.3700     0.1360 C.3   1 <1>   0.1160 
  8 C        3.1200     0.3600    -0.4220 C.3   1 <1>  -0.0800 
  9 C        4.5630     0.8160    -0.2790 C.3   1 <1>   0.2200 
 10 C        2.7360     0.0060     1.0200 C.3   1 <1>   0.1200 
 11 N        4.6270     2.2340     0.1400 N.am  1 <1>  -0.7300 
 12 C        5.0270    -0.0660     0.8720 C.3   1 <1>   0.1200 
 13 O        3.9300    -0.1670     1.7280 O.3   1 <1>  -0.5600 
 14 C        4.9340     3.3080    -0.6440 C.2   1 <1>   0.7160 
 15 O        5.1570     3.1120    -1.8270 O.2   1 <1>  -0.5700 
 16 C        4.9590     4.6370    -0.0560 C.2   1 <1>   0.2030 
 17 N        4.6450     4.9270     1.1970 N.2   1 <1>  -0.7070 
 18 C        5.3200     5.8030    -0.7430 C.2   1 <1>  -0.1500 
 19 N        4.8100     6.2540     1.3040 N.pl3 1 <1>   0.3000 
 20 C        5.2160     6.8100     0.1450 C.2   1 <1>  -0.3320 
 21 C        5.4880     8.2910    -0.0420 C.3   1 <1>   0.0200 
 22 C        4.1940     9.1030     0.0810 C.3   1 <1>  -0.1600 
 23 C        4.4460    10.5990    -0.1320 C.3   1 <1>  -0.2400 
 24 H        2.6320     1.6370    -2.0600 H     1 <1>   0.0800 
 25 H        2.1180     2.2690    -0.5380 H     1 <1>   0.0800 
 26 H       -0.9870     1.7630     1.6520 H     1 <1>   0.0800 
 27 H       -1.4430     2.2800     0.0400 H     1 <1>   0.0800 
 28 H        0.1620     2.6160     0.6540 H     1 <1>   0.0800 
 29 H       -1.6520    -0.4450     1.1290 H     1 <1>   0.0800 
 30 H       -0.8700    -1.3400    -0.1470 H     1 <1>   0.0800 
 31 H       -2.0260    -0.0870    -0.5500 H     1 <1>   0.0800 
 32 H        3.1180    -0.5540    -0.9910 H     1 <1>   0.0800 
 33 H        5.1420     0.6570    -1.1740 H     1 <1>   0.0800 
 34 H        2.1600    -0.9020     1.0710 H     1 <1>   0.0800 
 35 H        2.1950     0.8060     1.4950 H     1 <1>   0.0800 
 36 H        4.4380     2.4260     1.1290 H     1 <1>   0.3700 
 37 H        5.8670     0.3460     1.4030 H     1 <1>   0.0800 
 38 H        5.2620    -1.0560     0.5220 H     1 <1>   0.0800 
 39 H        5.6160     5.8360    -1.7780 H     1 <1>   0.1500 
 40 H        4.6390     6.7630     2.1800 H     1 <1>   0.2700 
 41 H        6.2050     8.6220     0.6900 H     1 <1>   0.0800 
 42 H        5.9160     8.4490    -1.0180 H     1 <1>   0.0800 
 43 H        3.4880     8.7540    -0.6530 H     1 <1>   0.0800 
 44 H        3.7610     8.9540     1.0540 H     1 <1>   0.0800 
 45 H        4.8530    10.7770    -1.1130 H     1 <1>   0.0800 
 46 H        5.1350    10.9760     0.6030 H     1 <1>   0.0800 
 47 H        3.5220    11.1440    -0.0440 H     1 <1>   0.0800 
@<TRIPOS>BOND
  1   1   2  2   
  2   1   3  2   
  3   1   4  am  
  4   1   5  1   
  5   4   6  1   
  6   4   7  1   
  7   5   8  1   
  8   5  24  1   
  9   5  25  1   
 10   6  26  1   
 11   6  27  1   
 12   6  28  1   
 13   7  29  1   
 14   7  30  1   
 15   7  31  1   
 16   8   9  1   
 17   8  10  1   
 18   8  32  1   
 19   9  11  1   
 20   9  12  1   
 21   9  33  1   
 22  10  13  1   
 23  10  34  1   
 24  10  35  1   
 25  11  14  am  
 26  11  36  1   
 27  12  13  1   
 28  12  37  1   
 29  12  38  1   
 30  14  15  2   
 31  14  16  1   
 32  16  17  2   
 33  16  18  1   
 34  17  19  1   
 35  18  20  2   
 36  18  39  1   
 37  19  20  1   
 38  19  40  1   
 39  20  21  1   
 40  21  22  1   
 41  21  41  1   
 42  21  42  1   
 43  22  23  1   
 44  22  43  1   
 45  22  44  1   
 46  23  45  1   
 47  23  46  1   
 48  23  47  1   
@<TRIPOS>SUBSTRUCTURE
  1 ****  11 GROUP 4 **** **** 0

# MOE 2024.06 (io_trps.svl 2023.06)
