@<TRIPOS>MOLECULE
NONAME
54 58 1 0 0 
SMALL
USER_CHARGES


@<TRIPOS>ATOM
  1 O       -0.5970     0.2740     0.7090 O.2   1 <1>  -0.5700 
  2 C       -1.5460     0.9430     0.3310 C.2   1 <1>   0.7150 
  3 N       -2.7220     0.2570     0.0820 N.am  1 <1>  -0.6600 
  4 C       -1.3990     2.3780     0.1530 C.2   1 <1>   0.1020 
  5 C       -3.9940     0.8360    -0.4310 C.3   1 <1>   0.1400 
  6 C       -2.8190    -1.2240     0.1370 C.3   1 <1>   0.1400 
  7 N       -2.3670     3.2580     0.2080 N.2   1 <1>  -0.3380 
  8 N       -0.2300     3.0200    -0.0800 N.pl3 1 <1>   0.0480 
  9 C       -4.9970    -0.3160    -0.3670 C.3   1 <1>   0.2000 
 10 C       -4.1340    -1.5670    -0.5750 C.3   1 <1>  -0.0800 
 11 N       -1.8480     4.4610     0.0300 N.2   1 <1>  -0.3380 
 12 C       -0.5810     4.3020    -0.1310 C.2   1 <1>   0.0070 
 13 C        1.1470     2.5040    -0.2870 C.3   1 <1>   0.0960 
 14 O       -5.5480    -0.3370     0.9060 O.3   1 <1>  -0.6800 
 15 C       -4.7850    -2.8820    -0.0960 C.3   1 <1>  -0.0170 
 16 C        0.3890     5.4510    -0.3400 C.3   1 <1>   0.0200 
 17 C        2.0990     2.9940     0.8120 C.3   1 <1>  -0.1600 
 18 C       -4.0290    -4.1800    -0.4070 C.ar  1 <1>  -0.1440 
 19 C        1.4520     5.5070     0.7670 C.3   1 <1>  -0.1600 
 20 C        2.5610     4.4500     0.6300 C.3   1 <1>  -0.1600 
 21 C       -4.4520    -5.3960     0.1860 C.ar  1 <1>   0.0000 
 22 C       -2.9530    -4.2450    -1.2490 C.ar  1 <1>  -0.1500 
 23 C       -3.7200    -6.5730    -0.1120 C.ar  1 <1>   0.3100 
 24 C       -5.5650    -5.5180     1.0520 C.ar  1 <1>  -0.1500 
 25 C       -2.3030    -5.4640    -1.4800 C.ar  1 <1>   0.1600 
 26 N       -2.6500    -6.5890    -0.9430 N.ar  1 <1>  -0.6200 
 27 C       -4.1130    -7.7880     0.4720 C.ar  1 <1>  -0.1500 
 28 C       -5.9230    -6.7190     1.6020 C.ar  1 <1>  -0.1500 
 29 C       -5.1890    -7.8700     1.3120 C.ar  1 <1>  -0.1500 
 30 H       -4.3300     1.6690     0.1610 H     1 <1>   0.0800 
 31 H       -3.8520     1.1510    -1.4500 H     1 <1>   0.0800 
 32 H       -1.9710    -1.6810    -0.3430 H     1 <1>   0.0800 
 33 H       -2.8480    -1.5340     1.1680 H     1 <1>   0.0800 
 34 H       -5.7950    -0.2220    -1.0830 H     1 <1>   0.0800 
 35 H       -3.9400    -1.6370    -1.6300 H     1 <1>   0.0800 
 36 H        1.1420     1.4320    -0.3020 H     1 <1>   0.0800 
 37 H        1.4960     2.8340    -1.2490 H     1 <1>   0.0800 
 38 H       -4.8400    -0.1650     1.5590 H     1 <1>   0.4000 
 39 H       -5.7660    -2.9540    -0.5330 H     1 <1>   0.0800 
 40 H       -4.9120    -2.8180     0.9710 H     1 <1>   0.0800 
 41 H        0.8510     5.3710    -1.3070 H     1 <1>   0.0800 
 42 H       -0.1730     6.3680    -0.3240 H     1 <1>   0.0800 
 43 H        1.6410     2.8600     1.7780 H     1 <1>   0.0800 
 44 H        2.9740     2.3690     0.7890 H     1 <1>   0.0800 
 45 H        1.9130     6.4790     0.7360 H     1 <1>   0.0800 
 46 H        0.9720     5.4130     1.7270 H     1 <1>   0.0800 
 47 H        3.3070     4.6560     1.3800 H     1 <1>   0.0800 
 48 H        3.0430     4.5580    -0.3270 H     1 <1>   0.0800 
 49 H       -2.5630    -3.3910    -1.7650 H     1 <1>   0.1500 
 50 H       -6.1530    -4.6510     1.2880 H     1 <1>   0.1500 
 51 H       -1.4590    -5.4640    -2.1480 H     1 <1>   0.1500 
 52 H       -3.5330    -8.6600     0.2310 H     1 <1>   0.1500 
 53 H       -6.7720    -6.7930     2.2610 H     1 <1>   0.1500 
 54 H       -5.4790    -8.8090     1.7520 H     1 <1>   0.1500 
@<TRIPOS>BOND
  1   1   2  2   
  2   2   3  am  
  3   2   4  1   
  4   3   5  1   
  5   3   6  1   
  6   4   7  2   
  7   4   8  1   
  8   5   9  1   
  9   5  30  1   
 10   5  31  1   
 11   6  10  1   
 12   6  32  1   
 13   6  33  1   
 14   7  11  1   
 15   8  12  1   
 16   8  13  1   
 17   9  10  1   
 18   9  14  1   
 19   9  34  1   
 20  10  15  1   
 21  10  35  1   
 22  11  12  2   
 23  12  16  1   
 24  13  17  1   
 25  13  36  1   
 26  13  37  1   
 27  14  38  1   
 28  15  18  1   
 29  15  39  1   
 30  15  40  1   
 31  16  19  1   
 32  16  41  1   
 33  16  42  1   
 34  17  20  1   
 35  17  43  1   
 36  17  44  1   
 37  18  21  ar  
 38  18  22  ar  
 39  19  20  1   
 40  19  45  1   
 41  19  46  1   
 42  20  47  1   
 43  20  48  1   
 44  21  23  ar  
 45  21  24  ar  
 46  22  25  ar  
 47  22  49  1   
 48  23  26  ar  
 49  23  27  ar  
 50  24  28  ar  
 51  24  50  1   
 52  25  26  ar  
 53  25  51  1   
 54  27  29  ar  
 55  27  52  1   
 56  28  29  ar  
 57  28  53  1   
 58  29  54  1   
@<TRIPOS>SUBSTRUCTURE
  1 ****   6 GROUP 4 **** **** 0

# MOE 2024.06 (io_trps.svl 2023.06)
