@<TRIPOS>MOLECULE
NONAME
53 56 1 0 0 
SMALL
USER_CHARGES


@<TRIPOS>ATOM
  1 F       -0.7430    -0.7570    -2.2950 F     1 <1>  -0.1900 
  2 C       -0.6190    -1.7100    -1.4040 C.ar  1 <1>   0.1900 
  3 C        0.5790    -1.8870    -0.7320 C.ar  1 <1>   0.1900 
  4 C       -1.7010    -2.5290    -1.1500 C.ar  1 <1>  -0.1500 
  5 F        1.6030    -1.1050    -0.9790 F     1 <1>  -0.1900 
  6 C        0.7190    -2.8890     0.2100 C.ar  1 <1>  -0.1500 
  7 C       -1.5780    -3.5430    -0.2060 C.ar  1 <1>   0.1000 
  8 C       -0.3670    -3.7130     0.4670 C.ar  1 <1>  -0.1500 
  9 N       -2.6660    -4.3670     0.0520 N.pl3 1 <1>  -0.8380 
 10 C       -3.4300    -4.0720     1.2830 C.3   1 <1>   0.2090 
 11 C       -2.5020    -5.8050    -0.2560 C.3   1 <1>   0.2090 
 12 C       -4.8370    -4.6380     1.1080 C.3   1 <1>  -0.1600 
 13 C       -3.8920    -6.3990    -0.4660 C.3   1 <1>  -0.1600 
 14 C       -4.7700    -6.1300     0.7660 C.3   1 <1>   0.4230 
 15 N       -6.1520    -6.6590     0.5950 N.4   1 <1>  -0.9590 
 16 C       -6.9510    -6.1480    -0.5570 C.3   1 <1>   0.3430 
 17 C       -6.2680    -8.1480     0.5470 C.3   1 <1>   0.3430 
 18 C       -8.1280    -7.1190    -0.6270 C.3   1 <1>   0.2000 
 19 C       -7.4480    -8.4700    -0.3840 C.3   1 <1>  -0.0800 
 20 O       -8.9770    -6.8270     0.4370 O.3   1 <1>  -0.6800 
 21 C       -8.3530    -9.6000     0.1440 C.3   1 <1>   0.0200 
 22 C       -7.5760   -10.8970     0.2650 C.2   1 <1>  -0.0400 
 23 O       -6.5920   -10.9890     1.1200 O.3   1 <1>  -0.0190 
 24 C       -7.6800   -12.0750    -0.3690 C.2   1 <1>  -0.1500 
 25 N       -6.0200   -12.1540     1.0800 N.2   1 <1>  -0.4100 
 26 C       -6.6590   -12.8350     0.1970 C.2   1 <1>   0.1080 
 27 C       -6.3380   -14.2670    -0.1700 C.3   1 <1>  -0.0590 
 28 H       -2.6270    -2.3890    -1.6740 H     1 <1>   0.1500 
 29 H        1.6530    -3.0170     0.7260 H     1 <1>   0.1500 
 30 H       -0.2770    -4.4940     1.1990 H     1 <1>   0.1500 
 31 H       -2.9390    -4.5180     2.1320 H     1 <1>   0.0800 
 32 H       -3.4750    -3.0060     1.4360 H     1 <1>   0.0800 
 33 H       -1.9110    -5.9190    -1.1500 H     1 <1>   0.0800 
 34 H       -1.9930    -6.2970     0.5560 H     1 <1>   0.0800 
 35 H       -5.3160    -4.0840     0.3210 H     1 <1>   0.0800 
 36 H       -5.3830    -4.4900     2.0210 H     1 <1>   0.0800 
 37 H       -3.7850    -7.4540    -0.6360 H     1 <1>   0.0800 
 38 H       -4.3080    -5.9430    -1.3460 H     1 <1>   0.0800 
 39 H       -4.3150    -6.6310     1.6050 H     1 <1>   0.0800 
 40 H       -6.7070    -6.3770     1.4170 H     1 <1>   0.4500 
 41 H       -7.2870    -5.1350    -0.4020 H     1 <1>   0.0800 
 42 H       -6.3790    -6.2060    -1.4670 H     1 <1>   0.0800 
 43 H       -5.3690    -8.6040     0.1660 H     1 <1>   0.0800 
 44 H       -6.4540    -8.5320     1.5380 H     1 <1>   0.0800 
 45 H       -8.6750    -7.0540    -1.5530 H     1 <1>   0.0800 
 46 H       -7.0270    -8.7980    -1.3200 H     1 <1>   0.0800 
 47 H       -9.8700    -7.2100     0.3010 H     1 <1>   0.4000 
 48 H       -9.1760    -9.7510    -0.5320 H     1 <1>   0.0800 
 49 H       -8.7560    -9.3510     1.1110 H     1 <1>   0.0800 
 50 H       -8.3640   -12.3970    -1.1320 H     1 <1>   0.1500 
 51 H       -7.1880   -14.8940     0.0270 H     1 <1>   0.0800 
 52 H       -5.5050   -14.6190     0.4130 H     1 <1>   0.0800 
 53 H       -6.0840   -14.3310    -1.2120 H     1 <1>   0.0800 
@<TRIPOS>BOND
  1   1   2  1   
  2   2   3  ar  
  3   2   4  ar  
  4   3   5  1   
  5   3   6  ar  
  6   4   7  ar  
  7   4  28  1   
  8   6   8  ar  
  9   6  29  1   
 10   7   8  ar  
 11   7   9  1   
 12   8  30  1   
 13   9  10  1   
 14   9  11  1   
 15  10  12  1   
 16  10  31  1   
 17  10  32  1   
 18  11  13  1   
 19  11  33  1   
 20  11  34  1   
 21  12  14  1   
 22  12  35  1   
 23  12  36  1   
 24  13  14  1   
 25  13  37  1   
 26  13  38  1   
 27  14  15  1   
 28  14  39  1   
 29  15  16  1   
 30  15  17  1   
 31  15  40  1   
 32  16  18  1   
 33  16  41  1   
 34  16  42  1   
 35  17  19  1   
 36  17  43  1   
 37  17  44  1   
 38  18  19  1   
 39  18  20  1   
 40  18  45  1   
 41  19  21  1   
 42  19  46  1   
 43  20  47  1   
 44  21  22  1   
 45  21  48  1   
 46  21  49  1   
 47  22  23  1   
 48  22  24  2   
 49  23  25  1   
 50  24  26  1   
 51  24  50  1   
 52  25  26  2   
 53  26  27  1   
 54  27  51  1   
 55  27  52  1   
 56  27  53  1   
@<TRIPOS>SUBSTRUCTURE
  1 ****  13 GROUP 4 **** **** 0

# MOE 2024.06 (io_trps.svl 2023.06)
