@<TRIPOS>MOLECULE
NONAME
55 59 1 0 0 
SMALL
USER_CHARGES


@<TRIPOS>ATOM
  1 O       -1.4540     0.2780     1.1910 O.2   1 <1>  -0.5700 
  2 C       -2.1790    -0.0200     0.2540 C.2   1 <1>   0.7160 
  3 N       -2.7820    -1.2560     0.2950 N.am  1 <1>  -0.6600 
  4 C       -2.3710     0.9350    -0.8280 C.2   1 <1>   0.1410 
  5 C       -2.4350    -2.3890     1.1420 C.3   1 <1>   0.2200 
  6 C       -4.0090    -1.7550    -0.2930 C.3   1 <1>   0.2200 
  7 N       -3.0830     0.7100    -1.9610 N.2   1 <1>  -0.2270 
  8 C       -1.8770     2.1930    -0.9160 C.2   1 <1>  -0.3020 
  9 C       -2.3930    -3.5400     0.0970 C.3   1 <1>   0.0610 
 10 C       -3.7190    -2.4290     1.9940 C.3   1 <1>  -0.1600 
 11 C       -3.5150    -3.0770    -0.8910 C.3   1 <1>  -0.1600 
 12 C       -4.8140    -2.0500     0.9790 C.3   1 <1>  -0.1600 
 13 N       -3.0390     1.7580    -2.7030 N.2   1 <1>  -0.4180 
 14 N       -2.3000     2.6730    -2.0770 N.pl3 1 <1>   0.3000 
 15 C       -2.6540    -4.9020     0.7590 C.2   1 <1>   0.5690 
 16 C       -1.0080    -3.6810    -0.6010 C.3   1 <1>  -0.0160 
 17 O       -2.1460    -5.1460     1.8280 O.2   1 <1>  -0.5700 
 18 N       -3.4010    -5.8440     0.1270 N.am  1 <1>  -0.7300 
 19 C       -0.3850    -2.4340    -1.2270 C.ar  1 <1>  -0.1440 
 20 C       -3.7590    -7.1520     0.7020 C.3   1 <1>   0.2840 
 21 C        0.4660    -1.6380    -0.4760 C.ar  1 <1>  -0.1500 
 22 C       -0.6390    -2.0880    -2.5460 C.ar  1 <1>  -0.1500 
 23 C       -5.1540    -7.5060     0.2280 C.ar  1 <1>  -0.1440 
 24 C        1.0390    -0.5040    -1.0260 C.ar  1 <1>  -0.1500 
 25 C       -0.0710    -0.9530    -3.0970 C.ar  1 <1>  -0.1500 
 26 C       -5.3430    -8.4400    -0.7800 C.ar  1 <1>   0.1600 
 27 C       -6.2600    -6.8980     0.7880 C.ar  1 <1>  -0.1500 
 28 C        0.7690    -0.1590    -2.3370 C.ar  1 <1>  -0.1500 
 29 N       -6.5190    -8.8040    -1.2640 N.ar  1 <1>  -0.6200 
 30 C       -7.4940    -7.2690     0.2990 C.ar  1 <1>  -0.1500 
 31 C       -7.5660    -8.2120    -0.7120 C.ar  1 <1>   0.1600 
 32 H       -1.5290    -2.2580     1.7100 H     1 <1>   0.0800 
 33 H       -4.5010    -1.0940    -0.9850 H     1 <1>   0.0800 
 34 H       -1.2610     2.7280    -0.2170 H     1 <1>   0.1500 
 35 H       -3.8990    -3.3760     2.4680 H     1 <1>   0.0800 
 36 H       -3.6480    -1.6780     2.7620 H     1 <1>   0.0800 
 37 H       -4.3380    -3.7600    -0.9840 H     1 <1>   0.0800 
 38 H       -3.1320    -2.8880    -1.8740 H     1 <1>   0.0800 
 39 H       -5.3350    -1.1640     1.2980 H     1 <1>   0.0800 
 40 H       -5.5260    -2.8420     0.8280 H     1 <1>   0.0800 
 41 H       -2.1150     3.5990    -2.4770 H     1 <1>   0.2700 
 42 H       -0.3060    -4.0600     0.1220 H     1 <1>   0.0800 
 43 H       -1.0850    -4.4350    -1.3640 H     1 <1>   0.0800 
 44 H       -3.8220    -5.6500    -0.7820 H     1 <1>   0.3700 
 45 H       -3.0460    -7.8920     0.3790 H     1 <1>   0.0800 
 46 H       -3.7340    -7.1050     1.7780 H     1 <1>   0.0800 
 47 H        0.6810    -1.8860     0.5480 H     1 <1>   0.1500 
 48 H       -1.2800    -2.6960    -3.1570 H     1 <1>   0.1500 
 49 H        1.6880     0.1100    -0.4270 H     1 <1>   0.1500 
 50 H       -0.2870    -0.6860    -4.1170 H     1 <1>   0.1500 
 51 H       -4.4820    -8.9160    -1.2170 H     1 <1>   0.1500 
 52 H       -6.1650    -6.1670     1.5730 H     1 <1>   0.1500 
 53 H        1.2080     0.7240    -2.7650 H     1 <1>   0.1500 
 54 H       -8.3940    -6.8350     0.6950 H     1 <1>   0.1500 
 55 H       -8.5360    -8.4950    -1.0860 H     1 <1>   0.1500 
@<TRIPOS>BOND
  1   1   2  2   
  2   2   3  am  
  3   2   4  1   
  4   3   5  1   
  5   3   6  1   
  6   4   7  1   
  7   4   8  2   
  8   5   9  1   
  9   5  10  1   
 10   5  32  1   
 11   6  11  1   
 12   6  12  1   
 13   6  33  1   
 14   7  13  2   
 15   8  14  1   
 16   8  34  1   
 17   9  11  1   
 18   9  15  1   
 19   9  16  1   
 20  10  12  1   
 21  10  35  1   
 22  10  36  1   
 23  11  37  1   
 24  11  38  1   
 25  12  39  1   
 26  12  40  1   
 27  13  14  1   
 28  14  41  1   
 29  15  17  2   
 30  15  18  am  
 31  16  19  1   
 32  16  42  1   
 33  16  43  1   
 34  18  20  1   
 35  18  44  1   
 36  19  21  ar  
 37  19  22  ar  
 38  20  23  1   
 39  20  45  1   
 40  20  46  1   
 41  21  24  ar  
 42  21  47  1   
 43  22  25  ar  
 44  22  48  1   
 45  23  26  ar  
 46  23  27  ar  
 47  24  28  ar  
 48  24  49  1   
 49  25  28  ar  
 50  25  50  1   
 51  26  29  ar  
 52  26  51  1   
 53  27  30  ar  
 54  27  52  1   
 55  28  53  1   
 56  29  31  ar  
 57  30  31  ar  
 58  30  54  1   
 59  31  55  1   
@<TRIPOS>SUBSTRUCTURE
  1 ****  11 GROUP 4 **** **** 0

# MOE 2024.06 (io_trps.svl 2023.06)
