@<TRIPOS>MOLECULE
NONAME
43 46 1 0 0 
SMALL
USER_CHARGES


@<TRIPOS>ATOM
  1 O        0.2950     0.8390     0.0710 O.2   1 <1>  -0.5700 
  2 C       -0.3300     1.8860     0.1300 C.2   1 <1>   0.7160 
  3 N       -1.7150     1.8070     0.1170 N.am  1 <1>  -0.6600 
  4 C        0.4250     3.1330     0.2140 C.2   1 <1>   0.2030 
  5 C       -2.6370     2.8820     0.6080 C.3   1 <1>   0.1400 
  6 C       -2.4270     0.5600    -0.2850 C.3   1 <1>   0.1400 
  7 N        0.0430     4.3400    -0.0980 N.2   1 <1>  -0.4100 
  8 C        1.7440     3.2070     0.6390 C.2   1 <1>  -0.1500 
  9 C       -3.6760     3.2570    -0.4670 C.3   1 <1>   0.1440 
 10 C       -3.4720     0.8790    -1.3630 C.3   1 <1>  -0.1600 
 11 O        1.0130     5.1980     0.1010 O.3   1 <1>  -0.0190 
 12 C        2.0380     4.5050     0.5440 C.2   1 <1>  -0.0400 
 13 C       -4.5950     4.3200     0.1090 C.ar  1 <1>   0.1660 
 14 C       -4.4380     1.9910    -0.9140 C.3   1 <1>  -0.1600 
 15 C       -3.0290     4.0000    -1.6660 C.3   1 <1>  -0.1600 
 16 C        3.3270     5.2350     0.8610 C.3   1 <1>  -0.0600 
 17 N       -5.5440     4.1140     0.9950 N.ar  1 <1>  -0.6200 
 18 C       -4.3090     5.5530    -0.3970 C.ar  1 <1>  -0.1430 
 19 C       -3.1650     5.5050    -1.3790 C.3   1 <1>  -0.0170 
 20 C       -6.2090     5.2060     1.3480 C.ar  1 <1>   0.4770 
 21 C       -5.0600     6.6150     0.0410 C.ar  1 <1>   0.1600 
 22 N       -6.0260     6.4490     0.9220 N.ar  1 <1>  -0.6200 
 23 C       -7.3150     5.0100     2.3560 C.3   1 <1>  -0.0970 
 24 H       -2.1010     3.7570     0.9220 H     1 <1>   0.0800 
 25 H       -3.1600     2.5110     1.4730 H     1 <1>   0.0800 
 26 H       -2.9090     0.1380     0.5800 H     1 <1>   0.0800 
 27 H       -1.7350    -0.1710    -0.6690 H     1 <1>   0.0800 
 28 H        2.3460     2.3740     0.9570 H     1 <1>   0.1500 
 29 H       -4.0310    -0.0130    -1.5840 H     1 <1>   0.0800 
 30 H       -2.9630     1.1740    -2.2630 H     1 <1>   0.0800 
 31 H       -5.1240     2.2310    -1.7060 H     1 <1>   0.0800 
 32 H       -5.0210     1.6270    -0.0850 H     1 <1>   0.0800 
 33 H       -3.5840     3.7830    -2.5610 H     1 <1>   0.0800 
 34 H       -2.0050     3.7150    -1.8310 H     1 <1>   0.0800 
 35 H        4.0710     4.5430     1.2110 H     1 <1>   0.0800 
 36 H        3.1500     5.9720     1.6220 H     1 <1>   0.0800 
 37 H        3.6940     5.7250    -0.0220 H     1 <1>   0.0800 
 38 H       -3.3790     6.0620    -2.2750 H     1 <1>   0.0800 
 39 H       -2.2710     5.8850    -0.9150 H     1 <1>   0.0800 
 40 H       -4.8700     7.6070    -0.3300 H     1 <1>   0.1500 
 41 H       -7.0990     4.1660     2.9840 H     1 <1>   0.0800 
 42 H       -8.2390     4.8380     1.8370 H     1 <1>   0.0800 
 43 H       -7.4130     5.8860     2.9700 H     1 <1>   0.0800 
@<TRIPOS>BOND
  1   1   2  2   
  2   2   3  am  
  3   2   4  1   
  4   3   5  1   
  5   3   6  1   
  6   4   7  2   
  7   4   8  1   
  8   5   9  1   
  9   5  24  1   
 10   5  25  1   
 11   6  10  1   
 12   6  26  1   
 13   6  27  1   
 14   7  11  1   
 15   8  12  2   
 16   8  28  1   
 17   9  13  1   
 18   9  14  1   
 19   9  15  1   
 20  10  14  1   
 21  10  29  1   
 22  10  30  1   
 23  11  12  1   
 24  12  16  1   
 25  13  17  ar  
 26  13  18  ar  
 27  14  31  1   
 28  14  32  1   
 29  15  19  1   
 30  15  33  1   
 31  15  34  1   
 32  16  35  1   
 33  16  36  1   
 34  16  37  1   
 35  17  20  ar  
 36  18  19  1   
 37  18  21  ar  
 38  19  38  1   
 39  19  39  1   
 40  20  22  ar  
 41  20  23  1   
 42  21  22  ar  
 43  21  40  1   
 44  23  41  1   
 45  23  42  1   
 46  23  43  1   
@<TRIPOS>SUBSTRUCTURE
  1 ****   5 GROUP 4 **** **** 0

# MOE 2024.06 (io_trps.svl 2023.06)
