@<TRIPOS>MOLECULE
NONAME
55 59 1 0 0 
SMALL
USER_CHARGES


@<TRIPOS>ATOM
  1 O       -3.5170     1.1100    -2.0580 O.2   1 <1>  -0.5700 
  2 C       -2.6270     1.2130    -1.2330 C.2   1 <1>   0.5440 
  3 N       -2.0070     0.0630    -0.8400 N.am  1 <1>  -0.7300 
  4 C       -2.2510     2.5160    -0.7150 C.ar  1 <1>   0.0860 
  5 C       -2.3880    -1.3000    -1.2680 C.3   1 <1>   0.2200 
  6 C       -1.5930     2.7130     0.5190 C.ar  1 <1>   0.3920 
  7 C       -2.5490     3.6550    -1.4610 C.ar  1 <1>  -0.1500 
  8 C       -3.5040    -1.8090    -0.3740 C.3   1 <1>  -0.0800 
  9 C       -1.2580    -2.2830    -0.9640 C.3   1 <1>   0.1200 
 10 O       -1.3060     1.6330     1.2820 O.3   1 <1>  -0.3620 
 11 N       -1.2250     3.8980     1.0130 N.ar  1 <1>  -0.6200 
 12 C       -2.1730     4.8730    -0.9490 C.ar  1 <1>  -0.1440 
 13 C       -2.7220    -2.3580     0.8180 C.3   1 <1>   0.1200 
 14 C       -4.3380    -2.8940    -1.0830 C.3   1 <1>  -0.0170 
 15 O       -1.4830    -2.7780     0.3250 O.3   1 <1>  -0.5600 
 16 C       -0.6640     1.7440     2.5400 C.3   1 <1>   0.0400 
 17 C       -1.5290     4.9310     0.2590 C.ar  1 <1>   0.1670 
 18 C       -2.3740     6.2450    -1.5420 C.3   1 <1>  -0.0170 
 19 C       -5.5160    -3.3520    -0.2290 C.ar  1 <1>  -0.1440 
 20 C       -1.2030     6.3530     0.6340 C.3   1 <1>  -0.0170 
 21 C       -1.5140     7.1540    -0.6460 C.3   1 <1>  -0.1600 
 22 C       -6.6830    -2.5680    -0.0660 C.ar  1 <1>   0.0000 
 23 C       -5.4710    -4.5560     0.4100 C.ar  1 <1>  -0.1500 
 24 C       -7.7130    -3.0860     0.7560 C.ar  1 <1>   0.3100 
 25 C       -6.8900    -1.3050    -0.6700 C.ar  1 <1>  -0.1500 
 26 C       -6.5490    -4.9770     1.1990 C.ar  1 <1>   0.1600 
 27 N       -7.6310    -4.2890     1.3800 N.ar  1 <1>  -0.6200 
 28 C       -8.8810    -2.3290     0.9420 C.ar  1 <1>  -0.1500 
 29 C       -8.0410    -0.5930    -0.4680 C.ar  1 <1>  -0.1500 
 30 C       -9.0500    -1.1080     0.3480 C.ar  1 <1>  -0.1500 
 31 H       -1.4000     0.1080    -0.0140 H     1 <1>   0.3700 
 32 H       -2.6490    -1.2920    -2.3130 H     1 <1>   0.0800 
 33 H       -3.0570     3.5790    -2.4070 H     1 <1>   0.1500 
 34 H       -4.1520    -1.0080    -0.0660 H     1 <1>   0.0800 
 35 H       -0.2870    -1.8220    -1.0090 H     1 <1>   0.0800 
 36 H       -1.2950    -3.1180    -1.6400 H     1 <1>   0.0800 
 37 H       -3.2100    -3.1840     1.3040 H     1 <1>   0.0800 
 38 H       -2.5370    -1.5780     1.5360 H     1 <1>   0.0800 
 39 H       -3.7120    -3.7380    -1.3130 H     1 <1>   0.0800 
 40 H       -4.7100    -2.5170    -2.0200 H     1 <1>   0.0800 
 41 H       -0.5500     0.7580     2.9520 H     1 <1>   0.0800 
 42 H       -1.2740     2.3480     3.1890 H     1 <1>   0.0800 
 43 H        0.2990     2.2020     2.4000 H     1 <1>   0.0800 
 44 H       -2.0520     6.2830    -2.5680 H     1 <1>   0.0800 
 45 H       -3.4130     6.5180    -1.4760 H     1 <1>   0.0800 
 46 H       -1.8380     6.6580     1.4460 H     1 <1>   0.0800 
 47 H       -0.1710     6.4480     0.9210 H     1 <1>   0.0800 
 48 H       -2.0130     8.0810    -0.4230 H     1 <1>   0.0800 
 49 H       -0.5890     7.3690    -1.1530 H     1 <1>   0.0800 
 50 H       -4.6190    -5.2060     0.3290 H     1 <1>   0.1500 
 51 H       -6.1300    -0.8870    -1.3040 H     1 <1>   0.1500 
 52 H       -6.4710    -5.9340     1.6860 H     1 <1>   0.1500 
 53 H       -9.6440    -2.7460     1.5730 H     1 <1>   0.1500 
 54 H       -8.1810     0.3680    -0.9340 H     1 <1>   0.1500 
 55 H       -9.9510    -0.5380     0.4990 H     1 <1>   0.1500 
@<TRIPOS>BOND
  1   1   2  2   
  2   2   3  am  
  3   2   4  1   
  4   3   5  1   
  5   3  31  1   
  6   4   6  ar  
  7   4   7  ar  
  8   5   8  1   
  9   5   9  1   
 10   5  32  1   
 11   6  10  1   
 12   6  11  ar  
 13   7  12  ar  
 14   7  33  1   
 15   8  13  1   
 16   8  14  1   
 17   8  34  1   
 18   9  15  1   
 19   9  35  1   
 20   9  36  1   
 21  10  16  1   
 22  11  17  ar  
 23  12  17  ar  
 24  12  18  1   
 25  13  15  1   
 26  13  37  1   
 27  13  38  1   
 28  14  19  1   
 29  14  39  1   
 30  14  40  1   
 31  16  41  1   
 32  16  42  1   
 33  16  43  1   
 34  17  20  1   
 35  18  21  1   
 36  18  44  1   
 37  18  45  1   
 38  19  22  ar  
 39  19  23  ar  
 40  20  21  1   
 41  20  46  1   
 42  20  47  1   
 43  21  48  1   
 44  21  49  1   
 45  22  24  ar  
 46  22  25  ar  
 47  23  26  ar  
 48  23  50  1   
 49  24  27  ar  
 50  24  28  ar  
 51  25  29  ar  
 52  25  51  1   
 53  26  27  ar  
 54  26  52  1   
 55  28  30  ar  
 56  28  53  1   
 57  29  30  ar  
 58  29  54  1   
 59  30  55  1   
@<TRIPOS>SUBSTRUCTURE
  1 ****   2 GROUP 4 **** **** 0

# MOE 2024.06 (io_trps.svl 2023.06)
