@<TRIPOS>MOLECULE
NONAME
49 52 1 0 0 
SMALL
USER_CHARGES


@<TRIPOS>ATOM
  1 F        3.2140    -1.5360    -2.1240 F     1 <1>  -0.3400 
  2 C        4.4250    -1.0380    -1.8790 C.3   1 <1>   0.2600 
  3 C        4.9630    -1.7400    -0.6300 C.3   1 <1>   0.2000 
  4 C        4.2440     0.4250    -1.4610 C.3   1 <1>   0.1400 
  5 O        6.3420    -1.5360    -0.5420 O.3   1 <1>  -0.6800 
  6 C        4.2790    -0.9940     0.5180 C.3   1 <1>   0.1400 
  7 N        4.1460     0.4050     0.0290 N.am  1 <1>  -0.6600 
  8 C        4.1600     1.4990     0.8610 C.2   1 <1>   0.7160 
  9 O        4.0080     1.3170     2.0540 O.2   1 <1>  -0.5700 
 10 C        4.4190     2.8010     0.3410 C.2   1 <1>  -0.0860 
 11 C        3.5650     3.9080     0.2370 C.2   1 <1>   0.3720 
 12 C        5.5790     3.2350    -0.2120 C.2   1 <1>   0.0870 
 13 N        4.1780     4.8910    -0.3320 N.2   1 <1>  -0.4100 
 14 N        2.2300     4.0000     0.6720 N.pl3 1 <1>  -0.8210 
 15 O        5.3860     4.4670    -0.5960 O.3   1 <1>  -0.0190 
 16 C        6.8300     2.5580    -0.4340 C.ar  1 <1>   0.0530 
 17 C        1.3910     5.1350     0.2020 C.3   1 <1>   0.2090 
 18 C        1.3900     2.7910     0.8490 C.3   1 <1>   0.2090 
 19 C        7.3270     1.6250     0.4780 C.ar  1 <1>  -0.1500 
 20 C        7.5680     2.7810    -1.5960 C.ar  1 <1>  -0.1500 
 21 C        0.0250     4.5320    -0.0980 C.3   1 <1>  -0.1600 
 22 C       -0.0470     3.2890     0.7810 C.3   1 <1>  -0.1600 
 23 C        8.4820     0.9110     0.2230 C.ar  1 <1>  -0.1500 
 24 C        8.7260     2.0730    -1.8550 C.ar  1 <1>  -0.1500 
 25 C        9.1860     1.1240    -0.9580 C.ar  1 <1>   0.0830 
 26 O       10.3110     0.4520    -1.2970 O.3   1 <1>  -0.3630 
 27 C       10.7910    -0.6220    -0.5190 C.3   1 <1>   0.0400 
 28 H        5.0120    -1.1910    -2.7670 H     1 <1>   0.0800 
 29 H        4.7770    -2.8000    -0.6290 H     1 <1>   0.0800 
 30 H        3.3630     0.8570    -1.9060 H     1 <1>   0.0800 
 31 H        5.1100     0.9860    -1.7600 H     1 <1>   0.0800 
 32 H        6.5370    -0.5880    -0.3850 H     1 <1>   0.4000 
 33 H        4.8470    -1.0520     1.4310 H     1 <1>   0.0800 
 34 H        3.2950    -1.3970     0.6840 H     1 <1>   0.0800 
 35 H        1.3170     5.8590     0.9950 H     1 <1>   0.0800 
 36 H        1.7990     5.6080    -0.6750 H     1 <1>   0.0800 
 37 H        1.5780     2.0960     0.0480 H     1 <1>   0.0800 
 38 H        1.5910     2.3220     1.7980 H     1 <1>   0.0800 
 39 H        6.8050     1.4590     1.4050 H     1 <1>   0.1500 
 40 H        7.2240     3.5120    -2.3070 H     1 <1>   0.1500 
 41 H       -0.7710     5.2260     0.1050 H     1 <1>   0.0800 
 42 H       -0.0100     4.2500    -1.1350 H     1 <1>   0.0800 
 43 H       -0.7120     2.5420     0.3880 H     1 <1>   0.0800 
 44 H       -0.3660     3.5600     1.7720 H     1 <1>   0.0800 
 45 H        8.8240     0.1980     0.9520 H     1 <1>   0.1500 
 46 H        9.2830     2.2480    -2.7580 H     1 <1>   0.1500 
 47 H       11.6550    -1.0300    -1.0120 H     1 <1>   0.0800 
 48 H       10.0230    -1.3720    -0.4470 H     1 <1>   0.0800 
 49 H       11.0660    -0.2550     0.4530 H     1 <1>   0.0800 
@<TRIPOS>BOND
  1   1   2  1   
  2   2   3  1   
  3   2   4  1   
  4   2  28  1   
  5   3   5  1   
  6   3   6  1   
  7   3  29  1   
  8   4   7  1   
  9   4  30  1   
 10   4  31  1   
 11   5  32  1   
 12   6   7  1   
 13   6  33  1   
 14   6  34  1   
 15   7   8  am  
 16   8   9  2   
 17   8  10  1   
 18  10  11  1   
 19  10  12  2   
 20  11  13  2   
 21  11  14  1   
 22  12  15  1   
 23  12  16  1   
 24  13  15  1   
 25  14  17  1   
 26  14  18  1   
 27  16  19  ar  
 28  16  20  ar  
 29  17  21  1   
 30  17  35  1   
 31  17  36  1   
 32  18  22  1   
 33  18  37  1   
 34  18  38  1   
 35  19  23  ar  
 36  19  39  1   
 37  20  24  ar  
 38  20  40  1   
 39  21  22  1   
 40  21  41  1   
 41  21  42  1   
 42  22  43  1   
 43  22  44  1   
 44  23  25  ar  
 45  23  45  1   
 46  24  25  ar  
 47  24  46  1   
 48  25  26  1   
 49  26  27  1   
 50  27  47  1   
 51  27  48  1   
 52  27  49  1   
@<TRIPOS>SUBSTRUCTURE
  1 ****  10 GROUP 4 **** **** 0

# MOE 2024.06 (io_trps.svl 2023.06)
