@<TRIPOS>MOLECULE
NONAME
53 56 1 0 0 
SMALL
USER_CHARGES


@<TRIPOS>ATOM
  1 F       -3.0930    -1.4770     3.3250 F     1 <1>  -0.1900 
  2 C       -3.0170    -1.8460     2.0750 C.ar  1 <1>   0.1900 
  3 C       -2.7730    -3.1760     1.7880 C.ar  1 <1>  -0.1500 
  4 C       -3.1860    -0.8940     1.0880 C.ar  1 <1>  -0.1500 
  5 C       -2.6930    -3.5710     0.4610 C.ar  1 <1>  -0.1440 
  6 C       -3.1070    -1.2940    -0.2350 C.ar  1 <1>  -0.1500 
  7 C       -2.8630    -2.6250    -0.5430 C.ar  1 <1>  -0.1500 
  8 C       -2.4320    -5.0240     0.1060 C.3   1 <1>   0.2840 
  9 N       -3.7300    -5.6870    -0.0630 N.am  1 <1>  -0.7300 
 10 C       -3.9020    -6.8310    -0.7620 C.2   1 <1>   0.6900 
 11 O       -2.9250    -7.4210    -1.1840 O.2   1 <1>  -0.5700 
 12 N       -5.1690    -7.2990    -0.9930 N.am  1 <1>  -0.6600 
 13 C       -5.4170    -8.4200    -1.9400 C.3   1 <1>   0.1400 
 14 C       -6.3700    -6.9030    -0.2100 C.3   1 <1>   0.1400 
 15 C       -5.9020    -9.6430    -1.1600 C.3   1 <1>  -0.1600 
 16 C       -6.8590    -8.1090     0.5950 C.3   1 <1>  -0.1600 
 17 C       -7.1390    -9.3260    -0.3060 C.3   1 <1>   0.4240 
 18 O       -8.1430    -8.9630    -1.2260 O.3   1 <1>  -0.5600 
 19 C       -7.5460   -10.5590     0.5310 C.ar  1 <1>  -0.1430 
 20 C       -9.4690    -9.0650    -0.8090 C.3   1 <1>   0.1200 
 21 C       -8.8070   -11.1340     0.4030 C.ar  1 <1>  -0.1440 
 22 C       -6.6540   -11.1160     1.4410 C.ar  1 <1>  -0.1500 
 23 C       -9.7990   -10.5360    -0.5740 C.3   1 <1>  -0.0170 
 24 C       -9.1610   -12.2420     1.1560 C.ar  1 <1>  -0.1500 
 25 C       -7.0060   -12.2200     2.1960 C.ar  1 <1>  -0.1500 
 26 C       -8.2580   -12.7920     2.0600 C.ar  1 <1>   0.0830 
 27 O       -8.5240   -13.8730     2.8350 O.3   1 <1>  -0.3620 
 28 C       -9.7620   -14.5440     2.7580 C.3   1 <1>   0.0400 
 29 H       -2.6520    -3.8810     2.5910 H     1 <1>   0.1500 
 30 H       -3.3740     0.1310     1.3520 H     1 <1>   0.1500 
 31 H       -3.2350    -0.5730    -1.0240 H     1 <1>   0.1500 
 32 H       -2.8060    -2.9250    -1.5770 H     1 <1>   0.1500 
 33 H       -1.8800    -5.5150     0.8890 H     1 <1>   0.0800 
 34 H       -1.8640    -5.0920    -0.8070 H     1 <1>   0.0800 
 35 H       -4.5350    -5.0790     0.0510 H     1 <1>   0.3700 
 36 H       -4.5210    -8.6670    -2.4840 H     1 <1>   0.0800 
 37 H       -6.1640    -8.1180    -2.6540 H     1 <1>   0.0800 
 38 H       -7.1400    -6.5760    -0.8900 H     1 <1>   0.0800 
 39 H       -6.1490    -6.0940     0.4620 H     1 <1>   0.0800 
 40 H       -5.0950    -9.9780    -0.5370 H     1 <1>   0.0800 
 41 H       -6.1390   -10.4400    -1.8400 H     1 <1>   0.0800 
 42 H       -7.7400    -7.8510     1.1500 H     1 <1>   0.0800 
 43 H       -6.0990    -8.3620     1.3100 H     1 <1>   0.0800 
 44 H      -10.0910    -8.6600    -1.5870 H     1 <1>   0.0800 
 45 H       -9.6050    -8.4890     0.0880 H     1 <1>   0.0800 
 46 H       -5.6720   -10.6970     1.5720 H     1 <1>   0.1500 
 47 H       -9.7540   -11.0660    -1.5080 H     1 <1>   0.0800 
 48 H      -10.7990   -10.6150    -0.1860 H     1 <1>   0.0800 
 49 H      -10.1380   -12.6650     1.0300 H     1 <1>   0.1500 
 50 H       -6.3110   -12.6460     2.8950 H     1 <1>   0.1500 
 51 H       -9.7400   -15.3660     3.4500 H     1 <1>   0.0800 
 52 H       -9.8970   -14.9120     1.7560 H     1 <1>   0.0800 
 53 H      -10.5470   -13.8590     3.0280 H     1 <1>   0.0800 
@<TRIPOS>BOND
  1   1   2  1   
  2   2   3  ar  
  3   2   4  ar  
  4   3   5  ar  
  5   3  29  1   
  6   4   6  ar  
  7   4  30  1   
  8   5   7  ar  
  9   5   8  1   
 10   6   7  ar  
 11   6  31  1   
 12   7  32  1   
 13   8   9  1   
 14   8  33  1   
 15   8  34  1   
 16   9  10  am  
 17   9  35  1   
 18  10  11  2   
 19  10  12  am  
 20  12  13  1   
 21  12  14  1   
 22  13  15  1   
 23  13  36  1   
 24  13  37  1   
 25  14  16  1   
 26  14  38  1   
 27  14  39  1   
 28  15  17  1   
 29  15  40  1   
 30  15  41  1   
 31  16  17  1   
 32  16  42  1   
 33  16  43  1   
 34  17  18  1   
 35  17  19  1   
 36  18  20  1   
 37  19  21  ar  
 38  19  22  ar  
 39  20  23  1   
 40  20  44  1   
 41  20  45  1   
 42  21  23  1   
 43  21  24  ar  
 44  22  25  ar  
 45  22  46  1   
 46  23  47  1   
 47  23  48  1   
 48  24  26  ar  
 49  24  49  1   
 50  25  26  ar  
 51  25  50  1   
 52  26  27  1   
 53  27  28  1   
 54  28  51  1   
 55  28  52  1   
 56  28  53  1   
@<TRIPOS>SUBSTRUCTURE
  1 ****  16 GROUP 4 **** **** 0

# MOE 2024.06 (io_trps.svl 2023.06)
