@<TRIPOS>MOLECULE
NONAME
49 51 1 0 0 
SMALL
USER_CHARGES


@<TRIPOS>ATOM
  1 O       -1.5670     0.2800     2.2480 O.2   1 <1>  -0.5700 
  2 C       -2.1340     0.8180     1.3170 C.2   1 <1>   0.5440 
  3 N       -3.1730     0.1590     0.7050 N.am  1 <1>  -0.6600 
  4 C       -1.7210     2.1300     0.8510 C.ar  1 <1>   0.0860 
  5 C       -3.9300     0.6630    -0.4670 C.3   1 <1>   0.1400 
  6 C       -3.5820    -1.2260     1.0410 C.3   1 <1>   0.1400 
  7 C       -0.7160     2.2610    -0.1150 C.ar  1 <1>  -0.1440 
  8 C       -2.3310     3.2920     1.3370 C.ar  1 <1>  -0.1430 
  9 C       -5.0480    -0.3610    -0.6690 C.3   1 <1>   0.2000 
 10 C       -4.4670    -1.6720    -0.1310 C.3   1 <1>  -0.0800 
 11 C       -0.3560     3.5110    -0.5880 C.ar  1 <1>  -0.1500 
 12 C        0.0020     1.0290    -0.6530 C.3   1 <1>  -0.0960 
 13 C       -1.9600     4.5350     0.8520 C.ar  1 <1>  -0.1500 
 14 C       -3.4080     3.2080     2.4110 C.3   1 <1>  -0.0970 
 15 O       -6.1170     0.0000     0.1350 O.3   1 <1>  -0.6800 
 16 C       -3.6420    -2.3920    -1.2150 C.3   1 <1>   0.0210 
 17 C       -0.9770     4.6520    -0.1140 C.ar  1 <1>  -0.1430 
 18 C       -3.0790    -3.7040    -0.7050 C.2   1 <1>   0.1080 
 19 C       -0.5760     6.0190    -0.6390 C.3   1 <1>  -0.0970 
 20 N       -3.8150    -4.7510    -0.5060 N.2   1 <1>  -0.7070 
 21 C       -1.7430    -3.9320    -0.3930 C.2   1 <1>  -0.1500 
 22 N       -2.9590    -5.6880    -0.0570 N.pl3 1 <1>   0.3000 
 23 C       -1.6970    -5.2150     0.0210 C.2   1 <1>  -0.3320 
 24 C       -0.5090    -6.0300     0.4970 C.3   1 <1>  -0.0600 
 25 H       -4.3190     1.6520    -0.2970 H     1 <1>   0.0800 
 26 H       -3.2800     0.6760    -1.3240 H     1 <1>   0.0800 
 27 H       -2.7220    -1.8580     1.1830 H     1 <1>   0.0800 
 28 H       -4.1510    -1.2100     1.9550 H     1 <1>   0.0800 
 29 H       -5.3950    -0.4190    -1.6860 H     1 <1>   0.0800 
 30 H       -5.2440    -2.3390     0.2000 H     1 <1>   0.0800 
 31 H        0.4170     3.6040    -1.3310 H     1 <1>   0.1500 
 32 H        0.7720     1.3020    -1.3520 H     1 <1>   0.0800 
 33 H       -0.6950     0.3790    -1.1490 H     1 <1>   0.0800 
 34 H        0.4590     0.4900     0.1580 H     1 <1>   0.0800 
 35 H       -2.4350     5.4230     1.2290 H     1 <1>   0.1500 
 36 H       -3.7040     4.1870     2.7440 H     1 <1>   0.0800 
 37 H       -3.0360     2.6630     3.2610 H     1 <1>   0.0800 
 38 H       -4.2760     2.7010     2.0280 H     1 <1>   0.0800 
 39 H       -5.7950     0.1160     1.0510 H     1 <1>   0.4000 
 40 H       -2.8330    -1.7700    -1.5520 H     1 <1>   0.0800 
 41 H       -4.2710    -2.6080    -2.0600 H     1 <1>   0.0800 
 42 H       -0.2550     5.9490    -1.6630 H     1 <1>   0.0800 
 43 H        0.2320     6.4110    -0.0470 H     1 <1>   0.0800 
 44 H       -1.4060     6.7000    -0.5890 H     1 <1>   0.0800 
 45 H       -0.9420    -3.2190    -0.4700 H     1 <1>   0.1500 
 46 H       -3.2670    -6.6370     0.1880 H     1 <1>   0.2700 
 47 H        0.3840    -5.4300     0.4710 H     1 <1>   0.0800 
 48 H       -0.3650    -6.8860    -0.1390 H     1 <1>   0.0800 
 49 H       -0.6670    -6.3640     1.5070 H     1 <1>   0.0800 
@<TRIPOS>BOND
  1   1   2  2   
  2   2   3  am  
  3   2   4  1   
  4   3   5  1   
  5   3   6  1   
  6   4   7  ar  
  7   4   8  ar  
  8   5   9  1   
  9   5  25  1   
 10   5  26  1   
 11   6  10  1   
 12   6  27  1   
 13   6  28  1   
 14   7  11  ar  
 15   7  12  1   
 16   8  13  ar  
 17   8  14  1   
 18   9  10  1   
 19   9  15  1   
 20   9  29  1   
 21  10  16  1   
 22  10  30  1   
 23  11  17  ar  
 24  11  31  1   
 25  12  32  1   
 26  12  33  1   
 27  12  34  1   
 28  13  17  ar  
 29  13  35  1   
 30  14  36  1   
 31  14  37  1   
 32  14  38  1   
 33  15  39  1   
 34  16  18  1   
 35  16  40  1   
 36  16  41  1   
 37  17  19  1   
 38  18  20  2   
 39  18  21  1   
 40  19  42  1   
 41  19  43  1   
 42  19  44  1   
 43  20  22  1   
 44  21  23  2   
 45  21  45  1   
 46  22  23  1   
 47  22  46  1   
 48  23  24  1   
 49  24  47  1   
 50  24  48  1   
 51  24  49  1   
@<TRIPOS>SUBSTRUCTURE
  1 ****   3 GROUP 4 **** **** 0

# MOE 2024.06 (io_trps.svl 2023.06)
