@<TRIPOS>MOLECULE
NONAME
48 50 1 0 0 
SMALL
USER_CHARGES


@<TRIPOS>ATOM
  1 S        0.0570    -0.3940     1.9680 S.o2  1 <1>   1.4470 
  2 O       -0.5710    -1.5100     2.6430 O.2   1 <1>  -0.6500 
  3 O        0.4510     0.7680     2.7350 O.2   1 <1>  -0.6500 
  4 N       -1.0210     0.1450     0.7770 N.am  1 <1>  -0.8490 
  5 C        1.4630    -1.0160     1.0000 C.ar  1 <1>  -0.0090 
  6 C       -2.3660     0.3550     1.3350 C.3   1 <1>   0.1960 
  7 C       -0.5510     1.3670     0.1150 C.3   1 <1>   0.1960 
  8 C        2.5940    -0.2400     0.7890 C.ar  1 <1>  -0.1500 
  9 C        1.4250    -2.2770     0.4190 C.ar  1 <1>  -0.1500 
 10 C       -3.3980     0.6430     0.2250 C.3   1 <1>   0.0000 
 11 C       -1.4700     1.7260    -1.0570 C.3   1 <1>  -0.1600 
 12 C        3.6760    -0.6740     0.0240 C.ar  1 <1>   0.0860 
 13 C        2.4810    -2.7430    -0.3430 C.ar  1 <1>  -0.1500 
 14 C       -4.8050     0.8090     0.8290 C.3   1 <1>   0.2000 
 15 C       -2.9320     1.8720    -0.6030 C.3   1 <1>  -0.1600 
 16 C       -3.6150    -0.5800    -0.6870 C.3   1 <1>  -0.1600 
 17 C        4.8320     0.1820    -0.1760 C.2   1 <1>   0.5440 
 18 C        3.5920    -1.9460    -0.5400 C.ar  1 <1>  -0.1500 
 19 O       -5.0430     2.0830     1.3110 O.3   1 <1>  -0.6800 
 20 C       -5.7950     0.4690    -0.2840 C.3   1 <1>  -0.1600 
 21 C       -5.0250    -0.4230    -1.2670 C.3   1 <1>  -0.1600 
 22 O        4.6980     1.3880    -0.2340 O.2   1 <1>  -0.5700 
 23 N        6.0860    -0.3530    -0.2910 N.am  1 <1>  -0.7300 
 24 C        7.3370     0.4210    -0.5040 C.3   1 <1>   0.0600 
 25 H       -2.6780    -0.5250     1.8730 H     1 <1>   0.0800 
 26 H       -2.3460     1.1760     2.0350 H     1 <1>   0.0800 
 27 H       -0.5260     2.1820     0.8210 H     1 <1>   0.0800 
 28 H        0.4470     1.2210    -0.2630 H     1 <1>   0.0800 
 29 H        2.6440     0.7430     1.2300 H     1 <1>   0.1500 
 30 H        0.5560    -2.8990     0.5660 H     1 <1>   0.1500 
 31 H       -1.1370     2.6520    -1.4920 H     1 <1>   0.0800 
 32 H       -1.3810     0.9680    -1.8140 H     1 <1>   0.0800 
 33 H        2.4310    -3.7240    -0.7870 H     1 <1>   0.1500 
 34 H       -4.9390     0.1190     1.6460 H     1 <1>   0.0800 
 35 H       -3.5650     2.0210    -1.4590 H     1 <1>   0.0800 
 36 H       -2.9870     2.7570     0.0060 H     1 <1>   0.0800 
 37 H       -2.8720    -0.6760    -1.4570 H     1 <1>   0.0800 
 38 H       -3.5890    -1.4760    -0.0910 H     1 <1>   0.0800 
 39 H        4.4000    -2.3130    -1.1480 H     1 <1>   0.1500 
 40 H       -5.0100     2.7210     0.5740 H     1 <1>   0.4000 
 41 H       -6.6440    -0.0530     0.1230 H     1 <1>   0.0800 
 42 H       -6.1310     1.3570    -0.7910 H     1 <1>   0.0800 
 43 H       -5.5000    -1.3820    -1.3870 H     1 <1>   0.0800 
 44 H       -4.9730     0.0590    -2.2290 H     1 <1>   0.0800 
 45 H        6.2080    -1.3540    -0.1310 H     1 <1>   0.3700 
 46 H        7.1120     1.4590    -0.6810 H     1 <1>   0.0800 
 47 H        7.8650     0.0320    -1.3570 H     1 <1>   0.0800 
 48 H        7.9640     0.3470     0.3670 H     1 <1>   0.0800 
@<TRIPOS>BOND
  1   1   2  2   
  2   1   3  2   
  3   1   4  am  
  4   1   5  1   
  5   4   6  1   
  6   4   7  1   
  7   5   8  ar  
  8   5   9  ar  
  9   6  10  1   
 10   6  25  1   
 11   6  26  1   
 12   7  11  1   
 13   7  27  1   
 14   7  28  1   
 15   8  12  ar  
 16   8  29  1   
 17   9  13  ar  
 18   9  30  1   
 19  10  14  1   
 20  10  15  1   
 21  10  16  1   
 22  11  15  1   
 23  11  31  1   
 24  11  32  1   
 25  12  17  1   
 26  12  18  ar  
 27  13  18  ar  
 28  13  33  1   
 29  14  19  1   
 30  14  20  1   
 31  14  34  1   
 32  15  35  1   
 33  15  36  1   
 34  16  21  1   
 35  16  37  1   
 36  16  38  1   
 37  17  22  2   
 38  17  23  am  
 39  18  39  1   
 40  19  40  1   
 41  20  21  1   
 42  20  41  1   
 43  20  42  1   
 44  21  43  1   
 45  21  44  1   
 46  23  24  1   
 47  23  45  1   
 48  24  46  1   
 49  24  47  1   
 50  24  48  1   
@<TRIPOS>SUBSTRUCTURE
  1 ****   4 GROUP 4 **** **** 0

# MOE 2024.06 (io_trps.svl 2023.06)
