@<TRIPOS>MOLECULE
NONAME
54 59 1 0 0 
SMALL
USER_CHARGES


@<TRIPOS>ATOM
  1 N        0.1510    -0.2910    -0.3740 N.4   1 <1>  -0.9590 
  2 C        0.8000    -1.4070    -1.1000 C.3   1 <1>   0.7920 
  3 C        1.1190     0.2750     0.6060 C.3   1 <1>   0.3430 
  4 C       -0.3960     0.7720    -1.2740 C.3   1 <1>   0.2630 
  5 N        1.9760    -0.6390    -1.8630 N.pl3 1 <1>  -0.8690 
  6 C        1.0870    -2.6720     0.0470 C.3   1 <1>   0.1440 
  7 C        1.9160    -0.8820     1.2160 C.3   1 <1>  -0.1600 
  8 C        3.3350    -0.6460    -1.3550 C.ar  1 <1>   0.1000 
  9 C       -0.2290    -3.2100    -0.3470 C.ar  1 <1>  -0.1430 
 10 C        2.2950    -1.9610     0.0920 C.3   1 <1>   0.1440 
 11 C        1.3940    -3.7700     1.1750 C.3   1 <1>  -0.1600 
 12 C        3.6330    -1.4170    -0.2100 C.ar  1 <1>  -0.1430 
 13 C        4.3780     0.0360    -1.9600 C.ar  1 <1>  -0.1500 
 14 C        0.1410    -3.9620    -1.4850 C.ar  1 <1>   0.1000 
 15 C       -1.5280    -3.1370     0.1170 C.ar  1 <1>  -0.1500 
 16 C        2.6540    -3.2060    -1.0570 C.3   1 <1>   0.7920 
 17 C        2.2300    -4.9170     0.5970 C.3   1 <1>   0.3430 
 18 C        4.9000    -1.4980     0.3350 C.ar  1 <1>  -0.1500 
 19 C        5.6570    -0.0460    -1.4320 C.ar  1 <1>  -0.1500 
 20 N        1.5300    -3.9610    -1.9060 N.pl3 1 <1>  -0.8690 
 21 C       -0.8610    -4.6330    -2.1650 C.ar  1 <1>  -0.1500 
 22 C       -2.5030    -3.8220    -0.5890 C.ar  1 <1>  -0.1500 
 23 N        3.2570    -4.3350    -0.3100 N.4   1 <1>  -0.9590 
 24 C        5.9180    -0.8020    -0.2970 C.ar  1 <1>  -0.1500 
 25 C       -2.1710    -4.5590    -1.7180 C.ar  1 <1>  -0.1500 
 26 C        3.8610    -5.3830    -1.1920 C.3   1 <1>   0.2630 
 27 H       -0.6360    -0.7110     0.1340 H     1 <1>   0.4500 
 28 H        0.1130    -1.7400    -1.8650 H     1 <1>   0.0800 
 29 H        1.8030     0.9320     0.0900 H     1 <1>   0.0800 
 30 H        0.6130     0.8450     1.3700 H     1 <1>   0.0800 
 31 H        0.4030     1.2550    -1.8130 H     1 <1>   0.0800 
 32 H       -0.9170     1.5200    -0.6970 H     1 <1>   0.0800 
 33 H       -1.0860     0.3470    -1.9860 H     1 <1>   0.0800 
 34 H        1.8250    -0.4570    -2.8650 H     1 <1>   0.4000 
 35 H        2.7760    -0.4620     1.7150 H     1 <1>   0.0800 
 36 H        1.3160    -1.2840     2.0150 H     1 <1>   0.0800 
 37 H        0.5050    -4.1980     1.6110 H     1 <1>   0.0800 
 38 H        1.9430    -3.3820     2.0170 H     1 <1>   0.0800 
 39 H        4.1970     0.6330    -2.8370 H     1 <1>   0.1500 
 40 H       -1.7960    -2.5860     1.0030 H     1 <1>   0.1500 
 41 H        3.3880    -2.8600    -1.7710 H     1 <1>   0.0800 
 42 H        1.5800    -5.5650     0.0270 H     1 <1>   0.0800 
 43 H        2.6870    -5.5000     1.3820 H     1 <1>   0.0800 
 44 H        5.1120    -2.0650     1.2260 H     1 <1>   0.1500 
 45 H        6.4630     0.4900    -1.9060 H     1 <1>   0.1500 
 46 H        1.7440    -4.1250    -2.8990 H     1 <1>   0.4000 
 47 H       -0.6250    -5.2140    -3.0390 H     1 <1>   0.1500 
 48 H       -3.5300    -3.7930    -0.2600 H     1 <1>   0.1500 
 49 H        4.0100    -3.9240     0.2540 H     1 <1>   0.4500 
 50 H        6.9220    -0.8370     0.0960 H     1 <1>   0.1500 
 51 H       -2.9460    -5.0860    -2.2520 H     1 <1>   0.1500 
 52 H        3.0970    -5.8560    -1.7880 H     1 <1>   0.0800 
 53 H        4.3450    -6.1400    -0.5960 H     1 <1>   0.0800 
 54 H        4.5940    -4.9460    -1.8510 H     1 <1>   0.0800 
@<TRIPOS>BOND
  1   1   2  1   
  2   1   3  1   
  3   1   4  1   
  4   1  27  1   
  5   2   5  1   
  6   2   6  1   
  7   2  28  1   
  8   3   7  1   
  9   3  29  1   
 10   3  30  1   
 11   4  31  1   
 12   4  32  1   
 13   4  33  1   
 14   5   8  1   
 15   5  34  1   
 16   6   9  1   
 17   6  10  1   
 18   6  11  1   
 19   7  10  1   
 20   7  35  1   
 21   7  36  1   
 22   8  12  ar  
 23   8  13  ar  
 24   9  14  ar  
 25   9  15  ar  
 26  10  12  1   
 27  10  16  1   
 28  11  17  1   
 29  11  37  1   
 30  11  38  1   
 31  12  18  ar  
 32  13  19  ar  
 33  13  39  1   
 34  14  20  1   
 35  14  21  ar  
 36  15  22  ar  
 37  15  40  1   
 38  16  20  1   
 39  16  23  1   
 40  16  41  1   
 41  17  23  1   
 42  17  42  1   
 43  17  43  1   
 44  18  24  ar  
 45  18  44  1   
 46  19  24  ar  
 47  19  45  1   
 48  20  46  1   
 49  21  25  ar  
 50  21  47  1   
 51  22  25  ar  
 52  22  48  1   
 53  23  26  1   
 54  23  49  1   
 55  24  50  1   
 56  25  51  1   
 57  26  52  1   
 58  26  53  1   
 59  26  54  1   
@<TRIPOS>SUBSTRUCTURE
  1 ****   6 GROUP 4 **** **** 0

# MOE 2024.06 (io_trps.svl 2023.06)
