@<TRIPOS>MOLECULE
NONAME
49 51 1 0 0 
SMALL
USER_CHARGES


@<TRIPOS>ATOM
  1 S        0.4870     0.0420    -0.5490 S.o2  1 <1>   1.3330 
  2 O        1.8700     0.1590    -0.1420 O.2   1 <1>  -0.6500 
  3 O        0.1710    -0.1410    -1.9480 O.2   1 <1>  -0.6500 
  4 N       -0.2030    -1.2410     0.3230 N.am  1 <1>  -0.8490 
  5 C       -0.4250     1.4690     0.0340 C.3   1 <1>  -0.0550 
  6 C       -0.0820    -2.5190    -0.3840 C.3   1 <1>   0.1160 
  7 C        0.3250    -1.3720     1.6850 C.3   1 <1>   0.1160 
  8 C        0.0020     2.7810    -0.6540 C.3   1 <1>  -0.0800 
  9 C       -0.8580     3.9940    -0.3030 C.3   1 <1>   0.2000 
 10 C        1.4390     3.2240    -0.3230 C.3   1 <1>   0.1100 
 11 O       -1.1290     3.9790     1.0530 O.3   1 <1>  -0.6800 
 12 C        0.1020     5.1470    -0.5590 C.3   1 <1>   0.1100 
 13 N        1.3850     4.6650    -0.0210 N.3   1 <1>  -0.8100 
 14 C        2.5450     5.3920    -0.5730 C.3   1 <1>   0.2480 
 15 C        2.6150     6.8390    -0.0860 C.2   1 <1>   0.0330 
 16 N        3.2030     7.7200    -0.9490 N.2   1 <1>  -0.6210 
 17 C        2.1420     7.2360     1.1270 C.2   1 <1>  -0.1360 
 18 C        3.2690     8.9410    -0.5350 C.2   1 <1>   0.6510 
 19 C        2.2330     8.5880     1.5410 C.2   1 <1>   0.6160 
 20 S        3.9770    10.2300    -1.4740 S.3   1 <1>  -0.2820 
 21 N        2.8300     9.4670     0.6510 N.am  1 <1>  -0.0580 
 22 O        1.8070     8.9530     2.6290 O.2   1 <1>  -0.5700 
 23 C        3.6170    11.3690    -0.1790 C.2   1 <1>   0.5300 
 24 N        3.0410    10.8470     0.8230 N.2   1 <1>  -0.5120 
 25 C        4.0360    12.8090    -0.4270 C.3   1 <1>  -0.0990 
 26 C        3.6970    13.7580     0.7340 C.3   1 <1>  -0.2400 
 27 H       -1.4690     1.3100    -0.1520 H     1 <1>   0.0800 
 28 H       -0.2960     1.5650     1.0940 H     1 <1>   0.0800 
 29 H       -0.5440    -3.3060     0.1850 H     1 <1>   0.0800 
 30 H        0.9560    -2.7590    -0.5470 H     1 <1>   0.0800 
 31 H       -0.5770    -2.4610    -1.3400 H     1 <1>   0.0800 
 32 H       -0.2080    -2.1430     2.2140 H     1 <1>   0.0800 
 33 H        0.2030    -0.4470     2.2220 H     1 <1>   0.0800 
 34 H        1.3730    -1.6220     1.6610 H     1 <1>   0.0800 
 35 H       -0.0550     2.6390    -1.7200 H     1 <1>   0.0800 
 36 H       -1.7820     4.0550    -0.8520 H     1 <1>   0.0800 
 37 H        2.0850     3.0190    -1.1630 H     1 <1>   0.0800 
 38 H        1.8230     2.7040     0.5390 H     1 <1>   0.0800 
 39 H       -0.2810     4.1860     1.5030 H     1 <1>   0.4000 
 40 H       -0.2220     6.0530    -0.0750 H     1 <1>   0.0800 
 41 H        0.1820     5.3180    -1.6200 H     1 <1>   0.0800 
 42 H        3.4530     4.8950    -0.2770 H     1 <1>   0.0800 
 43 H        2.4980     5.3810    -1.6490 H     1 <1>   0.0800 
 44 H        1.6840     6.5520     1.8160 H     1 <1>   0.1500 
 45 H        5.0970    12.8290    -0.6000 H     1 <1>   0.0800 
 46 H        3.5480    13.1560    -1.3200 H     1 <1>   0.0800 
 47 H        4.1920    13.4390     1.6360 H     1 <1>   0.0800 
 48 H        2.6350    13.7670     0.9130 H     1 <1>   0.0800 
 49 H        4.0150    14.7590     0.5030 H     1 <1>   0.0800 
@<TRIPOS>BOND
  1   1   2  2   
  2   1   3  2   
  3   1   4  am  
  4   1   5  1   
  5   4   6  1   
  6   4   7  1   
  7   5   8  1   
  8   5  27  1   
  9   5  28  1   
 10   6  29  1   
 11   6  30  1   
 12   6  31  1   
 13   7  32  1   
 14   7  33  1   
 15   7  34  1   
 16   8   9  1   
 17   8  10  1   
 18   8  35  1   
 19   9  11  1   
 20   9  12  1   
 21   9  36  1   
 22  10  13  1   
 23  10  37  1   
 24  10  38  1   
 25  11  39  1   
 26  12  13  1   
 27  12  40  1   
 28  12  41  1   
 29  13  14  1   
 30  14  15  1   
 31  14  42  1   
 32  14  43  1   
 33  15  16  1   
 34  15  17  2   
 35  16  18  2   
 36  17  19  1   
 37  17  44  1   
 38  18  20  1   
 39  18  21  1   
 40  19  21  am  
 41  19  22  2   
 42  20  23  1   
 43  21  24  1   
 44  23  24  2   
 45  23  25  1   
 46  25  26  1   
 47  25  45  1   
 48  25  46  1   
 49  26  47  1   
 50  26  48  1   
 51  26  49  1   
@<TRIPOS>SUBSTRUCTURE
  1 ****  13 GROUP 4 **** **** 0

# MOE 2024.06 (io_trps.svl 2023.06)
