@<TRIPOS>MOLECULE
NONAME
61 64 1 0 0 
SMALL
USER_CHARGES


@<TRIPOS>ATOM
  1 O       -1.3910     0.2290    -1.3050 O.2   1 <1>  -0.5700 
  2 C       -1.9410     0.5460    -0.2810 C.2   1 <1>   0.5690 
  3 N       -2.4890    -0.3650     0.5530 N.am  1 <1>  -0.7300 
  4 C       -2.0150     2.0120     0.0780 C.3   1 <1>  -0.0990 
  5 C       -2.3960    -1.8370     0.3840 C.3   1 <1>   0.2200 
  6 C       -0.9320     2.7680    -0.6940 C.3   1 <1>   0.3430 
  7 C       -3.7550    -2.4460     0.0630 C.3   1 <1>  -0.0800 
  8 C       -2.1350    -2.4610     1.7480 C.3   1 <1>   0.1200 
  9 N       -0.9880     4.2420    -0.4510 N.4   1 <1>  -0.9590 
 10 C       -4.3930    -2.6270     1.4470 C.3   1 <1>   0.1200 
 11 C       -4.6100    -1.6800    -0.9660 C.3   1 <1>  -0.0170 
 12 O       -3.3730    -2.4290     2.3850 O.3   1 <1>  -0.5600 
 13 C       -0.0980     4.9570    -1.4370 C.3   1 <1>   0.3430 
 14 C       -0.5890     4.6200     0.9550 C.3   1 <1>   0.3430 
 15 C       -5.8540    -2.4800    -1.3480 C.ar  1 <1>  -0.1440 
 16 C       -0.0030     6.4740    -1.1490 C.3   1 <1>   0.2000 
 17 C       -0.4740     6.1520     1.1390 C.3   1 <1>   0.2000 
 18 C       -7.1290    -2.2900    -0.7600 C.ar  1 <1>   0.0000 
 19 C       -5.7430    -3.4440    -2.3080 C.ar  1 <1>  -0.1500 
 20 O        0.3840     6.6800     0.1760 O.3   1 <1>  -0.5600 
 21 C        1.0430     7.1570    -2.0250 C.3   1 <1>  -0.2400 
 22 C        0.1110     6.5200     2.5000 C.3   1 <1>  -0.2400 
 23 C       -8.1830    -3.1340    -1.1930 C.ar  1 <1>   0.3100 
 24 C       -7.4310    -1.3180     0.2240 C.ar  1 <1>  -0.1500 
 25 C       -6.8530    -4.2150    -2.6710 C.ar  1 <1>   0.1600 
 26 N       -8.0290    -4.0870    -2.1460 N.ar  1 <1>  -0.6200 
 27 C       -9.4560    -2.9880    -0.6190 C.ar  1 <1>  -0.1500 
 28 C       -8.6840    -1.2000     0.7620 C.ar  1 <1>  -0.1500 
 29 C       -9.7110    -2.0460     0.3400 C.ar  1 <1>  -0.1500 
 30 H       -2.9730    -0.1030     1.4170 H     1 <1>   0.3700 
 31 H       -2.9890     2.3740    -0.1950 H     1 <1>   0.0800 
 32 H       -1.8690     2.1130     1.1360 H     1 <1>   0.0800 
 33 H       -1.6400    -2.0990    -0.3380 H     1 <1>   0.0800 
 34 H       -1.0690     2.5730    -1.7460 H     1 <1>   0.0800 
 35 H        0.0380     2.3840    -0.4190 H     1 <1>   0.0800 
 36 H       -3.5780    -3.4330    -0.3300 H     1 <1>   0.0800 
 37 H       -1.4100    -1.9190     2.3290 H     1 <1>   0.0800 
 38 H       -1.8350    -3.4910     1.6520 H     1 <1>   0.0800 
 39 H       -1.9480     4.5720    -0.6140 H     1 <1>   0.4500 
 40 H       -4.7960    -3.6170     1.5730 H     1 <1>   0.0800 
 41 H       -5.1560    -1.8980     1.6450 H     1 <1>   0.0800 
 42 H       -4.0170    -1.5270    -1.8510 H     1 <1>   0.0800 
 43 H       -4.8730    -0.7050    -0.6050 H     1 <1>   0.0800 
 44 H        0.8970     4.5470    -1.3900 H     1 <1>   0.0800 
 45 H       -0.4660     4.8110    -2.4390 H     1 <1>   0.0800 
 46 H       -1.3070     4.2360     1.6600 H     1 <1>   0.0800 
 47 H        0.3690     4.1850     1.1890 H     1 <1>   0.0800 
 48 H       -0.9590     6.9480    -1.3010 H     1 <1>   0.0800 
 49 H       -1.4380     6.6190     1.0290 H     1 <1>   0.0800 
 50 H       -4.8100    -3.6390    -2.8040 H     1 <1>   0.1500 
 51 H        2.0160     6.7280    -1.8600 H     1 <1>   0.0800 
 52 H        1.0820     8.2080    -1.7940 H     1 <1>   0.0800 
 53 H        0.7900     7.0530    -3.0650 H     1 <1>   0.0800 
 54 H        1.0940     6.0990     2.6180 H     1 <1>   0.0800 
 55 H       -0.5190     6.1580     3.2930 H     1 <1>   0.0800 
 56 H        0.1780     7.5910     2.5890 H     1 <1>   0.0800 
 57 H       -6.6670    -0.6490     0.5630 H     1 <1>   0.1500 
 58 H       -6.7180    -4.9630    -3.4330 H     1 <1>   0.1500 
 59 H      -10.2300    -3.6470    -0.9630 H     1 <1>   0.1500 
 60 H       -8.8970    -0.4590     1.5130 H     1 <1>   0.1500 
 61 H      -10.6920    -1.9460     0.7710 H     1 <1>   0.1500 
@<TRIPOS>BOND
  1   1   2  2   
  2   2   3  am  
  3   2   4  1   
  4   3   5  1   
  5   3  30  1   
  6   4   6  1   
  7   4  31  1   
  8   4  32  1   
  9   5   7  1   
 10   5   8  1   
 11   5  33  1   
 12   6   9  1   
 13   6  34  1   
 14   6  35  1   
 15   7  10  1   
 16   7  11  1   
 17   7  36  1   
 18   8  12  1   
 19   8  37  1   
 20   8  38  1   
 21   9  13  1   
 22   9  14  1   
 23   9  39  1   
 24  10  12  1   
 25  10  40  1   
 26  10  41  1   
 27  11  15  1   
 28  11  42  1   
 29  11  43  1   
 30  13  16  1   
 31  13  44  1   
 32  13  45  1   
 33  14  17  1   
 34  14  46  1   
 35  14  47  1   
 36  15  18  ar  
 37  15  19  ar  
 38  16  20  1   
 39  16  21  1   
 40  16  48  1   
 41  17  20  1   
 42  17  22  1   
 43  17  49  1   
 44  18  23  ar  
 45  18  24  ar  
 46  19  25  ar  
 47  19  50  1   
 48  21  51  1   
 49  21  52  1   
 50  21  53  1   
 51  22  54  1   
 52  22  55  1   
 53  22  56  1   
 54  23  26  ar  
 55  23  27  ar  
 56  24  28  ar  
 57  24  57  1   
 58  25  26  ar  
 59  25  58  1   
 60  27  29  ar  
 61  27  59  1   
 62  28  29  ar  
 63  28  60  1   
 64  29  61  1   
@<TRIPOS>SUBSTRUCTURE
  1 ****   3 GROUP 4 **** **** 0

# MOE 2024.06 (io_trps.svl 2023.06)
