@<TRIPOS>MOLECULE
NONAME
57 60 1 0 0 
SMALL
USER_CHARGES


@<TRIPOS>ATOM
  1 O        4.1220    -0.2530     1.1820 O.2   1 <1>  -0.5700 
  2 C        3.2790    -0.7150     0.4300 C.2   1 <1>   0.5440 
  3 N        3.2780    -0.2000    -0.8490 N.am  1 <1>  -0.6600 
  4 C        2.3950    -1.7990     0.8590 C.ar  1 <1>   0.3960 
  5 C        3.8900    -0.9900    -1.9610 C.3   1 <1>   0.1400 
  6 C        3.1600     1.2660    -1.0910 C.3   1 <1>   0.1400 
  7 N        1.9070    -2.6700    -0.0390 N.ar  1 <1>  -0.6200 
  8 C        2.0840    -1.9110     2.2190 C.ar  1 <1>   0.1600 
  9 C        5.4190    -1.1110    -1.7770 C.3   1 <1>   0.3430 
 10 C        4.5020     2.0070    -0.9520 C.3   1 <1>  -0.1600 
 11 C        1.1240    -3.5880     0.5000 C.ar  1 <1>   0.1600 
 12 N        1.3060    -2.8340     2.7560 N.ar  1 <1>  -0.6200 
 13 N        5.9800     0.0540    -1.0230 N.4   1 <1>  -0.9590 
 14 C        5.6890     1.3610    -1.6700 C.3   1 <1>   0.3430 
 15 C        0.8280    -3.6730     1.8580 C.ar  1 <1>   0.1670 
 16 C        7.4040    -0.1210    -0.6250 C.3   1 <1>   0.5230 
 17 C       -0.0810    -4.7640     2.3870 C.3   1 <1>  -0.0970 
 18 C        7.7940     0.9010     0.4260 C.2   1 <1>  -0.0400 
 19 O        8.0360     2.1430     0.0530 O.3   1 <1>  -0.2800 
 20 C        7.9690     0.7700     1.7590 C.2   1 <1>  -0.1500 
 21 C        8.3910     2.8320     1.1230 C.2   1 <1>  -0.0400 
 22 C        8.3610     2.0340     2.2140 C.2   1 <1>  -0.1500 
 23 C        8.7520     4.3080     0.9600 C.3   1 <1>   0.3800 
 24 O        9.8110     4.4100     0.0510 O.3   1 <1>  -0.5600 
 25 C        9.1670     4.9720     2.2840 C.3   1 <1>  -0.1600 
 26 C       10.1660     5.7120    -0.3020 C.3   1 <1>   0.1200 
 27 C        9.6180     6.4210     2.0610 C.3   1 <1>  -0.1600 
 28 C       10.6620     6.4640     0.9390 C.3   1 <1>  -0.1600 
 29 H        3.6770    -0.5120    -2.9010 H     1 <1>   0.0800 
 30 H        3.4540    -1.9740    -2.0010 H     1 <1>   0.0800 
 31 H        2.4570     1.6810    -0.3860 H     1 <1>   0.0800 
 32 H        2.7550     1.4260    -2.0760 H     1 <1>   0.0800 
 33 H        2.5090    -1.1890     2.8950 H     1 <1>   0.1500 
 34 H        5.8930    -1.2060    -2.7400 H     1 <1>   0.0800 
 35 H        5.6150    -2.0150    -1.2230 H     1 <1>   0.0800 
 36 H        4.7420     2.1260     0.0900 H     1 <1>   0.0800 
 37 H        4.3720     2.9990    -1.3460 H     1 <1>   0.0800 
 38 H        0.6920    -4.3140    -0.1670 H     1 <1>   0.1500 
 39 H        5.4380     0.0880    -0.1320 H     1 <1>   0.4500 
 40 H        6.5420     2.0160    -1.5950 H     1 <1>   0.0800 
 41 H        5.4660     1.2260    -2.7150 H     1 <1>   0.0800 
 42 H        8.0510    -0.0200    -1.4810 H     1 <1>   0.0800 
 43 H        7.5400    -1.1050    -0.2080 H     1 <1>   0.0800 
 44 H       -0.4270    -5.4040     1.5960 H     1 <1>   0.0800 
 45 H       -0.9310    -4.3190     2.8720 H     1 <1>   0.0800 
 46 H        0.4520    -5.3580     3.1070 H     1 <1>   0.0800 
 47 H        7.8540    -0.0990     2.3840 H     1 <1>   0.1500 
 48 H        8.5910     2.2780     3.2370 H     1 <1>   0.1500 
 49 H        7.9070     4.8250     0.5390 H     1 <1>   0.0800 
 50 H        9.9750     4.4060     2.7140 H     1 <1>   0.0800 
 51 H        8.3420     4.9500     2.9720 H     1 <1>   0.0800 
 52 H        9.3100     6.1980    -0.7380 H     1 <1>   0.0800 
 53 H       10.9470     5.6500    -1.0400 H     1 <1>   0.0800 
 54 H       10.0320     6.8260     2.9690 H     1 <1>   0.0800 
 55 H        8.7690     7.0220     1.7820 H     1 <1>   0.0800 
 56 H       10.8790     7.4850     0.6800 H     1 <1>   0.0800 
 57 H       11.5770     6.0090     1.2740 H     1 <1>   0.0800 
@<TRIPOS>BOND
  1   1   2  2   
  2   2   3  am  
  3   2   4  1   
  4   3   5  1   
  5   3   6  1   
  6   4   7  ar  
  7   4   8  ar  
  8   5   9  1   
  9   5  29  1   
 10   5  30  1   
 11   6  10  1   
 12   6  31  1   
 13   6  32  1   
 14   7  11  ar  
 15   8  12  ar  
 16   8  33  1   
 17   9  13  1   
 18   9  34  1   
 19   9  35  1   
 20  10  14  1   
 21  10  36  1   
 22  10  37  1   
 23  11  15  ar  
 24  11  38  1   
 25  12  15  ar  
 26  13  14  1   
 27  13  16  1   
 28  13  39  1   
 29  14  40  1   
 30  14  41  1   
 31  15  17  1   
 32  16  18  1   
 33  16  42  1   
 34  16  43  1   
 35  17  44  1   
 36  17  45  1   
 37  17  46  1   
 38  18  19  1   
 39  18  20  2   
 40  19  21  1   
 41  20  22  1   
 42  20  47  1   
 43  21  22  2   
 44  21  23  1   
 45  22  48  1   
 46  23  24  1   
 47  23  25  1   
 48  23  49  1   
 49  24  26  1   
 50  25  27  1   
 51  25  50  1   
 52  25  51  1   
 53  26  28  1   
 54  26  52  1   
 55  26  53  1   
 56  27  28  1   
 57  27  54  1   
 58  27  55  1   
 59  28  56  1   
 60  28  57  1   
@<TRIPOS>SUBSTRUCTURE
  1 ****  13 GROUP 4 **** **** 0

# MOE 2024.06 (io_trps.svl 2023.06)
