@<TRIPOS>MOLECULE
NONAME
40 42 1 0 0 
SMALL
USER_CHARGES


@<TRIPOS>ATOM
  1 O       -0.7020     0.3690     1.5000 O.2   1 <1>  -0.5700 
  2 C       -1.6880     0.9490     1.0820 C.2   1 <1>   0.7150 
  3 N       -2.8000     0.1930     0.7680 N.am  1 <1>  -0.6600 
  4 C       -1.6880     2.3880     0.9200 C.2   1 <1>   0.0550 
  5 C       -3.8670     0.6350    -0.1690 C.3   1 <1>   0.1400 
  6 C       -2.8120    -1.2880     0.8910 C.3   1 <1>   0.1400 
  7 O       -0.6330     3.0150     0.4080 O.3   1 <1>  -0.2800 
  8 C       -2.6370     3.3230     1.2090 C.2   1 <1>  -0.1500 
  9 C       -4.7840    -0.5780    -0.3100 C.3   1 <1>   0.2000 
 10 C       -3.8380    -1.7710    -0.1410 C.3   1 <1>  -0.0800 
 11 C       -0.8760     4.3060     0.3590 C.2   1 <1>  -0.0400 
 12 C       -2.1110     4.5620     0.8440 C.2   1 <1>  -0.1500 
 13 O       -5.6920    -0.5520     0.7370 O.3   1 <1>  -0.6800 
 14 C       -4.5240    -3.0990     0.2330 C.3   1 <1>   0.0200 
 15 C        0.2000     5.2250    -0.1910 C.3   1 <1>   0.3000 
 16 C       -3.5640    -4.2770     0.2600 C.2   1 <1>  -0.0400 
 17 O       -0.3480     6.4690    -0.4620 O.3   1 <1>  -0.6800 
 18 O       -3.9960    -5.4240     0.7120 O.3   1 <1>  -0.0190 
 19 C       -2.2800    -4.4380    -0.0990 C.2   1 <1>  -0.1500 
 20 N       -3.0720    -6.3410     0.6790 N.2   1 <1>  -0.4100 
 21 C       -2.0260    -5.7750     0.1950 C.2   1 <1>   0.1080 
 22 C       -0.7030    -6.4750    -0.0210 C.3   1 <1>  -0.0590 
 23 H       -4.4060     1.4890     0.2020 H     1 <1>   0.0800 
 24 H       -3.4230     0.8730    -1.1200 H     1 <1>   0.0800 
 25 H       -1.8360    -1.7020     0.6980 H     1 <1>   0.0800 
 26 H       -3.1150    -1.5540     1.8890 H     1 <1>   0.0800 
 27 H       -3.6070     3.1670     1.6470 H     1 <1>   0.1500 
 28 H       -5.3310    -0.5900    -1.2370 H     1 <1>   0.0800 
 29 H       -3.3230    -1.9070    -1.0760 H     1 <1>   0.0800 
 30 H       -2.6040     5.5130     0.9490 H     1 <1>   0.1500 
 31 H       -5.2100    -0.4080     1.5760 H     1 <1>   0.4000 
 32 H       -5.3030    -3.3110    -0.4770 H     1 <1>   0.0800 
 33 H       -4.9830    -3.0150     1.2030 H     1 <1>   0.0800 
 34 H        0.5990     4.8270    -1.1080 H     1 <1>   0.0800 
 35 H        0.9960     5.3490     0.5230 H     1 <1>   0.0800 
 36 H       -1.1270     6.3550    -1.0380 H     1 <1>   0.4000 
 37 H       -1.5770    -3.7420    -0.5160 H     1 <1>   0.1500 
 38 H        0.0690    -5.9760     0.5350 H     1 <1>   0.0800 
 39 H       -0.4530    -6.4670    -1.0660 H     1 <1>   0.0800 
 40 H       -0.7690    -7.4950     0.3130 H     1 <1>   0.0800 
@<TRIPOS>BOND
  1   1   2  2   
  2   2   3  am  
  3   2   4  1   
  4   3   5  1   
  5   3   6  1   
  6   4   7  1   
  7   4   8  2   
  8   5   9  1   
  9   5  23  1   
 10   5  24  1   
 11   6  10  1   
 12   6  25  1   
 13   6  26  1   
 14   7  11  1   
 15   8  12  1   
 16   8  27  1   
 17   9  10  1   
 18   9  13  1   
 19   9  28  1   
 20  10  14  1   
 21  10  29  1   
 22  11  12  2   
 23  11  15  1   
 24  12  30  1   
 25  13  31  1   
 26  14  16  1   
 27  14  32  1   
 28  14  33  1   
 29  15  17  1   
 30  15  34  1   
 31  15  35  1   
 32  16  18  1   
 33  16  19  2   
 34  17  36  1   
 35  18  20  1   
 36  19  21  1   
 37  19  37  1   
 38  20  21  2   
 39  21  22  1   
 40  22  38  1   
 41  22  39  1   
 42  22  40  1   
@<TRIPOS>SUBSTRUCTURE
  1 ****   3 GROUP 4 **** **** 0

# MOE 2024.06 (io_trps.svl 2023.06)
