@<TRIPOS>MOLECULE
NONAME
58 61 1 0 0 
SMALL
USER_CHARGES


@<TRIPOS>ATOM
  1 O       -0.6790    -0.2960     2.6820 O.2   1 <1>  -0.5700 
  2 C       -1.1240     0.5130     1.9000 C.2   1 <1>   0.5690 
  3 N       -1.8420     0.1060     0.8010 N.am  1 <1>  -0.6600 
  4 C       -0.8880     2.0080     2.1800 C.3   1 <1>   0.1710 
  5 C       -2.6040     0.9670    -0.1370 C.3   1 <1>   0.1400 
  6 C       -2.0260    -1.3250     0.4630 C.3   1 <1>   0.1400 
  7 N        0.4160     2.5610     1.7150 N.3   1 <1>  -0.8100 
  8 C       -3.2690     0.0000    -1.1180 C.3   1 <1>   0.2000 
  9 C       -3.2670    -1.3640    -0.4300 C.3   1 <1>  -0.0800 
 10 C        0.5370     3.9990     2.0450 C.3   1 <1>   0.1100 
 11 C        0.6560     2.3460     0.2690 C.3   1 <1>   0.1100 
 12 O       -4.5700     0.3830    -1.4050 O.3   1 <1>  -0.6800 
 13 C       -3.2860    -2.5310    -1.4340 C.3   1 <1>  -0.0170 
 14 C        1.8920     4.5870     1.6060 C.3   1 <1>   0.2090 
 15 C        2.0180     2.9030    -0.1810 C.3   1 <1>   0.2090 
 16 C       -3.2420    -3.8780    -0.7330 C.ar  1 <1>   0.1670 
 17 N        2.1300     4.3520     0.1520 N.pl3 1 <1>  -0.8380 
 18 N       -2.0420    -4.3330    -0.4080 N.ar  1 <1>  -0.6200 
 19 C       -4.4250    -4.5630    -0.4610 C.ar  1 <1>   0.1600 
 20 C        3.2120     5.0230    -0.4060 C.ar  1 <1>   0.1000 
 21 C       -2.1050    -5.5020     0.2080 C.ar  1 <1>   0.1600 
 22 N       -4.4890    -5.7320     0.1540 N.ar  1 <1>  -0.6200 
 23 C        4.5210     4.7360    -0.0350 C.ar  1 <1>  -0.1500 
 24 C        2.9880     6.0040    -1.3600 C.ar  1 <1>  -0.1500 
 25 C       -3.2880    -6.1780     0.4800 C.ar  1 <1>   0.1600 
 26 C        5.5880     5.4140    -0.6020 C.ar  1 <1>  -0.1440 
 27 C        4.0450     6.6860    -1.9330 C.ar  1 <1>  -0.1500 
 28 C        5.3440     6.3910    -1.5540 C.ar  1 <1>  -0.1500 
 29 C        7.0160     5.0990    -0.1940 C.3   1 <1>  -0.0970 
 30 H       -0.9420     2.1360     3.2460 H     1 <1>   0.0800 
 31 H       -1.6880     2.5800     1.7500 H     1 <1>   0.0800 
 32 H       -3.3420     1.5270     0.4100 H     1 <1>   0.0800 
 33 H       -1.9440     1.6330    -0.6620 H     1 <1>   0.0800 
 34 H       -1.1560    -1.6730    -0.0690 H     1 <1>   0.0800 
 35 H       -2.1580    -1.9230     1.3500 H     1 <1>   0.0800 
 36 H       -2.7110    -0.0230    -2.0390 H     1 <1>   0.0800 
 37 H       -4.1190    -1.4410     0.2220 H     1 <1>   0.0800 
 38 H       -0.2480     4.5520     1.5590 H     1 <1>   0.0800 
 39 H        0.4340     4.1290     3.1080 H     1 <1>   0.0800 
 40 H        0.6340     1.2920     0.0520 H     1 <1>   0.0800 
 41 H       -0.1120     2.8320    -0.3050 H     1 <1>   0.0800 
 42 H       -5.1120     0.3870    -0.5920 H     1 <1>   0.4000 
 43 H       -2.4420    -2.4570    -2.0980 H     1 <1>   0.0800 
 44 H       -4.1750    -2.4660    -2.0350 H     1 <1>   0.0800 
 45 H        2.6780     4.1280     2.1800 H     1 <1>   0.0800 
 46 H        1.9060     5.6450     1.8000 H     1 <1>   0.0800 
 47 H        2.1290     2.7740    -1.2430 H     1 <1>   0.0800 
 48 H        2.8040     2.3550     0.3100 H     1 <1>   0.0800 
 49 H       -5.3590    -4.1240    -0.7620 H     1 <1>   0.1500 
 50 H       -1.1740    -5.9470     0.5130 H     1 <1>   0.1500 
 51 H        4.6920     3.9760     0.7030 H     1 <1>   0.1500 
 52 H        1.9760     6.2220    -1.6440 H     1 <1>   0.1500 
 53 H       -3.2360    -7.1260     0.9870 H     1 <1>   0.1500 
 54 H        3.8590     7.4450    -2.6710 H     1 <1>   0.1500 
 55 H        6.1630     6.9250    -2.0020 H     1 <1>   0.1500 
 56 H        7.4930     5.9860     0.1810 H     1 <1>   0.0800 
 57 H        7.5660     4.7390    -1.0450 H     1 <1>   0.0800 
 58 H        7.0390     4.3470     0.5740 H     1 <1>   0.0800 
@<TRIPOS>BOND
  1   1   2  2   
  2   2   3  am  
  3   2   4  1   
  4   3   5  1   
  5   3   6  1   
  6   4   7  1   
  7   4  30  1   
  8   4  31  1   
  9   5   8  1   
 10   5  32  1   
 11   5  33  1   
 12   6   9  1   
 13   6  34  1   
 14   6  35  1   
 15   7  10  1   
 16   7  11  1   
 17   8   9  1   
 18   8  12  1   
 19   8  36  1   
 20   9  13  1   
 21   9  37  1   
 22  10  14  1   
 23  10  38  1   
 24  10  39  1   
 25  11  15  1   
 26  11  40  1   
 27  11  41  1   
 28  12  42  1   
 29  13  16  1   
 30  13  43  1   
 31  13  44  1   
 32  14  17  1   
 33  14  45  1   
 34  14  46  1   
 35  15  17  1   
 36  15  47  1   
 37  15  48  1   
 38  16  18  ar  
 39  16  19  ar  
 40  17  20  1   
 41  18  21  ar  
 42  19  22  ar  
 43  19  49  1   
 44  20  23  ar  
 45  20  24  ar  
 46  21  25  ar  
 47  21  50  1   
 48  22  25  ar  
 49  23  26  ar  
 50  23  51  1   
 51  24  27  ar  
 52  24  52  1   
 53  25  53  1   
 54  26  28  ar  
 55  26  29  1   
 56  27  28  ar  
 57  27  54  1   
 58  28  55  1   
 59  29  56  1   
 60  29  57  1   
 61  29  58  1   
@<TRIPOS>SUBSTRUCTURE
  1 ****  11 GROUP 4 **** **** 0

# MOE 2024.06 (io_trps.svl 2023.06)
