@<TRIPOS>MOLECULE
NONAME
41 43 1 0 0 
SMALL
USER_CHARGES


@<TRIPOS>ATOM
  1 CL       1.1590     0.3930    -1.4850 Cl    1 <1>  -0.1770 
  2 C        0.6000     1.7440    -0.5240 C.ar  1 <1>   0.1770 
  3 C        1.4510     2.4290     0.3400 C.ar  1 <1>  -0.1440 
  4 C       -0.7290     2.1020    -0.6630 C.ar  1 <1>  -0.1500 
  5 C        0.9280     3.4950     1.0610 C.ar  1 <1>  -0.1500 
  6 C        2.9230     2.0690     0.5280 C.3   1 <1>   0.3640 
  7 C       -1.2330     3.1640     0.0650 C.ar  1 <1>  -0.1500 
  8 C       -0.4020     3.8590     0.9260 C.ar  1 <1>  -0.1500 
  9 N        3.0350     0.6750     1.0200 N.am  1 <1>  -0.7300 
 10 C        3.7740     2.3330    -0.7420 C.3   1 <1>   0.2610 
 11 C        3.8960    -0.2290     0.5020 C.2   1 <1>   0.5690 
 12 O        4.9780     1.5770    -0.7430 O.3   1 <1>  -0.5600 
 13 C        4.0180     3.8420    -0.8800 C.2   1 <1>   0.5690 
 14 O        3.9630    -1.3430     0.9550 O.2   1 <1>  -0.5700 
 15 C        4.7810     0.1810    -0.6790 C.3   1 <1>   0.1810 
 16 O        3.3530     4.4110    -1.7170 O.2   1 <1>  -0.5700 
 17 N        4.9030     4.5440    -0.0850 N.am  1 <1>  -0.6600 
 18 C        5.8220     3.9550     0.9330 C.3   1 <1>   0.1400 
 19 C        5.1650     5.9920    -0.3270 C.3   1 <1>   0.1400 
 20 C        7.2670     4.0890     0.4450 C.3   1 <1>  -0.1600 
 21 C        6.6050     6.1710    -0.8250 C.3   1 <1>  -0.1600 
 22 C        7.6240     5.5520     0.1440 C.3   1 <1>  -0.1600 
 23 H       -1.3600     1.5530    -1.3380 H     1 <1>   0.1500 
 24 H        1.5500     4.0590     1.7350 H     1 <1>   0.1500 
 25 H        3.3140     2.6990     1.3070 H     1 <1>   0.0800 
 26 H       -2.2660     3.4500    -0.0390 H     1 <1>   0.1500 
 27 H       -0.7920     4.6900     1.4900 H     1 <1>   0.1500 
 28 H        2.4020     0.3760     1.7620 H     1 <1>   0.3700 
 29 H        3.2220     2.0280    -1.6110 H     1 <1>   0.0800 
 30 H        4.3270    -0.1430    -1.5980 H     1 <1>   0.0800 
 31 H        5.7450    -0.2840    -0.5820 H     1 <1>   0.0800 
 32 H        5.7040     4.4900     1.8600 H     1 <1>   0.0800 
 33 H        5.6000     2.9220     1.1240 H     1 <1>   0.0800 
 34 H        4.4810     6.3920    -1.0560 H     1 <1>   0.0800 
 35 H        5.0240     6.5350     0.5910 H     1 <1>   0.0800 
 36 H        7.9340     3.7010     1.1940 H     1 <1>   0.0800 
 37 H        7.3880     3.4920    -0.4430 H     1 <1>   0.0800 
 38 H        6.6930     5.7050    -1.7910 H     1 <1>   0.0800 
 39 H        6.8110     7.2190    -0.9480 H     1 <1>   0.0800 
 40 H        8.6110     5.6060    -0.2830 H     1 <1>   0.0800 
 41 H        7.6280     6.1140     1.0620 H     1 <1>   0.0800 
@<TRIPOS>BOND
  1   1   2  1   
  2   2   3  ar  
  3   2   4  ar  
  4   3   5  ar  
  5   3   6  1   
  6   4   7  ar  
  7   4  23  1   
  8   5   8  ar  
  9   5  24  1   
 10   6   9  1   
 11   6  10  1   
 12   6  25  1   
 13   7   8  ar  
 14   7  26  1   
 15   8  27  1   
 16   9  11  am  
 17   9  28  1   
 18  10  12  1   
 19  10  13  1   
 20  10  29  1   
 21  11  14  2   
 22  11  15  1   
 23  12  15  1   
 24  13  16  2   
 25  13  17  am  
 26  15  30  1   
 27  15  31  1   
 28  17  18  1   
 29  17  19  1   
 30  18  20  1   
 31  18  32  1   
 32  18  33  1   
 33  19  21  1   
 34  19  34  1   
 35  19  35  1   
 36  20  22  1   
 37  20  36  1   
 38  20  37  1   
 39  21  22  1   
 40  21  38  1   
 41  21  39  1   
 42  22  40  1   
 43  22  41  1   
@<TRIPOS>SUBSTRUCTURE
  1 ****  10 GROUP 4 **** **** 0

# MOE 2024.06 (io_trps.svl 2023.06)
