@<TRIPOS>MOLECULE
NONAME
43 45 1 0 0 
SMALL
USER_CHARGES


@<TRIPOS>ATOM
  1 O        0.5040    -0.1940    -1.7770 O.2   1 <1>  -0.5700 
  2 C       -0.3080     0.6330    -1.4360 C.2   1 <1>   0.5690 
  3 N       -1.5080     0.2670    -0.8840 N.am  1 <1>  -0.6600 
  4 C        0.0390     2.0870    -1.6700 C.3   1 <1>   0.1570 
  5 C       -2.5560     1.1830    -0.3570 C.3   1 <1>   0.1400 
  6 C       -1.8650    -1.1470    -0.6120 C.3   1 <1>   0.1400 
  7 N        0.2230     2.7760    -0.3890 N.pl3 1 <1>   0.3140 
  8 C       -3.7060     0.2620     0.0480 C.3   1 <1>   0.2000 
  9 C       -3.0520    -1.0840     0.3500 C.3   1 <1>  -0.0800 
 10 N       -0.5530     3.8180    -0.0310 N.2   1 <1>  -0.7070 
 11 C        1.1280     2.4940     0.5690 C.2   1 <1>  -0.3020 
 12 O       -4.3730     0.7340     1.1670 O.3   1 <1>  -0.6800 
 13 C       -4.0180    -2.2710     0.2160 C.3   1 <1>   0.0210 
 14 C       -0.1220     4.1700     1.1390 C.2   1 <1>   0.1080 
 15 C        0.9330     3.3750     1.5710 C.2   1 <1>  -0.1500 
 16 C       -3.2880    -3.5890     0.3890 C.2   1 <1>   0.1080 
 17 C       -0.7250     5.3190     1.9120 C.3   1 <1>  -0.0590 
 18 N       -2.6640    -3.9110     1.4790 N.2   1 <1>  -0.7070 
 19 C       -3.1920    -4.5780    -0.5840 C.2   1 <1>  -0.1500 
 20 N       -2.1480    -5.1280     1.2290 N.pl3 1 <1>   0.3000 
 21 C       -2.4520    -5.5530    -0.0160 C.2   1 <1>  -0.3320 
 22 C       -2.0100    -6.8850    -0.5930 C.3   1 <1>  -0.0600 
 23 H       -0.7480     2.5660    -2.2170 H     1 <1>   0.0800 
 24 H        0.9500     2.1560    -2.2310 H     1 <1>   0.0800 
 25 H       -2.1730     1.7040     0.5030 H     1 <1>   0.0800 
 26 H       -2.8690     1.8850    -1.1090 H     1 <1>   0.0800 
 27 H       -2.1400    -1.6220    -1.5380 H     1 <1>   0.0800 
 28 H       -1.0360    -1.6780    -0.1730 H     1 <1>   0.0800 
 29 H       -4.4120     0.1850    -0.7610 H     1 <1>   0.0800 
 30 H       -2.6470    -1.0730     1.3470 H     1 <1>   0.0800 
 31 H        1.8430     1.6940     0.4840 H     1 <1>   0.1500 
 32 H       -3.7720     0.7470     1.9370 H     1 <1>   0.4000 
 33 H       -4.4960    -2.2530    -0.7460 H     1 <1>   0.0800 
 34 H       -4.7810    -2.1980     0.9700 H     1 <1>   0.0800 
 35 H        1.4600     3.4640     2.5040 H     1 <1>   0.1500 
 36 H       -0.2190     5.4480     2.8500 H     1 <1>   0.0800 
 37 H       -1.7650     5.1230     2.0940 H     1 <1>   0.0800 
 38 H       -0.6360     6.2220     1.3360 H     1 <1>   0.0800 
 39 H       -3.6220    -4.5470    -1.5690 H     1 <1>   0.1500 
 40 H       -1.5940    -5.6410     1.9260 H     1 <1>   0.2700 
 41 H       -2.3770    -6.9920    -1.5990 H     1 <1>   0.0800 
 42 H       -2.3960    -7.6950     0.0000 H     1 <1>   0.0800 
 43 H       -0.9360    -6.9440    -0.6130 H     1 <1>   0.0800 
@<TRIPOS>BOND
  1   1   2  2   
  2   2   3  am  
  3   2   4  1   
  4   3   5  1   
  5   3   6  1   
  6   4   7  1   
  7   4  23  1   
  8   4  24  1   
  9   5   8  1   
 10   5  25  1   
 11   5  26  1   
 12   6   9  1   
 13   6  27  1   
 14   6  28  1   
 15   7  10  1   
 16   7  11  1   
 17   8   9  1   
 18   8  12  1   
 19   8  29  1   
 20   9  13  1   
 21   9  30  1   
 22  10  14  2   
 23  11  15  2   
 24  11  31  1   
 25  12  32  1   
 26  13  16  1   
 27  13  33  1   
 28  13  34  1   
 29  14  15  1   
 30  14  17  1   
 31  15  35  1   
 32  16  18  2   
 33  16  19  1   
 34  17  36  1   
 35  17  37  1   
 36  17  38  1   
 37  18  20  1   
 38  19  21  2   
 39  19  39  1   
 40  20  21  1   
 41  20  40  1   
 42  21  22  1   
 43  22  41  1   
 44  22  42  1   
 45  22  43  1   
@<TRIPOS>SUBSTRUCTURE
  1 ****   6 GROUP 4 **** **** 0

# MOE 2024.06 (io_trps.svl 2023.06)
