@<TRIPOS>MOLECULE
NONAME
40 42 1 0 0 
SMALL
USER_CHARGES


@<TRIPOS>ATOM
  1 O       -0.3330     0.2920     0.4850 O.2   1 <1>  -0.5700 
  2 C       -1.4020     0.8730     0.4930 C.2   1 <1>   0.7150 
  3 N       -2.5540     0.1300     0.3840 N.am  1 <1>  -0.6600 
  4 C       -1.4450     2.3110     0.5990 C.2   1 <1>  -0.2370 
  5 C       -3.8660     0.6670    -0.0530 C.3   1 <1>   0.1400 
  6 C       -2.5280    -1.3490     0.2590 C.3   1 <1>   0.1400 
  7 N       -0.5330     3.1480     0.0060 N.pl3 1 <1>   0.0480 
  8 C       -2.3360     3.1030     1.2800 C.2   1 <1>  -0.1500 
  9 C       -4.6140    -0.5370    -0.6230 C.3   1 <1>   0.2000 
 10 C       -3.9870    -1.7600     0.0420 C.3   1 <1>  -0.0800 
 11 C       -0.8700     4.4220     0.3090 C.2   1 <1>  -0.3020 
 12 C        0.6270     2.7550    -0.8210 C.3   1 <1>   0.0160 
 13 C       -1.9840     4.4420     1.0990 C.2   1 <1>   0.0190 
 14 O       -5.9690    -0.4830    -0.3350 O.3   1 <1>  -0.6800 
 15 C       -4.1650    -3.0420    -0.7890 C.3   1 <1>  -0.0170 
 16 C       -2.6750     5.5730     1.6510 C.1   1 <1>   0.5380 
 17 C       -3.5870    -4.2580    -0.0830 C.ar  1 <1>   0.1660 
 18 N       -3.2350     6.4650     2.0890 N.1   1 <1>  -0.5570 
 19 N       -2.2830    -4.4480    -0.2050 N.ar  1 <1>  -0.6200 
 20 C       -4.4220    -5.1030     0.6460 C.ar  1 <1>   0.1600 
 21 C       -1.8740    -5.5250     0.4450 C.ar  1 <1>   0.1600 
 22 N       -4.0150    -6.1790     1.2990 N.ar  1 <1>  -0.6200 
 23 C       -2.7120    -6.3610     1.1730 C.ar  1 <1>   0.1600 
 24 H       -4.3850     1.0670     0.8000 H     1 <1>   0.0800 
 25 H       -3.7360     1.4290    -0.8030 H     1 <1>   0.0800 
 26 H       -1.9210    -1.6210    -0.5880 H     1 <1>   0.0800 
 27 H       -2.1160    -1.8010     1.1450 H     1 <1>   0.0800 
 28 H       -3.1690     2.7710     1.8740 H     1 <1>   0.1500 
 29 H       -4.4940    -0.5680    -1.6930 H     1 <1>   0.0800 
 30 H       -4.4230    -1.9010     1.0150 H     1 <1>   0.0800 
 31 H       -0.3060     5.2690    -0.0430 H     1 <1>   0.1500 
 32 H        1.0750     3.6270    -1.2610 H     1 <1>   0.0800 
 33 H        0.3020     2.0860    -1.5970 H     1 <1>   0.0800 
 34 H        1.3480     2.2540    -0.2000 H     1 <1>   0.0800 
 35 H       -6.1140    -0.4600     0.6310 H     1 <1>   0.4000 
 36 H       -3.6850    -2.9310    -1.7460 H     1 <1>   0.0800 
 37 H       -5.2130    -3.2000    -0.9720 H     1 <1>   0.0800 
 38 H       -5.4730    -4.8780     0.6940 H     1 <1>   0.1500 
 39 H       -0.8250    -5.7560     0.4010 H     1 <1>   0.1500 
 40 H       -2.2850    -7.2150     1.6690 H     1 <1>   0.1500 
@<TRIPOS>BOND
  1   1   2  2   
  2   2   3  am  
  3   2   4  1   
  4   3   5  1   
  5   3   6  1   
  6   4   7  1   
  7   4   8  2   
  8   5   9  1   
  9   5  24  1   
 10   5  25  1   
 11   6  10  1   
 12   6  26  1   
 13   6  27  1   
 14   7  11  1   
 15   7  12  1   
 16   8  13  1   
 17   8  28  1   
 18   9  10  1   
 19   9  14  1   
 20   9  29  1   
 21  10  15  1   
 22  10  30  1   
 23  11  13  2   
 24  11  31  1   
 25  12  32  1   
 26  12  33  1   
 27  12  34  1   
 28  13  16  1   
 29  14  35  1   
 30  15  17  1   
 31  15  36  1   
 32  15  37  1   
 33  16  18  3   
 34  17  19  ar  
 35  17  20  ar  
 36  19  21  ar  
 37  20  22  ar  
 38  20  38  1   
 39  21  23  ar  
 40  21  39  1   
 41  22  23  ar  
 42  23  40  1   
@<TRIPOS>SUBSTRUCTURE
  1 ****   3 GROUP 4 **** **** 0

# MOE 2024.06 (io_trps.svl 2023.06)
