@<TRIPOS>MOLECULE
NONAME
43 44 1 0 0 
SMALL
USER_CHARGES


@<TRIPOS>ATOM
  1 S        0.3170     0.4050    -1.0520 S.o2  1 <1>   1.3330 
  2 O       -0.7900     1.2600    -1.4160 O.2   1 <1>  -0.6500 
  3 O        0.5240    -0.8370    -1.7640 O.2   1 <1>  -0.6500 
  4 N        0.1350     0.0300     0.5960 N.am  1 <1>  -0.8490 
  5 C        1.8440     1.3450    -1.1190 C.3   1 <1>  -0.0550 
  6 C       -0.6890    -1.1650     0.8000 C.3   1 <1>   0.1160 
  7 C       -0.4010     1.1430     1.3880 C.3   1 <1>   0.1160 
  8 C        3.1110     0.5230    -0.7980 C.3   1 <1>  -0.0800 
  9 C        4.4210     1.2630    -1.0200 C.3   1 <1>   0.2200 
 10 C        3.2330     0.0540     0.6560 C.3   1 <1>   0.1200 
 11 N        4.3340     2.6520    -0.5140 N.am  1 <1>  -0.7300 
 12 C        5.3540     0.4620    -0.1220 C.3   1 <1>   0.1200 
 13 O        4.5890     0.1160     0.9920 O.3   1 <1>  -0.5600 
 14 C        4.1800     3.7870    -1.2620 C.2   1 <1>   0.5440 
 15 O        4.0460     3.6530    -2.4660 O.2   1 <1>  -0.5700 
 16 C        4.1590     5.1040    -0.6200 C.ar  1 <1>   0.3960 
 17 N        4.1950     5.1680     0.7240 N.ar  1 <1>  -0.6200 
 18 C        4.1020     6.2600    -1.3990 C.ar  1 <1>  -0.1500 
 19 C        4.1800     6.3660     1.2750 C.ar  1 <1>   0.1670 
 20 C        4.0840     7.5070    -0.8160 C.ar  1 <1>  -0.1500 
 21 C        4.1250     7.5500     0.5590 C.ar  1 <1>  -0.1500 
 22 C        4.2270     6.3980     2.7890 C.3   1 <1>  -0.0970 
 23 H        1.9500     1.7400    -2.1110 H     1 <1>   0.0800 
 24 H        1.7740     2.1810    -0.4520 H     1 <1>   0.0800 
 25 H       -0.7750    -1.3850     1.8500 H     1 <1>   0.0800 
 26 H       -0.2350    -2.0130     0.3160 H     1 <1>   0.0800 
 27 H       -1.6730    -1.0150     0.3860 H     1 <1>   0.0800 
 28 H       -0.4160     0.8800     2.4320 H     1 <1>   0.0800 
 29 H       -1.4030     1.3820     1.0720 H     1 <1>   0.0800 
 30 H        0.2160     2.0170     1.2680 H     1 <1>   0.0800 
 31 H        3.1170    -0.3520    -1.4250 H     1 <1>   0.0800 
 32 H        4.7370     1.2530    -2.0510 H     1 <1>   0.0800 
 33 H        2.8840    -0.9570     0.7820 H     1 <1>   0.0800 
 34 H        2.7040     0.7060     1.3290 H     1 <1>   0.0800 
 35 H        4.4280     2.7600     0.5020 H     1 <1>   0.3700 
 36 H        6.2180     1.0230     0.1880 H     1 <1>   0.0800 
 37 H        5.6590    -0.4490    -0.6070 H     1 <1>   0.0800 
 38 H        4.0720     6.1700    -2.4710 H     1 <1>   0.1500 
 39 H        4.0420     8.4060    -1.4080 H     1 <1>   0.1500 
 40 H        4.1150     8.4970     1.0670 H     1 <1>   0.1500 
 41 H        4.1960     7.4060     3.1580 H     1 <1>   0.0800 
 42 H        5.1320     5.9310     3.1300 H     1 <1>   0.0800 
 43 H        3.3870     5.8570     3.1870 H     1 <1>   0.0800 
@<TRIPOS>BOND
  1   1   2  2   
  2   1   3  2   
  3   1   4  am  
  4   1   5  1   
  5   4   6  1   
  6   4   7  1   
  7   5   8  1   
  8   5  23  1   
  9   5  24  1   
 10   6  25  1   
 11   6  26  1   
 12   6  27  1   
 13   7  28  1   
 14   7  29  1   
 15   7  30  1   
 16   8   9  1   
 17   8  10  1   
 18   8  31  1   
 19   9  11  1   
 20   9  12  1   
 21   9  32  1   
 22  10  13  1   
 23  10  33  1   
 24  10  34  1   
 25  11  14  am  
 26  11  35  1   
 27  12  13  1   
 28  12  36  1   
 29  12  37  1   
 30  14  15  2   
 31  14  16  1   
 32  16  17  ar  
 33  16  18  ar  
 34  17  19  ar  
 35  18  20  ar  
 36  18  38  1   
 37  19  21  ar  
 38  19  22  1   
 39  20  21  ar  
 40  20  39  1   
 41  21  40  1   
 42  22  41  1   
 43  22  42  1   
 44  22  43  1   
@<TRIPOS>SUBSTRUCTURE
  1 ****  11 GROUP 4 **** **** 0

# MOE 2024.06 (io_trps.svl 2023.06)
