@<TRIPOS>MOLECULE
NONAME
36 37 1 0 0 
SMALL
USER_CHARGES


@<TRIPOS>ATOM
  1 F       -1.2200    -0.2330    -1.2600 F     1 <1>  -0.1900 
  2 C       -2.0690    -1.0430    -0.6660 C.ar  1 <1>   0.1900 
  3 C       -3.1540    -0.6020     0.0870 C.ar  1 <1>   0.3930 
  4 C       -1.8740    -2.3930    -0.8010 C.ar  1 <1>   0.1600 
  5 O       -3.4860     0.6900     0.3140 O.3   1 <1>  -0.3620 
  6 N       -3.9660    -1.4670     0.6550 N.ar  1 <1>  -0.6200 
  7 N       -2.6830    -3.2670    -0.2380 N.ar  1 <1>  -0.6200 
  8 C       -2.7430     1.8030    -0.1310 C.3   1 <1>   0.0400 
  9 C       -3.6820    -2.7440     0.4670 C.ar  1 <1>   0.7200 
 10 N       -4.5280    -3.5960     1.0760 N.pl3 1 <1>  -0.8690 
 11 C       -4.8270    -4.9450     0.5240 C.3   1 <1>   0.3900 
 12 C       -6.2680    -5.3880     0.7930 C.2   1 <1>   0.3350 
 13 N       -7.1920    -4.6640     1.2950 N.2   1 <1>  -0.4100 
 14 N       -6.6700    -6.6210     0.5030 N.2   1 <1>  -0.5650 
 15 O       -8.2610    -5.3980     1.3640 O.3   1 <1>  -0.0190 
 16 C       -7.8850    -6.5530     0.8740 C.2   1 <1>   0.2980 
 17 C       -8.8910    -7.6880     0.8040 C.3   1 <1>   0.0200 
 18 C       -9.7540    -7.6610    -0.4740 C.3   1 <1>  -0.0800 
 19 C      -10.6540    -6.4180    -0.5440 C.3   1 <1>  -0.2400 
 20 C      -10.6210    -8.9240    -0.5550 C.3   1 <1>  -0.2400 
 21 H       -1.0440    -2.7590    -1.3790 H     1 <1>   0.1500 
 22 H       -3.2300     2.6930     0.2260 H     1 <1>   0.0800 
 23 H       -2.7250     1.8060    -1.2070 H     1 <1>   0.0800 
 24 H       -1.7480     1.7470     0.2730 H     1 <1>   0.0800 
 25 H       -5.3570    -3.1250     1.4430 H     1 <1>   0.4000 
 26 H       -4.1560    -5.6570     0.9700 H     1 <1>   0.0800 
 27 H       -4.6650    -4.9500    -0.5390 H     1 <1>   0.0800 
 28 H       -9.5180    -7.6540     1.6760 H     1 <1>   0.0800 
 29 H       -8.3410    -8.6120     0.8340 H     1 <1>   0.0800 
 30 H       -9.0930    -7.6510    -1.3260 H     1 <1>   0.0800 
 31 H      -11.2940    -6.3600     0.3180 H     1 <1>   0.0800 
 32 H      -11.2710    -6.4550    -1.4250 H     1 <1>   0.0800 
 33 H      -10.0630    -5.5210    -0.5960 H     1 <1>   0.0800 
 34 H      -11.3010    -8.9730     0.2780 H     1 <1>   0.0800 
 35 H      -10.0040    -9.8050    -0.5490 H     1 <1>   0.0800 
 36 H      -11.1950    -8.9240    -1.4650 H     1 <1>   0.0800 
@<TRIPOS>BOND
  1   1   2  1   
  2   2   3  ar  
  3   2   4  ar  
  4   3   5  1   
  5   3   6  ar  
  6   4   7  ar  
  7   4  21  1   
  8   5   8  1   
  9   6   9  ar  
 10   7   9  ar  
 11   8  22  1   
 12   8  23  1   
 13   8  24  1   
 14   9  10  1   
 15  10  11  1   
 16  10  25  1   
 17  11  12  1   
 18  11  26  1   
 19  11  27  1   
 20  12  13  2   
 21  12  14  1   
 22  13  15  1   
 23  14  16  2   
 24  15  16  1   
 25  16  17  1   
 26  17  18  1   
 27  17  28  1   
 28  17  29  1   
 29  18  19  1   
 30  18  20  1   
 31  18  30  1   
 32  19  31  1   
 33  19  32  1   
 34  19  33  1   
 35  20  34  1   
 36  20  35  1   
 37  20  36  1   
@<TRIPOS>SUBSTRUCTURE
  1 ****  11 GROUP 4 **** **** 0

# MOE 2024.06 (io_trps.svl 2023.06)
