@<TRIPOS>MOLECULE
NONAME
46 48 1 0 0 
SMALL
USER_CHARGES


@<TRIPOS>ATOM
  1 O       -0.3360     1.4050     1.7280 O.2   1 <1>  -0.5700 
  2 C       -0.1060     2.4380     1.1240 C.2   1 <1>   0.7160 
  3 N       -1.1560     3.2690     0.7920 N.am  1 <1>  -0.6600 
  4 C        1.2550     2.7620     0.7610 C.2   1 <1>  -0.0860 
  5 C       -2.5440     2.9920     1.2630 C.3   1 <1>   0.1400 
  6 C       -1.0540     4.2920    -0.2940 C.3   1 <1>   0.1400 
  7 C        2.2270     1.9630     0.2400 C.2   1 <1>  -0.0400 
  8 C        1.8820     4.0210     0.8880 C.2   1 <1>  -0.1500 
  9 C       -3.4060     2.4230     0.1140 C.3   1 <1>   0.0000 
 10 C       -2.3900     4.4870    -1.0300 C.3   1 <1>  -0.1600 
 11 O        3.3360     2.6320     0.0430 O.3   1 <1>  -0.2800 
 12 C        2.2050     0.4930    -0.1250 C.3   1 <1>  -0.0600 
 13 C        3.1410     3.8720     0.4320 C.2   1 <1>  -0.0400 
 14 C       -4.8930     2.4760     0.5100 C.3   1 <1>   0.2000 
 15 C       -3.1130     3.1480    -1.2380 C.3   1 <1>  -0.1600 
 16 C       -3.2030     0.9090    -0.0610 C.3   1 <1>  -0.1600 
 17 C        4.2840     4.8550     0.3180 C.3   1 <1>  -0.0600 
 18 O       -5.4390     3.7440     0.2940 O.3   1 <1>  -0.5600 
 19 C       -5.5860     1.4030    -0.3390 C.3   1 <1>  -0.1600 
 20 C       -4.4870     0.4040    -0.7300 C.3   1 <1>  -0.1600 
 21 C       -6.6830     3.9570     0.8810 C.3   1 <1>   0.0400 
 22 H       -2.5370     2.3170     2.1010 H     1 <1>   0.0800 
 23 H       -2.9750     3.9180     1.6060 H     1 <1>   0.0800 
 24 H       -0.7350     5.2290     0.1260 H     1 <1>   0.0800 
 25 H       -0.3130     3.9710    -1.0070 H     1 <1>   0.0800 
 26 H        1.4130     4.9020     1.2860 H     1 <1>   0.1500 
 27 H       -3.0220     5.1490    -0.4630 H     1 <1>   0.0800 
 28 H       -2.2070     4.9560    -1.9800 H     1 <1>   0.0800 
 29 H        1.2370     0.0670     0.0660 H     1 <1>   0.0800 
 30 H        2.9370    -0.0330     0.4590 H     1 <1>   0.0800 
 31 H        2.4380     0.3750    -1.1670 H     1 <1>   0.0800 
 32 H       -4.9890     2.2280     1.5540 H     1 <1>   0.0800 
 33 H       -2.4800     2.5350    -1.8550 H     1 <1>   0.0800 
 34 H       -4.0210     3.3110    -1.7910 H     1 <1>   0.0800 
 35 H       -2.3210     0.6650    -0.6260 H     1 <1>   0.0800 
 36 H       -3.1120     0.4430     0.9060 H     1 <1>   0.0800 
 37 H        3.9810     5.8220     0.6750 H     1 <1>   0.0800 
 38 H        4.5890     4.9380    -0.7090 H     1 <1>   0.0800 
 39 H        5.1170     4.5090     0.9030 H     1 <1>   0.0800 
 40 H       -6.3600     0.9170     0.2280 H     1 <1>   0.0800 
 41 H       -6.0060     1.8430    -1.2270 H     1 <1>   0.0800 
 42 H       -4.7230    -0.5960    -0.4090 H     1 <1>   0.0800 
 43 H       -4.3630     0.4070    -1.7990 H     1 <1>   0.0800 
 44 H       -6.9840     4.9670     0.6670 H     1 <1>   0.0800 
 45 H       -6.6030     3.8210     1.9460 H     1 <1>   0.0800 
 46 H       -7.4000     3.2720     0.4630 H     1 <1>   0.0800 
@<TRIPOS>BOND
  1   1   2  2   
  2   2   3  am  
  3   2   4  1   
  4   3   5  1   
  5   3   6  1   
  6   4   7  2   
  7   4   8  1   
  8   5   9  1   
  9   5  22  1   
 10   5  23  1   
 11   6  10  1   
 12   6  24  1   
 13   6  25  1   
 14   7  11  1   
 15   7  12  1   
 16   8  13  2   
 17   8  26  1   
 18   9  14  1   
 19   9  15  1   
 20   9  16  1   
 21  10  15  1   
 22  10  27  1   
 23  10  28  1   
 24  11  13  1   
 25  12  29  1   
 26  12  30  1   
 27  12  31  1   
 28  13  17  1   
 29  14  18  1   
 30  14  19  1   
 31  14  32  1   
 32  15  33  1   
 33  15  34  1   
 34  16  20  1   
 35  16  35  1   
 36  16  36  1   
 37  17  37  1   
 38  17  38  1   
 39  17  39  1   
 40  18  21  1   
 41  19  20  1   
 42  19  40  1   
 43  19  41  1   
 44  20  42  1   
 45  20  43  1   
 46  21  44  1   
 47  21  45  1   
 48  21  46  1   
@<TRIPOS>SUBSTRUCTURE
  1 ****   3 GROUP 4 **** **** 0

# MOE 2024.06 (io_trps.svl 2023.06)
