@<TRIPOS>MOLECULE
NONAME
51 53 1 0 0 
SMALL
USER_CHARGES


@<TRIPOS>ATOM
  1 S        0.3490    -0.0840    -1.0940 S.o2  1 <1>   1.3330 
  2 O        0.0180    -0.6620     0.1880 O.2   1 <1>  -0.6500 
  3 O       -0.2030    -0.6580    -2.3000 O.2   1 <1>  -0.6500 
  4 N       -0.1010     1.5540    -1.0580 N.am  1 <1>  -0.8490 
  5 C        2.1370    -0.0140    -1.2550 C.3   1 <1>  -0.0550 
  6 C       -0.1630     2.1730    -2.3870 C.3   1 <1>   0.1160 
  7 C       -1.3720     1.7610    -0.3570 C.3   1 <1>   0.1160 
  8 C        2.8540     0.7400    -0.1140 C.3   1 <1>  -0.0800 
  9 C        4.3040     1.0260    -0.4720 C.3   1 <1>   0.2200 
 10 C        3.0130    -0.1330     1.1320 C.3   1 <1>   0.1200 
 11 N        4.7890     2.1690     0.3330 N.am  1 <1>  -0.7300 
 12 C        5.0040    -0.2570    -0.0310 C.3   1 <1>   0.1200 
 13 O        4.2230    -0.8150     0.9850 O.3   1 <1>  -0.5600 
 14 C        5.2330     3.3720    -0.1280 C.2   1 <1>   0.7160 
 15 O        5.2290     3.5850    -1.3310 O.2   1 <1>  -0.5700 
 16 C        5.7030     4.3830     0.8070 C.2   1 <1>   0.2030 
 17 N        5.7090     4.2740     2.1250 N.2   1 <1>  -0.7070 
 18 C        6.2200     5.6320     0.4390 C.2   1 <1>  -0.1810 
 19 N        6.2170     5.4250     2.5920 N.pl3 1 <1>   0.3000 
 20 C        6.5360     6.2620     1.5820 C.2   1 <1>  -0.3320 
 21 C        6.4120     6.2060    -0.9490 C.3   1 <1>   0.5240 
 22 C        7.1310     7.6560     1.6400 C.3   1 <1>   0.0200 
 23 N        6.5270     7.6980    -0.8190 N.4   1 <1>  -0.9590 
 24 C        7.5460     8.0990     0.2190 C.3   1 <1>   0.3430 
 25 C        6.7920     8.3320    -2.1440 C.3   1 <1>   0.2630 
 26 H        2.5210    -1.0150    -1.3170 H     1 <1>   0.0800 
 27 H        2.3650     0.4720    -2.1830 H     1 <1>   0.0800 
 28 H       -0.3710     3.2250    -2.2950 H     1 <1>   0.0800 
 29 H       -0.9360     1.7130    -2.9810 H     1 <1>   0.0800 
 30 H        0.7780     2.0580    -2.8950 H     1 <1>   0.0800 
 31 H       -1.6240     2.8070    -0.3390 H     1 <1>   0.0800 
 32 H       -1.2910     1.4190     0.6620 H     1 <1>   0.0800 
 33 H       -2.1620     1.2120    -0.8430 H     1 <1>   0.0800 
 34 H        2.3220     1.6490     0.1060 H     1 <1>   0.0800 
 35 H        4.4510     1.2210    -1.5210 H     1 <1>   0.0800 
 36 H        2.2230    -0.8510     1.2650 H     1 <1>   0.0800 
 37 H        3.0890     0.4770     2.0160 H     1 <1>   0.0800 
 38 H        4.8340     2.0230     1.3470 H     1 <1>   0.3700 
 39 H        5.9990    -0.0810     0.3370 H     1 <1>   0.0800 
 40 H        5.0360    -0.9680    -0.8380 H     1 <1>   0.0800 
 41 H        6.3310     5.6040     3.6000 H     1 <1>   0.2700 
 42 H        5.5690     5.9490    -1.5710 H     1 <1>   0.0800 
 43 H        7.3040     5.7920    -1.3900 H     1 <1>   0.0800 
 44 H        6.4070     8.3450     2.0380 H     1 <1>   0.0800 
 45 H        7.9950     7.6700     2.2820 H     1 <1>   0.0800 
 46 H        5.6080     8.0010    -0.4690 H     1 <1>   0.4500 
 47 H        8.4910     7.6400    -0.0230 H     1 <1>   0.0800 
 48 H        7.6840     9.1680     0.2110 H     1 <1>   0.0800 
 49 H        7.7450     8.0090    -2.5310 H     1 <1>   0.0800 
 50 H        6.8040     9.4060    -2.0490 H     1 <1>   0.0800 
 51 H        6.0230     8.0610    -2.8500 H     1 <1>   0.0800 
@<TRIPOS>BOND
  1   1   2  2   
  2   1   3  2   
  3   1   4  am  
  4   1   5  1   
  5   4   6  1   
  6   4   7  1   
  7   5   8  1   
  8   5  26  1   
  9   5  27  1   
 10   6  28  1   
 11   6  29  1   
 12   6  30  1   
 13   7  31  1   
 14   7  32  1   
 15   7  33  1   
 16   8   9  1   
 17   8  10  1   
 18   8  34  1   
 19   9  11  1   
 20   9  12  1   
 21   9  35  1   
 22  10  13  1   
 23  10  36  1   
 24  10  37  1   
 25  11  14  am  
 26  11  38  1   
 27  12  13  1   
 28  12  39  1   
 29  12  40  1   
 30  14  15  2   
 31  14  16  1   
 32  16  17  2   
 33  16  18  1   
 34  17  19  1   
 35  18  20  2   
 36  18  21  1   
 37  19  20  1   
 38  19  41  1   
 39  20  22  1   
 40  21  23  1   
 41  21  42  1   
 42  21  43  1   
 43  22  24  1   
 44  22  44  1   
 45  22  45  1   
 46  23  24  1   
 47  23  25  1   
 48  23  46  1   
 49  24  47  1   
 50  24  48  1   
 51  25  49  1   
 52  25  50  1   
 53  25  51  1   
@<TRIPOS>SUBSTRUCTURE
  1 ****  14 GROUP 4 **** **** 0

# MOE 2024.06 (io_trps.svl 2023.06)
