@<TRIPOS>MOLECULE
NONAME
49 51 1 0 0 
SMALL
USER_CHARGES


@<TRIPOS>ATOM
  1 S       -0.4160     0.4360    -1.2120 S.o2  1 <1>   1.4470 
  2 O       -1.4410     1.4520    -1.3430 O.2   1 <1>  -0.6500 
  3 O        0.0760    -0.2160    -2.4060 O.2   1 <1>  -0.6500 
  4 N       -1.0390    -0.7430    -0.1620 N.am  1 <1>  -0.8490 
  5 C        1.0240     1.0950    -0.3020 C.ar  1 <1>  -0.0090 
  6 C       -1.8000    -1.8000    -0.8630 C.3   1 <1>   0.1960 
  7 C       -1.8310    -0.1610     0.9240 C.3   1 <1>   0.1960 
  8 C        1.5590     2.3630    -0.5470 C.ar  1 <1>  -0.1440 
  9 C        1.6510     0.3070     0.6610 C.ar  1 <1>  -0.1500 
 10 C       -2.1050    -2.9770     0.0850 C.3   1 <1>  -0.1060 
 11 C       -2.1780    -1.2290     1.9600 C.3   1 <1>  -0.1600 
 12 C        2.6530     2.8140     0.1760 C.ar  1 <1>  -0.1500 
 13 C        0.9720     3.2850    -1.6090 C.3   1 <1>  -0.0970 
 14 C        2.7450     0.7510     1.3820 C.ar  1 <1>  -0.1430 
 15 C       -3.0460    -3.9590    -0.6060 C.2   1 <1>   0.9060 
 16 C       -2.8860    -2.4010     1.2840 C.3   1 <1>   0.2000 
 17 C       -0.7930    -3.7010     0.5160 C.3   1 <1>  -0.0650 
 18 C        3.2430     2.0160     1.1370 C.ar  1 <1>  -0.1500 
 19 C        3.3800    -0.1530     2.4230 C.3   1 <1>  -0.0960 
 20 O       -3.3750    -3.7830    -1.7830 O.co2 1 <1>  -0.9000 
 21 O       -3.5110    -4.8940     0.0660 O.co2 1 <1>  -0.9000 
 22 O       -3.1070    -3.3830     2.2290 O.3   1 <1>  -0.6800 
 23 C        0.0320    -4.2640    -0.6520 C.3   1 <1>  -0.1950 
 24 C        1.4690    -4.6270    -0.4510 C.3   1 <1>  -0.2000 
 25 C        1.1020    -3.4550    -1.3160 C.3   1 <1>  -0.2000 
 26 H       -2.7200    -1.3870    -1.2460 H     1 <1>   0.0800 
 27 H       -1.2470    -2.1680    -1.7100 H     1 <1>   0.0800 
 28 H       -1.2710     0.6250     1.4030 H     1 <1>   0.0800 
 29 H       -2.7370     0.2660     0.5240 H     1 <1>   0.0800 
 30 H        1.2780    -0.6840     0.8540 H     1 <1>   0.1500 
 31 H       -2.8260    -0.8040     2.7030 H     1 <1>   0.0800 
 32 H       -1.2780    -1.5610     2.4440 H     1 <1>   0.0800 
 33 H        3.0590     3.7930    -0.0070 H     1 <1>   0.1500 
 34 H        1.6240     4.1180    -1.8020 H     1 <1>   0.0800 
 35 H        0.0220     3.6700    -1.2810 H     1 <1>   0.0800 
 36 H        0.8330     2.7550    -2.5350 H     1 <1>   0.0800 
 37 H       -3.8540    -2.0770     0.9390 H     1 <1>   0.0800 
 38 H       -0.1750    -3.0340     1.0860 H     1 <1>   0.0800 
 39 H       -1.0470    -4.5270     1.1590 H     1 <1>   0.0800 
 40 H        4.0910     2.3850     1.6870 H     1 <1>   0.1500 
 41 H        4.2900     0.2750     2.8020 H     1 <1>   0.0800 
 42 H        3.6080    -1.1090     1.9860 H     1 <1>   0.0800 
 43 H        2.6990    -0.3000     3.2420 H     1 <1>   0.0800 
 44 H       -3.3830    -4.1920     1.7060 H     1 <1>   0.4000 
 45 H       -0.5470    -4.9220    -1.2800 H     1 <1>   0.1000 
 46 H        1.9230    -4.4400     0.5060 H     1 <1>   0.1000 
 47 H        1.8380    -5.5230    -0.9180 H     1 <1>   0.1000 
 48 H        1.1910    -3.5290    -2.3860 H     1 <1>   0.1000 
 49 H        1.2900    -2.4580    -0.9590 H     1 <1>   0.1000 
@<TRIPOS>BOND
  1   1   2  2   
  2   1   3  2   
  3   1   4  am  
  4   1   5  1   
  5   4   6  1   
  6   4   7  1   
  7   5   8  ar  
  8   5   9  ar  
  9   6  10  1   
 10   6  26  1   
 11   6  27  1   
 12   7  11  1   
 13   7  28  1   
 14   7  29  1   
 15   8  12  ar  
 16   8  13  1   
 17   9  14  ar  
 18   9  30  1   
 19  10  15  1   
 20  10  16  1   
 21  10  17  1   
 22  11  16  1   
 23  11  31  1   
 24  11  32  1   
 25  12  18  ar  
 26  12  33  1   
 27  13  34  1   
 28  13  35  1   
 29  13  36  1   
 30  14  18  ar  
 31  14  19  1   
 32  15  20  ar  
 33  15  21  ar  
 34  16  22  1   
 35  16  37  1   
 36  17  23  1   
 37  17  38  1   
 38  17  39  1   
 39  18  40  1   
 40  19  41  1   
 41  19  42  1   
 42  19  43  1   
 43  22  44  1   
 44  23  24  1   
 45  23  25  1   
 46  23  45  1   
 47  24  25  1   
 48  24  46  1   
 49  24  47  1   
 50  25  48  1   
 51  25  49  1   
@<TRIPOS>SUBSTRUCTURE
  1 ****   4 GROUP 4 **** **** 0

# MOE 2024.06 (io_trps.svl 2023.06)
