@<TRIPOS>MOLECULE
NONAME
41 43 1 0 0 
SMALL
USER_CHARGES


@<TRIPOS>ATOM
  1 CL       0.7540     0.8760    -0.1090 Cl    1 <1>  -0.1770 
  2 C        1.9930    -0.2820     0.3220 C.ar  1 <1>   0.1770 
  3 C        3.1230     0.1620     1.0060 C.ar  1 <1>   0.0860 
  4 C        1.8250    -1.6130    -0.0420 C.ar  1 <1>  -0.1440 
  5 C        3.2970     1.5460     1.3780 C.2   1 <1>   0.5440 
  6 C        4.0980    -0.7820     1.3210 C.ar  1 <1>  -0.1500 
  7 C        2.8160    -2.5250     0.2860 C.ar  1 <1>  -0.1500 
  8 C        0.5810    -2.0770    -0.7850 C.3   1 <1>  -0.0960 
  9 O        3.0180     1.8810     2.5150 O.2   1 <1>  -0.5700 
 10 N        3.8030     2.4850     0.4970 N.am  1 <1>  -0.6600 
 11 C        3.9490    -2.1090     0.9650 C.ar  1 <1>  -0.1500 
 12 C        4.2530     3.8240     1.0030 C.3   1 <1>   0.1400 
 13 C        4.1240     2.1660    -0.9300 C.3   1 <1>   0.1400 
 14 C        5.7810     4.0560     0.9550 C.3   1 <1>   0.2200 
 15 C        5.6220     2.2110    -1.2920 C.3   1 <1>  -0.0190 
 16 N        6.2110     4.4690    -0.4120 N.am  1 <1>  -0.6600 
 17 C        6.6610     2.9020     1.5030 C.3   1 <1>   0.1200 
 18 C        6.1000     3.6320    -1.4830 C.2   1 <1>   0.5690 
 19 C        6.5970     1.4240    -0.3950 C.3   1 <1>   0.1200 
 20 C        6.7050     5.8690    -0.5500 C.3   1 <1>   0.0600 
 21 O        6.4040     1.6280     0.9710 O.3   1 <1>  -0.5600 
 22 O        6.3810     3.9840    -2.6050 O.2   1 <1>  -0.5700 
 23 H        4.9770    -0.4570     1.8520 H     1 <1>   0.1500 
 24 H        2.7130    -3.5620     0.0180 H     1 <1>   0.1500 
 25 H        0.6140    -3.1350    -0.9750 H     1 <1>   0.0800 
 26 H        0.5000    -1.5640    -1.7270 H     1 <1>   0.0800 
 27 H       -0.2970    -1.8660    -0.2000 H     1 <1>   0.0800 
 28 H        4.7150    -2.8220     1.2200 H     1 <1>   0.1500 
 29 H        3.7600     4.5940     0.4370 H     1 <1>   0.0800 
 30 H        3.9410     3.9470     2.0240 H     1 <1>   0.0800 
 31 H        3.7540     1.1890    -1.1780 H     1 <1>   0.0800 
 32 H        3.5940     2.8620    -1.5580 H     1 <1>   0.0800 
 33 H        5.9670     4.8950     1.6020 H     1 <1>   0.0800 
 34 H        5.6980     1.7580    -2.2630 H     1 <1>   0.0800 
 35 H        6.4880     2.8200     2.5610 H     1 <1>   0.0800 
 36 H        7.7020     3.1280     1.3530 H     1 <1>   0.0800 
 37 H        7.6180     1.6700    -0.6360 H     1 <1>   0.0800 
 38 H        6.4570     0.3720    -0.5660 H     1 <1>   0.0800 
 39 H        7.5550     6.0210     0.0910 H     1 <1>   0.0800 
 40 H        5.9250     6.5590    -0.2800 H     1 <1>   0.0800 
 41 H        7.0040     6.0720    -1.5650 H     1 <1>   0.0800 
@<TRIPOS>BOND
  1   1   2  1   
  2   2   3  ar  
  3   2   4  ar  
  4   3   5  1   
  5   3   6  ar  
  6   4   7  ar  
  7   4   8  1   
  8   5   9  2   
  9   5  10  am  
 10   6  11  ar  
 11   6  23  1   
 12   7  11  ar  
 13   7  24  1   
 14   8  25  1   
 15   8  26  1   
 16   8  27  1   
 17  10  12  1   
 18  10  13  1   
 19  11  28  1   
 20  12  14  1   
 21  12  29  1   
 22  12  30  1   
 23  13  15  1   
 24  13  31  1   
 25  13  32  1   
 26  14  16  1   
 27  14  17  1   
 28  14  33  1   
 29  15  18  1   
 30  15  19  1   
 31  15  34  1   
 32  16  18  am  
 33  16  20  1   
 34  17  21  1   
 35  17  35  1   
 36  17  36  1   
 37  18  22  2   
 38  19  21  1   
 39  19  37  1   
 40  19  38  1   
 41  20  39  1   
 42  20  40  1   
 43  20  41  1   
@<TRIPOS>SUBSTRUCTURE
  1 ****  10 GROUP 4 **** **** 0

# MOE 2024.06 (io_trps.svl 2023.06)
