@<TRIPOS>MOLECULE
NONAME
51 53 1 0 0 
SMALL
USER_CHARGES


@<TRIPOS>ATOM
  1 S        0.9790    -0.3130    -3.0400 S.3   1 <1>  -0.0800 
  2 C        1.3390    -0.7730    -1.3940 C.2   1 <1>   0.1980 
  3 C        0.9850     1.3510    -2.5450 C.2   1 <1>  -0.1100 
  4 N        1.4370     0.2100    -0.5900 N.2   1 <1>  -0.5650 
  5 C        1.4760    -2.2640    -1.1090 C.3   1 <1>   0.2900 
  6 C        1.2340     1.4400    -1.2210 C.2   1 <1>   0.1730 
  7 N        0.1990    -2.8290    -0.6010 N.3   1 <1>  -0.8100 
  8 C        1.2810     2.6580    -0.4300 C.ar  1 <1>   0.0540 
  9 C        0.1360    -4.2800    -0.8500 C.3   1 <1>   0.2900 
 10 C       -0.0200    -2.4790     0.8350 C.3   1 <1>   0.1100 
 11 C        1.9790     2.7180     0.7760 C.ar  1 <1>  -0.1500 
 12 C        0.6200     3.8140    -0.8460 C.ar  1 <1>  -0.1500 
 13 C       -1.2800    -4.7420    -0.5990 C.2   1 <1>  -0.3320 
 14 C       -1.5000    -2.1530     1.1260 C.3   1 <1>   0.3430 
 15 C        2.0110     3.8730     1.5360 C.ar  1 <1>  -0.1500 
 16 C        0.6480     4.9720    -0.0910 C.ar  1 <1>  -0.1500 
 17 N       -1.6680    -5.5800     0.3830 N.pl3 1 <1>   0.0330 
 18 C       -2.3990    -4.4080    -1.2760 C.2   1 <1>   0.0770 
 19 N       -2.0330    -1.2980     0.0320 N.4   1 <1>  -0.9590 
 20 C        1.3430     5.0040     1.1040 C.ar  1 <1>  -0.1500 
 21 C       -3.0110    -5.6630     0.2630 C.2   1 <1>   0.0060 
 22 N       -3.4870    -4.9580    -0.7100 N.2   1 <1>  -0.5650 
 23 C       -1.6940     0.1440     0.2180 C.3   1 <1>   0.2630 
 24 C       -3.4950    -1.5140    -0.1770 C.3   1 <1>   0.2630 
 25 C       -3.8660    -6.5140     1.1790 C.3   1 <1>  -0.0600 
 26 H        0.8010     2.0970    -3.2950 H     1 <1>   0.1500 
 27 H        2.2640    -2.4220    -0.3920 H     1 <1>   0.0800 
 28 H        1.7600    -2.7500    -2.0260 H     1 <1>   0.0800 
 29 H        0.8360    -4.8070    -0.2230 H     1 <1>   0.0800 
 30 H        0.3790    -4.4850    -1.8800 H     1 <1>   0.0800 
 31 H        0.5580    -1.6090     1.0990 H     1 <1>   0.0800 
 32 H        0.3100    -3.2780     1.4770 H     1 <1>   0.0800 
 33 H        2.5100     1.8500     1.1230 H     1 <1>   0.1500 
 34 H        0.0720     3.8150    -1.7700 H     1 <1>   0.1500 
 35 H       -1.6040    -1.6660     2.0810 H     1 <1>   0.0800 
 36 H       -2.0520    -3.0780     1.1560 H     1 <1>   0.0800 
 37 H        2.5580     3.8940     2.4630 H     1 <1>   0.1500 
 38 H        0.1300     5.8530    -0.4310 H     1 <1>   0.1500 
 39 H       -1.0870    -6.0780     1.0650 H     1 <1>   0.2700 
 40 H       -2.4790    -3.7780    -2.1470 H     1 <1>   0.1500 
 41 H       -1.5020    -1.6610    -0.7870 H     1 <1>   0.4500 
 42 H        1.3670     5.9050     1.6930 H     1 <1>   0.1500 
 43 H       -2.2730     0.5650     1.0220 H     1 <1>   0.0800 
 44 H       -1.8990     0.6940    -0.6860 H     1 <1>   0.0800 
 45 H       -0.6500     0.2560     0.4550 H     1 <1>   0.0800 
 46 H       -4.0530    -1.1390     0.6640 H     1 <1>   0.0800 
 47 H       -3.7100    -2.5640    -0.2870 H     1 <1>   0.0800 
 48 H       -3.8230    -1.0030    -1.0680 H     1 <1>   0.0800 
 49 H       -3.7580    -6.1930     2.1980 H     1 <1>   0.0800 
 50 H       -3.5790    -7.5460     1.0980 H     1 <1>   0.0800 
 51 H       -4.9000    -6.4260     0.8970 H     1 <1>   0.0800 
@<TRIPOS>BOND
  1   1   2  1   
  2   1   3  1   
  3   2   4  2   
  4   2   5  1   
  5   3   6  2   
  6   3  26  1   
  7   4   6  1   
  8   5   7  1   
  9   5  27  1   
 10   5  28  1   
 11   6   8  1   
 12   7   9  1   
 13   7  10  1   
 14   8  11  ar  
 15   8  12  ar  
 16   9  13  1   
 17   9  29  1   
 18   9  30  1   
 19  10  14  1   
 20  10  31  1   
 21  10  32  1   
 22  11  15  ar  
 23  11  33  1   
 24  12  16  ar  
 25  12  34  1   
 26  13  17  1   
 27  13  18  2   
 28  14  19  1   
 29  14  35  1   
 30  14  36  1   
 31  15  20  ar  
 32  15  37  1   
 33  16  20  ar  
 34  16  38  1   
 35  17  21  1   
 36  17  39  1   
 37  18  22  1   
 38  18  40  1   
 39  19  23  1   
 40  19  24  1   
 41  19  41  1   
 42  20  42  1   
 43  21  22  2   
 44  21  25  1   
 45  23  43  1   
 46  23  44  1   
 47  23  45  1   
 48  24  46  1   
 49  24  47  1   
 50  24  48  1   
 51  25  49  1   
 52  25  50  1   
 53  25  51  1   
@<TRIPOS>SUBSTRUCTURE
  1 ****  19 GROUP 4 **** **** 0

# MOE 2024.06 (io_trps.svl 2023.06)
