@<TRIPOS>MOLECULE
NONAME
35 36 1 0 0 
SMALL
USER_CHARGES


@<TRIPOS>ATOM
  1 O       -0.5200    -0.4750     0.2290 O.2   1 <1>  -0.5700 
  2 C       -1.6830    -0.1950    -0.0030 C.2   1 <1>   0.7150 
  3 N       -2.0180     1.1270    -0.1420 N.am  1 <1>  -0.7300 
  4 C       -2.7060    -1.2110    -0.1330 C.2   1 <1>   0.0550 
  5 C       -1.0850     2.2790    -0.0350 C.3   1 <1>   0.0600 
  6 O       -2.4070    -2.5040    -0.0310 O.3   1 <1>  -0.2800 
  7 C       -4.0460    -1.1030    -0.3620 C.2   1 <1>  -0.1500 
  8 C       -3.5010    -3.2160    -0.1860 C.2   1 <1>  -0.0400 
  9 C       -4.5560    -2.4010    -0.3970 C.2   1 <1>  -0.1500 
 10 C       -3.3970    -4.7310    -0.1170 C.3   1 <1>   0.2900 
 11 N       -4.7230    -5.3670     0.0300 N.3   1 <1>  -0.8100 
 12 C       -4.6760    -6.7900    -0.3830 C.3   1 <1>   0.2530 
 13 C       -5.2600    -5.1840     1.3880 C.3   1 <1>   0.0300 
 14 C       -6.0530    -7.4450    -0.4930 C.ar  1 <1>   0.1670 
 15 N       -6.6940    -7.3400    -1.6500 N.ar  1 <1>  -0.6200 
 16 C       -6.5650    -8.1360     0.6030 C.ar  1 <1>   0.1600 
 17 C       -7.8690    -7.9460    -1.6260 C.ar  1 <1>   0.1600 
 18 N       -7.7370    -8.7510     0.6280 N.ar  1 <1>  -0.6200 
 19 C       -8.3720    -8.6280    -0.5250 C.ar  1 <1>   0.1600 
 20 H       -2.9910     1.3540    -0.3450 H     1 <1>   0.3700 
 21 H       -0.0860     1.9390     0.1820 H     1 <1>   0.0800 
 22 H       -1.4050     2.9350     0.7560 H     1 <1>   0.0800 
 23 H       -1.0700     2.8230    -0.9630 H     1 <1>   0.0800 
 24 H       -4.6330    -0.2140    -0.4960 H     1 <1>   0.1500 
 25 H       -5.5810    -2.6860    -0.5650 H     1 <1>   0.1500 
 26 H       -2.7640    -5.0100     0.7080 H     1 <1>   0.0800 
 27 H       -2.9280    -5.0620    -1.0270 H     1 <1>   0.0800 
 28 H       -4.0660    -7.3450     0.3090 H     1 <1>   0.0800 
 29 H       -4.2130    -6.8580    -1.3530 H     1 <1>   0.0800 
 30 H       -5.2470    -4.1420     1.6570 H     1 <1>   0.0800 
 31 H       -4.6760    -5.7330     2.1060 H     1 <1>   0.0800 
 32 H       -6.2830    -5.5180     1.4290 H     1 <1>   0.0800 
 33 H       -5.9790    -8.1800     1.5030 H     1 <1>   0.1500 
 34 H       -8.4610    -7.9020    -2.5220 H     1 <1>   0.1500 
 35 H       -9.3400    -9.0910    -0.6040 H     1 <1>   0.1500 
@<TRIPOS>BOND
  1   1   2  2   
  2   2   3  am  
  3   2   4  1   
  4   3   5  1   
  5   3  20  1   
  6   4   6  1   
  7   4   7  2   
  8   5  21  1   
  9   5  22  1   
 10   5  23  1   
 11   6   8  1   
 12   7   9  1   
 13   7  24  1   
 14   8   9  2   
 15   8  10  1   
 16   9  25  1   
 17  10  11  1   
 18  10  26  1   
 19  10  27  1   
 20  11  12  1   
 21  11  13  1   
 22  12  14  1   
 23  12  28  1   
 24  12  29  1   
 25  13  30  1   
 26  13  31  1   
 27  13  32  1   
 28  14  15  ar  
 29  14  16  ar  
 30  15  17  ar  
 31  16  18  ar  
 32  16  33  1   
 33  17  19  ar  
 34  17  34  1   
 35  18  19  ar  
 36  19  35  1   
@<TRIPOS>SUBSTRUCTURE
  1 ****  10 GROUP 4 **** **** 0

# MOE 2024.06 (io_trps.svl 2023.06)
