@<TRIPOS>MOLECULE
NONAME
49 52 1 0 0 
SMALL
USER_CHARGES


@<TRIPOS>ATOM
  1 O        1.2040     0.1390    -2.2480 O.2   1 <1>  -0.5700 
  2 C        1.6770    -0.3010    -1.2120 C.2   1 <1>   0.5440 
  3 N        2.2640     0.6070    -0.3340 N.am  1 <1>  -0.6600 
  4 C        1.6520    -1.7560    -1.0080 C.ar  1 <1>   0.3960 
  5 C        3.0280     0.2020     0.8850 C.3   1 <1>   0.1400 
  6 C        2.3460     2.0640    -0.6510 C.3   1 <1>   0.1400 
  7 N        1.3280    -2.2890     0.1840 N.ar  1 <1>  -0.6200 
  8 C        1.9700    -2.5740    -2.0930 C.ar  1 <1>  -0.1500 
  9 C        4.4280    -0.3120     0.5210 C.3   1 <1>   0.1400 
 10 C        3.7920     2.5660    -0.8040 C.3   1 <1>  -0.1600 
 11 C        1.3240    -3.6030     0.2890 C.ar  1 <1>   0.1670 
 12 C        1.9690    -3.9460    -1.9790 C.ar  1 <1>  -0.1500 
 13 N        5.3150     0.7800     0.0010 N.am  1 <1>  -0.6600 
 14 C        4.8190     1.4990    -1.2080 C.3   1 <1>   0.1400 
 15 C        1.6350    -4.4650    -0.7490 C.ar  1 <1>  -0.1500 
 16 C        0.9480    -4.1560     1.6470 C.3   1 <1>  -0.0970 
 17 C        6.5470     1.0510     0.5870 C.2   1 <1>   0.7160 
 18 O        6.9900     0.2150     1.3630 O.2   1 <1>  -0.5700 
 19 C        7.3380     2.2580     0.3260 C.2   1 <1>   0.2030 
 20 N        6.9260     3.4370    -0.1390 N.2   1 <1>  -0.7070 
 21 C        8.7170     2.3350     0.5700 C.2   1 <1>  -0.1810 
 22 N        8.0190     4.2230    -0.1850 N.pl3 1 <1>   0.3000 
 23 C        9.1030     3.5590     0.2420 C.2   1 <1>  -0.3320 
 24 C        9.8560     1.4950     1.0790 C.3   1 <1>   0.0210 
 25 C       10.5670     3.8230     0.4460 C.3   1 <1>   0.0200 
 26 C       11.0770     2.4360     0.9110 C.3   1 <1>  -0.1600 
 27 H        2.4920    -0.5570     1.4220 H     1 <1>   0.0800 
 28 H        3.1240     1.0400     1.5530 H     1 <1>   0.0800 
 29 H        1.8530     2.6200     0.1270 H     1 <1>   0.0800 
 30 H        1.8170     2.2730    -1.5650 H     1 <1>   0.0800 
 31 H        2.2150    -2.1150    -3.0350 H     1 <1>   0.1500 
 32 H        4.3520    -1.0930    -0.2140 H     1 <1>   0.0800 
 33 H        4.8550    -0.7480     1.4060 H     1 <1>   0.0800 
 34 H        4.1110     3.0370     0.1080 H     1 <1>   0.0800 
 35 H        3.7890     3.3330    -1.5560 H     1 <1>   0.0800 
 36 H        2.2130    -4.5830    -2.8130 H     1 <1>   0.1500 
 37 H        5.6440     1.9670    -1.7150 H     1 <1>   0.0800 
 38 H        4.3830     0.8000    -1.9020 H     1 <1>   0.0800 
 39 H        1.6160    -5.5290    -0.6020 H     1 <1>   0.1500 
 40 H       -0.0380    -3.8190     1.9110 H     1 <1>   0.0800 
 41 H        1.6430    -3.8010     2.3860 H     1 <1>   0.0800 
 42 H        0.9590    -5.2300     1.6470 H     1 <1>   0.0800 
 43 H        7.9930     5.1990    -0.5040 H     1 <1>   0.2700 
 44 H        9.9600     0.5980     0.4950 H     1 <1>   0.0800 
 45 H        9.6920     1.2430     2.1120 H     1 <1>   0.0800 
 46 H       10.7130     4.5670     1.2100 H     1 <1>   0.0800 
 47 H       11.0410     4.1290    -0.4700 H     1 <1>   0.0800 
 48 H       11.7380     2.0300     0.1650 H     1 <1>   0.0800 
 49 H       11.6150     2.5220     1.8380 H     1 <1>   0.0800 
@<TRIPOS>BOND
  1   1   2  2   
  2   2   3  am  
  3   2   4  1   
  4   3   5  1   
  5   3   6  1   
  6   4   7  ar  
  7   4   8  ar  
  8   5   9  1   
  9   5  27  1   
 10   5  28  1   
 11   6  10  1   
 12   6  29  1   
 13   6  30  1   
 14   7  11  ar  
 15   8  12  ar  
 16   8  31  1   
 17   9  13  1   
 18   9  32  1   
 19   9  33  1   
 20  10  14  1   
 21  10  34  1   
 22  10  35  1   
 23  11  15  ar  
 24  11  16  1   
 25  12  15  ar  
 26  12  36  1   
 27  13  14  1   
 28  13  17  am  
 29  14  37  1   
 30  14  38  1   
 31  15  39  1   
 32  16  40  1   
 33  16  41  1   
 34  16  42  1   
 35  17  18  2   
 36  17  19  1   
 37  19  20  2   
 38  19  21  1   
 39  20  22  1   
 40  21  23  2   
 41  21  24  1   
 42  22  23  1   
 43  22  43  1   
 44  23  25  1   
 45  24  26  1   
 46  24  44  1   
 47  24  45  1   
 48  25  26  1   
 49  25  46  1   
 50  25  47  1   
 51  26  48  1   
 52  26  49  1   
@<TRIPOS>SUBSTRUCTURE
  1 ****  13 GROUP 4 **** **** 0

# MOE 2024.06 (io_trps.svl 2023.06)
