@<TRIPOS>MOLECULE
NONAME
38 39 1 0 0 
SMALL
USER_CHARGES


@<TRIPOS>ATOM
  1 O        0.2170    -0.4050    -1.2710 O.2   1 <1>  -0.5700 
  2 C        1.1120    -0.7630    -0.5290 C.2   1 <1>   0.7160 
  3 N        2.0380     0.1430    -0.0700 N.am  1 <1>  -0.4940 
  4 C        1.2340    -2.1390    -0.1150 C.2   1 <1>  -0.0860 
  5 C        2.1480     1.5330    -0.3140 C.2   1 <1>  -0.0880 
  6 C        0.3060    -3.1150     0.1150 C.2   1 <1>  -0.3320 
  7 C        2.4440    -2.7880     0.1480 C.2   1 <1>   0.1390 
  8 N        3.3140     2.1690    -0.6130 N.pl3 1 <1>   0.3140 
  9 C        1.1910     2.4920    -0.2960 C.2   1 <1>  -0.1810 
 10 N        0.9690    -4.2290     0.4890 N.pl3 1 <1>   0.3140 
 11 C       -1.2090    -3.0240    -0.0100 C.3   1 <1>  -0.0600 
 12 N        2.2960    -4.0170     0.5160 N.2   1 <1>  -0.7070 
 13 N        3.1300     3.4970    -0.7790 N.2   1 <1>  -0.7070 
 14 C        4.6420     1.5530    -0.8170 C.3   1 <1>   0.0960 
 15 C        1.8600     3.6750    -0.5920 C.2   1 <1>   0.1390 
 16 C       -0.2950     2.3680    -0.0160 C.3   1 <1>  -0.0590 
 17 C        0.4070    -5.5520     0.8390 C.3   1 <1>   0.0960 
 18 C        5.3680     1.3360     0.5170 C.3   1 <1>  -0.2400 
 19 C        0.2550    -6.4360    -0.4050 C.3   1 <1>  -0.2400 
 20 H        2.7070    -0.2450     0.5910 H     1 <1>   0.3700 
 21 H        3.4130    -2.3290     0.0540 H     1 <1>   0.1500 
 22 H       -1.5120    -2.0320    -0.2940 H     1 <1>   0.0800 
 23 H       -1.6780    -3.2600     0.9280 H     1 <1>   0.0800 
 24 H       -1.5610    -3.7080    -0.7620 H     1 <1>   0.0800 
 25 H        5.2180     2.2090    -1.4440 H     1 <1>   0.0800 
 26 H        4.5110     0.6200    -1.3330 H     1 <1>   0.0800 
 27 H        1.3850     4.6390    -0.6610 H     1 <1>   0.1500 
 28 H       -0.4900     1.4980     0.5830 H     1 <1>   0.0800 
 29 H       -0.8300     2.2740    -0.9440 H     1 <1>   0.0800 
 30 H       -0.6500     3.2360     0.5100 H     1 <1>   0.0800 
 31 H       -0.5440    -5.4110     1.3160 H     1 <1>   0.0800 
 32 H        1.0730    -6.0210     1.5400 H     1 <1>   0.0800 
 33 H        5.5030     2.2800     1.0170 H     1 <1>   0.0800 
 34 H        6.3370     0.9050     0.3380 H     1 <1>   0.0800 
 35 H        4.8100     0.6740     1.1540 H     1 <1>   0.0800 
 36 H       -0.4130    -5.9800    -1.1130 H     1 <1>   0.0800 
 37 H       -0.1410    -7.3960    -0.1260 H     1 <1>   0.0800 
 38 H        1.2150    -6.5840    -0.8690 H     1 <1>   0.0800 
@<TRIPOS>BOND
  1   1   2  2   
  2   2   3  am  
  3   2   4  1   
  4   3   5  1   
  5   3  20  1   
  6   4   6  2   
  7   4   7  1   
  8   5   8  1   
  9   5   9  2   
 10   6  10  1   
 11   6  11  1   
 12   7  12  2   
 13   7  21  1   
 14   8  13  1   
 15   8  14  1   
 16   9  15  1   
 17   9  16  1   
 18  10  12  1   
 19  10  17  1   
 20  11  22  1   
 21  11  23  1   
 22  11  24  1   
 23  13  15  2   
 24  14  18  1   
 25  14  25  1   
 26  14  26  1   
 27  15  27  1   
 28  16  28  1   
 29  16  29  1   
 30  16  30  1   
 31  17  19  1   
 32  17  31  1   
 33  17  32  1   
 34  18  33  1   
 35  18  34  1   
 36  18  35  1   
 37  19  36  1   
 38  19  37  1   
 39  19  38  1   
@<TRIPOS>SUBSTRUCTURE
  1 ****   2 GROUP 4 **** **** 0

# MOE 2024.06 (io_trps.svl 2023.06)
