@<TRIPOS>MOLECULE
NONAME
54 57 1 0 0 
SMALL
USER_CHARGES


@<TRIPOS>ATOM
  1 O        0.1350    -0.4860    -2.5200 O.2   1 <1>  -0.5700 
  2 C       -0.5750     0.3750    -2.0510 C.2   1 <1>   0.5690 
  3 N       -1.6880     0.0520    -1.3200 N.am  1 <1>  -0.6600 
  4 C       -0.1950     1.8430    -2.3080 C.3   1 <1>   0.1710 
  5 C       -2.5910     1.0220    -0.6520 C.3   1 <1>   0.1400 
  6 C       -2.0320    -1.3380    -0.9450 C.3   1 <1>   0.1400 
  7 N        0.0710     2.6580    -1.0880 N.3   1 <1>  -0.8100 
  8 C       -3.6520     0.1550     0.0260 C.3   1 <1>   0.2000 
  9 C       -2.9830    -1.2000     0.2440 C.3   1 <1>  -0.0800 
 10 C        1.2160     2.1030    -0.3260 C.3   1 <1>   0.1100 
 11 C        0.3590     4.0640    -1.4470 C.3   1 <1>   0.1100 
 12 O       -4.0570     0.6910     1.2380 O.3   1 <1>  -0.6800 
 13 C       -3.9860    -2.3570     0.3680 C.3   1 <1>   0.0200 
 14 C        1.5280     2.9140     0.9450 C.3   1 <1>   0.2090 
 15 C        0.6290     4.9400    -0.2090 C.3   1 <1>   0.2090 
 16 C       -3.2660    -3.6820     0.5180 C.2   1 <1>  -0.0400 
 17 N        1.7270     4.3650     0.6320 N.pl3 1 <1>  -0.8380 
 18 O       -2.5100    -3.9010     1.5600 O.3   1 <1>  -0.0190 
 19 C       -3.2240    -4.7750    -0.2590 C.2   1 <1>  -0.1500 
 20 C        2.7220     5.1330     1.2040 C.ar  1 <1>   0.7200 
 21 N       -1.9610    -5.0810     1.5220 N.2   1 <1>  -0.4100 
 22 C       -2.3740    -5.6310     0.4370 C.2   1 <1>   0.1080 
 23 N        2.7270     6.4360     0.9190 N.ar  1 <1>  -0.6200 
 24 N        3.5940     4.5100     1.9970 N.ar  1 <1>  -0.6200 
 25 C       -1.9820    -7.0200    -0.0150 C.3   1 <1>  -0.0590 
 26 C        3.6760     7.1530     1.4700 C.ar  1 <1>   0.1600 
 27 C        4.5320     5.2510     2.5340 C.ar  1 <1>   0.1600 
 28 C        4.6200     6.6000     2.2990 C.ar  1 <1>  -0.1500 
 29 H       -1.0000     2.2920    -2.8590 H     1 <1>   0.0800 
 30 H        0.6770     1.8550    -2.9380 H     1 <1>   0.0800 
 31 H       -2.0330     1.5830     0.0760 H     1 <1>   0.0800 
 32 H       -3.0350     1.6850    -1.3730 H     1 <1>   0.0800 
 33 H       -2.5180    -1.8130    -1.7800 H     1 <1>   0.0800 
 34 H       -1.1480    -1.8970    -0.6820 H     1 <1>   0.0800 
 35 H       -4.5150     0.0700    -0.6130 H     1 <1>   0.0800 
 36 H       -2.3750    -1.1590     1.1310 H     1 <1>   0.0800 
 37 H        0.9990     1.0900    -0.0340 H     1 <1>   0.0800 
 38 H        2.0960     2.0870    -0.9470 H     1 <1>   0.0800 
 39 H        1.2200     4.1090    -2.0910 H     1 <1>   0.0800 
 40 H       -0.4810     4.4750    -1.9800 H     1 <1>   0.0800 
 41 H       -3.2930     0.7830     1.8400 H     1 <1>   0.4000 
 42 H       -4.6170    -2.3920    -0.5010 H     1 <1>   0.0800 
 43 H       -4.6120    -2.1990     1.2290 H     1 <1>   0.0800 
 44 H        2.4010     2.4920     1.4090 H     1 <1>   0.0800 
 45 H        0.7090     2.8160     1.6350 H     1 <1>   0.0800 
 46 H       -0.2670     5.0030     0.3820 H     1 <1>   0.0800 
 47 H        0.8730     5.9320    -0.5440 H     1 <1>   0.0800 
 48 H       -3.7100    -4.9770    -1.1950 H     1 <1>   0.1500 
 49 H       -2.8600    -7.6290    -0.1250 H     1 <1>   0.0800 
 50 H       -1.3330    -7.4720     0.7130 H     1 <1>   0.0800 
 51 H       -1.4660    -6.9650    -0.9560 H     1 <1>   0.0800 
 52 H        3.7000     8.2070     1.2540 H     1 <1>   0.1500 
 53 H        5.2480     4.7690     3.1770 H     1 <1>   0.1500 
 54 H        5.3920     7.1970     2.7450 H     1 <1>   0.1500 
@<TRIPOS>BOND
  1   1   2  2   
  2   2   3  am  
  3   2   4  1   
  4   3   5  1   
  5   3   6  1   
  6   4   7  1   
  7   4  29  1   
  8   4  30  1   
  9   5   8  1   
 10   5  31  1   
 11   5  32  1   
 12   6   9  1   
 13   6  33  1   
 14   6  34  1   
 15   7  10  1   
 16   7  11  1   
 17   8   9  1   
 18   8  12  1   
 19   8  35  1   
 20   9  13  1   
 21   9  36  1   
 22  10  14  1   
 23  10  37  1   
 24  10  38  1   
 25  11  15  1   
 26  11  39  1   
 27  11  40  1   
 28  12  41  1   
 29  13  16  1   
 30  13  42  1   
 31  13  43  1   
 32  14  17  1   
 33  14  44  1   
 34  14  45  1   
 35  15  17  1   
 36  15  46  1   
 37  15  47  1   
 38  16  18  1   
 39  16  19  2   
 40  17  20  1   
 41  18  21  1   
 42  19  22  1   
 43  19  48  1   
 44  20  23  ar  
 45  20  24  ar  
 46  21  22  2   
 47  22  25  1   
 48  23  26  ar  
 49  24  27  ar  
 50  25  49  1   
 51  25  50  1   
 52  25  51  1   
 53  26  28  ar  
 54  26  52  1   
 55  27  28  ar  
 56  27  53  1   
 57  28  54  1   
@<TRIPOS>SUBSTRUCTURE
  1 ****  10 GROUP 4 **** **** 0

# MOE 2024.06 (io_trps.svl 2023.06)
