@<TRIPOS>MOLECULE
NONAME
53 55 1 0 0 
SMALL
USER_CHARGES


@<TRIPOS>ATOM
  1 S       -0.3190     0.1500     0.0980 S.o2  1 <1>   1.3330 
  2 O        0.4470    -0.3470    -1.0220 O.2   1 <1>  -0.6500 
  3 O       -1.7540    -0.0060     0.1270 O.2   1 <1>  -0.6500 
  4 N        0.0380     1.7940     0.2890 N.am  1 <1>  -0.8490 
  5 C        0.3340    -0.5510     1.5980 C.3   1 <1>  -0.1350 
  6 C        1.3350     2.1720    -0.2960 C.3   1 <1>   0.1960 
  7 C       -1.0180     2.6600    -0.2660 C.3   1 <1>   0.1960 
  8 C        1.6280     3.6700    -0.0840 C.3   1 <1>   0.2000 
  9 C       -0.6740     4.1500    -0.0800 C.3   1 <1>   0.1200 
 10 O        0.5830     4.4450    -0.6210 O.3   1 <1>  -0.5600 
 11 C        2.9520     4.0890    -0.7420 C.3   1 <1>   0.2090 
 12 N        3.1050     5.5630    -0.6710 N.pl3 1 <1>  -0.8690 
 13 C        4.1630     6.3440    -0.4190 C.ar  1 <1>   0.4100 
 14 N        3.8800     7.6110    -0.2360 N.ar  1 <1>  -0.6200 
 15 C        5.4780     5.8500    -0.3600 C.ar  1 <1>  -0.1500 
 16 C        4.8840     8.4390     0.0190 C.ar  1 <1>   0.7710 
 17 C        6.4900     6.7130    -0.0960 C.ar  1 <1>   0.2180 
 18 N        6.1560     8.0130     0.0930 N.ar  1 <1>  -0.1790 
 19 N        4.6230     9.7540     0.2120 N.pl3 1 <1>  -0.8380 
 20 C        7.9540     6.3000    -0.0060 C.3   1 <1>  -0.0170 
 21 C        5.5800    10.8690     0.4500 C.3   1 <1>   0.2090 
 22 C        3.2290    10.2820     0.1710 C.3   1 <1>   0.2090 
 23 C        8.8090     6.9590    -1.0960 C.3   1 <1>  -0.2400 
 24 C        4.7600    12.1390     0.2690 C.3   1 <1>  -0.1600 
 25 C        3.3360    11.7300     0.6260 C.3   1 <1>  -0.1600 
 26 H        0.1580    -1.6090     1.6130 H     1 <1>   0.0800 
 27 H       -0.1470    -0.1100     2.4480 H     1 <1>   0.0800 
 28 H        1.3890    -0.3750     1.6630 H     1 <1>   0.0800 
 29 H        1.3360     1.9630    -1.3540 H     1 <1>   0.0800 
 30 H        2.1160     1.5880     0.1590 H     1 <1>   0.0800 
 31 H       -1.9510     2.4600     0.2330 H     1 <1>   0.0800 
 32 H       -1.1520     2.4520    -1.3150 H     1 <1>   0.0800 
 33 H        1.6860     3.8740     0.9710 H     1 <1>   0.0800 
 34 H       -0.6680     4.4050     0.9660 H     1 <1>   0.0800 
 35 H       -1.4010     4.7630    -0.5810 H     1 <1>   0.0800 
 36 H        2.9480     3.7860    -1.7750 H     1 <1>   0.0800 
 37 H        3.7700     3.6010    -0.2440 H     1 <1>   0.0800 
 38 H        2.1920     6.0330    -0.7560 H     1 <1>   0.4000 
 39 H        5.6500     4.8060    -0.5320 H     1 <1>   0.1500 
 40 H        6.8450     8.7250     0.2920 H     1 <1>   0.4570 
 41 H        8.0290     5.2310    -0.1100 H     1 <1>   0.0800 
 42 H        8.3440     6.5540     0.9650 H     1 <1>   0.0800 
 43 H        6.4010    10.8490    -0.2470 H     1 <1>   0.0800 
 44 H        5.9460    10.8180     1.4630 H     1 <1>   0.0800 
 45 H        2.5750     9.7170     0.8160 H     1 <1>   0.0800 
 46 H        2.8600    10.2340    -0.8400 H     1 <1>   0.0800 
 47 H        8.4300     6.7130    -2.0740 H     1 <1>   0.0800 
 48 H        9.8220     6.5990    -1.0310 H     1 <1>   0.0800 
 49 H        8.8300     8.0290    -0.9910 H     1 <1>   0.0800 
 50 H        4.8030    12.4440    -0.7620 H     1 <1>   0.0800 
 51 H        5.1210    12.9430     0.8860 H     1 <1>   0.0800 
 52 H        3.1950    11.7740     1.6930 H     1 <1>   0.0800 
 53 H        2.5980    12.3530     0.1520 H     1 <1>   0.0800 
@<TRIPOS>BOND
  1   1   2  2   
  2   1   3  2   
  3   1   4  am  
  4   1   5  1   
  5   4   6  1   
  6   4   7  1   
  7   5  26  1   
  8   5  27  1   
  9   5  28  1   
 10   6   8  1   
 11   6  29  1   
 12   6  30  1   
 13   7   9  1   
 14   7  31  1   
 15   7  32  1   
 16   8  10  1   
 17   8  11  1   
 18   8  33  1   
 19   9  10  1   
 20   9  34  1   
 21   9  35  1   
 22  11  12  1   
 23  11  36  1   
 24  11  37  1   
 25  12  13  1   
 26  12  38  1   
 27  13  14  ar  
 28  13  15  ar  
 29  14  16  ar  
 30  15  17  ar  
 31  15  39  1   
 32  16  18  ar  
 33  16  19  1   
 34  17  18  ar  
 35  17  20  1   
 36  18  40  1   
 37  19  21  1   
 38  19  22  1   
 39  20  23  1   
 40  20  41  1   
 41  20  42  1   
 42  21  24  1   
 43  21  43  1   
 44  21  44  1   
 45  22  25  1   
 46  22  45  1   
 47  22  46  1   
 48  23  47  1   
 49  23  48  1   
 50  23  49  1   
 51  24  25  1   
 52  24  50  1   
 53  24  51  1   
 54  25  52  1   
 55  25  53  1   
@<TRIPOS>SUBSTRUCTURE
  1 ****  12 GROUP 4 **** **** 0

# MOE 2024.06 (io_trps.svl 2023.06)
