@<TRIPOS>MOLECULE
NONAME
53 55 1 0 0 
SMALL
USER_CHARGES


@<TRIPOS>ATOM
  1 N       -2.5960     0.7160    -1.1520 N.ar  1 <1>  -0.6200 
  2 C       -2.4350     0.7440     0.1510 C.ar  1 <1>   0.4100 
  3 C       -1.9550     1.6630    -1.8150 C.ar  1 <1>   0.4700 
  4 N       -3.0810    -0.2220     0.8750 N.pl3 1 <1>  -0.8690 
  5 C       -1.6790     1.7190     0.7680 C.ar  1 <1>  -0.1500 
  6 N       -1.2130     2.6400    -1.3320 N.ar  1 <1>  -0.6200 
  7 C       -2.9040    -1.6790     0.5570 C.3   1 <1>   0.2090 
  8 C       -1.0750     2.6650    -0.0190 C.ar  1 <1>   0.1670 
  9 C       -4.1160    -2.4390    -0.0860 C.3   1 <1>   0.1430 
 10 C       -0.2170     3.7820     0.5770 C.3   1 <1>   0.0640 
 11 C       -3.8620    -3.9730    -0.0420 C.ar  1 <1>  -0.1430 
 12 C       -4.2800    -2.0520    -1.5830 C.3   1 <1>  -0.1600 
 13 C       -5.4190    -2.1110     0.6980 C.3   1 <1>  -0.1600 
 14 C        1.0070     3.2160     1.3100 C.3   1 <1>  -0.2400 
 15 C       -1.0370     4.6820     1.5100 C.3   1 <1>  -0.2400 
 16 C       -4.8710    -4.8540    -0.4300 C.ar  1 <1>  -0.1500 
 17 C       -2.6450    -4.5370     0.3480 C.ar  1 <1>  -0.1500 
 18 C       -5.3760    -1.0270    -1.8760 C.3   1 <1>   0.3430 
 19 C       -5.9650    -0.6890     0.5010 C.3   1 <1>   0.3430 
 20 C       -4.6900    -6.2250    -0.4060 C.ar  1 <1>  -0.1500 
 21 C       -2.4610    -5.9080     0.3740 C.ar  1 <1>  -0.1500 
 22 N       -5.4530    -0.0730    -0.7530 N.4   1 <1>  -0.9590 
 23 C       -3.4830    -6.7570     0.0000 C.ar  1 <1>  -0.1500 
 24 C       -6.1500     1.1930    -1.1040 C.3   1 <1>   0.2630 
 25 H       -2.0520     1.6430    -2.8890 H     1 <1>   0.1500 
 26 H       -3.0090    -0.0720     1.8880 H     1 <1>   0.4000 
 27 H       -1.5690     1.7290     1.8330 H     1 <1>   0.1500 
 28 H       -2.6720    -2.1620     1.4900 H     1 <1>   0.0800 
 29 H       -2.0410    -1.7930    -0.0800 H     1 <1>   0.0800 
 30 H        0.1430     4.3940    -0.2340 H     1 <1>   0.0800 
 31 H       -4.5070    -2.9180    -2.1780 H     1 <1>   0.0800 
 32 H       -3.3460    -1.6860    -1.9690 H     1 <1>   0.0800 
 33 H       -5.2630    -2.2840     1.7480 H     1 <1>   0.0800 
 34 H       -6.2120    -2.7700     0.4060 H     1 <1>   0.0800 
 35 H        0.7120     2.6310     2.1620 H     1 <1>   0.0800 
 36 H        1.6400     4.0180     1.6470 H     1 <1>   0.0800 
 37 H        1.5750     2.5930     0.6430 H     1 <1>   0.0800 
 38 H       -1.3870     4.1360     2.3670 H     1 <1>   0.0800 
 39 H       -1.8860     5.0790     0.9820 H     1 <1>   0.0800 
 40 H       -0.4360     5.5070     1.8510 H     1 <1>   0.0800 
 41 H       -5.8240    -4.4970    -0.7740 H     1 <1>   0.1500 
 42 H       -1.7970    -3.9460     0.6390 H     1 <1>   0.1500 
 43 H       -6.3250    -1.5250    -1.9900 H     1 <1>   0.0800 
 44 H       -5.1450    -0.5100    -2.7930 H     1 <1>   0.0800 
 45 H       -5.6600    -0.0760     1.3340 H     1 <1>   0.0800 
 46 H       -7.0420    -0.7200     0.4870 H     1 <1>   0.0800 
 47 H       -5.4880    -6.8830    -0.7060 H     1 <1>   0.1500 
 48 H       -1.5150    -6.3190     0.6840 H     1 <1>   0.1500 
 49 H       -4.4500     0.1580    -0.5420 H     1 <1>   0.4500 
 50 H       -3.3380    -7.8230     0.0220 H     1 <1>   0.1500 
 51 H       -7.1840     1.0000    -1.3390 H     1 <1>   0.0800 
 52 H       -5.6770     1.6500    -1.9580 H     1 <1>   0.0800 
 53 H       -6.1020     1.8840    -0.2790 H     1 <1>   0.0800 
@<TRIPOS>BOND
  1   1   2  ar  
  2   1   3  ar  
  3   2   4  1   
  4   2   5  ar  
  5   3   6  ar  
  6   3  25  1   
  7   4   7  1   
  8   4  26  1   
  9   5   8  ar  
 10   5  27  1   
 11   6   8  ar  
 12   7   9  1   
 13   7  28  1   
 14   7  29  1   
 15   8  10  1   
 16   9  11  1   
 17   9  12  1   
 18   9  13  1   
 19  10  14  1   
 20  10  15  1   
 21  10  30  1   
 22  11  16  ar  
 23  11  17  ar  
 24  12  18  1   
 25  12  31  1   
 26  12  32  1   
 27  13  19  1   
 28  13  33  1   
 29  13  34  1   
 30  14  35  1   
 31  14  36  1   
 32  14  37  1   
 33  15  38  1   
 34  15  39  1   
 35  15  40  1   
 36  16  20  ar  
 37  16  41  1   
 38  17  21  ar  
 39  17  42  1   
 40  18  22  1   
 41  18  43  1   
 42  18  44  1   
 43  19  22  1   
 44  19  45  1   
 45  19  46  1   
 46  20  23  ar  
 47  20  47  1   
 48  21  23  ar  
 49  21  48  1   
 50  22  24  1   
 51  22  49  1   
 52  23  50  1   
 53  24  51  1   
 54  24  52  1   
 55  24  53  1   
@<TRIPOS>SUBSTRUCTURE
  1 ****   7 GROUP 4 **** **** 0

# MOE 2024.06 (io_trps.svl 2023.06)
