@<TRIPOS>MOLECULE
NONAME
43 45 1 0 0 
SMALL
USER_CHARGES


@<TRIPOS>ATOM
  1 F       -0.5590    -1.8490    -0.0220 F     1 <1>  -0.1900 
  2 C       -1.8330    -2.0650     0.1440 C.ar  1 <1>   0.1900 
  3 C       -2.5600    -1.2030     0.9420 C.ar  1 <1>  -0.1500 
  4 C       -2.4160    -3.1510    -0.4820 C.ar  1 <1>  -0.1500 
  5 C       -3.9130    -1.4380     1.1110 C.ar  1 <1>  -0.1500 
  6 C       -3.7700    -3.3700    -0.3020 C.ar  1 <1>  -0.1500 
  7 C       -4.5470    -2.5180     0.4880 C.ar  1 <1>   0.0860 
  8 C       -5.9670    -2.7620     0.6590 C.2   1 <1>   0.5440 
  9 O       -6.3320    -3.8600     1.0360 O.2   1 <1>  -0.5700 
 10 N       -6.9120    -1.7900     0.3970 N.am  1 <1>  -0.6600 
 11 C       -8.3440    -1.9540     0.8000 C.3   1 <1>   0.1400 
 12 C       -6.6590    -0.5810    -0.4340 C.3   1 <1>   0.1400 
 13 C       -9.2720    -2.0230    -0.4390 C.3   1 <1>   0.0000 
 14 C       -7.5450    -0.6140    -1.6840 C.3   1 <1>  -0.1600 
 15 C      -10.7490    -2.1440    -0.0260 C.3   1 <1>   0.2000 
 16 C       -9.0330    -0.7840    -1.3290 C.3   1 <1>  -0.1600 
 17 C       -9.0550    -3.3430    -1.2000 C.3   1 <1>  -0.1600 
 18 O      -11.0480    -1.3210     1.0620 O.3   1 <1>  -0.5600 
 19 C      -10.9650    -3.6230     0.3120 C.3   1 <1>  -0.1600 
 20 C       -9.8710    -4.3930    -0.4400 C.3   1 <1>  -0.1600 
 21 C      -12.4070    -1.1430     1.3090 C.3   1 <1>   0.0400 
 22 H       -2.0710    -0.3720     1.4190 H     1 <1>   0.1500 
 23 H       -1.8190    -3.8060    -1.0920 H     1 <1>   0.1500 
 24 H       -4.4970    -0.7850     1.7360 H     1 <1>   0.1500 
 25 H       -4.2470    -4.2140    -0.7720 H     1 <1>   0.1500 
 26 H       -8.4680    -2.8330     1.4070 H     1 <1>   0.0800 
 27 H       -8.6190    -1.1090     1.4080 H     1 <1>   0.0800 
 28 H       -6.8850     0.2950     0.1500 H     1 <1>   0.0800 
 29 H       -5.6280    -0.5280    -0.7370 H     1 <1>   0.0800 
 30 H       -7.4120     0.3000    -2.2350 H     1 <1>   0.0800 
 31 H       -7.2250    -1.4230    -2.3160 H     1 <1>   0.0800 
 32 H      -11.3710    -1.8640    -0.8600 H     1 <1>   0.0800 
 33 H       -9.6130    -0.8550    -2.2320 H     1 <1>   0.0800 
 34 H       -9.3650     0.0910    -0.7960 H     1 <1>   0.0800 
 35 H       -9.4480    -3.2550    -2.1980 H     1 <1>   0.0800 
 36 H       -8.0180    -3.6220    -1.2650 H     1 <1>   0.0800 
 37 H      -10.8520    -3.7830     1.3700 H     1 <1>   0.0800 
 38 H      -11.9420    -3.9430    -0.0010 H     1 <1>   0.0800 
 39 H       -9.2340    -4.8970     0.2690 H     1 <1>   0.0800 
 40 H      -10.2860    -5.1230    -1.1130 H     1 <1>   0.0800 
 41 H      -12.5090    -0.4780     2.1480 H     1 <1>   0.0800 
 42 H      -12.8570    -2.0910     1.5440 H     1 <1>   0.0800 
 43 H      -12.8710    -0.7050     0.4420 H     1 <1>   0.0800 
@<TRIPOS>BOND
  1   1   2  1   
  2   2   3  ar  
  3   2   4  ar  
  4   3   5  ar  
  5   3  22  1   
  6   4   6  ar  
  7   4  23  1   
  8   5   7  ar  
  9   5  24  1   
 10   6   7  ar  
 11   6  25  1   
 12   7   8  1   
 13   8   9  2   
 14   8  10  am  
 15  10  11  1   
 16  10  12  1   
 17  11  13  1   
 18  11  26  1   
 19  11  27  1   
 20  12  14  1   
 21  12  28  1   
 22  12  29  1   
 23  13  15  1   
 24  13  16  1   
 25  13  17  1   
 26  14  16  1   
 27  14  30  1   
 28  14  31  1   
 29  15  18  1   
 30  15  19  1   
 31  15  32  1   
 32  16  33  1   
 33  16  34  1   
 34  17  20  1   
 35  17  35  1   
 36  17  36  1   
 37  18  21  1   
 38  19  20  1   
 39  19  37  1   
 40  19  38  1   
 41  20  39  1   
 42  20  40  1   
 43  21  41  1   
 44  21  42  1   
 45  21  43  1   
@<TRIPOS>SUBSTRUCTURE
  1 ****  10 GROUP 4 **** **** 0

# MOE 2024.06 (io_trps.svl 2023.06)
