@<TRIPOS>MOLECULE
NONAME
42 44 1 0 0 
SMALL
USER_CHARGES


@<TRIPOS>ATOM
  1 CL       1.2110     0.3420    -1.0120 Cl    1 <1>  -0.1770 
  2 C        0.5350     1.7980    -0.3160 C.ar  1 <1>   0.1770 
  3 C        1.3000     2.6560     0.4700 C.ar  1 <1>  -0.1440 
  4 C       -0.7960     2.0590    -0.5870 C.ar  1 <1>  -0.1500 
  5 C        0.6870     3.7980     0.9720 C.ar  1 <1>  -0.1500 
  6 C        2.7700     2.4040     0.8070 C.3   1 <1>   0.3640 
  7 C       -1.3900     3.1980    -0.0750 C.ar  1 <1>  -0.1500 
  8 C       -0.6450     4.0660     0.7030 C.ar  1 <1>  -0.1500 
  9 N        2.8650     1.1360     1.5690 N.am  1 <1>  -0.7300 
 10 C        3.7020     2.4480    -0.4400 C.3   1 <1>   0.2610 
 11 C        3.7160     0.1350     1.2560 C.2   1 <1>   0.5690 
 12 O        4.8760     1.6580    -0.2580 O.3   1 <1>  -0.5600 
 13 C        4.0880     3.9000    -0.7480 C.2   1 <1>   0.5690 
 14 O        3.7510    -0.8740     1.9130 O.2   1 <1>  -0.5700 
 15 C        4.6280     0.3010     0.0400 C.3   1 <1>   0.1810 
 16 O        3.2370     4.7560    -0.7820 O.2   1 <1>  -0.5700 
 17 N        5.3970     4.2040    -0.9560 N.am  1 <1>  -0.7300 
 18 C        5.9470     5.5550    -1.2170 C.3   1 <1>   0.1400 
 19 C        6.5560     6.1440     0.0620 C.3   1 <1>   0.0000 
 20 C        6.8240     7.6550    -0.0390 C.3   1 <1>   0.2580 
 21 C        5.5040     6.6010     1.0870 C.3   1 <1>   0.2580 
 22 C        7.7280     5.3370     0.6620 C.3   1 <1>  -0.2400 
 23 O        6.2780     7.7820     1.2680 O.3   1 <1>  -0.5160 
 24 H       -1.3600     1.3750    -1.1960 H     1 <1>   0.1500 
 25 H        1.2430     4.4970     1.5730 H     1 <1>   0.1500 
 26 H        3.1000     3.1860     1.4700 H     1 <1>   0.0800 
 27 H       -2.4260     3.4090    -0.2820 H     1 <1>   0.1500 
 28 H       -1.1030     4.9570     1.0990 H     1 <1>   0.1500 
 29 H        2.2180     0.9980     2.3460 H     1 <1>   0.3700 
 30 H        3.1880     2.0650    -1.3010 H     1 <1>   0.0800 
 31 H        4.1760    -0.1640    -0.8170 H     1 <1>   0.0800 
 32 H        5.5730    -0.1710     0.2370 H     1 <1>   0.0800 
 33 H        6.0710     3.4360    -0.8550 H     1 <1>   0.3700 
 34 H        6.6990     5.4880    -1.9840 H     1 <1>   0.0800 
 35 H        5.1600     6.1960    -1.5790 H     1 <1>   0.0800 
 36 H        6.2080     8.1850    -0.7450 H     1 <1>   0.0000 
 37 H        7.8610     7.9410    -0.0430 H     1 <1>   0.0000 
 38 H        5.4680     6.0300     1.9970 H     1 <1>   0.0000 
 39 H        4.5410     6.8560     0.6760 H     1 <1>   0.0000 
 40 H        8.5150     5.2270    -0.0630 H     1 <1>   0.0800 
 41 H        7.3960     4.3600     0.9650 H     1 <1>   0.0800 
 42 H        8.1290     5.8380     1.5260 H     1 <1>   0.0800 
@<TRIPOS>BOND
  1   1   2  1   
  2   2   3  ar  
  3   2   4  ar  
  4   3   5  ar  
  5   3   6  1   
  6   4   7  ar  
  7   4  24  1   
  8   5   8  ar  
  9   5  25  1   
 10   6   9  1   
 11   6  10  1   
 12   6  26  1   
 13   7   8  ar  
 14   7  27  1   
 15   8  28  1   
 16   9  11  am  
 17   9  29  1   
 18  10  12  1   
 19  10  13  1   
 20  10  30  1   
 21  11  14  2   
 22  11  15  1   
 23  12  15  1   
 24  13  16  2   
 25  13  17  am  
 26  15  31  1   
 27  15  32  1   
 28  17  18  1   
 29  17  33  1   
 30  18  19  1   
 31  18  34  1   
 32  18  35  1   
 33  19  20  1   
 34  19  21  1   
 35  19  22  1   
 36  20  23  1   
 37  20  36  1   
 38  20  37  1   
 39  21  23  1   
 40  21  38  1   
 41  21  39  1   
 42  22  40  1   
 43  22  41  1   
 44  22  42  1   
@<TRIPOS>SUBSTRUCTURE
  1 ****  10 GROUP 4 **** **** 0

# MOE 2024.06 (io_trps.svl 2023.06)
