@<TRIPOS>MOLECULE
NONAME
48 50 1 0 0 
SMALL
USER_CHARGES


@<TRIPOS>ATOM
  1 O        0.6040     0.4160    -1.1680 O.3   1 <1>  -0.0190 
  2 N        1.6410     1.1940    -1.0810 N.2   1 <1>  -0.4100 
  3 C        0.9760    -0.6810    -0.5520 C.2   1 <1>   0.2980 
  4 C        2.5370     0.5460    -0.4480 C.2   1 <1>   0.3350 
  5 N        2.1600    -0.6660    -0.0810 N.2   1 <1>  -0.5650 
  6 C       -0.0040    -1.8390    -0.4570 C.3   1 <1>   0.0200 
  7 C        3.9230     1.0970    -0.1190 C.3   1 <1>   0.5240 
  8 C       -1.2060    -1.5010     0.4330 C.3   1 <1>  -0.2400 
  9 N        3.9210     2.6100    -0.1090 N.4   1 <1>  -0.9590 
 10 C        5.2550     3.2060    -0.4130 C.3   1 <1>   0.4230 
 11 C        3.2160     3.1120     1.1230 C.3   1 <1>   0.2630 
 12 C        6.2490     3.0490     0.7470 C.3   1 <1>  -0.1600 
 13 C        5.0960     4.6820    -0.7870 C.3   1 <1>  -0.1600 
 14 C        7.5940     3.6970     0.4060 C.3   1 <1>   0.3430 
 15 C        6.4490     5.3090    -1.1200 C.3   1 <1>   0.3430 
 16 N        7.3840     5.1200     0.0280 N.4   1 <1>  -0.9590 
 17 C        8.6780     5.8300    -0.2290 C.3   1 <1>   0.5230 
 18 C        8.5260     7.2680     0.2290 C.2   1 <1>  -0.0400 
 19 O        7.5220     7.9890    -0.2370 O.3   1 <1>  -0.2800 
 20 C        9.2690     7.9960     1.0910 C.2   1 <1>  -0.1500 
 21 C        7.6050     9.1880     0.3060 C.2   1 <1>  -0.0100 
 22 C        8.6630     9.2580     1.1400 C.2   1 <1>  -0.1500 
 23 H        0.5070    -2.6960    -0.0550 H     1 <1>   0.0800 
 24 H       -0.3430    -2.0900    -1.4460 H     1 <1>   0.0800 
 25 H        4.6060     0.7290    -0.8660 H     1 <1>   0.0800 
 26 H        4.2320     0.7160     0.8400 H     1 <1>   0.0800 
 27 H       -0.8760    -1.2570     1.4280 H     1 <1>   0.0800 
 28 H       -1.8720    -2.3450     0.4900 H     1 <1>   0.0800 
 29 H       -1.7490    -0.6630     0.0320 H     1 <1>   0.0800 
 30 H        3.2840     2.8350    -0.8960 H     1 <1>   0.4500 
 31 H        5.6630     2.6970    -1.2730 H     1 <1>   0.0800 
 32 H        3.7640     2.8470     2.0120 H     1 <1>   0.0800 
 33 H        2.2300     2.6760     1.1910 H     1 <1>   0.0800 
 34 H        3.1040     4.1830     1.0880 H     1 <1>   0.0800 
 35 H        6.4210     2.0060     0.9470 H     1 <1>   0.0800 
 36 H        5.8730     3.5060     1.6450 H     1 <1>   0.0800 
 37 H        4.6510     5.2440     0.0150 H     1 <1>   0.0800 
 38 H        4.4620     4.7720    -1.6520 H     1 <1>   0.0800 
 39 H        8.0590     3.1670    -0.4120 H     1 <1>   0.0800 
 40 H        8.2510     3.6350     1.2610 H     1 <1>   0.0800 
 41 H        6.3150     6.3610    -1.3230 H     1 <1>   0.0800 
 42 H        6.8590     4.8500    -2.0060 H     1 <1>   0.0800 
 43 H        6.9960     5.6430     0.8310 H     1 <1>   0.4500 
 44 H        8.9280     5.8010    -1.2770 H     1 <1>   0.0800 
 45 H        9.4780     5.3730     0.3300 H     1 <1>   0.0800 
 46 H       10.1490     7.7220     1.6480 H     1 <1>   0.1500 
 47 H        6.8750     9.9370     0.0460 H     1 <1>   0.1500 
 48 H        9.0000    10.0940     1.7300 H     1 <1>   0.1500 
@<TRIPOS>BOND
  1   1   2  1   
  2   1   3  1   
  3   2   4  2   
  4   3   5  2   
  5   3   6  1   
  6   4   5  1   
  7   4   7  1   
  8   6   8  1   
  9   6  23  1   
 10   6  24  1   
 11   7   9  1   
 12   7  25  1   
 13   7  26  1   
 14   8  27  1   
 15   8  28  1   
 16   8  29  1   
 17   9  10  1   
 18   9  11  1   
 19   9  30  1   
 20  10  12  1   
 21  10  13  1   
 22  10  31  1   
 23  11  32  1   
 24  11  33  1   
 25  11  34  1   
 26  12  14  1   
 27  12  35  1   
 28  12  36  1   
 29  13  15  1   
 30  13  37  1   
 31  13  38  1   
 32  14  16  1   
 33  14  39  1   
 34  14  40  1   
 35  15  16  1   
 36  15  41  1   
 37  15  42  1   
 38  16  17  1   
 39  16  43  1   
 40  17  18  1   
 41  17  44  1   
 42  17  45  1   
 43  18  19  1   
 44  18  20  2   
 45  19  21  1   
 46  20  22  1   
 47  20  46  1   
 48  21  22  2   
 49  21  47  1   
 50  22  48  1   
@<TRIPOS>SUBSTRUCTURE
  1 ****  10 GROUP 4 **** **** 0

# MOE 2024.06 (io_trps.svl 2023.06)
