@<TRIPOS>MOLECULE
NONAME
39 40 1 0 0 
SMALL
USER_CHARGES


@<TRIPOS>ATOM
  1 F        0.6450    -1.2610     1.1600 F     1 <1>  -0.1900 
  2 C        0.2530    -2.4890     0.9520 C.ar  1 <1>   0.1900 
  3 C       -0.2590    -3.2130     2.0110 C.ar  1 <1>  -0.1500 
  4 C        0.3640    -3.0180    -0.3190 C.ar  1 <1>  -0.1500 
  5 C       -0.6740    -4.5150     1.7840 C.ar  1 <1>  -0.1500 
  6 C       -0.0540    -4.3210    -0.5330 C.ar  1 <1>  -0.1500 
  7 C       -0.5730    -5.0720     0.5150 C.ar  1 <1>  -0.1430 
  8 C       -1.0310    -6.5010     0.2660 C.3   1 <1>  -0.0160 
  9 C       -2.4530    -6.5140    -0.2930 C.3   1 <1>   0.1400 
 10 N       -2.8930    -7.9090    -0.5100 N.am  1 <1>  -0.7300 
 11 C       -2.9880    -8.5450    -1.7060 C.2   1 <1>   0.5690 
 12 O       -2.6940    -8.0100    -2.7490 O.2   1 <1>  -0.5700 
 13 C       -3.4720    -9.9990    -1.7140 C.3   1 <1>   0.1710 
 14 N       -4.2890   -10.3820    -0.5220 N.3   1 <1>  -0.8100 
 15 C       -4.3250   -11.8530    -0.3470 C.3   1 <1>   0.2910 
 16 C       -5.6370    -9.7920    -0.5930 C.3   1 <1>   0.0300 
 17 C       -4.9150   -12.2810     0.9930 C.2   1 <1>   0.1080 
 18 N       -4.2260   -12.4630     2.0660 N.2   1 <1>  -0.4100 
 19 C       -6.2630   -12.5520     1.2280 C.2   1 <1>  -0.1500 
 20 O       -5.0700   -12.8330     2.9850 O.3   1 <1>  -0.0190 
 21 C       -6.2890   -12.8970     2.5230 C.2   1 <1>  -0.0100 
 22 H       -0.3290    -2.7660     2.9860 H     1 <1>   0.1500 
 23 H        0.7680    -2.4230    -1.1180 H     1 <1>   0.1500 
 24 H       -1.0750    -5.0920     2.6000 H     1 <1>   0.1500 
 25 H        0.0240    -4.7480    -1.5190 H     1 <1>   0.1500 
 26 H       -0.9980    -7.0590     1.1840 H     1 <1>   0.0800 
 27 H       -0.3690    -6.9710    -0.4400 H     1 <1>   0.0800 
 28 H       -2.4790    -5.9760    -1.2270 H     1 <1>   0.0800 
 29 H       -3.1260    -6.0300     0.3940 H     1 <1>   0.0800 
 30 H       -3.2050    -8.4490     0.3060 H     1 <1>   0.3700 
 31 H       -2.5900   -10.6120    -1.7540 H     1 <1>   0.0800 
 32 H       -4.0330   -10.1710    -2.6160 H     1 <1>   0.0800 
 33 H       -3.3200   -12.2360    -0.3910 H     1 <1>   0.0800 
 34 H       -4.8870   -12.3030    -1.1470 H     1 <1>   0.0800 
 35 H       -5.5720    -8.7290    -0.7500 H     1 <1>   0.0800 
 36 H       -6.1610    -9.9550     0.3330 H     1 <1>   0.0800 
 37 H       -6.2000   -10.2270    -1.4010 H     1 <1>   0.0800 
 38 H       -7.0650   -12.4890     0.5170 H     1 <1>   0.1500 
 39 H       -7.0890   -13.1930     3.1770 H     1 <1>   0.1500 
@<TRIPOS>BOND
  1   1   2  1   
  2   2   3  ar  
  3   2   4  ar  
  4   3   5  ar  
  5   3  22  1   
  6   4   6  ar  
  7   4  23  1   
  8   5   7  ar  
  9   5  24  1   
 10   6   7  ar  
 11   6  25  1   
 12   7   8  1   
 13   8   9  1   
 14   8  26  1   
 15   8  27  1   
 16   9  10  1   
 17   9  28  1   
 18   9  29  1   
 19  10  11  am  
 20  10  30  1   
 21  11  12  2   
 22  11  13  1   
 23  13  14  1   
 24  13  31  1   
 25  13  32  1   
 26  14  15  1   
 27  14  16  1   
 28  15  17  1   
 29  15  33  1   
 30  15  34  1   
 31  16  35  1   
 32  16  36  1   
 33  16  37  1   
 34  17  18  2   
 35  17  19  1   
 36  18  20  1   
 37  19  21  2   
 38  19  38  1   
 39  20  21  1   
 40  21  39  1   
@<TRIPOS>SUBSTRUCTURE
  1 ****  10 GROUP 4 **** **** 0

# MOE 2024.06 (io_trps.svl 2023.06)
