@<TRIPOS>MOLECULE
NONAME
47 50 1 0 0 
SMALL
USER_CHARGES


@<TRIPOS>ATOM
  1 S        1.9740     0.2150    -2.6260 S.3   1 <1>  -0.0800 
  2 C        2.7570     1.1680    -1.3600 C.2   1 <1>  -0.0450 
  3 C        0.3840     0.5440    -1.9450 C.2   1 <1>  -0.1100 
  4 C        4.1340     1.4310    -1.1800 C.2   1 <1>   0.8660 
  5 C        1.8240     1.6700    -0.5190 C.2   1 <1>   0.0830 
  6 C        0.4790     1.3190    -0.8460 C.2   1 <1>  -0.1500 
  7 O        5.0170     1.0700    -1.9420 O.2   1 <1>  -0.5700 
  8 N        4.5320     2.1860    -0.1000 N.2   1 <1>  -0.6610 
  9 N        2.2820     2.4430     0.5220 N.pl3 1 <1>  -0.5330 
 10 C        3.6270     2.6580     0.6900 C.2   1 <1>   0.4390 
 11 C        4.1040     3.5150     1.8700 C.3   1 <1>   0.2700 
 12 N        4.5270     4.9120     1.4720 N.pl3 1 <1>  -0.8380 
 13 C        5.6800     5.2340     0.8090 C.ar  1 <1>   0.7710 
 14 C        3.6550     5.9830     2.0620 C.3   1 <1>   0.1290 
 15 N        6.1110     6.4870     0.8560 N.ar  1 <1>  -0.6200 
 16 N        6.3570     4.2920     0.1230 N.ar  1 <1>  -0.1790 
 17 C        7.2350     6.8030     0.2400 C.ar  1 <1>   0.4100 
 18 C        7.4940     4.5720    -0.5520 C.ar  1 <1>   0.2110 
 19 N        7.6740     8.0860     0.3420 N.pl3 1 <1>  -0.8380 
 20 C        7.9530     5.8440    -0.5010 C.ar  1 <1>  -0.1500 
 21 C        9.1160     8.4990     0.3050 C.3   1 <1>   0.2090 
 22 C        6.7510     9.2360     0.5890 C.3   1 <1>   0.2090 
 23 C        9.3390     9.5500    -0.7950 C.3   1 <1>   0.2000 
 24 C        6.9470    10.2950    -0.5050 C.3   1 <1>  -0.1600 
 25 O       10.6480     9.9970    -0.7540 O.3   1 <1>  -0.6800 
 26 C        8.4100    10.7570    -0.6200 C.3   1 <1>  -0.1600 
 27 H       -0.4650     0.1140    -2.4490 H     1 <1>   0.1500 
 28 H       -0.3510     1.6570    -0.2510 H     1 <1>   0.1500 
 29 H        1.5960     2.8580     1.1600 H     1 <1>   0.4000 
 30 H        4.9380     3.0190     2.3370 H     1 <1>   0.0800 
 31 H        3.3240     3.5640     2.6100 H     1 <1>   0.0800 
 32 H        2.6180     5.7000     1.9990 H     1 <1>   0.0800 
 33 H        3.7700     6.9150     1.5340 H     1 <1>   0.0800 
 34 H        3.9150     6.1400     3.0950 H     1 <1>   0.0800 
 35 H        5.9180     3.3690     0.0610 H     1 <1>   0.4570 
 36 H        7.9820     3.7870    -1.1090 H     1 <1>   0.1500 
 37 H        8.8390     6.1360    -1.0300 H     1 <1>   0.1500 
 38 H        9.7610     7.6570     0.1370 H     1 <1>   0.0800 
 39 H        9.3690     8.9260     1.2590 H     1 <1>   0.0800 
 40 H        6.9630     9.6590     1.5560 H     1 <1>   0.0800 
 41 H        5.7230     8.9150     0.5840 H     1 <1>   0.0800 
 42 H        9.1840     9.0930    -1.7570 H     1 <1>   0.0800 
 43 H        6.3190    11.1420    -0.2930 H     1 <1>   0.0800 
 44 H        6.6240     9.8790    -1.4440 H     1 <1>   0.0800 
 45 H       10.7770    10.6100    -0.0060 H     1 <1>   0.4000 
 46 H        8.5130    11.4160    -1.4650 H     1 <1>   0.0800 
 47 H        8.6740    11.2930     0.2740 H     1 <1>   0.0800 
@<TRIPOS>BOND
  1   1   2  1   
  2   1   3  1   
  3   2   4  1   
  4   2   5  2   
  5   3   6  2   
  6   3  27  1   
  7   4   7  2   
  8   4   8  1   
  9   5   6  1   
 10   5   9  1   
 11   6  28  1   
 12   8  10  2   
 13   9  10  1   
 14   9  29  1   
 15  10  11  1   
 16  11  12  1   
 17  11  30  1   
 18  11  31  1   
 19  12  13  1   
 20  12  14  1   
 21  13  15  ar  
 22  13  16  ar  
 23  14  32  1   
 24  14  33  1   
 25  14  34  1   
 26  15  17  ar  
 27  16  18  ar  
 28  16  35  1   
 29  17  19  1   
 30  17  20  ar  
 31  18  20  ar  
 32  18  36  1   
 33  19  21  1   
 34  19  22  1   
 35  20  37  1   
 36  21  23  1   
 37  21  38  1   
 38  21  39  1   
 39  22  24  1   
 40  22  40  1   
 41  22  41  1   
 42  23  25  1   
 43  23  26  1   
 44  23  42  1   
 45  24  26  1   
 46  24  43  1   
 47  24  44  1   
 48  25  45  1   
 49  26  46  1   
 50  26  47  1   
@<TRIPOS>SUBSTRUCTURE
  1 ****  13 GROUP 4 **** **** 0

# MOE 2024.06 (io_trps.svl 2023.06)
