@<TRIPOS>MOLECULE
NONAME
50 53 1 0 0 
SMALL
USER_CHARGES


@<TRIPOS>ATOM
  1 O       -0.0630    -0.4210    -1.4370 O.3   1 <1>  -0.0190 
  2 N        0.9510     0.3650    -1.2420 N.2   1 <1>  -0.4100 
  3 C        0.2150    -1.4840    -0.7230 C.2   1 <1>   0.2980 
  4 C        1.7530    -0.2430    -0.4600 C.2   1 <1>   0.3350 
  5 N        1.3280    -1.4450    -0.1010 N.2   1 <1>  -0.5650 
  6 C       -0.7660    -2.6570    -0.7300 C.3   1 <1>   0.2900 
  7 C        3.0800     0.2860     0.0520 C.3   1 <1>   0.0210 
  8 N       -1.9730    -2.4550     0.1120 N.3   1 <1>  -0.8100 
  9 C        3.4330     1.6460    -0.5490 C.3   1 <1>   0.1200 
 10 C       -2.9050    -1.4580    -0.4710 C.3   1 <1>   0.1100 
 11 C       -2.6590    -3.7330     0.3560 C.3   1 <1>   0.1100 
 12 O        4.6630     2.0480    -0.0350 O.3   1 <1>  -0.5600 
 13 C       -4.0930    -1.1680     0.4690 C.3   1 <1>   0.1430 
 14 C       -3.8230    -3.5360     1.3330 C.3   1 <1>  -0.1600 
 15 C        5.0960     3.2810    -0.5130 C.3   1 <1>   0.0400 
 16 C       -5.0090    -0.1590    -0.2000 C.ar  1 <1>   0.1670 
 17 C       -4.8170    -2.4850     0.8140 C.3   1 <1>  -0.1600 
 18 C       -3.6280    -0.4050     1.7380 C.3   1 <1>  -0.1600 
 19 N       -5.8220    -0.4080    -1.2050 N.ar  1 <1>  -0.6200 
 20 C       -4.8830     1.0780     0.3580 C.ar  1 <1>  -0.1430 
 21 C       -3.8710     1.0910     1.4760 C.3   1 <1>  -0.0160 
 22 C       -6.5180     0.6410    -1.6190 C.ar  1 <1>   0.4770 
 23 C       -5.6530     2.0940    -0.1530 C.ar  1 <1>   0.1600 
 24 N       -6.4850     1.8820    -1.1520 N.ar  1 <1>  -0.6200 
 25 C       -7.4690     0.3880    -2.7640 C.3   1 <1>  -0.0970 
 26 H       -0.2280    -3.5110    -0.3590 H     1 <1>   0.0800 
 27 H       -1.0580    -2.8670    -1.7430 H     1 <1>   0.0800 
 28 H        3.8490    -0.4220    -0.1990 H     1 <1>   0.0800 
 29 H        3.0230     0.3720     1.1210 H     1 <1>   0.0800 
 30 H        2.6890     2.3780    -0.2840 H     1 <1>   0.0800 
 31 H        3.5110     1.5740    -1.6210 H     1 <1>   0.0800 
 32 H       -3.2820    -1.8190    -1.4130 H     1 <1>   0.0800 
 33 H       -2.3910    -0.5310    -0.6520 H     1 <1>   0.0800 
 34 H       -1.9660    -4.4390     0.7810 H     1 <1>   0.0800 
 35 H       -3.0280    -4.1340    -0.5740 H     1 <1>   0.0800 
 36 H       -3.4290    -3.2340     2.2870 H     1 <1>   0.0800 
 37 H       -4.3330    -4.4730     1.4720 H     1 <1>   0.0800 
 38 H        6.0460     3.5000    -0.0590 H     1 <1>   0.0800 
 39 H        4.3810     4.0390    -0.2420 H     1 <1>   0.0800 
 40 H        5.2080     3.2290    -1.5820 H     1 <1>   0.0800 
 41 H       -5.2870    -2.8650    -0.0760 H     1 <1>   0.0800 
 42 H       -5.5910    -2.3080     1.5390 H     1 <1>   0.0800 
 43 H       -2.5980    -0.6040     1.9800 H     1 <1>   0.0800 
 44 H       -4.2330    -0.7010     2.5770 H     1 <1>   0.0800 
 45 H       -2.9660     1.5670     1.1390 H     1 <1>   0.0800 
 46 H       -4.2460     1.5910     2.3510 H     1 <1>   0.0800 
 47 H       -5.5880     3.0870     0.2570 H     1 <1>   0.1500 
 48 H       -7.0430    -0.3270    -3.4430 H     1 <1>   0.0800 
 49 H       -7.6620     1.3020    -3.2950 H     1 <1>   0.0800 
 50 H       -8.3920     0.0030    -2.3760 H     1 <1>   0.0800 
@<TRIPOS>BOND
  1   1   2  1   
  2   1   3  1   
  3   2   4  2   
  4   3   5  2   
  5   3   6  1   
  6   4   5  1   
  7   4   7  1   
  8   6   8  1   
  9   6  26  1   
 10   6  27  1   
 11   7   9  1   
 12   7  28  1   
 13   7  29  1   
 14   8  10  1   
 15   8  11  1   
 16   9  12  1   
 17   9  30  1   
 18   9  31  1   
 19  10  13  1   
 20  10  32  1   
 21  10  33  1   
 22  11  14  1   
 23  11  34  1   
 24  11  35  1   
 25  12  15  1   
 26  13  16  1   
 27  13  17  1   
 28  13  18  1   
 29  14  17  1   
 30  14  36  1   
 31  14  37  1   
 32  15  38  1   
 33  15  39  1   
 34  15  40  1   
 35  16  19  ar  
 36  16  20  ar  
 37  17  41  1   
 38  17  42  1   
 39  18  21  1   
 40  18  43  1   
 41  18  44  1   
 42  19  22  ar  
 43  20  21  1   
 44  20  23  ar  
 45  21  45  1   
 46  21  46  1   
 47  22  24  ar  
 48  22  25  1   
 49  23  24  ar  
 50  23  47  1   
 51  25  48  1   
 52  25  49  1   
 53  25  50  1   
@<TRIPOS>SUBSTRUCTURE
  1 ****  10 GROUP 4 **** **** 0

# MOE 2024.06 (io_trps.svl 2023.06)
