@<TRIPOS>MOLECULE
NONAME
36 38 1 0 0 
SMALL
USER_CHARGES


@<TRIPOS>ATOM
  1 O        1.1530     0.2690    -1.5630 O.3   1 <1>  -0.8500 
  2 C        1.8980    -0.6150    -1.1110 C.2   1 <1>  -0.1500 
  3 C        3.2750    -0.5680    -1.2540 C.2   1 <1>  -0.1360 
  4 C        1.3540    -1.7300    -0.4210 C.2   1 <1>  -0.1500 
  5 C        4.0970    -1.5630    -0.7360 C.2   1 <1>   0.6160 
  6 C        2.1410    -2.7100     0.0950 C.2   1 <1>  -0.0290 
  7 O        5.3380    -1.5300    -0.8740 O.2   1 <1>  -0.5700 
  8 N        3.5320    -2.6460    -0.0390 N.am  1 <1>  -0.4690 
  9 C        1.5120    -3.8880     0.8210 C.3   1 <1>  -0.1020 
 10 C        4.4680    -3.6640     0.5390 C.3   1 <1>   0.1400 
 11 C        4.9960    -4.6420    -0.5290 C.3   1 <1>   0.3440 
 12 O        4.0410    -5.6700    -0.6660 O.3   1 <1>  -0.5600 
 13 C        6.3840    -5.2060    -0.1690 C.ar  1 <1>  -0.1440 
 14 C        4.4600    -6.7830    -1.3820 C.3   1 <1>   0.1200 
 15 C        6.6210    -6.5760    -0.1600 C.ar  1 <1>  -0.1440 
 16 C        7.4330    -4.3420     0.1190 C.ar  1 <1>  -0.1500 
 17 C        5.5010    -7.5250    -0.5450 C.3   1 <1>  -0.0170 
 18 C        7.8710    -7.0680     0.1760 C.ar  1 <1>  -0.1500 
 19 C        8.6830    -4.8340     0.4520 C.ar  1 <1>  -0.1500 
 20 C        8.9010    -6.1990     0.4860 C.ar  1 <1>  -0.1500 
 21 H        3.7080     0.2570    -1.7770 H     1 <1>   0.1500 
 22 H        0.2840    -1.7340    -0.3430 H     1 <1>   0.1500 
 23 H        1.7910    -4.8080     0.3420 H     1 <1>   0.0800 
 24 H        0.4410    -3.8090     0.7980 H     1 <1>   0.0800 
 25 H        1.8280    -3.9030     1.8470 H     1 <1>   0.0800 
 26 H        4.0050    -4.2190     1.3300 H     1 <1>   0.0800 
 27 H        5.2870    -3.1310     0.9830 H     1 <1>   0.0800 
 28 H        5.0710    -4.1330    -1.4740 H     1 <1>   0.0800 
 29 H        4.8690    -6.4570    -2.3240 H     1 <1>   0.0800 
 30 H        3.6010    -7.4050    -1.5620 H     1 <1>   0.0800 
 31 H        7.2850    -3.2750     0.0800 H     1 <1>   0.1500 
 32 H        5.8930    -8.3480    -1.1150 H     1 <1>   0.0800 
 33 H        5.0360    -7.9160     0.3420 H     1 <1>   0.0800 
 34 H        8.0490    -8.1290     0.1930 H     1 <1>   0.1500 
 35 H        9.4840    -4.1530     0.6800 H     1 <1>   0.1500 
 36 H        9.8720    -6.5830     0.7480 H     1 <1>   0.1500 
@<TRIPOS>BOND
  1   1   2  1   
  2   2   3  2   
  3   2   4  1   
  4   3   5  1   
  5   3  21  1   
  6   4   6  2   
  7   4  22  1   
  8   5   7  2   
  9   5   8  am  
 10   6   8  1   
 11   6   9  1   
 12   8  10  1   
 13   9  23  1   
 14   9  24  1   
 15   9  25  1   
 16  10  11  1   
 17  10  26  1   
 18  10  27  1   
 19  11  12  1   
 20  11  13  1   
 21  11  28  1   
 22  12  14  1   
 23  13  15  ar  
 24  13  16  ar  
 25  14  17  1   
 26  14  29  1   
 27  14  30  1   
 28  15  17  1   
 29  15  18  ar  
 30  16  19  ar  
 31  16  31  1   
 32  17  32  1   
 33  17  33  1   
 34  18  20  ar  
 35  18  34  1   
 36  19  20  ar  
 37  19  35  1   
 38  20  36  1   
@<TRIPOS>SUBSTRUCTURE
  1 ****  11 GROUP 4 **** **** 0

# MOE 2024.06 (io_trps.svl 2023.06)
