@<TRIPOS>MOLECULE
NONAME
38 39 1 0 0 
SMALL
USER_CHARGES


@<TRIPOS>ATOM
  1 S       -0.2900    -0.3830     0.7360 S.3   1 <1>  -0.0800 
  2 C       -1.3960    -1.0180    -0.4410 C.2   1 <1>   0.4420 
  3 C       -0.5410     1.1730     0.0230 C.2   1 <1>   0.1980 
  4 N       -1.8470    -0.1010    -1.2190 N.2   1 <1>  -0.3380 
  5 N       -1.6510    -2.3720    -0.3840 N.am  1 <1>  -0.4940 
  6 N       -1.3550     1.1440    -0.9500 N.2   1 <1>  -0.3380 
  7 C        0.1950     2.3650     0.5920 C.3   1 <1>   0.0200 
  8 C       -2.3890    -3.1610    -1.2300 C.2   1 <1>   0.5440 
  9 C       -0.1560     3.6040    -0.2420 C.3   1 <1>   0.3430 
 10 O       -2.7810    -2.7280    -2.2900 O.2   1 <1>  -0.5700 
 11 C       -2.6450    -4.5360    -0.8690 C.ar  1 <1>   0.0860 
 12 N        0.5780     4.8380     0.1980 N.4   1 <1>  -0.9590 
 13 C       -3.2070    -4.9370     0.3450 C.ar  1 <1>  -0.1430 
 14 C       -2.3060    -5.5360    -1.7790 C.ar  1 <1>   0.1600 
 15 C        0.1280     5.3260     1.5420 C.3   1 <1>   0.2630 
 16 C        0.3940     5.9170    -0.8220 C.3   1 <1>   0.2630 
 17 C       -3.3430    -6.2940     0.5560 C.ar  1 <1>  -0.1500 
 18 C       -3.6870    -3.9570     1.4100 C.3   1 <1>  -0.0970 
 19 N       -2.4280    -6.8390    -1.5850 N.ar  1 <1>  -0.6200 
 20 C       -2.9430    -7.1900    -0.4200 C.ar  1 <1>   0.1600 
 21 H       -1.2190    -2.8630     0.3930 H     1 <1>   0.3700 
 22 H        1.2510     2.1730     0.5460 H     1 <1>   0.0800 
 23 H       -0.1070     2.4950     1.6140 H     1 <1>   0.0800 
 24 H       -1.2200     3.7730    -0.1930 H     1 <1>   0.0800 
 25 H        0.0870     3.3920    -1.2720 H     1 <1>   0.0800 
 26 H        1.5870     4.6220     0.2440 H     1 <1>   0.4500 
 27 H       -1.9020    -5.2270    -2.7290 H     1 <1>   0.1500 
 28 H       -0.9270     5.5470     1.5280 H     1 <1>   0.0800 
 29 H        0.6620     6.2230     1.8120 H     1 <1>   0.0800 
 30 H        0.3150     4.5810     2.2980 H     1 <1>   0.0800 
 31 H       -0.6490     6.1770    -0.9110 H     1 <1>   0.0800 
 32 H        0.7490     5.5870    -1.7860 H     1 <1>   0.0800 
 33 H        0.9460     6.8000    -0.5400 H     1 <1>   0.0800 
 34 H       -3.7640    -6.6710     1.4710 H     1 <1>   0.1500 
 35 H       -4.1660    -3.1080     0.9540 H     1 <1>   0.0800 
 36 H       -2.8610    -3.6170     2.0080 H     1 <1>   0.0800 
 37 H       -4.4050    -4.4270     2.0590 H     1 <1>   0.0800 
 38 H       -3.0570    -8.2450    -0.2360 H     1 <1>   0.1500 
@<TRIPOS>BOND
  1   1   2  1   
  2   1   3  1   
  3   2   4  2   
  4   2   5  1   
  5   3   6  2   
  6   3   7  1   
  7   4   6  1   
  8   5   8  am  
  9   5  21  1   
 10   7   9  1   
 11   7  22  1   
 12   7  23  1   
 13   8  10  2   
 14   8  11  1   
 15   9  12  1   
 16   9  24  1   
 17   9  25  1   
 18  11  13  ar  
 19  11  14  ar  
 20  12  15  1   
 21  12  16  1   
 22  12  26  1   
 23  13  17  ar  
 24  13  18  1   
 25  14  19  ar  
 26  14  27  1   
 27  15  28  1   
 28  15  29  1   
 29  15  30  1   
 30  16  31  1   
 31  16  32  1   
 32  16  33  1   
 33  17  20  ar  
 34  17  34  1   
 35  18  35  1   
 36  18  36  1   
 37  18  37  1   
 38  19  20  ar  
 39  20  38  1   
@<TRIPOS>SUBSTRUCTURE
  1 ****   2 GROUP 4 **** **** 0

# MOE 2024.06 (io_trps.svl 2023.06)
