@<TRIPOS>MOLECULE
NONAME
51 53 1 0 0 
SMALL
USER_CHARGES


@<TRIPOS>ATOM
  1 S       -0.1090     0.7790     0.3540 S.3   1 <1>  -0.0800 
  2 C        0.6610    -0.6280    -0.3630 C.2   1 <1>  -0.1400 
  3 C        0.1410     1.7200    -1.1090 C.2   1 <1>  -0.1400 
  4 C        1.0610    -0.3540    -1.6190 C.2   1 <1>  -0.1500 
  5 C        0.7700    -1.8870     0.4800 C.3   1 <1>   0.2900 
  6 C        0.7650     0.9800    -2.0450 C.2   1 <1>  -0.1500 
  7 C       -0.3500     3.1500    -1.0940 C.3   1 <1>   0.5230 
  8 N       -0.2400    -2.8780     0.0730 N.3   1 <1>  -0.8100 
  9 N        0.3570     3.8760    -0.0080 N.4   1 <1>  -0.9590 
 10 C       -0.0110    -4.1630     0.7930 C.3   1 <1>   0.1100 
 11 C       -1.6230    -2.4130     0.3660 C.3   1 <1>   0.1100 
 12 C       -0.2660     5.1990     0.2720 C.3   1 <1>   0.3430 
 13 C        1.8220     3.9810    -0.2800 C.3   1 <1>   0.3430 
 14 C       -1.1250    -5.2140     0.5460 C.3   1 <1>   0.3170 
 15 C       -2.7040    -3.4460    -0.0380 C.3   1 <1>   0.3430 
 16 C        0.4030     5.8330     1.4940 C.3   1 <1>  -0.1600 
 17 C        2.5260     4.5940     0.9310 C.3   1 <1>  -0.1600 
 18 N       -2.0860    -4.7190    -0.5370 N.4   1 <1>  -0.9590 
 19 C       -1.8110    -5.5950     1.8750 C.2   1 <1>   0.9060 
 20 C        1.9220     5.9520     1.3150 C.3   1 <1>  -0.1600 
 21 C       -3.1040    -5.7650    -0.8360 C.3   1 <1>   0.2630 
 22 O       -2.2080    -4.6980     2.6310 O.co2 1 <1>  -0.9000 
 23 O       -2.0450    -6.7900     2.0740 O.co2 1 <1>  -0.9000 
 24 H        1.5570    -1.0490    -2.2750 H     1 <1>   0.1500 
 25 H        0.6640    -1.6490     1.5250 H     1 <1>   0.0800 
 26 H        1.7500    -2.3080     0.3300 H     1 <1>   0.0800 
 27 H        1.0410     1.3000    -3.0370 H     1 <1>   0.1500 
 28 H       -1.4120     3.1550    -0.9150 H     1 <1>   0.0800 
 29 H       -0.1570     3.6180    -2.0460 H     1 <1>   0.0800 
 30 H        0.2570     3.2880     0.8310 H     1 <1>   0.4500 
 31 H        0.0710    -3.9770     1.8530 H     1 <1>   0.0800 
 32 H        0.9270    -4.5840     0.4760 H     1 <1>   0.0800 
 33 H       -1.8240    -1.4970    -0.1600 H     1 <1>   0.0800 
 34 H       -1.7250    -2.2150     1.4210 H     1 <1>   0.0800 
 35 H       -1.3210     5.0830     0.4630 H     1 <1>   0.0800 
 36 H       -0.1420     5.8490    -0.5800 H     1 <1>   0.0800 
 37 H        1.9900     4.6010    -1.1460 H     1 <1>   0.0800 
 38 H        2.2360     3.0040    -0.4750 H     1 <1>   0.0800 
 39 H       -0.6550    -6.1170     0.2050 H     1 <1>   0.0800 
 40 H       -3.3350    -3.0210    -0.7990 H     1 <1>   0.0800 
 41 H       -3.3190    -3.6530     0.8240 H     1 <1>   0.0800 
 42 H        0.1820     5.2440     2.3670 H     1 <1>   0.0800 
 43 H       -0.0140     6.8120     1.6550 H     1 <1>   0.0800 
 44 H        3.5700     4.7200     0.7040 H     1 <1>   0.0800 
 45 H        2.4600     3.9140     1.7630 H     1 <1>   0.0800 
 46 H       -1.4950    -4.4600    -1.3370 H     1 <1>   0.4500 
 47 H        2.3710     6.3070     2.2280 H     1 <1>   0.0800 
 48 H        2.1380     6.6730     0.5440 H     1 <1>   0.0800 
 49 H       -3.6630    -6.0000     0.0560 H     1 <1>   0.0800 
 50 H       -2.6200    -6.6660    -1.1770 H     1 <1>   0.0800 
 51 H       -3.7840    -5.4230    -1.5970 H     1 <1>   0.0800 
@<TRIPOS>BOND
  1   1   2  1   
  2   1   3  1   
  3   2   4  2   
  4   2   5  1   
  5   3   6  2   
  6   3   7  1   
  7   4   6  1   
  8   4  24  1   
  9   5   8  1   
 10   5  25  1   
 11   5  26  1   
 12   6  27  1   
 13   7   9  1   
 14   7  28  1   
 15   7  29  1   
 16   8  10  1   
 17   8  11  1   
 18   9  12  1   
 19   9  13  1   
 20   9  30  1   
 21  10  14  1   
 22  10  31  1   
 23  10  32  1   
 24  11  15  1   
 25  11  33  1   
 26  11  34  1   
 27  12  16  1   
 28  12  35  1   
 29  12  36  1   
 30  13  17  1   
 31  13  37  1   
 32  13  38  1   
 33  14  18  1   
 34  14  19  1   
 35  14  39  1   
 36  15  18  1   
 37  15  40  1   
 38  15  41  1   
 39  16  20  1   
 40  16  42  1   
 41  16  43  1   
 42  17  20  1   
 43  17  44  1   
 44  17  45  1   
 45  18  21  1   
 46  18  46  1   
 47  19  22  ar  
 48  19  23  ar  
 49  20  47  1   
 50  20  48  1   
 51  21  49  1   
 52  21  50  1   
 53  21  51  1   
@<TRIPOS>SUBSTRUCTURE
  1 ****   2 GROUP 4 **** **** 0

# MOE 2024.06 (io_trps.svl 2023.06)
