@<TRIPOS>MOLECULE
NONAME
52 54 1 0 0 
SMALL
USER_CHARGES


@<TRIPOS>ATOM
  1 O        1.5650     0.7640     2.1960 O.co2 1 <1>  -0.9000 
  2 C        1.8030     0.1160     1.1700 C.2   1 <1>   0.9060 
  3 O        1.6880    -1.1200     1.1610 O.co2 1 <1>  -0.9000 
  4 C        2.2650     0.8240    -0.1200 C.3   1 <1>  -0.1060 
  5 C        3.5130     0.0930    -0.6800 C.3   1 <1>   0.2000 
  6 C        2.6870     2.2970     0.1520 C.3   1 <1>  -0.1600 
  7 C        1.1280     0.7660    -1.1770 C.3   1 <1>  -0.0160 
  8 O        3.2250    -1.2430    -0.9060 O.3   1 <1>  -0.6800 
  9 C        4.7210     0.2010     0.2620 C.3   1 <1>   0.1400 
 10 C        3.9040     2.4010     1.0830 C.3   1 <1>   0.1400 
 11 C        0.0130     1.7950    -0.9950 C.ar  1 <1>  -0.1440 
 12 N        5.0520     1.6440     0.5000 N.am  1 <1>  -0.6600 
 13 C       -0.8550     1.7120     0.0820 C.ar  1 <1>  -0.1500 
 14 C       -0.1440     2.8250    -1.9110 C.ar  1 <1>  -0.1500 
 15 C        6.2750     2.1640     0.1520 C.2   1 <1>   0.5690 
 16 C       -1.8640     2.6450     0.2450 C.ar  1 <1>  -0.1500 
 17 C       -1.1540     3.7590    -1.7520 C.ar  1 <1>  -0.1500 
 18 O        7.0990     1.4970    -0.4330 O.2   1 <1>  -0.5700 
 19 C        6.6400     3.6210     0.4780 C.3   1 <1>  -0.0190 
 20 C       -2.0150     3.6700    -0.6720 C.ar  1 <1>  -0.1500 
 21 C        6.1020     4.5770    -0.6080 C.3   1 <1>  -0.1600 
 22 C        8.1600     3.8330     0.6630 C.3   1 <1>  -0.1600 
 23 C        6.4320     6.0430    -0.2890 C.3   1 <1>  -0.1600 
 24 C        8.4940     5.2970     0.9910 C.3   1 <1>  -0.1600 
 25 C        7.9370     6.2330    -0.0850 C.3   1 <1>   0.2000 
 26 O        8.1580     7.5320     0.3140 O.3   1 <1>  -0.6800 
 27 H        3.7970     0.5130    -1.6290 H     1 <1>   0.0800 
 28 H        1.8710     2.8240     0.6150 H     1 <1>   0.0800 
 29 H        2.9100     2.7940    -0.7750 H     1 <1>   0.0800 
 30 H        1.5550     0.8990    -2.1540 H     1 <1>   0.0800 
 31 H        0.6890    -0.2180    -1.1690 H     1 <1>   0.0800 
 32 H        2.6350    -1.5230    -0.1390 H     1 <1>   0.4000 
 33 H        5.5570    -0.3130    -0.1790 H     1 <1>   0.0800 
 34 H        4.4920    -0.2660     1.2050 H     1 <1>   0.0800 
 35 H        3.6680     1.9890     2.0500 H     1 <1>   0.0800 
 36 H        4.1370     3.4380     1.2240 H     1 <1>   0.0800 
 37 H       -0.7420     0.9210     0.8070 H     1 <1>   0.1500 
 38 H        0.5200     2.9040    -2.7520 H     1 <1>   0.1500 
 39 H       -2.5240     2.5680     1.0910 H     1 <1>   0.1500 
 40 H       -1.2690     4.5540    -2.4660 H     1 <1>   0.1500 
 41 H        6.1870     3.8710     1.4190 H     1 <1>   0.0800 
 42 H       -2.7990     4.3940    -0.5430 H     1 <1>   0.1500 
 43 H        6.5410     4.3090    -1.5550 H     1 <1>   0.0800 
 44 H        5.0370     4.4630    -0.7030 H     1 <1>   0.0800 
 45 H        8.5160     3.1950     1.4540 H     1 <1>   0.0800 
 46 H        8.6740     3.5490    -0.2400 H     1 <1>   0.0800 
 47 H        5.9030     6.3330     0.6020 H     1 <1>   0.0800 
 48 H        6.1030     6.6670    -1.1020 H     1 <1>   0.0800 
 49 H        9.5630     5.4140     1.0450 H     1 <1>   0.0800 
 50 H        8.0710     5.5460     1.9480 H     1 <1>   0.0800 
 51 H        8.4600     6.0810    -1.0150 H     1 <1>   0.0800 
 52 H        7.7180     7.6970     1.1680 H     1 <1>   0.4000 
@<TRIPOS>BOND
  1   1   2  ar  
  2   2   3  ar  
  3   2   4  1   
  4   4   5  1   
  5   4   6  1   
  6   4   7  1   
  7   5   8  1   
  8   5   9  1   
  9   5  27  1   
 10   6  10  1   
 11   6  28  1   
 12   6  29  1   
 13   7  11  1   
 14   7  30  1   
 15   7  31  1   
 16   8  32  1   
 17   9  12  1   
 18   9  33  1   
 19   9  34  1   
 20  10  12  1   
 21  10  35  1   
 22  10  36  1   
 23  11  13  ar  
 24  11  14  ar  
 25  12  15  am  
 26  13  16  ar  
 27  13  37  1   
 28  14  17  ar  
 29  14  38  1   
 30  15  18  2   
 31  15  19  1   
 32  16  20  ar  
 33  16  39  1   
 34  17  20  ar  
 35  17  40  1   
 36  19  21  1   
 37  19  22  1   
 38  19  41  1   
 39  20  42  1   
 40  21  23  1   
 41  21  43  1   
 42  21  44  1   
 43  22  24  1   
 44  22  45  1   
 45  22  46  1   
 46  23  25  1   
 47  23  47  1   
 48  23  48  1   
 49  24  25  1   
 50  24  49  1   
 51  24  50  1   
 52  25  26  1   
 53  25  51  1   
 54  26  52  1   
@<TRIPOS>SUBSTRUCTURE
  1 ****   6 GROUP 4 **** **** 0

# MOE 2024.06 (io_trps.svl 2023.06)
