@<TRIPOS>MOLECULE
NONAME
53 56 1 0 0 
SMALL
USER_CHARGES


@<TRIPOS>ATOM
  1 S       -3.2800     1.0660     2.5240 S.3   1 <1>  -0.0800 
  2 C       -3.7620     0.6620     0.8900 C.2   1 <1>   0.1980 
  3 C       -3.0500     2.7130     2.0180 C.2   1 <1>  -0.1100 
  4 N       -3.7510     1.6460     0.0830 N.2   1 <1>  -0.5650 
  5 C       -4.1370    -0.7830     0.6280 C.3   1 <1>   0.0200 
  6 C       -3.3470     2.8100     0.7140 C.2   1 <1>   0.0460 
  7 C       -4.3210    -1.0540    -0.8660 C.3   1 <1>   0.1400 
  8 C       -3.2840     4.0610    -0.1340 C.3   1 <1>  -0.0590 
  9 N       -4.7780    -2.4480    -1.0820 N.am  1 <1>  -0.7300 
 10 C       -3.9610    -3.5300    -1.1500 C.2   1 <1>   0.5690 
 11 O       -2.7740    -3.4390    -0.9570 O.2   1 <1>  -0.5700 
 12 C       -4.5820    -4.8720    -1.4630 C.3   1 <1>  -0.0990 
 13 C       -4.6390    -5.8570    -0.2690 C.3   1 <1>   0.3000 
 14 N       -3.3360    -6.5940    -0.1850 N.am  1 <1>  -0.6600 
 15 C       -5.7780    -6.8800    -0.4980 C.3   1 <1>  -0.1600 
 16 C       -4.9380    -5.1670     1.0840 C.3   1 <1>  -0.1600 
 17 C       -2.8610    -7.5250    -1.0750 C.2   1 <1>   0.5440 
 18 C       -2.2260    -6.1740     0.7260 C.3   1 <1>   0.2840 
 19 C       -7.1540    -6.4070     0.0000 C.3   1 <1>   0.1200 
 20 C       -6.3370    -4.5320     1.1460 C.3   1 <1>   0.1200 
 21 O       -3.5030    -7.9900    -1.9970 O.2   1 <1>  -0.5700 
 22 C       -1.4960    -7.8460    -0.7740 C.ar  1 <1>   0.0860 
 23 C       -1.0810    -7.0700     0.2880 C.ar  1 <1>  -0.1430 
 24 O       -7.1610    -5.0200     0.1320 O.3   1 <1>  -0.5600 
 25 C       -0.6130    -8.7500    -1.3520 C.ar  1 <1>  -0.1500 
 26 C        0.2010    -7.1700     0.7960 C.ar  1 <1>  -0.1500 
 27 C        0.6740    -8.8610    -0.8520 C.ar  1 <1>  -0.1500 
 28 C        1.0800    -8.0740     0.2180 C.ar  1 <1>  -0.1500 
 29 H       -2.7180     3.4270     2.7490 H     1 <1>   0.1500 
 30 H       -5.0490    -0.9990     1.1510 H     1 <1>   0.0800 
 31 H       -3.3550    -1.4170     1.0060 H     1 <1>   0.0800 
 32 H       -3.3840    -0.8990    -1.3750 H     1 <1>   0.0800 
 33 H       -5.0450    -0.3710    -1.2790 H     1 <1>   0.0800 
 34 H       -2.9590     4.8990     0.4540 H     1 <1>   0.0800 
 35 H       -4.2570     4.2710    -0.5400 H     1 <1>   0.0800 
 36 H       -2.5940     3.9120    -0.9450 H     1 <1>   0.0800 
 37 H       -5.7820    -2.5770    -1.2360 H     1 <1>   0.3700 
 38 H       -4.0440    -5.3170    -2.2790 H     1 <1>   0.0800 
 39 H       -5.5760    -4.6910    -1.8240 H     1 <1>   0.0800 
 40 H       -5.5490    -7.8010     0.0090 H     1 <1>   0.0800 
 41 H       -5.8570    -7.1130    -1.5450 H     1 <1>   0.0800 
 42 H       -4.2100    -4.4130     1.3200 H     1 <1>   0.0800 
 43 H       -4.8900    -5.9080     1.8620 H     1 <1>   0.0800 
 44 H       -2.4850    -6.3620     1.7530 H     1 <1>   0.0800 
 45 H       -1.9730    -5.1400     0.5810 H     1 <1>   0.0800 
 46 H       -7.3880    -6.8390     0.9590 H     1 <1>   0.0800 
 47 H       -7.9240    -6.6810    -0.7000 H     1 <1>   0.0800 
 48 H       -6.2730    -3.4660     1.0160 H     1 <1>   0.0800 
 49 H       -6.8090    -4.7320     2.0930 H     1 <1>   0.0800 
 50 H       -0.9430    -9.3500    -2.1820 H     1 <1>   0.1500 
 51 H        0.5160    -6.5580     1.6230 H     1 <1>   0.1500 
 52 H        1.3630    -9.5590    -1.2950 H     1 <1>   0.1500 
 53 H        2.0820    -8.1650     0.6000 H     1 <1>   0.1500 
@<TRIPOS>BOND
  1   1   2  1   
  2   1   3  1   
  3   2   4  2   
  4   2   5  1   
  5   3   6  2   
  6   3  29  1   
  7   4   6  1   
  8   5   7  1   
  9   5  30  1   
 10   5  31  1   
 11   6   8  1   
 12   7   9  1   
 13   7  32  1   
 14   7  33  1   
 15   8  34  1   
 16   8  35  1   
 17   8  36  1   
 18   9  10  am  
 19   9  37  1   
 20  10  11  2   
 21  10  12  1   
 22  12  13  1   
 23  12  38  1   
 24  12  39  1   
 25  13  14  1   
 26  13  15  1   
 27  13  16  1   
 28  14  17  am  
 29  14  18  1   
 30  15  19  1   
 31  15  40  1   
 32  15  41  1   
 33  16  20  1   
 34  16  42  1   
 35  16  43  1   
 36  17  21  2   
 37  17  22  1   
 38  18  23  1   
 39  18  44  1   
 40  18  45  1   
 41  19  24  1   
 42  19  46  1   
 43  19  47  1   
 44  20  24  1   
 45  20  48  1   
 46  20  49  1   
 47  22  23  ar  
 48  22  25  ar  
 49  23  26  ar  
 50  25  27  ar  
 51  25  50  1   
 52  26  28  ar  
 53  26  51  1   
 54  27  28  ar  
 55  27  52  1   
 56  28  53  1   
@<TRIPOS>SUBSTRUCTURE
  1 ****  11 GROUP 4 **** **** 0

# MOE 2024.06 (io_trps.svl 2023.06)
