@<TRIPOS>MOLECULE
NONAME
49 52 1 0 0 
SMALL
USER_CHARGES


@<TRIPOS>ATOM
  1 CL       2.1350    -5.8500    -2.0550 Cl    1 <1>  -0.1770 
  2 C        2.8120    -4.3310    -1.5080 C.ar  1 <1>   0.1770 
  3 C        2.2820    -3.6720    -0.4030 C.ar  1 <1>  -0.0230 
  4 C        3.8810    -3.8150    -2.2170 C.ar  1 <1>  -0.1500 
  5 N        1.1930    -4.2030     0.3370 N.pl3 1 <1>   0.5930 
  6 C        2.8530    -2.4560    -0.0340 C.ar  1 <1>  -0.1500 
  7 C        4.4410    -2.6100    -1.8290 C.ar  1 <1>  -0.1500 
  8 N        0.1010    -3.4700     0.6670 N.2   1 <1>  -0.7070 
  9 C        1.0990    -5.4290     0.9140 C.2   1 <1>  -0.3020 
 10 C        3.9240    -1.9320    -0.7390 C.ar  1 <1>  -0.1500 
 11 C       -0.6310    -4.2270     1.4160 C.2   1 <1>   0.1390 
 12 C       -0.0610    -5.4790     1.6060 C.2   1 <1>  -0.1810 
 13 C       -0.6470    -6.6070     2.4260 C.3   1 <1>   0.5240 
 14 N       -1.4580    -7.4630     1.5340 N.4   1 <1>  -0.9590 
 15 C       -2.6430    -6.8170     0.8980 C.3   1 <1>   0.3430 
 16 C       -1.9070    -8.7580     2.0890 C.3   1 <1>   0.3430 
 17 C       -3.6410    -7.9500     0.6180 C.3   1 <1>   0.2000 
 18 C       -2.9850    -9.2440     1.1200 C.3   1 <1>  -0.0800 
 19 O       -4.8070    -7.7240     1.3400 O.3   1 <1>  -0.6800 
 20 C       -2.4050   -10.1070    -0.0260 C.3   1 <1>   0.0210 
 21 C       -1.1180    -9.5920    -0.6560 C.2   1 <1>   0.1080 
 22 N       -0.9640    -8.3860    -1.1130 N.2   1 <1>  -0.7070 
 23 C        0.0300   -10.3590    -0.8190 C.2   1 <1>  -0.1500 
 24 N        0.2850    -8.3680    -1.6280 N.pl3 1 <1>   0.3000 
 25 C        0.9110    -9.5460    -1.4380 C.2   1 <1>  -0.3320 
 26 C        2.3320    -9.8300    -1.8910 C.3   1 <1>  -0.0600 
 27 H        4.2700    -4.3480    -3.0660 H     1 <1>   0.1500 
 28 H        2.4540    -1.9150     0.8080 H     1 <1>   0.1500 
 29 H        5.2730    -2.1990    -2.3750 H     1 <1>   0.1500 
 30 H        1.8690    -6.1690     0.7930 H     1 <1>   0.1500 
 31 H        4.3540    -0.9910    -0.4390 H     1 <1>   0.1500 
 32 H       -1.5680    -3.8960     1.8350 H     1 <1>   0.1500 
 33 H       -1.2520    -6.2120     3.2250 H     1 <1>   0.0800 
 34 H        0.1570    -7.1840     2.8540 H     1 <1>   0.0800 
 35 H       -0.8700    -7.7080     0.7060 H     1 <1>   0.4500 
 36 H       -3.0910    -6.0890     1.5540 H     1 <1>   0.0800 
 37 H       -2.3500    -6.3420    -0.0250 H     1 <1>   0.0800 
 38 H       -1.0930    -9.4630     2.1610 H     1 <1>   0.0800 
 39 H       -2.3400    -8.6070     3.0650 H     1 <1>   0.0800 
 40 H       -3.9030    -7.9870    -0.4270 H     1 <1>   0.0800 
 41 H       -3.7050    -9.8530     1.6410 H     1 <1>   0.0800 
 42 H       -4.7010    -7.8660     2.3000 H     1 <1>   0.4000 
 43 H       -3.1430   -10.2150    -0.8030 H     1 <1>   0.0800 
 44 H       -2.2140   -11.0950     0.3550 H     1 <1>   0.0800 
 45 H        0.1660   -11.3850    -0.5220 H     1 <1>   0.1500 
 46 H        0.6850    -7.5480    -2.1090 H     1 <1>   0.2700 
 47 H        2.6110   -10.8360    -1.6320 H     1 <1>   0.0800 
 48 H        3.0200    -9.1510    -1.4190 H     1 <1>   0.0800 
 49 H        2.4110    -9.7190    -2.9590 H     1 <1>   0.0800 
@<TRIPOS>BOND
  1   1   2  1   
  2   2   3  ar  
  3   2   4  ar  
  4   3   5  1   
  5   3   6  ar  
  6   4   7  ar  
  7   4  27  1   
  8   5   8  1   
  9   5   9  1   
 10   6  10  ar  
 11   6  28  1   
 12   7  10  ar  
 13   7  29  1   
 14   8  11  2   
 15   9  12  2   
 16   9  30  1   
 17  10  31  1   
 18  11  12  1   
 19  11  32  1   
 20  12  13  1   
 21  13  14  1   
 22  13  33  1   
 23  13  34  1   
 24  14  15  1   
 25  14  16  1   
 26  14  35  1   
 27  15  17  1   
 28  15  36  1   
 29  15  37  1   
 30  16  18  1   
 31  16  38  1   
 32  16  39  1   
 33  17  18  1   
 34  17  19  1   
 35  17  40  1   
 36  18  20  1   
 37  18  41  1   
 38  19  42  1   
 39  20  21  1   
 40  20  43  1   
 41  20  44  1   
 42  21  22  2   
 43  21  23  1   
 44  22  24  1   
 45  23  25  2   
 46  23  45  1   
 47  24  25  1   
 48  24  46  1   
 49  25  26  1   
 50  26  47  1   
 51  26  48  1   
 52  26  49  1   
@<TRIPOS>SUBSTRUCTURE
  1 ****   9 GROUP 4 **** **** 0

# MOE 2024.06 (io_trps.svl 2023.06)
