@<TRIPOS>MOLECULE
NONAME
41 43 1 0 0 
SMALL
USER_CHARGES


@<TRIPOS>ATOM
  1 S       -0.5670     0.5620     1.6680 S.3   1 <1>  -0.0800 
  2 C        0.7520     0.9040     0.5720 C.2   1 <1>   0.1980 
  3 C       -1.2610     2.1080     1.2780 C.2   1 <1>  -0.1100 
  4 N        0.6730     2.0360    -0.0050 N.2   1 <1>  -0.5650 
  5 C        1.8230    -0.1540     0.4290 C.3   1 <1>  -0.0600 
  6 C       -0.4710     2.7260     0.3860 C.2   1 <1>   0.0460 
  7 C       -0.7100     4.1070    -0.2100 C.3   1 <1>   0.5240 
  8 N        0.5590     4.8880    -0.1390 N.4   1 <1>  -0.8520 
  9 C        0.4590     6.3160     0.2450 C.3   1 <1>   0.2960 
 10 C        1.3480     4.6960    -1.3740 C.3   1 <1>   0.4810 
 11 C       -0.5300     6.7710     1.2640 C.3   1 <1>  -0.2000 
 12 C       -0.7140     7.1340    -0.1840 C.3   1 <1>  -0.2000 
 13 C        2.7940     4.9440    -1.0190 C.2   1 <1>  -0.2880 
 14 C        3.6780     3.9680    -0.7500 C.2   1 <1>  -0.1780 
 15 C        5.0740     4.1060    -0.3950 C.ar  1 <1>   0.0280 
 16 C        5.7820     5.2910    -0.5850 C.ar  1 <1>  -0.1500 
 17 C        5.7590     3.0260     0.1570 C.ar  1 <1>  -0.1500 
 18 C        7.1140     5.3970    -0.2300 C.ar  1 <1>  -0.1500 
 19 C        7.0910     3.1250     0.5140 C.ar  1 <1>  -0.1500 
 20 C        7.7720     4.3130     0.3220 C.ar  1 <1>  -0.1500 
 21 H       -2.1840     2.3700     1.7650 H     1 <1>   0.1500 
 22 H        2.5680     0.1690    -0.2750 H     1 <1>   0.0800 
 23 H        1.3850    -1.0700     0.0770 H     1 <1>   0.0800 
 24 H        2.2910    -0.3310     1.3800 H     1 <1>   0.0800 
 25 H       -1.4920     4.5940     0.3450 H     1 <1>   0.0800 
 26 H       -1.0300     4.0110    -1.2340 H     1 <1>   0.0800 
 27 H        1.1160     4.3940     0.5740 H     1 <1>   0.4500 
 28 H        1.4250     6.8000     0.2730 H     1 <1>   0.1000 
 29 H        1.2460     3.6780    -1.7170 H     1 <1>   0.0800 
 30 H        1.0200     5.3610    -2.1560 H     1 <1>   0.0800 
 31 H       -1.2130     6.0800     1.7230 H     1 <1>   0.1000 
 32 H       -0.2440     7.5590     1.9410 H     1 <1>   0.1000 
 33 H       -0.5540     8.1620    -0.4610 H     1 <1>   0.1000 
 34 H       -1.5370     6.6960    -0.7190 H     1 <1>   0.1000 
 35 H        3.0510     5.9870    -0.9980 H     1 <1>   0.1500 
 36 H        3.3550     2.9400    -0.7830 H     1 <1>   0.1500 
 37 H        5.2980     6.1440    -1.0200 H     1 <1>   0.1500 
 38 H        5.2460     2.0950     0.3150 H     1 <1>   0.1500 
 39 H        7.6430     6.3210    -0.3840 H     1 <1>   0.1500 
 40 H        7.6010     2.2780     0.9410 H     1 <1>   0.1500 
 41 H        8.8090     4.3930     0.5990 H     1 <1>   0.1500 
@<TRIPOS>BOND
  1   1   2  1   
  2   1   3  1   
  3   2   4  2   
  4   2   5  1   
  5   3   6  2   
  6   3  21  1   
  7   4   6  1   
  8   5  22  1   
  9   5  23  1   
 10   5  24  1   
 11   6   7  1   
 12   7   8  1   
 13   7  25  1   
 14   7  26  1   
 15   8   9  1   
 16   8  10  1   
 17   8  27  1   
 18   9  11  1   
 19   9  12  1   
 20   9  28  1   
 21  10  13  1   
 22  10  29  1   
 23  10  30  1   
 24  11  12  1   
 25  11  31  1   
 26  11  32  1   
 27  12  33  1   
 28  12  34  1   
 29  13  14  2   
 30  13  35  1   
 31  14  15  1   
 32  14  36  1   
 33  15  16  ar  
 34  15  17  ar  
 35  16  18  ar  
 36  16  37  1   
 37  17  19  ar  
 38  17  38  1   
 39  18  20  ar  
 40  18  39  1   
 41  19  20  ar  
 42  19  40  1   
 43  20  41  1   
@<TRIPOS>SUBSTRUCTURE
  1 ****  14 GROUP 4 **** **** 0

# MOE 2024.06 (io_trps.svl 2023.06)
