@<TRIPOS>MOLECULE
NONAME
34 34 1 0 0 
SMALL
USER_CHARGES


@<TRIPOS>ATOM
  1 F        0.5260    -0.6870    -0.4270 F     1 <1>  -0.3400 
  2 C        1.6470    -0.0370    -0.0740 C.3   1 <1>   0.7170 
  3 F        2.4180    -0.1820    -1.1620 F     1 <1>  -0.3400 
  4 C        1.3340     1.4720     0.0580 C.ar  1 <1>  -0.1440 
  5 C        2.3200    -0.6810     1.1990 C.2   1 <1>   0.9060 
  6 C        0.0760     2.0080    -0.1990 C.ar  1 <1>  -0.1500 
  7 C        2.3450     2.3410     0.4510 C.ar  1 <1>  -0.1500 
  8 O        3.5330    -0.4910     1.4340 O.co2 1 <1>  -0.9000 
  9 O        1.6530    -1.3510     2.0140 O.co2 1 <1>  -0.9000 
 10 C       -0.1610     3.3650    -0.0640 C.ar  1 <1>  -0.1500 
 11 C        2.1070     3.6960     0.5860 C.ar  1 <1>  -0.1500 
 12 C        0.8520     4.2330     0.3310 C.ar  1 <1>   0.1170 
 13 N        0.6710     5.6130     0.5000 N.am  1 <1>  -0.5470 
 14 C       -0.3310     6.4660     0.1600 C.2   1 <1>   0.7800 
 15 O       -1.3340     6.1420    -0.4410 O.2   1 <1>  -0.5700 
 16 O       -0.1210     7.7260     0.5390 O.3   1 <1>  -0.4300 
 17 C       -0.9700     8.8350     0.3280 C.3   1 <1>   0.2800 
 18 C       -2.3100     8.6220     1.0410 C.3   1 <1>  -0.2400 
 19 C       -0.2440    10.0200     0.9660 C.3   1 <1>  -0.2400 
 20 C       -1.1400     9.0960    -1.1730 C.3   1 <1>  -0.2400 
 21 H       -0.7350     1.3690    -0.5050 H     1 <1>   0.1500 
 22 H        3.3300     1.9510     0.6580 H     1 <1>   0.1500 
 23 H       -1.1470     3.7390    -0.2670 H     1 <1>   0.1500 
 24 H        2.9130     4.3350     0.8940 H     1 <1>   0.1500 
 25 H        1.4360     6.0970     0.9590 H     1 <1>   0.3700 
 26 H       -2.1500     8.3720     2.0740 H     1 <1>   0.0800 
 27 H       -2.8800     7.8410     0.5730 H     1 <1>   0.0800 
 28 H       -2.8970     9.5210     0.9960 H     1 <1>   0.0800 
 29 H       -0.0930     9.8450     2.0160 H     1 <1>   0.0800 
 30 H       -0.8230    10.9190     0.8520 H     1 <1>   0.0800 
 31 H        0.7110    10.1710     0.4940 H     1 <1>   0.0800 
 32 H       -1.7100     8.3140    -1.6410 H     1 <1>   0.0800 
 33 H       -0.1810     9.1700    -1.6520 H     1 <1>   0.0800 
 34 H       -1.6700    10.0180    -1.3270 H     1 <1>   0.0800 
@<TRIPOS>BOND
  1   1   2  1   
  2   2   3  1   
  3   2   4  1   
  4   2   5  1   
  5   4   6  ar  
  6   4   7  ar  
  7   5   8  ar  
  8   5   9  ar  
  9   6  10  ar  
 10   6  21  1   
 11   7  11  ar  
 12   7  22  1   
 13  10  12  ar  
 14  10  23  1   
 15  11  12  ar  
 16  11  24  1   
 17  12  13  1   
 18  13  14  am  
 19  13  25  1   
 20  14  15  2   
 21  14  16  1   
 22  16  17  1   
 23  17  18  1   
 24  17  19  1   
 25  17  20  1   
 26  18  26  1   
 27  18  27  1   
 28  18  28  1   
 29  19  29  1   
 30  19  30  1   
 31  19  31  1   
 32  20  32  1   
 33  20  33  1   
 34  20  34  1   
@<TRIPOS>SUBSTRUCTURE
  1 ****  12 GROUP 4 **** **** 0

# MOE 2024.06 (io_trps.svl 2023.06)
