@<TRIPOS>MOLECULE
NONAME
46 48 1 0 0 
SMALL
USER_CHARGES


@<TRIPOS>ATOM
  1 O        3.2350    -0.3550     2.0060 O.co2 1 <1>  -0.9000 
  2 C        2.3110     0.3390     1.5620 C.2   1 <1>   0.9060 
  3 O        1.7100     1.1440     2.2670 O.co2 1 <1>  -0.9000 
  4 C        2.0680     0.3430     0.0410 C.3   1 <1>  -0.1060 
  5 C        3.4480     0.2150    -0.6290 C.3   1 <1>   0.4230 
  6 C        1.4600     1.7010    -0.4110 C.3   1 <1>  -0.1600 
  7 C        1.1320    -0.8040    -0.4050 C.3   1 <1>  -0.1600 
  8 N        4.0340    -1.1500    -0.3710 N.4   1 <1>  -0.9590 
  9 C        4.3330     1.3980    -0.1320 C.3   1 <1>   0.3430 
 10 C        2.3000     2.8920     0.0710 C.3   1 <1>   0.3430 
 11 C        1.7910    -2.1780    -0.2170 C.3   1 <1>  -0.1600 
 12 C        3.1700    -2.2530    -0.8740 C.3   1 <1>   0.3430 
 13 C        5.4590    -1.3390    -0.7680 C.3   1 <1>   0.2630 
 14 N        3.7160     2.7530    -0.3850 N.4   1 <1>  -0.9590 
 15 C        4.5690     3.8100     0.2180 C.3   1 <1>   0.5240 
 16 C        5.8610     3.8750    -0.5920 C.2   1 <1>   0.0460 
 17 N        5.8390     3.6130    -1.9200 N.2   1 <1>  -0.5650 
 18 C        7.1170     4.1610    -0.1770 C.2   1 <1>  -0.3320 
 19 C        7.0720     3.7690    -2.2850 C.2   1 <1>   0.0360 
 20 N        7.9000     4.1010    -1.2730 N.pl3 1 <1>   0.0330 
 21 C        7.6650     4.5120     1.1970 C.3   1 <1>  -0.0600 
 22 H        3.3230     0.3250    -1.6920 H     1 <1>   0.0800 
 23 H        0.4760     1.8020     0.0150 H     1 <1>   0.0800 
 24 H        1.3530     1.7420    -1.4810 H     1 <1>   0.0800 
 25 H        0.2200    -0.7660     0.1700 H     1 <1>   0.0800 
 26 H        0.8690    -0.6830    -1.4420 H     1 <1>   0.0800 
 27 H        3.9640    -1.2070     0.6830 H     1 <1>   0.4500 
 28 H        5.2890     1.3540    -0.6260 H     1 <1>   0.0800 
 29 H        4.4970     1.2810     0.9280 H     1 <1>   0.0800 
 30 H        2.2680     2.9360     1.1490 H     1 <1>   0.0800 
 31 H        1.8760     3.8090    -0.3050 H     1 <1>   0.0800 
 32 H        1.1570    -2.9380    -0.6380 H     1 <1>   0.0800 
 33 H        1.8890    -2.3960     0.8340 H     1 <1>   0.0800 
 34 H        3.0660    -2.1780    -1.9440 H     1 <1>   0.0800 
 35 H        3.6180    -3.2050    -0.6400 H     1 <1>   0.0800 
 36 H        5.5700    -1.2290    -1.8340 H     1 <1>   0.0800 
 37 H        5.7910    -2.3250    -0.4850 H     1 <1>   0.0800 
 38 H        6.0870    -0.6180    -0.2710 H     1 <1>   0.0800 
 39 H        3.8010     2.9560    -1.3960 H     1 <1>   0.4500 
 40 H        4.0730     4.7640     0.1500 H     1 <1>   0.0800 
 41 H        4.7760     3.5960     1.2540 H     1 <1>   0.0800 
 42 H        7.4280     3.6540    -3.2950 H     1 <1>   0.1500 
 43 H        8.9080     4.2830    -1.3360 H     1 <1>   0.2700 
 44 H        6.8850     4.5100     1.9370 H     1 <1>   0.0800 
 45 H        8.1120     5.4900     1.1800 H     1 <1>   0.0800 
 46 H        8.4140     3.7980     1.4930 H     1 <1>   0.0800 
@<TRIPOS>BOND
  1   1   2  ar  
  2   2   3  ar  
  3   2   4  1   
  4   4   5  1   
  5   4   6  1   
  6   4   7  1   
  7   5   8  1   
  8   5   9  1   
  9   5  22  1   
 10   6  10  1   
 11   6  23  1   
 12   6  24  1   
 13   7  11  1   
 14   7  25  1   
 15   7  26  1   
 16   8  12  1   
 17   8  13  1   
 18   8  27  1   
 19   9  14  1   
 20   9  28  1   
 21   9  29  1   
 22  10  14  1   
 23  10  30  1   
 24  10  31  1   
 25  11  12  1   
 26  11  32  1   
 27  11  33  1   
 28  12  34  1   
 29  12  35  1   
 30  13  36  1   
 31  13  37  1   
 32  13  38  1   
 33  14  15  1   
 34  14  39  1   
 35  15  16  1   
 36  15  40  1   
 37  15  41  1   
 38  16  17  1   
 39  16  18  2   
 40  17  19  2   
 41  18  20  1   
 42  18  21  1   
 43  19  20  1   
 44  19  42  1   
 45  20  43  1   
 46  21  44  1   
 47  21  45  1   
 48  21  46  1   
@<TRIPOS>SUBSTRUCTURE
  1 ****   9 GROUP 4 **** **** 0

# MOE 2024.06 (io_trps.svl 2023.06)
