@<TRIPOS>MOLECULE
NONAME
49 50 1 0 0 
SMALL
USER_CHARGES


@<TRIPOS>ATOM
  1 O       -0.5230     0.4970     2.1460 O.2   1 <1>  -0.5700 
  2 C       -1.2910     1.0200     1.3590 C.2   1 <1>   0.5440 
  3 N       -2.3700     0.2840     0.9080 N.am  1 <1>  -0.6600 
  4 C       -1.0590     2.3910     0.9480 C.ar  1 <1>   0.0860 
  5 C       -2.5100    -1.1580     1.3160 C.3   1 <1>   0.1400 
  6 C       -3.5660     0.9230     0.2690 C.3   1 <1>   0.1400 
  7 C       -1.0750     2.7810    -0.3920 C.ar  1 <1>  -0.1500 
  8 C       -0.8040     3.3840     1.8940 C.ar  1 <1>  -0.1500 
  9 C       -3.4260    -1.9220     0.3470 C.3   1 <1>   0.2000 
 10 C       -4.8550     0.1990     0.6710 C.3   1 <1>  -0.1600 
 11 C       -0.8740     4.0960    -0.7640 C.ar  1 <1>  -0.1500 
 12 C       -0.6000     4.6990     1.5240 C.ar  1 <1>  -0.1500 
 13 O       -2.8430    -1.8430    -0.9080 O.3   1 <1>  -0.6800 
 14 C       -4.8510    -1.3130     0.3220 C.3   1 <1>  -0.0800 
 15 C       -0.6380     5.0830     0.1890 C.ar  1 <1>   0.1170 
 16 C       -5.5790    -1.6190    -1.0010 C.3   1 <1>   0.1200 
 17 N       -0.4300     6.4290    -0.1270 N.am  1 <1>  -0.5470 
 18 O       -6.9160    -1.2640    -0.8980 O.3   1 <1>  -0.6800 
 19 C       -0.4900     7.1470    -1.2880 C.2   1 <1>   0.5690 
 20 O       -0.7690     6.6840    -2.3680 O.2   1 <1>  -0.5700 
 21 C       -0.1910     8.6440    -1.1700 C.3   1 <1>   0.1710 
 22 N        0.5450     9.0150     0.0810 N.3   1 <1>  -0.8100 
 23 C        0.4040    10.4490     0.3570 C.3   1 <1>   0.0300 
 24 C        1.9700     8.6620    -0.0200 C.3   1 <1>   0.0300 
 25 H       -1.5430    -1.6310     1.3400 H     1 <1>   0.0800 
 26 H       -2.9190    -1.2000     2.3100 H     1 <1>   0.0800 
 27 H       -3.6360     1.9550     0.5680 H     1 <1>   0.0800 
 28 H       -3.4580     0.8900    -0.8020 H     1 <1>   0.0800 
 29 H       -1.2440     2.0380    -1.1510 H     1 <1>   0.1500 
 30 H       -0.7660     3.1060     2.9330 H     1 <1>   0.1500 
 31 H       -3.4740    -2.9650     0.6110 H     1 <1>   0.0800 
 32 H       -4.9770     0.3150     1.7340 H     1 <1>   0.0800 
 33 H       -5.6920     0.6930     0.2100 H     1 <1>   0.0800 
 34 H       -0.8980     4.3520    -1.8080 H     1 <1>   0.1500 
 35 H       -0.4090     5.4380     2.2810 H     1 <1>   0.1500 
 36 H       -2.3630    -0.9900    -0.9510 H     1 <1>   0.4000 
 37 H       -5.4000    -1.8110     1.1020 H     1 <1>   0.0800 
 38 H       -5.5260    -2.6680    -1.2400 H     1 <1>   0.0800 
 39 H       -5.1500    -1.0550    -1.8130 H     1 <1>   0.0800 
 40 H       -0.1440     7.0410     0.6450 H     1 <1>   0.3700 
 41 H       -7.3750    -1.8320    -0.2500 H     1 <1>   0.4000 
 42 H       -1.1390     9.1500    -1.1880 H     1 <1>   0.0800 
 43 H        0.3660     8.9590    -2.0350 H     1 <1>   0.0800 
 44 H        0.9210    10.7000     1.2680 H     1 <1>   0.0800 
 45 H       -0.6360    10.7000     0.4810 H     1 <1>   0.0800 
 46 H        0.8130    11.0330    -0.4500 H     1 <1>   0.0800 
 47 H        2.4720     8.9000     0.9020 H     1 <1>   0.0800 
 48 H        2.4390     9.2060    -0.8230 H     1 <1>   0.0800 
 49 H        2.0850     7.6070    -0.2030 H     1 <1>   0.0800 
@<TRIPOS>BOND
  1   1   2  2   
  2   2   3  am  
  3   2   4  1   
  4   3   5  1   
  5   3   6  1   
  6   4   7  ar  
  7   4   8  ar  
  8   5   9  1   
  9   5  25  1   
 10   5  26  1   
 11   6  10  1   
 12   6  27  1   
 13   6  28  1   
 14   7  11  ar  
 15   7  29  1   
 16   8  12  ar  
 17   8  30  1   
 18   9  13  1   
 19   9  14  1   
 20   9  31  1   
 21  10  14  1   
 22  10  32  1   
 23  10  33  1   
 24  11  15  ar  
 25  11  34  1   
 26  12  15  ar  
 27  12  35  1   
 28  13  36  1   
 29  14  16  1   
 30  14  37  1   
 31  15  17  1   
 32  16  18  1   
 33  16  38  1   
 34  16  39  1   
 35  17  19  am  
 36  17  40  1   
 37  18  41  1   
 38  19  20  2   
 39  19  21  1   
 40  21  22  1   
 41  21  42  1   
 42  21  43  1   
 43  22  23  1   
 44  22  24  1   
 45  23  44  1   
 46  23  45  1   
 47  23  46  1   
 48  24  47  1   
 49  24  48  1   
 50  24  49  1   
@<TRIPOS>SUBSTRUCTURE
  1 ****   7 GROUP 4 **** **** 0

# MOE 2024.06 (io_trps.svl 2023.06)
