@<TRIPOS>MOLECULE
NONAME
50 52 1 0 0 
SMALL
USER_CHARGES


@<TRIPOS>ATOM
  1 O       -1.3280     2.2020     1.7470 O.2   1 <1>  -0.5700 
  2 C       -1.1100     2.2080     0.5450 C.2   1 <1>   0.5440 
  3 N        0.1310     2.5770     0.0750 N.am  1 <1>  -0.4200 
  4 C       -2.1160     1.8460    -0.4130 C.ar  1 <1>   0.0860 
  5 C        0.3650     2.5850    -1.2790 C.2   1 <1>   0.4500 
  6 C        1.2120     2.9740     1.0100 C.3   1 <1>   0.1400 
  7 C       -1.7620     1.8930    -1.7670 C.ar  1 <1>   0.1790 
  8 C       -3.4130     1.4550    -0.0670 C.ar  1 <1>  -0.1500 
  9 N       -0.4960     2.2730    -2.1700 N.2   1 <1>  -0.6290 
 10 C        1.1110     4.4720     1.3160 C.3   1 <1>  -0.1600 
 11 C       -2.7030     1.5510    -2.7320 C.ar  1 <1>  -0.1500 
 12 C       -4.3360     1.1190    -1.0360 C.ar  1 <1>  -0.1500 
 13 C        2.2490     4.9320     2.2440 C.3   1 <1>  -0.0990 
 14 C       -3.9790     1.1670    -2.3760 C.ar  1 <1>  -0.1500 
 15 C        2.1380     6.4000     2.6040 C.2   1 <1>   0.5690 
 16 O        1.8700     6.7110     3.7360 O.2   1 <1>  -0.5700 
 17 N        2.3490     7.3260     1.6420 N.am  1 <1>  -0.7300 
 18 C        2.3280     8.7930     1.8810 C.3   1 <1>   0.3200 
 19 C        3.4680     9.4770     1.1450 C.2   1 <1>   0.2980 
 20 O        4.6800     9.3710     1.6300 O.3   1 <1>  -0.0190 
 21 N        3.3650    10.1500     0.0680 N.2   1 <1>  -0.5650 
 22 N        5.4120    10.0360     0.7900 N.2   1 <1>  -0.4100 
 23 C        4.6360    10.4830    -0.1150 C.2   1 <1>   0.3350 
 24 C        5.0780    11.3220    -1.3000 C.3   1 <1>   0.0210 
 25 C        5.6540    10.4770    -2.4540 C.3   1 <1>  -0.0800 
 26 C        6.2110    11.3870    -3.5560 C.3   1 <1>  -0.2400 
 27 C        4.6050     9.5290    -3.0530 C.3   1 <1>  -0.2400 
 28 H        1.3530     2.8810    -1.5880 H     1 <1>   0.0600 
 29 H        2.1680     2.7480     0.5690 H     1 <1>   0.0800 
 30 H        1.1270     2.4050     1.9220 H     1 <1>   0.0800 
 31 H       -3.6850     1.4200     0.9740 H     1 <1>   0.1500 
 32 H        0.1690     4.6680     1.8010 H     1 <1>   0.0800 
 33 H        1.1460     5.0310     0.3980 H     1 <1>   0.0800 
 34 H       -2.4150     1.5910    -3.7680 H     1 <1>   0.1500 
 35 H       -5.3320     0.8200    -0.7570 H     1 <1>   0.1500 
 36 H        3.2020     4.7640     1.7770 H     1 <1>   0.0800 
 37 H        2.2220     4.3600     3.1550 H     1 <1>   0.0800 
 38 H       -4.6990     0.9050    -3.1330 H     1 <1>   0.1500 
 39 H        2.5760     7.0480     0.6870 H     1 <1>   0.3700 
 40 H        2.4080     9.0030     2.9330 H     1 <1>   0.0800 
 41 H        1.3940     9.1910     1.5270 H     1 <1>   0.0800 
 42 H        5.8300    12.0070    -0.9540 H     1 <1>   0.0800 
 43 H        4.2430    11.9020    -1.6500 H     1 <1>   0.0800 
 44 H        6.4660     9.8840    -2.0650 H     1 <1>   0.0800 
 45 H        5.4310    11.9980    -3.9760 H     1 <1>   0.0800 
 46 H        6.6450    10.7970    -4.3440 H     1 <1>   0.0800 
 47 H        6.9770    12.0310    -3.1600 H     1 <1>   0.0800 
 48 H        3.7600    10.0820    -3.4220 H     1 <1>   0.0800 
 49 H        4.2600     8.8290    -2.3130 H     1 <1>   0.0800 
 50 H        5.0300     8.9680    -3.8670 H     1 <1>   0.0800 
@<TRIPOS>BOND
  1   1   2  2   
  2   2   3  am  
  3   2   4  1   
  4   3   5  1   
  5   3   6  1   
  6   4   7  ar  
  7   4   8  ar  
  8   5   9  2   
  9   5  28  1   
 10   6  10  1   
 11   6  29  1   
 12   6  30  1   
 13   7   9  1   
 14   7  11  ar  
 15   8  12  ar  
 16   8  31  1   
 17  10  13  1   
 18  10  32  1   
 19  10  33  1   
 20  11  14  ar  
 21  11  34  1   
 22  12  14  ar  
 23  12  35  1   
 24  13  15  1   
 25  13  36  1   
 26  13  37  1   
 27  14  38  1   
 28  15  16  2   
 29  15  17  am  
 30  17  18  1   
 31  17  39  1   
 32  18  19  1   
 33  18  40  1   
 34  18  41  1   
 35  19  20  1   
 36  19  21  2   
 37  20  22  1   
 38  21  23  1   
 39  22  23  2   
 40  23  24  1   
 41  24  25  1   
 42  24  42  1   
 43  24  43  1   
 44  25  26  1   
 45  25  27  1   
 46  25  44  1   
 47  26  45  1   
 48  26  46  1   
 49  26  47  1   
 50  27  48  1   
 51  27  49  1   
 52  27  50  1   
@<TRIPOS>SUBSTRUCTURE
  1 ****  10 GROUP 4 **** **** 0

# MOE 2024.06 (io_trps.svl 2023.06)
