@<TRIPOS>MOLECULE
NONAME
46 49 1 0 0 
SMALL
USER_CHARGES


@<TRIPOS>ATOM
  1 F       -1.2290     0.2510    -0.9790 F     1 <1>  -0.1900 
  2 C       -0.8580     1.4750    -0.6970 C.ar  1 <1>   0.1900 
  3 C       -1.8040     2.3570    -0.1680 C.ar  1 <1>   0.1000 
  4 C        0.4490     1.8330    -0.9370 C.ar  1 <1>  -0.1500 
  5 N       -3.1260     1.9890     0.0710 N.pl3 1 <1>  -0.6000 
  6 C       -1.3950     3.6650     0.1320 C.ar  1 <1>   0.0860 
  7 C        0.8480     3.1300    -0.6400 C.ar  1 <1>  -0.1500 
  8 C       -4.0870     2.8410     0.5920 C.2   1 <1>   0.1140 
  9 C       -2.3680     4.5720     0.6830 C.2   1 <1>   0.4690 
 10 C       -0.0620     4.0250    -0.1150 C.ar  1 <1>  -0.1500 
 11 C       -5.4390     2.3320     0.7940 C.2   1 <1>   0.6160 
 12 C       -3.6860     4.1070     0.9040 C.2   1 <1>  -0.1360 
 13 O       -2.0820     5.7310     0.9540 O.2   1 <1>  -0.5700 
 14 O       -5.5800     1.1650     1.1170 O.2   1 <1>  -0.5700 
 15 N       -6.5640     3.1130     0.6160 N.am  1 <1>  -0.6600 
 16 C       -7.8860     2.7090     1.1830 C.3   1 <1>   0.1400 
 17 C       -6.6380     4.2610    -0.3300 C.3   1 <1>   0.1400 
 18 C       -8.8690     2.3110     0.0660 C.3   1 <1>   0.0000 
 19 C       -7.6030     3.9350    -1.4760 C.3   1 <1>  -0.1600 
 20 C      -10.2270     1.9030     0.6710 C.3   1 <1>   0.2000 
 21 C       -8.9790     3.4730    -0.9630 C.3   1 <1>  -0.1600 
 22 C       -8.4570     0.9990    -0.6280 C.3   1 <1>  -0.1600 
 23 O      -11.0440     2.9840     0.9430 O.3   1 <1>  -0.6800 
 24 C      -10.8920     0.9750    -0.3450 C.3   1 <1>  -0.1600 
 25 C       -9.7500     0.4020    -1.1940 C.3   1 <1>  -0.1600 
 26 H        1.1440     1.1200    -1.3460 H     1 <1>   0.1500 
 27 H       -3.4010     1.0050    -0.0760 H     1 <1>   0.4000 
 28 H        1.8670     3.4310    -0.8210 H     1 <1>   0.1500 
 29 H        0.2500     5.0310     0.1150 H     1 <1>   0.1500 
 30 H       -4.3660     4.8120     1.3420 H     1 <1>   0.1500 
 31 H       -7.7630     1.8930     1.8740 H     1 <1>   0.0800 
 32 H       -8.2940     3.5390     1.7340 H     1 <1>   0.0800 
 33 H       -6.9840     5.1300     0.2030 H     1 <1>   0.0800 
 34 H       -5.6720     4.4820    -0.7470 H     1 <1>   0.0800 
 35 H       -7.7280     4.8110    -2.0860 H     1 <1>   0.0800 
 36 H       -7.1610     3.1780    -2.0980 H     1 <1>   0.0800 
 37 H      -10.0710     1.3670     1.5930 H     1 <1>   0.0800 
 38 H       -9.5930     3.1840    -1.7970 H     1 <1>   0.0800 
 39 H       -9.4430     4.3220    -0.4920 H     1 <1>   0.0800 
 40 H       -7.7070     1.1290    -1.3860 H     1 <1>   0.0800 
 41 H       -8.0610     0.3190     0.1080 H     1 <1>   0.0800 
 42 H      -11.2720     3.4360     0.1100 H     1 <1>   0.4000 
 43 H      -11.4210     0.1900     0.1650 H     1 <1>   0.0800 
 44 H      -11.5740     1.5160    -0.9770 H     1 <1>   0.0800 
 45 H       -9.7260    -0.6740    -1.1510 H     1 <1>   0.0800 
 46 H       -9.8730     0.7030    -2.2200 H     1 <1>   0.0800 
@<TRIPOS>BOND
  1   1   2  1   
  2   2   3  ar  
  3   2   4  ar  
  4   3   5  1   
  5   3   6  ar  
  6   4   7  ar  
  7   4  26  1   
  8   5   8  1   
  9   5  27  1   
 10   6   9  1   
 11   6  10  ar  
 12   7  10  ar  
 13   7  28  1   
 14   8  11  1   
 15   8  12  2   
 16   9  12  1   
 17   9  13  2   
 18  10  29  1   
 19  11  14  2   
 20  11  15  am  
 21  12  30  1   
 22  15  16  1   
 23  15  17  1   
 24  16  18  1   
 25  16  31  1   
 26  16  32  1   
 27  17  19  1   
 28  17  33  1   
 29  17  34  1   
 30  18  20  1   
 31  18  21  1   
 32  18  22  1   
 33  19  21  1   
 34  19  35  1   
 35  19  36  1   
 36  20  23  1   
 37  20  24  1   
 38  20  37  1   
 39  21  38  1   
 40  21  39  1   
 41  22  25  1   
 42  22  40  1   
 43  22  41  1   
 44  23  42  1   
 45  24  25  1   
 46  24  43  1   
 47  24  44  1   
 48  25  45  1   
 49  25  46  1   
@<TRIPOS>SUBSTRUCTURE
  1 ****  11 GROUP 4 **** **** 0

# MOE 2024.06 (io_trps.svl 2023.06)
