@<TRIPOS>MOLECULE
NONAME
43 44 1 0 0 
SMALL
USER_CHARGES


@<TRIPOS>ATOM
  1 S       -0.3130     0.7010    -1.6910 S.3   1 <1>  -0.3320 
  2 C        0.0090     2.1800    -0.7530 C.ar  1 <1>   0.7720 
  3 C       -1.4480    -0.4010    -0.7230 C.3   1 <1>  -0.0100 
  4 N        0.7860     3.0640    -1.2820 N.ar  1 <1>  -0.6200 
  5 N       -0.5800     2.2890     0.4540 N.ar  1 <1>  -0.1790 
  6 C        1.0170     4.1760    -0.5730 C.ar  1 <1>   0.4100 
  7 C       -0.3690     3.3780     1.2070 C.ar  1 <1>   0.4610 
  8 N        1.8410     5.0260    -1.2090 N.pl3 1 <1>  -0.8690 
  9 C        0.4560     4.3500     0.6800 C.ar  1 <1>  -0.1500 
 10 N       -0.9500     3.4810     2.4220 N.pl3 1 <1>  -0.9000 
 11 C        2.1940     6.4630    -1.0630 C.3   1 <1>   0.4330 
 12 C        3.4670     6.6390    -0.2420 C.ar  1 <1>  -0.1430 
 13 C        1.0210     7.3050    -0.5350 C.3   1 <1>  -0.1600 
 14 C        3.7310     5.8600     0.8760 C.ar  1 <1>   0.1600 
 15 C        4.3970     7.5980    -0.6010 C.ar  1 <1>  -0.1500 
 16 C        1.1730     8.8010    -0.8570 C.3   1 <1>  -0.1600 
 17 N        4.7970     5.9650     1.6510 N.ar  1 <1>  -0.6200 
 18 C        5.5200     7.7190     0.1900 C.ar  1 <1>  -0.1500 
 19 C       -0.0410     9.5970    -0.3670 C.3   1 <1>  -0.1600 
 20 C        5.6680     6.8920     1.2900 C.ar  1 <1>   0.1600 
 21 C        0.1140    11.0860    -0.6870 C.3   1 <1>  -0.2400 
 22 H       -1.6150    -1.2820    -1.3190 H     1 <1>   0.0800 
 23 H       -2.3780     0.1140    -0.5630 H     1 <1>   0.0800 
 24 H       -0.9650    -0.6700     0.2000 H     1 <1>   0.0800 
 25 H       -1.1710     1.5400     0.7820 H     1 <1>   0.4570 
 26 H        2.2750     4.6290    -2.0490 H     1 <1>   0.4000 
 27 H        0.6660     5.2240     1.2590 H     1 <1>   0.1500 
 28 H       -0.7920     4.3010     3.0250 H     1 <1>   0.4000 
 29 H       -1.5680     2.8010     2.8800 H     1 <1>   0.4000 
 30 H        2.4030     6.8170    -2.0600 H     1 <1>   0.0800 
 31 H        0.9530     7.2070     0.5310 H     1 <1>   0.0800 
 32 H        0.1090     6.9520    -0.9840 H     1 <1>   0.0800 
 33 H        3.0300     5.0990     1.1570 H     1 <1>   0.1500 
 34 H        4.2610     8.2320    -1.4590 H     1 <1>   0.1500 
 35 H        1.2760     8.9350    -1.9210 H     1 <1>   0.0800 
 36 H        2.0590     9.1870    -0.3820 H     1 <1>   0.0800 
 37 H        6.2760     8.4480    -0.0400 H     1 <1>   0.1500 
 38 H       -0.1500     9.4770     0.6980 H     1 <1>   0.0800 
 39 H       -0.9360     9.2270    -0.8390 H     1 <1>   0.0800 
 40 H        6.5470     6.9980     1.9020 H     1 <1>   0.1500 
 41 H        0.9900    11.4860    -0.2070 H     1 <1>   0.0800 
 42 H       -0.7450    11.6290    -0.3350 H     1 <1>   0.0800 
 43 H        0.2010    11.2370    -1.7490 H     1 <1>   0.0800 
@<TRIPOS>BOND
  1   1   2  1   
  2   1   3  1   
  3   2   4  ar  
  4   2   5  ar  
  5   3  22  1   
  6   3  23  1   
  7   3  24  1   
  8   4   6  ar  
  9   5   7  ar  
 10   5  25  1   
 11   6   8  1   
 12   6   9  ar  
 13   7   9  ar  
 14   7  10  1   
 15   8  11  1   
 16   8  26  1   
 17   9  27  1   
 18  10  28  1   
 19  10  29  1   
 20  11  12  1   
 21  11  13  1   
 22  11  30  1   
 23  12  14  ar  
 24  12  15  ar  
 25  13  16  1   
 26  13  31  1   
 27  13  32  1   
 28  14  17  ar  
 29  14  33  1   
 30  15  18  ar  
 31  15  34  1   
 32  16  19  1   
 33  16  35  1   
 34  16  36  1   
 35  17  20  ar  
 36  18  20  ar  
 37  18  37  1   
 38  19  21  1   
 39  19  38  1   
 40  19  39  1   
 41  20  40  1   
 42  21  41  1   
 43  21  42  1   
 44  21  43  1   
@<TRIPOS>SUBSTRUCTURE
  1 ****   8 GROUP 4 **** **** 0

# MOE 2024.06 (io_trps.svl 2023.06)
