@<TRIPOS>MOLECULE
NONAME
55 58 1 0 0 
SMALL
USER_CHARGES


@<TRIPOS>ATOM
  1 O       -1.0990    -0.3280     0.1000 O.2   1 <1>  -0.5700 
  2 C       -1.8290     0.5840    -0.2380 C.2   1 <1>   0.5440 
  3 N       -2.9170     0.2810    -1.0340 N.am  1 <1>  -0.6600 
  4 C       -1.5690     1.9340     0.2320 C.ar  1 <1>   0.0860 
  5 C       -2.9540    -0.9800    -1.8110 C.3   1 <1>   0.1400 
  6 C       -4.2270     0.9520    -0.8740 C.3   1 <1>   0.1400 
  7 C       -1.7060     3.0410    -0.6080 C.ar  1 <1>  -0.1500 
  8 C       -1.1700     2.1710     1.5470 C.ar  1 <1>  -0.1500 
  9 C       -3.8450    -1.9730    -1.0660 C.3   1 <1>  -0.1600 
 10 C       -5.1530    -0.0050    -0.1190 C.3   1 <1>  -0.1600 
 11 C       -1.4770     4.3260    -0.1500 C.ar  1 <1>  -0.1500 
 12 C       -0.9400     3.4530     2.0120 C.ar  1 <1>  -0.1500 
 13 C       -5.2330    -1.3740    -0.8060 C.3   1 <1>   0.4230 
 14 C       -1.0960     4.5340     1.1640 C.ar  1 <1>  -0.1500 
 15 N       -6.0360    -2.2630     0.0640 N.4   1 <1>  -0.9060 
 16 C       -6.4000    -3.5980    -0.4880 C.3   1 <1>   0.4230 
 17 C       -7.7390    -4.0170     0.1140 C.3   1 <1>  -0.0800 
 18 C       -5.4810    -4.6500     0.1290 C.3   1 <1>   0.1200 
 19 C       -7.3310    -4.6830     1.4420 C.3   1 <1>   0.1200 
 20 C       -8.4990    -4.9900    -0.8100 C.3   1 <1>  -0.0170 
 21 O       -5.9350    -4.7270     1.4370 O.3   1 <1>  -0.5600 
 22 C       -9.8420    -5.3710    -0.2080 C.ar  1 <1>  -0.1430 
 23 C      -10.9260    -4.5170    -0.2460 C.ar  1 <1>  -0.1500 
 24 C      -10.0500    -6.5920     0.4040 C.ar  1 <1>  -0.1500 
 25 C      -12.1260    -4.9070     0.3260 C.ar  1 <1>   0.1600 
 26 C      -11.2910    -6.8840     0.9460 C.ar  1 <1>   0.1600 
 27 N      -12.3310    -6.0670     0.9250 N.ar  1 <1>  -0.6200 
 28 H       -3.3390    -0.7800    -2.7970 H     1 <1>   0.0800 
 29 H       -1.9590    -1.3820    -1.9200 H     1 <1>   0.0800 
 30 H       -4.1240     1.8680    -0.3180 H     1 <1>   0.0800 
 31 H       -4.6270     1.1910    -1.8450 H     1 <1>   0.0800 
 32 H       -1.9900     2.8880    -1.6340 H     1 <1>   0.1500 
 33 H       -1.0370     1.3320     2.2090 H     1 <1>   0.1500 
 34 H       -3.3580    -2.2180    -0.1380 H     1 <1>   0.0800 
 35 H       -3.9200    -2.8610    -1.6650 H     1 <1>   0.0800 
 36 H       -6.1300     0.4410    -0.0660 H     1 <1>   0.0800 
 37 H       -4.7700    -0.1120     0.8810 H     1 <1>   0.0800 
 38 H       -1.5910     5.1660    -0.8140 H     1 <1>   0.1500 
 39 H       -0.6350     3.6100     3.0320 H     1 <1>   0.1500 
 40 H       -5.7330    -1.2460    -1.7530 H     1 <1>   0.0800 
 41 H       -0.9170     5.5330     1.5230 H     1 <1>   0.1500 
 42 H       -6.8870    -1.7720     0.3470 H     1 <1>   0.4500 
 43 H       -5.5210    -2.4520     0.9390 H     1 <1>   0.4500 
 44 H       -6.4000    -3.6030    -1.5660 H     1 <1>   0.0800 
 45 H       -8.3770    -3.1700     0.2990 H     1 <1>   0.0800 
 46 H       -4.4390    -4.3860     0.1240 H     1 <1>   0.0800 
 47 H       -5.6120    -5.6140    -0.3330 H     1 <1>   0.0800 
 48 H       -7.6990    -5.6910     1.5330 H     1 <1>   0.0800 
 49 H       -7.6490    -4.1120     2.2980 H     1 <1>   0.0800 
 50 H       -7.9210    -5.8810    -0.9850 H     1 <1>   0.0800 
 51 H       -8.6760    -4.5270    -1.7660 H     1 <1>   0.0800 
 52 H      -10.8600    -3.5520    -0.7140 H     1 <1>   0.1500 
 53 H       -9.2670    -7.3250     0.4690 H     1 <1>   0.1500 
 54 H      -12.9630    -4.2290     0.2890 H     1 <1>   0.1500 
 55 H      -11.4370    -7.8390     1.4220 H     1 <1>   0.1500 
@<TRIPOS>BOND
  1   1   2  2   
  2   2   3  am  
  3   2   4  1   
  4   3   5  1   
  5   3   6  1   
  6   4   7  ar  
  7   4   8  ar  
  8   5   9  1   
  9   5  28  1   
 10   5  29  1   
 11   6  10  1   
 12   6  30  1   
 13   6  31  1   
 14   7  11  ar  
 15   7  32  1   
 16   8  12  ar  
 17   8  33  1   
 18   9  13  1   
 19   9  34  1   
 20   9  35  1   
 21  10  13  1   
 22  10  36  1   
 23  10  37  1   
 24  11  14  ar  
 25  11  38  1   
 26  12  14  ar  
 27  12  39  1   
 28  13  15  1   
 29  13  40  1   
 30  14  41  1   
 31  15  16  1   
 32  15  42  1   
 33  15  43  1   
 34  16  17  1   
 35  16  18  1   
 36  16  44  1   
 37  17  19  1   
 38  17  20  1   
 39  17  45  1   
 40  18  21  1   
 41  18  46  1   
 42  18  47  1   
 43  19  21  1   
 44  19  48  1   
 45  19  49  1   
 46  20  22  1   
 47  20  50  1   
 48  20  51  1   
 49  22  23  ar  
 50  22  24  ar  
 51  23  25  ar  
 52  23  52  1   
 53  24  26  ar  
 54  24  53  1   
 55  25  27  ar  
 56  25  54  1   
 57  26  27  ar  
 58  26  55  1   
@<TRIPOS>SUBSTRUCTURE
  1 ****  15 GROUP 4 **** **** 0

# MOE 2024.06 (io_trps.svl 2023.06)
