@<TRIPOS>MOLECULE
NONAME
59 62 1 0 0 
SMALL
USER_CHARGES


@<TRIPOS>ATOM
  1 O        0.0450    -1.5310     3.7190 O.2   1 <1>  -0.5700 
  2 C        0.7630    -1.9560     2.8370 C.2   1 <1>   0.7150 
  3 N        1.8410    -1.2130     2.5100 N.am  1 <1>  -0.8000 
  4 C        0.4700    -3.2000     2.1650 C.2   1 <1>   0.0550 
  5 O        1.2170    -3.6440     1.1620 O.3   1 <1>  -0.2800 
  6 C       -0.5250    -4.0990     2.3760 C.2   1 <1>  -0.1500 
  7 C        0.7470    -4.7930     0.7220 C.2   1 <1>  -0.0400 
  8 C       -0.3580    -5.1240     1.4390 C.2   1 <1>  -0.1810 
  9 C        1.5120    -5.4480    -0.4430 C.3   1 <1>   0.1800 
 10 C       -1.3050    -6.2970     1.3340 C.3   1 <1>   0.5240 
 11 C        3.0000    -5.5520    -0.0770 C.3   1 <1>  -0.2400 
 12 C        1.3600    -4.5690    -1.6910 C.3   1 <1>  -0.2400 
 13 C        1.0100    -6.8610    -0.7760 C.3   1 <1>  -0.2400 
 14 N       -2.2540    -5.9930     0.2340 N.4   1 <1>  -0.9590 
 15 C       -3.1680    -4.8530     0.5920 C.3   1 <1>   0.3430 
 16 C       -3.0260    -7.1930    -0.1920 C.3   1 <1>   0.3430 
 17 C       -4.0400    -4.4290    -0.6000 C.3   1 <1>   0.1430 
 18 C       -3.8720    -6.8470    -1.4210 C.3   1 <1>  -0.1600 
 19 C       -5.0110    -3.3770    -0.1260 C.ar  1 <1>   0.1670 
 20 C       -4.8020    -5.6470    -1.1660 C.3   1 <1>  -0.1600 
 21 C       -3.2380    -3.6760    -1.6970 C.3   1 <1>  -0.1600 
 22 N       -5.7300    -3.4710     0.9690 N.ar  1 <1>  -0.6200 
 23 C       -5.0460    -2.3030    -0.9600 C.ar  1 <1>  -0.1430 
 24 C       -4.0990    -2.4690    -2.1220 C.3   1 <1>  -0.0170 
 25 C       -6.5170    -2.4250     1.1880 C.ar  1 <1>   0.4770 
 26 C       -5.8940    -1.2740    -0.6340 C.ar  1 <1>   0.1600 
 27 N       -6.6410    -1.3300     0.4490 N.ar  1 <1>  -0.6200 
 28 C       -7.3680    -2.4870     2.4340 C.3   1 <1>  -0.0970 
 29 H        2.0330    -0.3500     3.0170 H     1 <1>   0.3700 
 30 H        2.5110    -1.5140     1.8030 H     1 <1>   0.3700 
 31 H       -1.2910    -4.0230     3.1310 H     1 <1>   0.1500 
 32 H       -1.8310    -6.4400     2.2640 H     1 <1>   0.0800 
 33 H       -0.7480    -7.1920     1.1120 H     1 <1>   0.0800 
 34 H        3.4160    -4.5760     0.1010 H     1 <1>   0.0800 
 35 H        3.5600    -6.0130    -0.8710 H     1 <1>   0.0800 
 36 H        3.1260    -6.1370     0.8160 H     1 <1>   0.0800 
 37 H        1.7540    -3.5850    -1.5040 H     1 <1>   0.0800 
 38 H        0.3260    -4.4700    -1.9640 H     1 <1>   0.0800 
 39 H        1.8980    -4.9910    -2.5220 H     1 <1>   0.0800 
 40 H        1.0910    -7.5000     0.0850 H     1 <1>   0.0800 
 41 H        1.6150    -7.2890    -1.5570 H     1 <1>   0.0800 
 42 H       -0.0020    -6.8440    -1.1260 H     1 <1>   0.0800 
 43 H       -1.6750    -5.6740    -0.5510 H     1 <1>   0.4500 
 44 H       -2.5970    -3.9990     0.9190 H     1 <1>   0.0800 
 45 H       -3.8160    -5.1460     1.4020 H     1 <1>   0.0800 
 46 H       -3.6730    -7.5150     0.6090 H     1 <1>   0.0800 
 47 H       -2.3550    -8.0030    -0.4340 H     1 <1>   0.0800 
 48 H       -4.4700    -7.7030    -1.6840 H     1 <1>   0.0800 
 49 H       -3.2240    -6.6480    -2.2570 H     1 <1>   0.0800 
 50 H       -5.3150    -5.3740    -2.0740 H     1 <1>   0.0800 
 51 H       -5.5570    -5.9420    -0.4550 H     1 <1>   0.0800 
 52 H       -2.9980    -4.2940    -2.5440 H     1 <1>   0.0800 
 53 H       -2.3210    -3.2960    -1.2800 H     1 <1>   0.0800 
 54 H       -4.6590    -2.6910    -3.0140 H     1 <1>   0.0800 
 55 H       -3.5010    -1.5870    -2.2780 H     1 <1>   0.0800 
 56 H       -5.9640    -0.3990    -1.2580 H     1 <1>   0.1500 
 57 H       -7.7980    -3.4650     2.5340 H     1 <1>   0.0800 
 58 H       -8.1610    -1.7630     2.3810 H     1 <1>   0.0800 
 59 H       -6.7580    -2.2760     3.2920 H     1 <1>   0.0800 
@<TRIPOS>BOND
  1   1   2  2   
  2   2   3  am  
  3   2   4  1   
  4   3  29  1   
  5   3  30  1   
  6   4   5  1   
  7   4   6  2   
  8   5   7  1   
  9   6   8  1   
 10   6  31  1   
 11   7   8  2   
 12   7   9  1   
 13   8  10  1   
 14   9  11  1   
 15   9  12  1   
 16   9  13  1   
 17  10  14  1   
 18  10  32  1   
 19  10  33  1   
 20  11  34  1   
 21  11  35  1   
 22  11  36  1   
 23  12  37  1   
 24  12  38  1   
 25  12  39  1   
 26  13  40  1   
 27  13  41  1   
 28  13  42  1   
 29  14  15  1   
 30  14  16  1   
 31  14  43  1   
 32  15  17  1   
 33  15  44  1   
 34  15  45  1   
 35  16  18  1   
 36  16  46  1   
 37  16  47  1   
 38  17  19  1   
 39  17  20  1   
 40  17  21  1   
 41  18  20  1   
 42  18  48  1   
 43  18  49  1   
 44  19  22  ar  
 45  19  23  ar  
 46  20  50  1   
 47  20  51  1   
 48  21  24  1   
 49  21  52  1   
 50  21  53  1   
 51  22  25  ar  
 52  23  24  1   
 53  23  26  ar  
 54  24  54  1   
 55  24  55  1   
 56  25  27  ar  
 57  25  28  1   
 58  26  27  ar  
 59  26  56  1   
 60  28  57  1   
 61  28  58  1   
 62  28  59  1   
@<TRIPOS>SUBSTRUCTURE
  1 ****  15 GROUP 4 **** **** 0

# MOE 2024.06 (io_trps.svl 2023.06)
