@<TRIPOS>MOLECULE
NONAME
54 57 1 0 0 
SMALL
USER_CHARGES


@<TRIPOS>ATOM
  1 S       -0.0540    -0.0290    -0.4810 S.3   1 <1>  -0.0800 
  2 C        0.8860    -1.3240     0.2780 C.2   1 <1>  -0.0130 
  3 C        0.4800     1.1540     0.6940 C.2   1 <1>  -0.1100 
  4 C        0.8580    -2.6570    -0.2750 C.ar  1 <1>   0.6730 
  5 C        1.5350    -0.8020     1.3530 C.2   1 <1>  -0.1500 
  6 C        1.3090     0.5860     1.5870 C.2   1 <1>  -0.1500 
  7 N        0.1320    -2.8840    -1.3760 N.ar  1 <1>  -0.6200 
  8 N        1.5690    -3.5940     0.3620 N.ar  1 <1>  -0.6200 
  9 C        0.1270    -4.1000    -1.8550 C.ar  1 <1>   0.1600 
 10 C        1.5470    -4.8050    -0.1310 C.ar  1 <1>   0.1600 
 11 C        0.8210    -5.1230    -1.2550 C.ar  1 <1>  -0.1430 
 12 C        0.7740    -6.5300    -1.8050 C.3   1 <1>   0.4870 
 13 N        0.0180    -7.4060    -0.8720 N.4   1 <1>  -0.9590 
 14 C        0.0660    -8.8550    -1.2610 C.3   1 <1>   0.3430 
 15 C       -1.3650    -6.9540    -0.5550 C.3   1 <1>   0.3430 
 16 C       -0.7270    -9.7710    -0.2890 C.3   1 <1>   0.0000 
 17 C       -1.8630    -7.6920     0.6980 C.3   1 <1>  -0.1600 
 18 C       -1.0700    -8.9760     1.0090 C.3   1 <1>   0.2000 
 19 C       -2.0480   -10.1970    -0.9840 C.3   1 <1>   0.1200 
 20 C        0.0630   -11.0860     0.0020 C.3   1 <1>  -0.0170 
 21 O        0.0950    -8.5360     1.6300 O.3   1 <1>  -0.6800 
 22 O       -1.7680   -10.7100    -2.2410 O.3   1 <1>  -0.6800 
 23 C        1.3820   -10.9260     0.7490 C.ar  1 <1>  -0.1430 
 24 C        1.4210   -11.0780     2.1280 C.ar  1 <1>  -0.1500 
 25 C        2.5570   -10.6440     0.0670 C.ar  1 <1>  -0.1500 
 26 C        2.6060   -10.9020     2.8190 C.ar  1 <1>  -0.1500 
 27 C        3.7430   -10.4700     0.7580 C.ar  1 <1>  -0.1500 
 28 C        3.7670   -10.5920     2.1350 C.ar  1 <1>  -0.1500 
 29 H        0.1120     2.1600     0.5900 H     1 <1>   0.1500 
 30 H        2.1810    -1.3700     1.9990 H     1 <1>   0.1500 
 31 H        1.7780     1.0940     2.4120 H     1 <1>   0.1500 
 32 H       -0.4530    -4.2720    -2.7470 H     1 <1>   0.1500 
 33 H        2.1240    -5.5560     0.3850 H     1 <1>   0.1500 
 34 H        1.7800    -6.9000    -1.9220 H     1 <1>   0.0800 
 35 H        0.2990    -6.5290    -2.7730 H     1 <1>   0.0800 
 36 H        0.4860    -7.3890     0.0570 H     1 <1>   0.4500 
 37 H       -0.3110    -8.9760    -2.2630 H     1 <1>   0.0800 
 38 H        1.0930    -9.1700    -1.2680 H     1 <1>   0.0800 
 39 H       -1.3870    -5.8920    -0.3670 H     1 <1>   0.0800 
 40 H       -2.0140    -7.1650    -1.3900 H     1 <1>   0.0800 
 41 H       -2.9050    -7.9240     0.5660 H     1 <1>   0.0800 
 42 H       -1.8150    -7.0290     1.5460 H     1 <1>   0.0800 
 43 H       -1.6050    -9.5900     1.7160 H     1 <1>   0.0800 
 44 H       -2.7240    -9.3740    -1.1270 H     1 <1>   0.0800 
 45 H       -2.5520   -10.9600    -0.4130 H     1 <1>   0.0800 
 46 H       -0.5620   -11.7530     0.5700 H     1 <1>   0.0800 
 47 H        0.2720   -11.5940    -0.9250 H     1 <1>   0.0800 
 48 H        0.6680    -9.3020     1.8820 H     1 <1>   0.4000 
 49 H       -2.5570   -11.1470    -2.6330 H     1 <1>   0.4000 
 50 H        0.5320   -11.3370     2.6800 H     1 <1>   0.1500 
 51 H        2.5700   -10.5700    -1.0060 H     1 <1>   0.1500 
 52 H        2.6300   -11.0130     3.8910 H     1 <1>   0.1500 
 53 H        4.6540   -10.2490     0.2270 H     1 <1>   0.1500 
 54 H        4.6890   -10.4560     2.6740 H     1 <1>   0.1500 
@<TRIPOS>BOND
  1   1   2  1   
  2   1   3  1   
  3   2   4  1   
  4   2   5  2   
  5   3   6  2   
  6   3  29  1   
  7   4   7  ar  
  8   4   8  ar  
  9   5   6  1   
 10   5  30  1   
 11   6  31  1   
 12   7   9  ar  
 13   8  10  ar  
 14   9  11  ar  
 15   9  32  1   
 16  10  11  ar  
 17  10  33  1   
 18  11  12  1   
 19  12  13  1   
 20  12  34  1   
 21  12  35  1   
 22  13  14  1   
 23  13  15  1   
 24  13  36  1   
 25  14  16  1   
 26  14  37  1   
 27  14  38  1   
 28  15  17  1   
 29  15  39  1   
 30  15  40  1   
 31  16  18  1   
 32  16  19  1   
 33  16  20  1   
 34  17  18  1   
 35  17  41  1   
 36  17  42  1   
 37  18  21  1   
 38  18  43  1   
 39  19  22  1   
 40  19  44  1   
 41  19  45  1   
 42  20  23  1   
 43  20  46  1   
 44  20  47  1   
 45  21  48  1   
 46  22  49  1   
 47  23  24  ar  
 48  23  25  ar  
 49  24  26  ar  
 50  24  50  1   
 51  25  27  ar  
 52  25  51  1   
 53  26  28  ar  
 54  26  52  1   
 55  27  28  ar  
 56  27  53  1   
 57  28  54  1   
@<TRIPOS>SUBSTRUCTURE
  1 ****  13 GROUP 4 **** **** 0

# MOE 2024.06 (io_trps.svl 2023.06)
