@<TRIPOS>MOLECULE
NONAME
48 51 1 0 0 
SMALL
USER_CHARGES


@<TRIPOS>ATOM
  1 O       -0.3560    -1.3390     0.1410 O.3   1 <1>  -0.5600 
  2 C        0.7420    -1.8030     0.8670 C.3   1 <1>   0.2000 
  3 C       -1.4900    -1.0430     0.8950 C.3   1 <1>   0.0400 
  4 C        2.0310    -1.5290     0.0650 C.3   1 <1>   0.0000 
  5 C        0.6510    -3.3330     0.9460 C.3   1 <1>  -0.1600 
  6 C        3.2470    -1.6570     1.0100 C.3   1 <1>   0.2090 
  7 C        2.0600    -0.1240    -0.5890 C.3   1 <1>  -0.1600 
  8 C        2.0170    -2.6610    -0.9800 C.3   1 <1>  -0.1600 
  9 C        1.4030    -3.8790    -0.2780 C.3   1 <1>  -0.1600 
 10 N        4.5230    -1.3890     0.2750 N.pl3 1 <1>  -0.8380 
 11 C        3.4150     0.1880    -1.2510 C.3   1 <1>  -0.1600 
 12 C        5.6030    -2.2210     0.2550 C.ar  1 <1>   0.7710 
 13 C        4.5920    -0.0110    -0.2910 C.3   1 <1>   0.2090 
 14 N        5.3440    -3.5500     0.0940 N.ar  1 <1>  -0.1790 
 15 N        6.8150    -1.7450     0.3630 N.ar  1 <1>  -0.5670 
 16 C        6.2980    -4.4880     0.0570 C.ar  1 <1>   0.4610 
 17 C        7.8130    -2.6640     0.3410 C.ar  1 <1>   0.1050 
 18 N        5.9810    -5.7830    -0.1130 N.pl3 1 <1>  -0.9000 
 19 C        7.6080    -4.0160     0.1970 C.ar  1 <1>   0.0000 
 20 N        9.1520    -2.4820     0.4500 N.pl3 1 <1>   0.3140 
 21 C        8.9010    -4.5610     0.2320 C.2   1 <1>   0.1390 
 22 N        9.8150    -3.6640     0.3810 N.2   1 <1>  -0.7070 
 23 C        9.8760    -1.2140     0.6240 C.3   1 <1>   0.0160 
 24 H        0.7530    -1.3270     1.8340 H     1 <1>   0.0800 
 25 H       -2.2670    -0.7320     0.2190 H     1 <1>   0.0800 
 26 H       -1.2630    -0.2420     1.5760 H     1 <1>   0.0800 
 27 H       -1.8080    -1.9190     1.4320 H     1 <1>   0.0800 
 28 H        1.1340    -3.6730     1.8450 H     1 <1>   0.0800 
 29 H       -0.3700    -3.6720     0.9640 H     1 <1>   0.0800 
 30 H        3.2700    -2.6260     1.4760 H     1 <1>   0.0800 
 31 H        3.1510    -0.9290     1.8000 H     1 <1>   0.0800 
 32 H        1.2790    -0.0390    -1.3260 H     1 <1>   0.0800 
 33 H        1.8620     0.6160     0.1670 H     1 <1>   0.0800 
 34 H        1.3510    -2.3750    -1.7790 H     1 <1>   0.0800 
 35 H        2.9760    -2.8620    -1.4170 H     1 <1>   0.0800 
 36 H        2.1560    -4.5800     0.0310 H     1 <1>   0.0800 
 37 H        0.7180    -4.3790    -0.9450 H     1 <1>   0.0800 
 38 H        3.4130     1.2070    -1.5970 H     1 <1>   0.0800 
 39 H        3.5530    -0.4400    -2.1120 H     1 <1>   0.0800 
 40 H        4.5400     0.7080     0.5100 H     1 <1>   0.0800 
 41 H        5.5170     0.1430    -0.8210 H     1 <1>   0.0800 
 42 H        4.3710    -3.7660    -0.0580 H     1 <1>   0.4570 
 43 H        5.0410    -6.1780    -0.2280 H     1 <1>   0.4000 
 44 H        6.7000    -6.5180    -0.1490 H     1 <1>   0.4000 
 45 H        9.1180    -5.6130     0.1450 H     1 <1>   0.1500 
 46 H        9.1780    -0.4040     0.7160 H     1 <1>   0.0800 
 47 H       10.5100    -1.0540    -0.2280 H     1 <1>   0.0800 
 48 H       10.4800    -1.2760     1.5110 H     1 <1>   0.0800 
@<TRIPOS>BOND
  1   1   2  1   
  2   1   3  1   
  3   2   4  1   
  4   2   5  1   
  5   2  24  1   
  6   3  25  1   
  7   3  26  1   
  8   3  27  1   
  9   4   6  1   
 10   4   7  1   
 11   4   8  1   
 12   5   9  1   
 13   5  28  1   
 14   5  29  1   
 15   6  10  1   
 16   6  30  1   
 17   6  31  1   
 18   7  11  1   
 19   7  32  1   
 20   7  33  1   
 21   8   9  1   
 22   8  34  1   
 23   8  35  1   
 24   9  36  1   
 25   9  37  1   
 26  10  12  1   
 27  10  13  1   
 28  11  13  1   
 29  11  38  1   
 30  11  39  1   
 31  12  14  ar  
 32  12  15  ar  
 33  13  40  1   
 34  13  41  1   
 35  14  16  ar  
 36  14  42  1   
 37  15  17  ar  
 38  16  18  1   
 39  16  19  ar  
 40  17  19  ar  
 41  17  20  1   
 42  18  43  1   
 43  18  44  1   
 44  19  21  1   
 45  20  22  1   
 46  20  23  1   
 47  21  22  2   
 48  21  45  1   
 49  23  46  1   
 50  23  47  1   
 51  23  48  1   
@<TRIPOS>SUBSTRUCTURE
  1 ****  12 GROUP 4 **** **** 0

# MOE 2024.06 (io_trps.svl 2023.06)
