@<TRIPOS>MOLECULE
NONAME
51 53 1 0 0 
SMALL
USER_CHARGES


@<TRIPOS>ATOM
  1 S        0.5880     0.4850    -1.6230 S.o2  1 <1>   1.3330 
  2 O       -0.1030     1.2780    -2.6140 O.2   1 <1>  -0.6500 
  3 O        0.8610    -0.9100    -1.8860 O.2   1 <1>  -0.6500 
  4 N       -0.3200     0.5750    -0.1890 N.am  1 <1>  -0.8490 
  5 C        2.1380     1.2850    -1.1980 C.3   1 <1>  -0.0550 
  6 C       -1.3120    -0.5010    -0.0970 C.3   1 <1>   0.1160 
  7 C       -0.9790     1.8720     0.0000 C.3   1 <1>   0.1160 
  8 C        3.0040     0.4940    -0.1940 C.3   1 <1>  -0.0800 
  9 C        4.3950     1.0620     0.0400 C.3   1 <1>   0.2200 
 10 C        2.4360     0.3940     1.2280 C.3   1 <1>   0.1200 
 11 N        4.3480     2.5360     0.1960 N.am  1 <1>  -0.7300 
 12 C        4.7190     0.4450     1.3930 C.3   1 <1>   0.1200 
 13 O        3.5210     0.5100     2.1050 O.3   1 <1>  -0.5600 
 14 C        4.6900     3.4490    -0.7600 C.2   1 <1>   0.5440 
 15 O        4.9370     3.0330    -1.8750 O.2   1 <1>  -0.5700 
 16 C        4.7270     4.8700    -0.4590 C.ar  1 <1>   0.0860 
 17 C        4.8960     5.3530     0.8400 C.ar  1 <1>  -0.1500 
 18 C        4.5940     5.8230    -1.4680 C.ar  1 <1>  -0.1500 
 19 C        4.9170     6.7080     1.1120 C.ar  1 <1>  -0.1500 
 20 C        4.6150     7.1780    -1.1950 C.ar  1 <1>  -0.1500 
 21 C        4.7730     7.6590     0.1030 C.ar  1 <1>   0.0530 
 22 C        4.7900     9.0760     0.3900 C.2   1 <1>   0.0870 
 23 O        4.5750     9.9580    -0.5780 O.3   1 <1>  -0.2800 
 24 C        4.9990     9.7570     1.5510 C.2   1 <1>  -0.1500 
 25 C        4.6390    11.1710    -0.0750 C.2   1 <1>  -0.0400 
 26 C        4.9000    11.1160     1.2470 C.2   1 <1>  -0.1500 
 27 C        4.4240    12.3520    -0.9940 C.3   1 <1>  -0.0600 
 28 H        2.7090     1.4070    -2.0990 H     1 <1>   0.0800 
 29 H        1.9390     2.2660    -0.8160 H     1 <1>   0.0800 
 30 H       -1.8630    -0.4240     0.8240 H     1 <1>   0.0800 
 31 H       -0.8200    -1.4590    -0.1150 H     1 <1>   0.0800 
 32 H       -1.9970    -0.4500    -0.9270 H     1 <1>   0.0800 
 33 H       -1.4630     1.9040     0.9610 H     1 <1>   0.0800 
 34 H       -1.7170     2.0360    -0.7690 H     1 <1>   0.0800 
 35 H       -0.2560     2.6680    -0.0430 H     1 <1>   0.0800 
 36 H        3.1200    -0.5100    -0.5660 H     1 <1>   0.0800 
 37 H        5.1000     0.7780    -0.7240 H     1 <1>   0.0800 
 38 H        1.9460    -0.5500     1.3970 H     1 <1>   0.0800 
 39 H        1.7570     1.2000     1.4470 H     1 <1>   0.0800 
 40 H        4.0140     2.8400     1.1130 H     1 <1>   0.3700 
 41 H        5.4900     0.9760     1.9230 H     1 <1>   0.0800 
 42 H        4.9880    -0.5910     1.2880 H     1 <1>   0.0800 
 43 H        5.0230     4.6610     1.6530 H     1 <1>   0.1500 
 44 H        4.4720     5.4900    -2.4850 H     1 <1>   0.1500 
 45 H        5.0480     7.0370     2.1270 H     1 <1>   0.1500 
 46 H        4.5080     7.8800    -2.0040 H     1 <1>   0.1500 
 47 H        5.2030     9.3610     2.5280 H     1 <1>   0.1500 
 48 H        5.0130    11.9260     1.9440 H     1 <1>   0.1500 
 49 H        4.5060    13.2720    -0.4440 H     1 <1>   0.0800 
 50 H        3.4470    12.2940    -1.4370 H     1 <1>   0.0800 
 51 H        5.1630    12.3430    -1.7740 H     1 <1>   0.0800 
@<TRIPOS>BOND
  1   1   2  2   
  2   1   3  2   
  3   1   4  am  
  4   1   5  1   
  5   4   6  1   
  6   4   7  1   
  7   5   8  1   
  8   5  28  1   
  9   5  29  1   
 10   6  30  1   
 11   6  31  1   
 12   6  32  1   
 13   7  33  1   
 14   7  34  1   
 15   7  35  1   
 16   8   9  1   
 17   8  10  1   
 18   8  36  1   
 19   9  11  1   
 20   9  12  1   
 21   9  37  1   
 22  10  13  1   
 23  10  38  1   
 24  10  39  1   
 25  11  14  am  
 26  11  40  1   
 27  12  13  1   
 28  12  41  1   
 29  12  42  1   
 30  14  15  2   
 31  14  16  1   
 32  16  17  ar  
 33  16  18  ar  
 34  17  19  ar  
 35  17  43  1   
 36  18  20  ar  
 37  18  44  1   
 38  19  21  ar  
 39  19  45  1   
 40  20  21  ar  
 41  20  46  1   
 42  21  22  1   
 43  22  23  1   
 44  22  24  2   
 45  23  25  1   
 46  24  26  1   
 47  24  47  1   
 48  25  26  2   
 49  25  27  1   
 50  26  48  1   
 51  27  49  1   
 52  27  50  1   
 53  27  51  1   
@<TRIPOS>SUBSTRUCTURE
  1 ****  16 GROUP 4 **** **** 0

# MOE 2024.06 (io_trps.svl 2023.06)
