@<TRIPOS>MOLECULE
NONAME
53 56 1 0 0 
SMALL
USER_CHARGES


@<TRIPOS>ATOM
  1 O        0.6960     0.8950     0.4590 O.2   1 <1>  -0.5700 
  2 C        1.4550     0.0240     0.1040 C.2   1 <1>   0.6300 
  3 N        2.7150     0.3190    -0.3550 N.am  1 <1>  -0.6600 
  4 C        0.9820    -1.4230     0.2030 C.3   1 <1>  -0.1000 
  5 C        3.1530     1.7340    -0.5260 C.3   1 <1>   0.1400 
  6 C        3.7930    -0.6820    -0.5870 C.3   1 <1>   0.1400 
  7 C        0.7940    -2.2710    -1.0250 C.3   1 <1>  -0.2000 
  8 C       -0.3980    -1.8130    -0.2460 C.3   1 <1>  -0.2000 
  9 C        4.2790     2.0510     0.4720 C.3   1 <1>   0.2890 
 10 C        4.9730    -0.3790     0.3490 C.3   1 <1>  -0.1600 
 11 N        4.5890     3.5220     0.4310 N.pl3 1 <1>  -0.8690 
 12 C        5.4470     1.0840     0.2390 C.3   1 <1>  -0.1600 
 13 C        5.6590     4.2990     0.1590 C.ar  1 <1>   0.4610 
 14 N        5.4880     5.6210     0.2570 N.ar  1 <1>  -0.1790 
 15 C        6.9570     3.8720    -0.2230 C.ar  1 <1>  -0.1500 
 16 C        6.4530     6.5840     0.0160 C.ar  1 <1>   0.3610 
 17 C        7.9670     4.7470    -0.4810 C.ar  1 <1>  -0.1440 
 18 C        7.7350     6.1520    -0.3670 C.ar  1 <1>   0.0000 
 19 C        6.1570     7.9550     0.1500 C.ar  1 <1>  -0.1440 
 20 C        9.3430     4.2300    -0.8880 C.3   1 <1>  -0.0970 
 21 C        8.7060     7.1300    -0.6140 C.ar  1 <1>  -0.1500 
 22 C        7.1440     8.8910    -0.1030 C.ar  1 <1>  -0.1440 
 23 C        4.7450     8.3810     0.5750 C.3   1 <1>  -0.0970 
 24 C        8.4150     8.4630    -0.4850 C.ar  1 <1>  -0.1500 
 25 C        6.9260    10.3970     0.0100 C.3   1 <1>  -0.0970 
 26 H        1.3440    -1.8950     1.0970 H     1 <1>   0.1000 
 27 H        2.3260     2.4030    -0.3660 H     1 <1>   0.0800 
 28 H        3.5070     1.8700    -1.5330 H     1 <1>   0.0800 
 29 H        4.1120    -0.6210    -1.6140 H     1 <1>   0.0800 
 30 H        3.4430    -1.6830    -0.4080 H     1 <1>   0.0800 
 31 H        1.0660    -3.3110    -0.9860 H     1 <1>   0.1000 
 32 H        0.9670    -1.8330    -1.9930 H     1 <1>   0.1000 
 33 H       -1.0330    -1.0480    -0.6610 H     1 <1>   0.1000 
 34 H       -0.9460    -2.5260     0.3440 H     1 <1>   0.1000 
 35 H        3.8870     1.8470     1.4560 H     1 <1>   0.0800 
 36 H        5.7880    -1.0410     0.1110 H     1 <1>   0.0800 
 37 H        4.6730    -0.5890     1.3610 H     1 <1>   0.0800 
 38 H        3.7190     3.9870     0.7100 H     1 <1>   0.4000 
 39 H        6.2160     1.2520     0.9730 H     1 <1>   0.0800 
 40 H        5.8390     1.2230    -0.7520 H     1 <1>   0.0800 
 41 H        4.5770     5.9670     0.5310 H     1 <1>   0.4570 
 42 H        7.1560     2.8290    -0.3110 H     1 <1>   0.1500 
 43 H        9.3620     3.1550    -0.9270 H     1 <1>   0.0800 
 44 H       10.0860     4.5500    -0.1780 H     1 <1>   0.0800 
 45 H        9.6070     4.6030    -1.8620 H     1 <1>   0.0800 
 46 H        9.7000     6.8450    -0.9100 H     1 <1>   0.1500 
 47 H        4.5010     7.9670     1.5370 H     1 <1>   0.0800 
 48 H        4.0210     8.0550    -0.1510 H     1 <1>   0.0800 
 49 H        4.6420     9.4470     0.6610 H     1 <1>   0.0800 
 50 H        9.1860     9.1890    -0.6830 H     1 <1>   0.1500 
 51 H        6.1490    10.7140    -0.6620 H     1 <1>   0.0800 
 52 H        7.8190    10.9430    -0.2400 H     1 <1>   0.0800 
 53 H        6.6530    10.6590     1.0170 H     1 <1>   0.0800 
@<TRIPOS>BOND
  1   1   2  2   
  2   2   3  am  
  3   2   4  1   
  4   3   5  1   
  5   3   6  1   
  6   4   7  1   
  7   4   8  1   
  8   4  26  1   
  9   5   9  1   
 10   5  27  1   
 11   5  28  1   
 12   6  10  1   
 13   6  29  1   
 14   6  30  1   
 15   7   8  1   
 16   7  31  1   
 17   7  32  1   
 18   8  33  1   
 19   8  34  1   
 20   9  11  1   
 21   9  12  1   
 22   9  35  1   
 23  10  12  1   
 24  10  36  1   
 25  10  37  1   
 26  11  13  1   
 27  11  38  1   
 28  12  39  1   
 29  12  40  1   
 30  13  14  ar  
 31  13  15  ar  
 32  14  16  ar  
 33  14  41  1   
 34  15  17  ar  
 35  15  42  1   
 36  16  18  ar  
 37  16  19  ar  
 38  17  18  ar  
 39  17  20  1   
 40  18  21  ar  
 41  19  22  ar  
 42  19  23  1   
 43  20  43  1   
 44  20  44  1   
 45  20  45  1   
 46  21  24  ar  
 47  21  46  1   
 48  22  24  ar  
 49  22  25  1   
 50  23  47  1   
 51  23  48  1   
 52  23  49  1   
 53  24  50  1   
 54  25  51  1   
 55  25  52  1   
 56  25  53  1   
@<TRIPOS>SUBSTRUCTURE
  1 ****  11 GROUP 4 **** **** 0

# MOE 2024.06 (io_trps.svl 2023.06)
