@<TRIPOS>MOLECULE
NONAME
56 58 1 0 0 
SMALL
USER_CHARGES


@<TRIPOS>ATOM
  1 O       -1.2450     3.2470     3.5960 O.2   1 <1>  -0.5700 
  2 C       -0.9940     4.1200     2.8070 C.2   1 <1>   0.5690 
  3 N       -1.9600     4.6420     2.0200 N.am  1 <1>  -0.7300 
  4 C        0.4430     4.6360     2.6690 C.3   1 <1>   0.1810 
  5 C       -1.7320     5.7510     1.0670 C.3   1 <1>   0.3640 
  6 O        0.5240     5.9000     2.0340 O.3   1 <1>  -0.5600 
  7 C       -2.4270     5.4450    -0.2550 C.ar  1 <1>  -0.1440 
  8 C       -0.2200     5.9860     0.8250 C.3   1 <1>   0.2610 
  9 C       -3.1160     6.4530    -0.9150 C.ar  1 <1>  -0.1500 
 10 C       -2.3740     4.1790    -0.8260 C.ar  1 <1>  -0.1500 
 11 C        0.0310     7.3530     0.1760 C.2   1 <1>   0.5690 
 12 C       -3.7380     6.2030    -2.1250 C.ar  1 <1>  -0.1500 
 13 C       -2.9970     3.9290    -2.0360 C.ar  1 <1>  -0.1500 
 14 O       -0.6330     8.2990     0.5470 O.2   1 <1>  -0.5700 
 15 N        1.0560     7.5430    -0.7200 N.am  1 <1>  -0.6600 
 16 C       -3.6790     4.9410    -2.6870 C.ar  1 <1>  -0.1500 
 17 C        1.2940     8.8810    -1.3350 C.3   1 <1>   0.2840 
 18 C        1.9340     6.4530    -1.2430 C.3   1 <1>   0.0600 
 19 C        2.6660     9.4570    -0.9700 C.ar  1 <1>  -0.1430 
 20 C        3.2240     9.4620     0.3140 C.ar  1 <1>  -0.1430 
 21 C        3.3860    10.0240    -2.0140 C.ar  1 <1>  -0.1500 
 22 C        4.4780    10.0280     0.5100 C.ar  1 <1>  -0.1500 
 23 C        2.5530     8.8720     1.5500 C.3   1 <1>   0.4860 
 24 C        4.6310    10.5840    -1.8060 C.ar  1 <1>  -0.1500 
 25 C        5.1790    10.5860    -0.5400 C.ar  1 <1>  -0.1500 
 26 N        1.3640     9.6700     1.9680 N.4   1 <1>  -0.9590 
 27 C        1.6240    11.1400     2.0140 C.3   1 <1>   0.2630 
 28 C        0.8080     9.1550     3.2520 C.3   1 <1>   0.2630 
 29 H       -2.9140     4.2830     2.1040 H     1 <1>   0.3700 
 30 H        1.0190     3.9310     2.0990 H     1 <1>   0.0800 
 31 H        0.8810     4.7280     3.6470 H     1 <1>   0.0800 
 32 H       -2.1680     6.6380     1.4940 H     1 <1>   0.0800 
 33 H        0.1330     5.2130     0.1690 H     1 <1>   0.0800 
 34 H       -3.1720     7.4440    -0.4960 H     1 <1>   0.1500 
 35 H       -1.8520     3.3760    -0.3350 H     1 <1>   0.1500 
 36 H       -4.2720     6.9900    -2.6310 H     1 <1>   0.1500 
 37 H       -2.9540     2.9450    -2.4720 H     1 <1>   0.1500 
 38 H       -4.1650     4.7450    -3.6280 H     1 <1>   0.1500 
 39 H        1.2170     8.7730    -2.4040 H     1 <1>   0.0800 
 40 H        0.5350     9.5850    -1.0440 H     1 <1>   0.0800 
 41 H        2.8440     6.8610    -1.6490 H     1 <1>   0.0800 
 42 H        1.4210     5.9160    -2.0240 H     1 <1>   0.0800 
 43 H        2.2000     5.7680    -0.4560 H     1 <1>   0.0800 
 44 H        2.9830    10.0370    -3.0140 H     1 <1>   0.1500 
 45 H        4.9330    10.0390     1.4870 H     1 <1>   0.1500 
 46 H        3.2680     8.8530     2.3550 H     1 <1>   0.0800 
 47 H        2.2620     7.8540     1.3530 H     1 <1>   0.0800 
 48 H        5.1740    11.0180    -2.6290 H     1 <1>   0.1500 
 49 H        6.1510    11.0210    -0.3770 H     1 <1>   0.1500 
 50 H        0.6390     9.4800     1.2450 H     1 <1>   0.4500 
 51 H        2.3890    11.3630     2.7400 H     1 <1>   0.0800 
 52 H        0.7250    11.6700     2.2810 H     1 <1>   0.0800 
 53 H        1.9540    11.4920     1.0490 H     1 <1>   0.0800 
 54 H        1.5160     9.2950     4.0530 H     1 <1>   0.0800 
 55 H        0.5830     8.1040     3.1640 H     1 <1>   0.0800 
 56 H       -0.1030     9.6770     3.4970 H     1 <1>   0.0800 
@<TRIPOS>BOND
  1   1   2  2   
  2   2   3  am  
  3   2   4  1   
  4   3   5  1   
  5   3  29  1   
  6   4   6  1   
  7   4  30  1   
  8   4  31  1   
  9   5   7  1   
 10   5   8  1   
 11   5  32  1   
 12   6   8  1   
 13   7   9  ar  
 14   7  10  ar  
 15   8  11  1   
 16   8  33  1   
 17   9  12  ar  
 18   9  34  1   
 19  10  13  ar  
 20  10  35  1   
 21  11  14  2   
 22  11  15  am  
 23  12  16  ar  
 24  12  36  1   
 25  13  16  ar  
 26  13  37  1   
 27  15  17  1   
 28  15  18  1   
 29  16  38  1   
 30  17  19  1   
 31  17  39  1   
 32  17  40  1   
 33  18  41  1   
 34  18  42  1   
 35  18  43  1   
 36  19  20  ar  
 37  19  21  ar  
 38  20  22  ar  
 39  20  23  1   
 40  21  24  ar  
 41  21  44  1   
 42  22  25  ar  
 43  22  45  1   
 44  23  26  1   
 45  23  46  1   
 46  23  47  1   
 47  24  25  ar  
 48  24  48  1   
 49  25  49  1   
 50  26  27  1   
 51  26  28  1   
 52  26  50  1   
 53  27  51  1   
 54  27  52  1   
 55  27  53  1   
 56  28  54  1   
 57  28  55  1   
 58  28  56  1   
@<TRIPOS>SUBSTRUCTURE
  1 ****  11 GROUP 4 **** **** 0

# MOE 2024.06 (io_trps.svl 2023.06)
