@<TRIPOS>MOLECULE
NONAME
48 50 1 0 0 
SMALL
USER_CHARGES


@<TRIPOS>ATOM
  1 S        1.8370     1.3910     1.2360 S.o2  1 <1>   1.3330 
  2 O        2.0630     0.2680     2.1190 O.2   1 <1>  -0.6500 
  3 O        1.9050     2.7380     1.7550 O.2   1 <1>  -0.6500 
  4 N        0.3140     1.1790     0.5150 N.am  1 <1>  -0.8490 
  5 C        2.9600     1.2790    -0.1550 C.3   1 <1>  -0.0550 
  6 C       -0.0360    -0.2270     0.2890 C.3   1 <1>   0.1160 
  7 C       -0.7540     1.8440     1.2680 C.3   1 <1>   0.1160 
  8 C        4.4340     1.4860     0.2350 C.3   1 <1>  -0.0800 
  9 C        5.3570     1.4830    -0.9710 C.3   1 <1>   0.2200 
 10 C        5.0250     0.3830     1.1030 C.3   1 <1>   0.1200 
 11 N        5.5410     2.8640    -1.4630 N.am  1 <1>  -0.7300 
 12 C        6.6510     0.8590    -0.4440 C.3   1 <1>   0.1200 
 13 O        6.3930     0.4300     0.8600 O.3   1 <1>  -0.5600 
 14 C        4.8290     3.4280    -2.4750 C.2   1 <1>   0.5690 
 15 O        4.0650     2.7700    -3.1390 O.2   1 <1>  -0.5700 
 16 C        4.9490     4.9140    -2.7830 C.3   1 <1>   0.1570 
 17 N        5.6610     5.6530    -1.7180 N.pl3 1 <1>   0.0480 
 18 C        5.2800     5.7390    -0.3970 C.ar  1 <1>  -0.1520 
 19 C        6.8890     6.2440    -1.8340 C.2   1 <1>  -0.3020 
 20 C        6.2900     6.3810     0.3120 C.ar  1 <1>   0.0000 
 21 C        4.1300     5.2850     0.2590 C.ar  1 <1>  -0.1500 
 22 C        7.2940     6.7000    -0.6250 C.2   1 <1>  -0.1500 
 23 C        6.1600     6.5700     1.6910 C.ar  1 <1>  -0.1500 
 24 C        4.0170     5.4700     1.6170 C.ar  1 <1>  -0.1500 
 25 C        5.0330     6.1130     2.3340 C.ar  1 <1>  -0.1500 
 26 H        2.8490     0.3250    -0.6310 H     1 <1>   0.0800 
 27 H        2.6880     2.0310    -0.8700 H     1 <1>   0.0800 
 28 H       -0.9670    -0.2940    -0.2480 H     1 <1>   0.0800 
 29 H       -0.1360    -0.7460     1.2280 H     1 <1>   0.0800 
 30 H        0.7270    -0.7120    -0.2950 H     1 <1>   0.0800 
 31 H       -1.7010     1.7040     0.7760 H     1 <1>   0.0800 
 32 H       -0.5600     2.9020     1.3260 H     1 <1>   0.0800 
 33 H       -0.8100     1.4460     2.2680 H     1 <1>   0.0800 
 34 H        4.5400     2.4120     0.7760 H     1 <1>   0.0800 
 35 H        4.9670     0.8590    -1.7580 H     1 <1>   0.0800 
 36 H        4.6680    -0.5900     0.8110 H     1 <1>   0.0800 
 37 H        4.8460     0.5410     2.1530 H     1 <1>   0.0800 
 38 H        6.0610     3.4860    -0.8290 H     1 <1>   0.3700 
 39 H        7.4600     1.5670    -0.4100 H     1 <1>   0.0800 
 40 H        6.9310     0.0020    -1.0290 H     1 <1>   0.0800 
 41 H        3.9650     5.3290    -2.8890 H     1 <1>   0.0800 
 42 H        5.4750     5.0360    -3.7100 H     1 <1>   0.0800 
 43 H        7.4090     6.3070    -2.7740 H     1 <1>   0.1500 
 44 H        3.3430     4.7940    -0.2860 H     1 <1>   0.1500 
 45 H        8.2070     7.2120    -0.3770 H     1 <1>   0.1500 
 46 H        6.9470     7.0670     2.2290 H     1 <1>   0.1500 
 47 H        3.1440     5.1170     2.1410 H     1 <1>   0.1500 
 48 H        4.9180     6.2450     3.3950 H     1 <1>   0.1500 
@<TRIPOS>BOND
  1   1   2  2   
  2   1   3  2   
  3   1   4  am  
  4   1   5  1   
  5   4   6  1   
  6   4   7  1   
  7   5   8  1   
  8   5  26  1   
  9   5  27  1   
 10   6  28  1   
 11   6  29  1   
 12   6  30  1   
 13   7  31  1   
 14   7  32  1   
 15   7  33  1   
 16   8   9  1   
 17   8  10  1   
 18   8  34  1   
 19   9  11  1   
 20   9  12  1   
 21   9  35  1   
 22  10  13  1   
 23  10  36  1   
 24  10  37  1   
 25  11  14  am  
 26  11  38  1   
 27  12  13  1   
 28  12  39  1   
 29  12  40  1   
 30  14  15  2   
 31  14  16  1   
 32  16  17  1   
 33  16  41  1   
 34  16  42  1   
 35  17  18  1   
 36  17  19  1   
 37  18  20  ar  
 38  18  21  ar  
 39  19  22  2   
 40  19  43  1   
 41  20  22  1   
 42  20  23  ar  
 43  21  24  ar  
 44  21  44  1   
 45  22  45  1   
 46  23  25  ar  
 47  23  46  1   
 48  24  25  ar  
 49  24  47  1   
 50  25  48  1   
@<TRIPOS>SUBSTRUCTURE
  1 ****   8 GROUP 4 **** **** 0

# MOE 2024.06 (io_trps.svl 2023.06)
