@<TRIPOS>MOLECULE
NONAME
57 59 1 0 0 
SMALL
USER_CHARGES


@<TRIPOS>ATOM
  1 O       -0.7690    -0.2510    -0.1730 O.2   1 <1>  -0.5700 
  2 C       -0.2050     0.7950     0.0770 C.2   1 <1>   0.5690 
  3 N       -0.9530     1.8960     0.4580 N.am  1 <1>  -0.6600 
  4 C        1.3530     0.8250    -0.0990 C.3   1 <1>   0.3410 
  5 C       -2.4340     1.7980     0.6440 C.3   1 <1>   0.1400 
  6 C       -0.4050     3.2710     0.6770 C.3   1 <1>   0.1400 
  7 O        1.9340     1.6760     0.8990 O.3   1 <1>  -0.3630 
  8 C        1.7000     1.3280    -1.5140 C.3   1 <1>  -0.2400 
  9 C        1.9610    -0.5830     0.0810 C.3   1 <1>  -0.2400 
 10 C       -3.1730     2.6810    -0.4000 C.3   1 <1>   0.0000 
 11 C       -1.4860     4.3580     0.5490 C.3   1 <1>  -0.1600 
 12 C        3.2550     2.0070     0.9100 C.ar  1 <1>   0.0820 
 13 C       -4.6580     2.8520    -0.0290 C.3   1 <1>   0.2000 
 14 C       -2.4530     4.0440    -0.6020 C.3   1 <1>  -0.1600 
 15 C       -3.2860     1.9160    -1.7300 C.3   1 <1>  -0.1600 
 16 C        3.7130     3.1790     0.3010 C.ar  1 <1>   0.0820 
 17 C        4.1390     1.1890     1.5950 C.ar  1 <1>  -0.1500 
 18 O       -4.8300     3.1110     1.3330 O.3   1 <1>  -0.5600 
 19 C       -5.3380     1.5430    -0.4400 C.3   1 <1>  -0.1600 
 20 C       -4.4750     0.9620    -1.5680 C.3   1 <1>  -0.1600 
 21 O        2.8050     3.9930    -0.3100 O.3   1 <1>  -0.3630 
 22 C        5.0730     3.4780     0.3480 C.ar  1 <1>  -0.1500 
 23 C        5.4870     1.4980     1.6400 C.ar  1 <1>  -0.1500 
 24 C       -6.0910     3.5800     1.6890 C.3   1 <1>   0.0400 
 25 C        3.1830     5.2220    -0.8880 C.3   1 <1>   0.0400 
 26 C        5.9530     2.6390     1.0120 C.ar  1 <1>  -0.1500 
 27 H       -2.7670     0.7770     0.5770 H     1 <1>   0.0800 
 28 H       -2.6600     2.1310     1.6410 H     1 <1>   0.0800 
 29 H        0.0520     3.3240     1.6500 H     1 <1>   0.0800 
 30 H        0.3520     3.4650    -0.0580 H     1 <1>   0.0800 
 31 H        1.2530     0.6760    -2.2420 H     1 <1>   0.0800 
 32 H        2.7620     1.3330    -1.6760 H     1 <1>   0.0800 
 33 H        1.3070     2.3130    -1.6740 H     1 <1>   0.0800 
 34 H        1.5140    -1.2700    -0.6150 H     1 <1>   0.0800 
 35 H        1.7640    -0.9420     1.0750 H     1 <1>   0.0800 
 36 H        3.0180    -0.5790    -0.1060 H     1 <1>   0.0800 
 37 H       -2.0340     4.4290     1.4730 H     1 <1>   0.0800 
 38 H       -1.0100     5.3080     0.3850 H     1 <1>   0.0800 
 39 H       -5.0750     3.6680    -0.5960 H     1 <1>   0.0800 
 40 H       -1.8750     4.0140    -1.5090 H     1 <1>   0.0800 
 41 H       -3.1670     4.8420    -0.7000 H     1 <1>   0.0800 
 42 H       -3.5040     2.6050    -2.5280 H     1 <1>   0.0800 
 43 H       -2.3800     1.3860    -1.9720 H     1 <1>   0.0800 
 44 H        3.7710     0.3120     2.0960 H     1 <1>   0.1500 
 45 H       -5.3510     0.8580     0.3900 H     1 <1>   0.0800 
 46 H       -6.3430     1.7240    -0.7780 H     1 <1>   0.0800 
 47 H       -4.1220    -0.0170    -1.2870 H     1 <1>   0.0800 
 48 H       -5.0270     0.8800    -2.4880 H     1 <1>   0.0800 
 49 H        5.4690     4.3590    -0.1190 H     1 <1>   0.1500 
 50 H        6.1700     0.8540     2.1660 H     1 <1>   0.1500 
 51 H       -6.0910     3.7620     2.7500 H     1 <1>   0.0800 
 52 H       -6.8320     2.8380     1.4500 H     1 <1>   0.0800 
 53 H       -6.2900     4.4990     1.1650 H     1 <1>   0.0800 
 54 H        2.2990     5.6920    -1.2800 H     1 <1>   0.0800 
 55 H        3.8800     5.0330    -1.6860 H     1 <1>   0.0800 
 56 H        3.6220     5.8450    -0.1290 H     1 <1>   0.0800 
 57 H        7.0020     2.8770     1.0440 H     1 <1>   0.1500 
@<TRIPOS>BOND
  1   1   2  2   
  2   2   3  am  
  3   2   4  1   
  4   3   5  1   
  5   3   6  1   
  6   4   7  1   
  7   4   8  1   
  8   4   9  1   
  9   5  10  1   
 10   5  27  1   
 11   5  28  1   
 12   6  11  1   
 13   6  29  1   
 14   6  30  1   
 15   7  12  1   
 16   8  31  1   
 17   8  32  1   
 18   8  33  1   
 19   9  34  1   
 20   9  35  1   
 21   9  36  1   
 22  10  13  1   
 23  10  14  1   
 24  10  15  1   
 25  11  14  1   
 26  11  37  1   
 27  11  38  1   
 28  12  16  ar  
 29  12  17  ar  
 30  13  18  1   
 31  13  19  1   
 32  13  39  1   
 33  14  40  1   
 34  14  41  1   
 35  15  20  1   
 36  15  42  1   
 37  15  43  1   
 38  16  21  1   
 39  16  22  ar  
 40  17  23  ar  
 41  17  44  1   
 42  18  24  1   
 43  19  20  1   
 44  19  45  1   
 45  19  46  1   
 46  20  47  1   
 47  20  48  1   
 48  21  25  1   
 49  22  26  ar  
 50  22  49  1   
 51  23  26  ar  
 52  23  50  1   
 53  24  51  1   
 54  24  52  1   
 55  24  53  1   
 56  25  54  1   
 57  25  55  1   
 58  25  56  1   
 59  26  57  1   
@<TRIPOS>SUBSTRUCTURE
  1 ****   3 GROUP 4 **** **** 0

# MOE 2024.06 (io_trps.svl 2023.06)
