@<TRIPOS>MOLECULE
NONAME
54 56 1 0 0 
SMALL
USER_CHARGES


@<TRIPOS>ATOM
  1 O        4.6620    -3.2300     0.4500 O.2   1 <1>  -0.5700 
  2 C        3.8630    -2.8350     1.2670 C.2   1 <1>   0.5690 
  3 N        4.0770    -1.6340     1.9110 N.am  1 <1>  -0.6600 
  4 C        2.6190    -3.6740     1.4750 C.3   1 <1>   0.1570 
  5 C        5.1860    -0.7550     1.4440 C.3   1 <1>   0.1400 
  6 C        3.1320    -0.9860     2.8590 C.3   1 <1>   0.1400 
  7 N        1.5100    -3.0620     0.7230 N.pl3 1 <1>   0.3140 
  8 C        4.8320    -0.1640     0.0670 C.3   1 <1>   0.3430 
  9 C        2.5280     0.2860     2.2470 C.3   1 <1>  -0.1600 
 10 N        0.5970    -2.2860     1.3410 N.2   1 <1>  -0.7070 
 11 C        1.2690    -3.1250    -0.6090 C.2   1 <1>  -0.3320 
 12 N        3.6310     0.7610     0.0460 N.4   1 <1>  -0.9590 
 13 C        2.3970     0.2440     0.7200 C.3   1 <1>   0.3430 
 14 C       -0.2170    -1.9090     0.4080 C.2   1 <1>   0.1080 
 15 C        0.1580    -2.3920    -0.8420 C.2   1 <1>  -0.1810 
 16 C        2.1210    -3.9130    -1.5970 C.3   1 <1>  -0.0600 
 17 C        3.3000     1.0980    -1.3610 C.3   1 <1>   0.5240 
 18 C       -1.4310    -1.0540     0.7010 C.3   1 <1>  -0.0590 
 19 C       -0.5620    -2.1470    -2.1580 C.3   1 <1>   0.0210 
 20 C        4.4580     1.8670    -1.9560 C.2   1 <1>  -0.1810 
 21 C       -0.0010    -0.9040    -2.8510 C.3   1 <1>  -0.2400 
 22 C        5.3160     1.4740    -2.9230 C.2   1 <1>  -0.0100 
 23 C        4.8640     3.1630    -1.5970 C.2   1 <1>  -0.1500 
 24 O        6.2040     2.4140    -3.1640 O.3   1 <1>  -0.2800 
 25 C        5.9360     3.4320    -2.3730 C.2   1 <1>  -0.0100 
 26 H        2.3610    -3.7300     2.5140 H     1 <1>   0.0800 
 27 H        2.7830    -4.6680     1.1060 H     1 <1>   0.0800 
 28 H        6.0820    -1.3460     1.3500 H     1 <1>   0.0800 
 29 H        5.3850     0.0260     2.1560 H     1 <1>   0.0800 
 30 H        3.6510    -0.7430     3.7710 H     1 <1>   0.0800 
 31 H        2.3390    -1.6630     3.1240 H     1 <1>   0.0800 
 32 H        4.6600    -0.9900    -0.6040 H     1 <1>   0.0800 
 33 H        5.6930     0.3690    -0.3000 H     1 <1>   0.0800 
 34 H        3.0840     1.1520     2.5570 H     1 <1>   0.0800 
 35 H        1.5410     0.3880     2.6610 H     1 <1>   0.0800 
 36 H        3.9030     1.6380     0.5010 H     1 <1>   0.4500 
 37 H        1.5580     0.8610     0.4440 H     1 <1>   0.0800 
 38 H        2.1850    -0.7570     0.3880 H     1 <1>   0.0800 
 39 H        2.1670    -4.9480    -1.3060 H     1 <1>   0.0800 
 40 H        3.1190    -3.5190    -1.6370 H     1 <1>   0.0800 
 41 H        1.7040    -3.8640    -2.5860 H     1 <1>   0.0800 
 42 H        2.4110     1.7060    -1.4030 H     1 <1>   0.0800 
 43 H        3.1240     0.1960    -1.9260 H     1 <1>   0.0800 
 44 H       -1.3620    -0.6440     1.6920 H     1 <1>   0.0800 
 45 H       -2.3160    -1.6600     0.6420 H     1 <1>   0.0800 
 46 H       -1.5040    -0.2510    -0.0070 H     1 <1>   0.0800 
 47 H       -1.6160    -2.0240    -1.9790 H     1 <1>   0.0800 
 48 H       -0.4460    -3.0030    -2.7980 H     1 <1>   0.0800 
 49 H       -0.1320    -0.0390    -2.2280 H     1 <1>   0.0800 
 50 H       -0.5160    -0.7420    -3.7820 H     1 <1>   0.0800 
 51 H        1.0460    -1.0400    -3.0560 H     1 <1>   0.0800 
 52 H        5.3780     0.5600    -3.4910 H     1 <1>   0.1500 
 53 H        4.4090     3.8060    -0.8640 H     1 <1>   0.1500 
 54 H        6.5570     4.3110    -2.4330 H     1 <1>   0.1500 
@<TRIPOS>BOND
  1   1   2  2   
  2   2   3  am  
  3   2   4  1   
  4   3   5  1   
  5   3   6  1   
  6   4   7  1   
  7   4  26  1   
  8   4  27  1   
  9   5   8  1   
 10   5  28  1   
 11   5  29  1   
 12   6   9  1   
 13   6  30  1   
 14   6  31  1   
 15   7  10  1   
 16   7  11  1   
 17   8  12  1   
 18   8  32  1   
 19   8  33  1   
 20   9  13  1   
 21   9  34  1   
 22   9  35  1   
 23  10  14  2   
 24  11  15  2   
 25  11  16  1   
 26  12  13  1   
 27  12  17  1   
 28  12  36  1   
 29  13  37  1   
 30  13  38  1   
 31  14  15  1   
 32  14  18  1   
 33  15  19  1   
 34  16  39  1   
 35  16  40  1   
 36  16  41  1   
 37  17  20  1   
 38  17  42  1   
 39  17  43  1   
 40  18  44  1   
 41  18  45  1   
 42  18  46  1   
 43  19  21  1   
 44  19  47  1   
 45  19  48  1   
 46  20  22  2   
 47  20  23  1   
 48  21  49  1   
 49  21  50  1   
 50  21  51  1   
 51  22  24  1   
 52  22  52  1   
 53  23  25  2   
 54  23  53  1   
 55  24  25  1   
 56  25  54  1   
@<TRIPOS>SUBSTRUCTURE
  1 ****  13 GROUP 4 **** **** 0

# MOE 2024.06 (io_trps.svl 2023.06)
