@<TRIPOS>MOLECULE
NONAME
49 52 1 0 0 
SMALL
USER_CHARGES


@<TRIPOS>ATOM
  1 O        0.6020     0.1550     1.1330 O.3   1 <1>  -0.5600 
  2 C        0.4260    -1.1890     0.7790 C.3   1 <1>   0.1200 
  3 C        1.4410     0.8500     0.2650 C.3   1 <1>   0.1200 
  4 C        1.7770    -1.9400     0.7370 C.3   1 <1>   0.2850 
  5 C        2.8370     0.2000     0.2610 C.3   1 <1>   0.1900 
  6 N        2.7500    -1.2300    -0.1360 N.3   1 <1>  -0.8100 
  7 C        1.5400    -3.3680     0.2230 C.3   1 <1>  -0.1950 
  8 C        3.7770     0.9740    -0.6860 C.3   1 <1>   0.3430 
  9 C        4.0890    -1.8580    -0.1480 C.3   1 <1>   0.1100 
 10 C        0.8890    -4.3920     1.1030 C.3   1 <1>  -0.2000 
 11 C        2.3310    -4.5430     0.7150 C.3   1 <1>  -0.2000 
 12 N        5.1470     0.3480    -0.7610 N.4   1 <1>  -0.9590 
 13 C        5.0530    -1.1130    -1.0930 C.3   1 <1>   0.3430 
 14 C        6.0340     1.0790    -1.7050 C.3   1 <1>   0.4860 
 15 C        6.2050     2.4930    -1.1910 C.ar  1 <1>  -0.1440 
 16 C        6.9480     2.7300    -0.0440 C.ar  1 <1>  -0.1500 
 17 C        5.6130     3.5610    -1.8500 C.ar  1 <1>  -0.1500 
 18 C        7.0880     4.0120     0.4570 C.ar  1 <1>   0.0820 
 19 C        5.7530     4.8470    -1.3570 C.ar  1 <1>  -0.1500 
 20 O        7.8220     4.1400     1.5880 O.3   1 <1>  -0.3620 
 21 C        6.4850     5.0770    -0.2050 C.ar  1 <1>  -0.1500 
 22 C        8.1020     5.4080     2.1420 C.3   1 <1>   0.0400 
 23 H       -0.2220    -1.6380     1.5100 H     1 <1>   0.0800 
 24 H       -0.0590    -1.2320    -0.1800 H     1 <1>   0.0800 
 25 H        1.0020     0.8400    -0.7180 H     1 <1>   0.0800 
 26 H        1.4940     1.8660     0.6150 H     1 <1>   0.0800 
 27 H        2.1600    -1.9880     1.7430 H     1 <1>   0.0800 
 28 H        3.2280     0.2730     1.2620 H     1 <1>   0.0800 
 29 H        1.2280    -3.3720    -0.8080 H     1 <1>   0.1000 
 30 H        3.8590     1.9920    -0.3410 H     1 <1>   0.0800 
 31 H        3.3310     0.9900    -1.6660 H     1 <1>   0.0800 
 32 H        4.4950    -1.8840     0.8490 H     1 <1>   0.0800 
 33 H        4.0090    -2.8720    -0.4990 H     1 <1>   0.0800 
 34 H        0.6610    -4.1500     2.1270 H     1 <1>   0.1000 
 35 H        0.1670    -5.0630     0.6700 H     1 <1>   0.1000 
 36 H        2.5920    -5.3240     0.0210 H     1 <1>   0.1000 
 37 H        3.0720    -4.4100     1.4830 H     1 <1>   0.1000 
 38 H        5.5650     0.4440     0.1720 H     1 <1>   0.4500 
 39 H        4.6910    -1.2340    -2.1010 H     1 <1>   0.0800 
 40 H        6.0280    -1.5690    -1.0320 H     1 <1>   0.0800 
 41 H        6.9980     0.6000    -1.7580 H     1 <1>   0.0800 
 42 H        5.6010     1.0930    -2.6920 H     1 <1>   0.0800 
 43 H        7.4380     1.9320     0.4860 H     1 <1>   0.1500 
 44 H        5.0410     3.4110    -2.7510 H     1 <1>   0.1500 
 45 H        5.2940     5.6760    -1.8700 H     1 <1>   0.1500 
 46 H        6.5760     6.0830     0.1580 H     1 <1>   0.1500 
 47 H        8.7220     5.2660     3.0080 H     1 <1>   0.0800 
 48 H        7.1770     5.8770     2.4290 H     1 <1>   0.0800 
 49 H        8.6250     6.0010     1.4130 H     1 <1>   0.0800 
@<TRIPOS>BOND
  1   1   2  1   
  2   1   3  1   
  3   2   4  1   
  4   2  23  1   
  5   2  24  1   
  6   3   5  1   
  7   3  25  1   
  8   3  26  1   
  9   4   6  1   
 10   4   7  1   
 11   4  27  1   
 12   5   6  1   
 13   5   8  1   
 14   5  28  1   
 15   6   9  1   
 16   7  10  1   
 17   7  11  1   
 18   7  29  1   
 19   8  12  1   
 20   8  30  1   
 21   8  31  1   
 22   9  13  1   
 23   9  32  1   
 24   9  33  1   
 25  10  11  1   
 26  10  34  1   
 27  10  35  1   
 28  11  36  1   
 29  11  37  1   
 30  12  13  1   
 31  12  14  1   
 32  12  38  1   
 33  13  39  1   
 34  13  40  1   
 35  14  15  1   
 36  14  41  1   
 37  14  42  1   
 38  15  16  ar  
 39  15  17  ar  
 40  16  18  ar  
 41  16  43  1   
 42  17  19  ar  
 43  17  44  1   
 44  18  20  1   
 45  18  21  ar  
 46  19  21  ar  
 47  19  45  1   
 48  20  22  1   
 49  21  46  1   
 50  22  47  1   
 51  22  48  1   
 52  22  49  1   
@<TRIPOS>SUBSTRUCTURE
  1 ****   8 GROUP 4 **** **** 0

# MOE 2024.06 (io_trps.svl 2023.06)
