@<TRIPOS>MOLECULE
NONAME
52 53 1 0 0 
SMALL
USER_CHARGES


@<TRIPOS>ATOM
  1 O       -1.1150    -0.3620     0.7770 O.2   1 <1>  -0.5700 
  2 C       -1.7610     0.4220     0.1200 C.2   1 <1>   0.5690 
  3 N       -2.6980    -0.0260    -0.7860 N.am  1 <1>  -0.6600 
  4 C       -1.4370     1.9050     0.3730 C.3   1 <1>  -0.0190 
  5 C       -2.8170    -1.4980    -1.0430 C.3   1 <1>   0.2840 
  6 C       -3.5730     0.8260    -1.6430 C.3   1 <1>   0.1400 
  7 C       -2.6140     2.7470     0.9070 C.3   1 <1>  -0.1600 
  8 C       -0.7020     2.5820    -0.8110 C.3   1 <1>  -0.1600 
  9 C       -4.0360    -2.0970    -0.3550 C.ar  1 <1>  -0.1440 
 10 C       -4.9830     0.9250    -1.0600 C.3   1 <1>  -0.2400 
 11 C       -2.1550     4.1400     1.3840 C.3   1 <1>   0.2000 
 12 C       -0.8590     4.1150    -0.8270 C.3   1 <1>  -0.1600 
 13 C       -4.1670    -2.0250     1.0230 C.ar  1 <1>  -0.1500 
 14 C       -5.0250    -2.7290    -1.0940 C.ar  1 <1>  -0.1500 
 15 O       -3.2340     5.0300     1.2260 O.3   1 <1>  -0.5600 
 16 C       -0.9270     4.6760     0.5960 C.3   1 <1>   0.2000 
 17 C       -5.2740    -2.5680     1.6520 C.ar  1 <1>  -0.1500 
 18 C       -6.1320    -3.2720    -0.4640 C.ar  1 <1>  -0.1500 
 19 C       -4.1970     4.9810     2.2330 C.3   1 <1>   0.0400 
 20 O       -1.0070     6.0500     0.5080 O.3   1 <1>  -0.6800 
 21 C       -6.2650    -3.1920     0.9130 C.ar  1 <1>  -0.1440 
 22 C       -7.4790    -3.7880     1.6050 C.3   1 <1>  -0.0170 
 23 C       -7.2190    -5.2470     1.9840 C.3   1 <1>  -0.2400 
 24 H       -0.7250     1.8940     1.1810 H     1 <1>   0.0800 
 25 H       -2.8740    -1.6670    -2.1030 H     1 <1>   0.0800 
 26 H       -1.9390    -2.0150    -0.6930 H     1 <1>   0.0800 
 27 H       -3.1620     1.8120    -1.7350 H     1 <1>   0.0800 
 28 H       -3.6210     0.4120    -2.6350 H     1 <1>   0.0800 
 29 H       -3.0820     2.2250     1.7230 H     1 <1>   0.0800 
 30 H       -3.3410     2.8850     0.1310 H     1 <1>   0.0800 
 31 H        0.3440     2.3360    -0.7340 H     1 <1>   0.0800 
 32 H       -1.0380     2.1890    -1.7530 H     1 <1>   0.0800 
 33 H       -4.9490     1.1690    -0.0140 H     1 <1>   0.0800 
 34 H       -5.5130     0.0000    -1.1830 H     1 <1>   0.0800 
 35 H       -5.5330     1.6910    -1.5750 H     1 <1>   0.0800 
 36 H       -1.8840     4.1040     2.4260 H     1 <1>   0.0800 
 37 H       -1.7670     4.3730    -1.3430 H     1 <1>   0.0800 
 38 H       -0.0310     4.5560    -1.3550 H     1 <1>   0.0800 
 39 H       -3.4020    -1.5440     1.6080 H     1 <1>   0.1500 
 40 H       -4.9420    -2.8020    -2.1640 H     1 <1>   0.1500 
 41 H       -0.0170     4.4320     1.1160 H     1 <1>   0.0800 
 42 H       -5.3570    -2.5030     2.7230 H     1 <1>   0.1500 
 43 H       -6.8910    -3.7590    -1.0500 H     1 <1>   0.1500 
 44 H       -4.9520     5.7130     2.0090 H     1 <1>   0.0800 
 45 H       -3.7370     5.2140     3.1770 H     1 <1>   0.0800 
 46 H       -4.6430     4.0020     2.2590 H     1 <1>   0.0800 
 47 H       -1.9670     6.2630     0.5700 H     1 <1>   0.4000 
 48 H       -7.7070    -3.2200     2.4900 H     1 <1>   0.0800 
 49 H       -8.3330    -3.7310     0.9520 H     1 <1>   0.0800 
 50 H       -6.3760    -5.3110     2.6490 H     1 <1>   0.0800 
 51 H       -7.0080    -5.8270     1.1040 H     1 <1>   0.0800 
 52 H       -8.0810    -5.6620     2.4750 H     1 <1>   0.0800 
@<TRIPOS>BOND
  1   1   2  2   
  2   2   3  am  
  3   2   4  1   
  4   3   5  1   
  5   3   6  1   
  6   4   7  1   
  7   4   8  1   
  8   4  24  1   
  9   5   9  1   
 10   5  25  1   
 11   5  26  1   
 12   6  10  1   
 13   6  27  1   
 14   6  28  1   
 15   7  11  1   
 16   7  29  1   
 17   7  30  1   
 18   8  12  1   
 19   8  31  1   
 20   8  32  1   
 21   9  13  ar  
 22   9  14  ar  
 23  10  33  1   
 24  10  34  1   
 25  10  35  1   
 26  11  15  1   
 27  11  16  1   
 28  11  36  1   
 29  12  16  1   
 30  12  37  1   
 31  12  38  1   
 32  13  17  ar  
 33  13  39  1   
 34  14  18  ar  
 35  14  40  1   
 36  15  19  1   
 37  16  20  1   
 38  16  41  1   
 39  17  21  ar  
 40  17  42  1   
 41  18  21  ar  
 42  18  43  1   
 43  19  44  1   
 44  19  45  1   
 45  19  46  1   
 46  20  47  1   
 47  21  22  1   
 48  22  23  1   
 49  22  48  1   
 50  22  49  1   
 51  23  50  1   
 52  23  51  1   
 53  23  52  1   
@<TRIPOS>SUBSTRUCTURE
  1 ****   3 GROUP 4 **** **** 0

# MOE 2024.06 (io_trps.svl 2023.06)
