@<TRIPOS>MOLECULE
NONAME
45 48 1 0 0 
SMALL
USER_CHARGES


@<TRIPOS>ATOM
  1 F       -1.2930    -0.5950    -1.5940 F     1 <1>  -0.3400 
  2 C       -1.7850    -0.7780    -0.3780 C.3   1 <1>   1.2400 
  3 F       -1.2270     0.1160     0.4250 F     1 <1>  -0.3400 
  4 O       -1.4850    -2.0920     0.0730 O.3   1 <1>  -0.3630 
  5 O       -3.1940    -0.6090    -0.3930 O.3   1 <1>  -0.3630 
  6 C       -2.6750    -2.6560     0.3100 C.ar  1 <1>   0.0830 
  7 C       -3.6870    -1.7770     0.0350 C.ar  1 <1>   0.0830 
  8 C       -2.9300    -3.9330     0.7680 C.ar  1 <1>  -0.1500 
  9 C       -5.0100    -2.1300     0.2060 C.ar  1 <1>  -0.1500 
 10 C       -4.2580    -4.3140     0.9410 C.ar  1 <1>  -0.1440 
 11 C       -5.2870    -3.4120     0.6640 C.ar  1 <1>  -0.1500 
 12 C       -4.5980    -5.7100     1.4330 C.3   1 <1>   0.4870 
 13 N       -4.3500    -6.6960     0.3450 N.4   1 <1>  -0.9590 
 14 C       -5.2380    -6.4390    -0.8330 C.3   1 <1>   0.3430 
 15 C       -4.6650    -8.0800     0.8230 C.3   1 <1>   0.3430 
 16 C       -6.4320    -7.3800    -0.6600 C.3   1 <1>   0.2000 
 17 C       -5.7970    -8.6300    -0.0610 C.3   1 <1>  -0.0800 
 18 O       -7.2940    -6.8300     0.2850 O.3   1 <1>  -0.6800 
 19 C       -5.2620    -9.5720    -1.1590 C.3   1 <1>   0.0210 
 20 C       -4.6040   -10.7980    -0.5610 C.2   1 <1>   0.1080 
 21 N       -3.4270   -10.7640    -0.0180 N.2   1 <1>  -0.7070 
 22 C       -5.1650   -12.0690    -0.5280 C.2   1 <1>  -0.1500 
 23 N       -3.1960   -12.0370     0.3700 N.pl3 1 <1>   0.3000 
 24 C       -4.2390   -12.8410     0.0760 C.2   1 <1>  -0.3320 
 25 C       -4.2830   -14.3260     0.3910 C.3   1 <1>  -0.0600 
 26 H       -2.1050    -4.5910     0.9810 H     1 <1>   0.1500 
 27 H       -5.7930    -1.4240    -0.0110 H     1 <1>   0.1500 
 28 H       -6.3170    -3.6980     0.8050 H     1 <1>   0.1500 
 29 H       -5.6340    -5.7460     1.7320 H     1 <1>   0.0800 
 30 H       -3.9890    -5.9450     2.2910 H     1 <1>   0.0800 
 31 H       -3.3650    -6.6290     0.0610 H     1 <1>   0.4500 
 32 H       -5.5560    -5.4130    -0.9000 H     1 <1>   0.0800 
 33 H       -4.7140    -6.7020    -1.7380 H     1 <1>   0.0800 
 34 H       -3.7880    -8.7020     0.7820 H     1 <1>   0.0800 
 35 H       -5.0070    -8.0480     1.8450 H     1 <1>   0.0800 
 36 H       -6.9750    -7.5450    -1.5760 H     1 <1>   0.0800 
 37 H       -6.5010    -9.1830     0.5360 H     1 <1>   0.0800 
 38 H       -8.1420    -7.3220     0.3180 H     1 <1>   0.4000 
 39 H       -4.5390    -9.0730    -1.7790 H     1 <1>   0.0800 
 40 H       -6.0720    -9.8920    -1.7900 H     1 <1>   0.0800 
 41 H       -6.1290   -12.3570    -0.9100 H     1 <1>   0.1500 
 42 H       -2.3210   -12.3290     0.8240 H     1 <1>   0.2700 
 43 H       -5.2150   -14.7480     0.0580 H     1 <1>   0.0800 
 44 H       -4.1940   -14.4870     1.4510 H     1 <1>   0.0800 
 45 H       -3.4800   -14.8370    -0.1100 H     1 <1>   0.0800 
@<TRIPOS>BOND
  1   1   2  1   
  2   2   3  1   
  3   2   4  1   
  4   2   5  1   
  5   4   6  1   
  6   5   7  1   
  7   6   7  ar  
  8   6   8  ar  
  9   7   9  ar  
 10   8  10  ar  
 11   8  26  1   
 12   9  11  ar  
 13   9  27  1   
 14  10  11  ar  
 15  10  12  1   
 16  11  28  1   
 17  12  13  1   
 18  12  29  1   
 19  12  30  1   
 20  13  14  1   
 21  13  15  1   
 22  13  31  1   
 23  14  16  1   
 24  14  32  1   
 25  14  33  1   
 26  15  17  1   
 27  15  34  1   
 28  15  35  1   
 29  16  17  1   
 30  16  18  1   
 31  16  36  1   
 32  17  19  1   
 33  17  37  1   
 34  18  38  1   
 35  19  20  1   
 36  19  39  1   
 37  19  40  1   
 38  20  21  2   
 39  20  22  1   
 40  21  23  1   
 41  22  24  2   
 42  22  41  1   
 43  23  24  1   
 44  23  42  1   
 45  24  25  1   
 46  25  43  1   
 47  25  44  1   
 48  25  45  1   
@<TRIPOS>SUBSTRUCTURE
  1 ****  13 GROUP 4 **** **** 0

# MOE 2024.06 (io_trps.svl 2023.06)
