@<TRIPOS>MOLECULE
NONAME
53 55 1 0 0 
SMALL
USER_CHARGES


@<TRIPOS>ATOM
  1 O        2.4290     0.8480    -1.5850 O.2   1 <1>  -0.5700 
  2 C        2.8630    -0.1260    -1.0190 C.2   1 <1>   0.5690 
  3 N        2.6400    -0.3860     0.3050 N.am  1 <1>  -0.6600 
  4 C        3.7190    -1.1080    -1.7930 C.3   1 <1>  -0.0990 
  5 C        3.1930    -1.6150     0.9250 C.3   1 <1>   0.1400 
  6 C        1.8660     0.5250     1.1870 C.3   1 <1>   0.0600 
  7 C        3.3470    -2.5730    -1.4740 C.3   1 <1>  -0.0800 
  8 C        2.9520    -2.8190    -0.0020 C.3   1 <1>  -0.0800 
  9 C        4.4730    -3.5550    -1.8160 C.3   1 <1>  -0.1600 
 10 C        3.6980    -4.0750     0.4710 C.3   1 <1>  -0.1600 
 11 C        4.4570    -4.6320    -0.7330 C.3   1 <1>   0.2200 
 12 N        5.8230    -5.1480    -0.4040 N.am  1 <1>  -0.6600 
 13 C        6.9300    -4.4040    -0.0080 C.2   1 <1>   0.5440 
 14 C        6.0020    -6.5850    -0.7710 C.3   1 <1>   0.0600 
 15 O        8.0380    -4.8660    -0.2030 O.2   1 <1>  -0.5700 
 16 C        6.8470    -3.1150     0.6550 C.ar  1 <1>   0.0860 
 17 C        6.9750    -1.9190    -0.0450 C.ar  1 <1>  -0.1500 
 18 C        6.6680    -3.0340     2.0360 C.ar  1 <1>  -0.1500 
 19 C        6.8480    -0.6920     0.5790 C.ar  1 <1>   0.0820 
 20 C        6.5680    -1.8140     2.6810 C.ar  1 <1>  -0.1500 
 21 O        6.9160     0.4010    -0.2210 O.3   1 <1>  -0.3620 
 22 C        6.6480    -0.6390     1.9550 C.ar  1 <1>  -0.1500 
 23 C        6.4090     1.6580     0.1700 C.3   1 <1>   0.2000 
 24 C        5.8740     2.3400    -1.0860 C.3   1 <1>  -0.2400 
 25 C        7.5470     2.4690     0.7920 C.3   1 <1>  -0.2400 
 26 H        3.6140    -0.9240    -2.8470 H     1 <1>   0.0800 
 27 H        4.7380    -0.9090    -1.5240 H     1 <1>   0.0800 
 28 H        4.2460    -1.4750     1.0770 H     1 <1>   0.0800 
 29 H        2.7300    -1.7910     1.8800 H     1 <1>   0.0800 
 30 H        2.4800     0.8430     2.0100 H     1 <1>   0.0800 
 31 H        0.9980     0.0140     1.5640 H     1 <1>   0.0800 
 32 H        1.5420     1.3950     0.6400 H     1 <1>   0.0800 
 33 H        2.4880    -2.8280    -2.0730 H     1 <1>   0.0800 
 34 H        1.8950    -3.0270     0.0260 H     1 <1>   0.0800 
 35 H        5.4190    -3.0580    -1.8440 H     1 <1>   0.0800 
 36 H        4.3070    -3.9960    -2.7830 H     1 <1>   0.0800 
 37 H        2.9950    -4.8100     0.8190 H     1 <1>   0.0800 
 38 H        4.3570    -3.8490     1.2820 H     1 <1>   0.0800 
 39 H        3.8630    -5.4430    -1.1210 H     1 <1>   0.0800 
 40 H        5.1850    -7.1680    -0.3850 H     1 <1>   0.0800 
 41 H        6.9160    -6.9760    -0.3590 H     1 <1>   0.0800 
 42 H        6.0370    -6.6820    -1.8420 H     1 <1>   0.0800 
 43 H        7.1780    -1.9430    -1.0990 H     1 <1>   0.1500 
 44 H        6.6090    -3.9470     2.6020 H     1 <1>   0.1500 
 45 H        6.4290    -1.7790     3.7480 H     1 <1>   0.1500 
 46 H        6.5630     0.2980     2.4700 H     1 <1>   0.1500 
 47 H        5.5980     1.5110     0.8640 H     1 <1>   0.0800 
 48 H        6.6580     2.4630    -1.8110 H     1 <1>   0.0800 
 49 H        5.4760     3.3070    -0.8390 H     1 <1>   0.0800 
 50 H        5.0830     1.7530    -1.5150 H     1 <1>   0.0800 
 51 H        8.3360     2.6090     0.0750 H     1 <1>   0.0800 
 52 H        7.9450     1.9700     1.6560 H     1 <1>   0.0800 
 53 H        7.1850     3.4350     1.0940 H     1 <1>   0.0800 
@<TRIPOS>BOND
  1   1   2  2   
  2   2   3  am  
  3   2   4  1   
  4   3   5  1   
  5   3   6  1   
  6   4   7  1   
  7   4  26  1   
  8   4  27  1   
  9   5   8  1   
 10   5  28  1   
 11   5  29  1   
 12   6  30  1   
 13   6  31  1   
 14   6  32  1   
 15   7   8  1   
 16   7   9  1   
 17   7  33  1   
 18   8  10  1   
 19   8  34  1   
 20   9  11  1   
 21   9  35  1   
 22   9  36  1   
 23  10  11  1   
 24  10  37  1   
 25  10  38  1   
 26  11  12  1   
 27  11  39  1   
 28  12  13  am  
 29  12  14  1   
 30  13  15  2   
 31  13  16  1   
 32  14  40  1   
 33  14  41  1   
 34  14  42  1   
 35  16  17  ar  
 36  16  18  ar  
 37  17  19  ar  
 38  17  43  1   
 39  18  20  ar  
 40  18  44  1   
 41  19  21  1   
 42  19  22  ar  
 43  20  22  ar  
 44  20  45  1   
 45  21  23  1   
 46  22  46  1   
 47  23  24  1   
 48  23  25  1   
 49  23  47  1   
 50  24  48  1   
 51  24  49  1   
 52  24  50  1   
 53  25  51  1   
 54  25  52  1   
 55  25  53  1   
@<TRIPOS>SUBSTRUCTURE
  1 ****  17 GROUP 4 **** **** 0

# MOE 2024.06 (io_trps.svl 2023.06)
