@<TRIPOS>MOLECULE
NONAME
45 47 1 0 0 
SMALL
USER_CHARGES


@<TRIPOS>ATOM
  1 O       -0.0180     0.3200    -0.5810 O.2   1 <1>  -0.5700 
  2 C       -0.9910     1.0420    -0.5380 C.2   1 <1>   0.5690 
  3 N       -2.2460     0.4880    -0.6940 N.am  1 <1>  -0.6600 
  4 C       -0.7630     2.5610    -0.2900 C.3   1 <1>   0.3170 
  5 C       -3.5740     1.1500    -0.7470 C.3   1 <1>   0.1400 
  6 C       -2.4900    -0.9490    -0.4410 C.3   1 <1>   0.1400 
  7 N       -1.6010     2.9900     0.8810 N.pl3 1 <1>   0.0480 
  8 C       -1.0980     3.3700    -1.5630 C.3   1 <1>  -0.2400 
  9 C        0.7040     2.8790     0.0790 C.3   1 <1>  -0.2400 
 10 C       -4.4590     0.3390     0.2020 C.3   1 <1>   0.2000 
 11 C       -3.6930    -0.9570     0.5080 C.3   1 <1>  -0.0800 
 12 C       -2.3740     4.1100     1.0100 C.2   1 <1>  -0.3020 
 13 C       -1.7470     2.2920     2.0460 C.2   1 <1>  -0.3020 
 14 O       -4.6520     1.0380     1.3830 O.3   1 <1>  -0.6800 
 15 C       -4.5770    -2.2070     0.3790 C.3   1 <1>  -0.0170 
 16 C       -2.9940     4.1090     2.2190 C.2   1 <1>  -0.1500 
 17 C       -2.5920     2.9480     2.8820 C.2   1 <1>  -0.1500 
 18 C       -3.7960    -3.4780     0.6700 C.ar  1 <1>   0.1670 
 19 N       -3.2100    -4.0610    -0.3640 N.ar  1 <1>  -0.6200 
 20 C       -3.7210    -3.9650     1.9730 C.ar  1 <1>   0.1600 
 21 C       -2.5490    -5.1510    -0.0090 C.ar  1 <1>   0.1600 
 22 N       -3.0620    -5.0550     2.3300 N.ar  1 <1>  -0.6200 
 23 C       -2.4770    -5.6310     1.2930 C.ar  1 <1>   0.1600 
 24 H       -3.5570     2.1870    -0.4750 H     1 <1>   0.0800 
 25 H       -3.9540     1.0600    -1.7490 H     1 <1>   0.0800 
 26 H       -2.7250    -1.4370    -1.3720 H     1 <1>   0.0800 
 27 H       -1.6370    -1.4340     0.0050 H     1 <1>   0.0800 
 28 H       -0.5080     3.0050    -2.3850 H     1 <1>   0.0800 
 29 H       -0.8690     4.4110    -1.4270 H     1 <1>   0.0800 
 30 H       -2.1330     3.2710    -1.8310 H     1 <1>   0.0800 
 31 H        1.3590     2.6080    -0.7300 H     1 <1>   0.0800 
 32 H        1.0000     2.3150     0.9470 H     1 <1>   0.0800 
 33 H        0.8270     3.9270     0.2850 H     1 <1>   0.0800 
 34 H       -5.4260     0.1580    -0.2360 H     1 <1>   0.0800 
 35 H       -3.3020    -0.9150     1.5100 H     1 <1>   0.0800 
 36 H       -2.4520     4.8600     0.2440 H     1 <1>   0.1500 
 37 H       -1.2350     1.3610     2.2240 H     1 <1>   0.1500 
 38 H       -3.8120     1.4680     1.6650 H     1 <1>   0.4000 
 39 H       -4.9890    -2.2680    -0.6140 H     1 <1>   0.0800 
 40 H       -5.4000    -2.1300     1.0670 H     1 <1>   0.0800 
 41 H       -3.6670     4.8490     2.6180 H     1 <1>   0.1500 
 42 H       -2.9070     2.6600     3.8710 H     1 <1>   0.1500 
 43 H       -4.2260    -3.4270     2.7560 H     1 <1>   0.1500 
 44 H       -2.0380    -5.6910    -0.7870 H     1 <1>   0.1500 
 45 H       -1.9140    -6.5270     1.4820 H     1 <1>   0.1500 
@<TRIPOS>BOND
  1   1   2  2   
  2   2   3  am  
  3   2   4  1   
  4   3   5  1   
  5   3   6  1   
  6   4   7  1   
  7   4   8  1   
  8   4   9  1   
  9   5  10  1   
 10   5  24  1   
 11   5  25  1   
 12   6  11  1   
 13   6  26  1   
 14   6  27  1   
 15   7  12  1   
 16   7  13  1   
 17   8  28  1   
 18   8  29  1   
 19   8  30  1   
 20   9  31  1   
 21   9  32  1   
 22   9  33  1   
 23  10  11  1   
 24  10  14  1   
 25  10  34  1   
 26  11  15  1   
 27  11  35  1   
 28  12  16  2   
 29  12  36  1   
 30  13  17  2   
 31  13  37  1   
 32  14  38  1   
 33  15  18  1   
 34  15  39  1   
 35  15  40  1   
 36  16  17  1   
 37  16  41  1   
 38  17  42  1   
 39  18  19  ar  
 40  18  20  ar  
 41  19  21  ar  
 42  20  22  ar  
 43  20  43  1   
 44  21  23  ar  
 45  21  44  1   
 46  22  23  ar  
 47  23  45  1   
@<TRIPOS>SUBSTRUCTURE
  1 ****   6 GROUP 4 **** **** 0

# MOE 2024.06 (io_trps.svl 2023.06)
