@<TRIPOS>MOLECULE
NONAME
51 53 1 0 0 
SMALL
USER_CHARGES


@<TRIPOS>ATOM
  1 O        1.0130     0.5450    -1.5080 O.2   1 <1>  -0.5700 
  2 C        1.7010     0.1720    -0.5770 C.2   1 <1>   0.5440 
  3 N        2.3200     1.1160     0.2210 N.am  1 <1>  -0.6600 
  4 C        1.8390    -1.2510    -0.3300 C.ar  1 <1>   0.0860 
  5 C        2.7970     0.8090     1.6120 C.3   1 <1>   0.1400 
  6 C        2.5130     2.5090    -0.2710 C.3   1 <1>   0.1400 
  7 C        3.0880    -1.8670    -0.3200 C.ar  1 <1>  -0.1500 
  8 C        0.7240    -2.0520    -0.0970 C.ar  1 <1>  -0.1500 
  9 C        4.1080     1.5130     2.0020 C.3   1 <1>   0.1400 
 10 C        3.8830     2.6400    -0.9510 C.3   1 <1>  -0.1600 
 11 C        3.2230    -3.2180    -0.0620 C.ar  1 <1>  -0.1500 
 12 C        0.8520    -3.4060     0.1580 C.ar  1 <1>  -0.1500 
 13 N        5.1080     1.4730     0.8940 N.am  1 <1>  -0.6600 
 14 C        5.0790     2.6700     0.0110 C.3   1 <1>   0.1400 
 15 C        2.1040    -3.9980     0.1830 C.ar  1 <1>  -0.1430 
 16 C        5.9130     0.3580     0.7100 C.2   1 <1>   0.7160 
 17 C        2.2490    -5.4840     0.4660 C.3   1 <1>  -0.0160 
 18 O        5.9270    -0.4740     1.6040 O.2   1 <1>  -0.5700 
 19 C        6.7390     0.1050    -0.4630 C.2   1 <1>   0.1410 
 20 C        2.1880    -6.2880    -0.8380 C.3   1 <1>  -0.1600 
 21 N        6.5280     0.6040    -1.7040 N.2   1 <1>  -0.2270 
 22 C        7.8320    -0.6930    -0.5390 C.2   1 <1>  -0.3020 
 23 C        2.3250    -7.7940    -0.5800 C.3   1 <1>  -0.1600 
 24 N        7.4330     0.1590    -2.4990 N.2   1 <1>  -0.4180 
 25 N        8.2380    -0.6400    -1.8010 N.pl3 1 <1>   0.3000 
 26 C        2.2620    -8.5830    -1.8900 C.3   1 <1>  -0.2400 
 27 H        2.9460    -0.2480     1.7310 H     1 <1>   0.0800 
 28 H        2.0300     1.0970     2.3090 H     1 <1>   0.0800 
 29 H        2.4200     3.2080     0.5420 H     1 <1>   0.0800 
 30 H        1.7450     2.7490    -0.9870 H     1 <1>   0.0800 
 31 H        3.9620    -1.2720    -0.5180 H     1 <1>   0.1500 
 32 H       -0.2520    -1.5990    -0.1220 H     1 <1>   0.1500 
 33 H        4.5120     1.0390     2.8800 H     1 <1>   0.0800 
 34 H        3.8990     2.5330     2.2680 H     1 <1>   0.0800 
 35 H        3.8910     3.5580    -1.5090 H     1 <1>   0.0800 
 36 H        4.0040     1.8430    -1.6640 H     1 <1>   0.0800 
 37 H        4.2040    -3.6610    -0.0550 H     1 <1>   0.1500 
 38 H       -0.0280    -3.9990     0.3350 H     1 <1>   0.1500 
 39 H        5.0180     3.5530     0.6230 H     1 <1>   0.0800 
 40 H        5.9940     2.7470    -0.5480 H     1 <1>   0.0800 
 41 H        1.4620    -5.8020     1.1270 H     1 <1>   0.0800 
 42 H        3.1870    -5.6660     0.9620 H     1 <1>   0.0800 
 43 H        2.9790    -5.9600    -1.4900 H     1 <1>   0.0800 
 44 H        1.2510    -6.0900    -1.3300 H     1 <1>   0.0800 
 45 H        8.3040    -1.2730     0.2320 H     1 <1>   0.1500 
 46 H        1.5330    -8.1240     0.0700 H     1 <1>   0.0800 
 47 H        3.2640    -7.9950    -0.0910 H     1 <1>   0.0800 
 48 H        9.0370    -1.1240    -2.2240 H     1 <1>   0.2700 
 49 H        1.3220    -8.4150    -2.3860 H     1 <1>   0.0800 
 50 H        2.3590    -9.6360    -1.6900 H     1 <1>   0.0800 
 51 H        3.0590    -8.2860    -2.5480 H     1 <1>   0.0800 
@<TRIPOS>BOND
  1   1   2  2   
  2   2   3  am  
  3   2   4  1   
  4   3   5  1   
  5   3   6  1   
  6   4   7  ar  
  7   4   8  ar  
  8   5   9  1   
  9   5  27  1   
 10   5  28  1   
 11   6  10  1   
 12   6  29  1   
 13   6  30  1   
 14   7  11  ar  
 15   7  31  1   
 16   8  12  ar  
 17   8  32  1   
 18   9  13  1   
 19   9  33  1   
 20   9  34  1   
 21  10  14  1   
 22  10  35  1   
 23  10  36  1   
 24  11  15  ar  
 25  11  37  1   
 26  12  15  ar  
 27  12  38  1   
 28  13  14  1   
 29  13  16  am  
 30  14  39  1   
 31  14  40  1   
 32  15  17  1   
 33  16  18  2   
 34  16  19  1   
 35  17  20  1   
 36  17  41  1   
 37  17  42  1   
 38  19  21  1   
 39  19  22  2   
 40  20  23  1   
 41  20  43  1   
 42  20  44  1   
 43  21  24  2   
 44  22  25  1   
 45  22  45  1   
 46  23  26  1   
 47  23  46  1   
 48  23  47  1   
 49  24  25  1   
 50  25  48  1   
 51  26  49  1   
 52  26  50  1   
 53  26  51  1   
@<TRIPOS>SUBSTRUCTURE
  1 ****   7 GROUP 4 **** **** 0

# MOE 2024.06 (io_trps.svl 2023.06)
