@<TRIPOS>MOLECULE
NONAME
54 56 1 0 0 
SMALL
USER_CHARGES


@<TRIPOS>ATOM
  1 S       -1.0450    -1.4370    -0.7330 S.3   1 <1>  -0.0800 
  2 C       -2.5020    -1.3850     0.2440 C.2   1 <1>  -0.1400 
  3 C       -0.3800    -0.0320     0.0810 C.2   1 <1>  -0.1400 
  4 C       -2.4410    -0.3560     1.1150 C.2   1 <1>  -0.1500 
  5 C       -3.5170    -2.4680    -0.0620 C.3   1 <1>   0.5230 
  6 C       -1.2370     0.4100     1.0200 C.2   1 <1>  -0.1500 
  7 C        0.9900     0.4340    -0.3850 C.3   1 <1>   0.0200 
  8 N       -4.7850    -2.1920     0.6600 N.4   1 <1>  -0.9590 
  9 C        1.4770     1.6630     0.3870 C.3   1 <1>  -0.2400 
 10 C       -5.5930    -3.4580     0.7010 C.3   1 <1>   0.3430 
 11 C       -5.4860    -1.0390     0.0100 C.3   1 <1>   0.3430 
 12 C       -6.9870    -3.3450     1.3550 C.3   1 <1>   0.1400 
 13 C       -6.5100    -0.4310     0.9690 C.3   1 <1>  -0.1600 
 14 N       -7.8760    -2.4950     0.5190 N.am  1 <1>  -0.6600 
 15 C       -7.9090    -1.0430     0.8390 C.3   1 <1>   0.1400 
 16 C       -8.2510    -2.9160    -0.7250 C.2   1 <1>   0.5690 
 17 O       -7.9370    -2.2900    -1.7070 O.2   1 <1>  -0.5700 
 18 C       -9.0890    -4.1650    -0.9080 C.3   1 <1>  -0.0990 
 19 C       -8.3280    -5.3000    -1.6070 C.3   1 <1>   0.0960 
 20 N       -7.5300    -6.0990    -0.6550 N.pl3 1 <1>   0.3140 
 21 N       -6.1850    -6.0280    -0.5740 N.2   1 <1>  -0.7070 
 22 C       -8.0190    -7.0080     0.2100 C.2   1 <1>  -0.3020 
 23 C       -5.8580    -6.9210     0.3120 C.2   1 <1>   0.1390 
 24 C       -6.9680    -7.5590     0.8500 C.2   1 <1>  -0.1810 
 25 C       -6.9720    -8.6460     1.9060 C.3   1 <1>  -0.0590 
 26 H       -3.1830    -0.0770     1.8420 H     1 <1>   0.1500 
 27 H       -3.1110    -3.4180     0.2470 H     1 <1>   0.0800 
 28 H       -3.6990    -2.5090    -1.1240 H     1 <1>   0.0800 
 29 H       -1.0720     1.2580     1.6630 H     1 <1>   0.1500 
 30 H        0.9420     0.6690    -1.4340 H     1 <1>   0.0800 
 31 H        1.6950    -0.3690    -0.2560 H     1 <1>   0.0800 
 32 H       -4.5240    -1.9210     1.6130 H     1 <1>   0.4500 
 33 H        0.7950     2.4840     0.2510 H     1 <1>   0.0800 
 34 H        2.4470     1.9600     0.0290 H     1 <1>   0.0800 
 35 H        1.5520     1.4400     1.4360 H     1 <1>   0.0800 
 36 H       -5.0380    -4.2190     1.2220 H     1 <1>   0.0800 
 37 H       -5.7360    -3.8030    -0.3090 H     1 <1>   0.0800 
 38 H       -5.9640    -1.3490    -0.9060 H     1 <1>   0.0800 
 39 H       -4.7620    -0.2780    -0.2370 H     1 <1>   0.0800 
 40 H       -6.9080    -2.9470     2.3510 H     1 <1>   0.0800 
 41 H       -7.4140    -4.3300     1.4340 H     1 <1>   0.0800 
 42 H       -6.6030     0.6150     0.7390 H     1 <1>   0.0800 
 43 H       -6.1660    -0.4930     1.9850 H     1 <1>   0.0800 
 44 H       -8.4420    -0.5290     0.0550 H     1 <1>   0.0800 
 45 H       -8.4620    -0.8910     1.7510 H     1 <1>   0.0800 
 46 H       -9.9180    -3.8870    -1.5330 H     1 <1>   0.0800 
 47 H       -9.4950    -4.4920     0.0320 H     1 <1>   0.0800 
 48 H       -7.6780    -4.9090    -2.3690 H     1 <1>   0.0800 
 49 H       -9.0290    -5.9650    -2.0780 H     1 <1>   0.0800 
 50 H       -9.0680    -7.2230     0.3120 H     1 <1>   0.1500 
 51 H       -4.8410    -7.1420     0.5930 H     1 <1>   0.1500 
 52 H       -7.9800    -8.9530     2.1200 H     1 <1>   0.0800 
 53 H       -6.5200    -8.2850     2.8130 H     1 <1>   0.0800 
 54 H       -6.4200    -9.5000     1.5560 H     1 <1>   0.0800 
@<TRIPOS>BOND
  1   1   2  1   
  2   1   3  1   
  3   2   4  2   
  4   2   5  1   
  5   3   6  2   
  6   3   7  1   
  7   4   6  1   
  8   4  26  1   
  9   5   8  1   
 10   5  27  1   
 11   5  28  1   
 12   6  29  1   
 13   7   9  1   
 14   7  30  1   
 15   7  31  1   
 16   8  10  1   
 17   8  11  1   
 18   8  32  1   
 19   9  33  1   
 20   9  34  1   
 21   9  35  1   
 22  10  12  1   
 23  10  36  1   
 24  10  37  1   
 25  11  13  1   
 26  11  38  1   
 27  11  39  1   
 28  12  14  1   
 29  12  40  1   
 30  12  41  1   
 31  13  15  1   
 32  13  42  1   
 33  13  43  1   
 34  14  15  1   
 35  14  16  am  
 36  15  44  1   
 37  15  45  1   
 38  16  17  2   
 39  16  18  1   
 40  18  19  1   
 41  18  46  1   
 42  18  47  1   
 43  19  20  1   
 44  19  48  1   
 45  19  49  1   
 46  20  21  1   
 47  20  22  1   
 48  21  23  2   
 49  22  24  2   
 50  22  50  1   
 51  23  24  1   
 52  23  51  1   
 53  24  25  1   
 54  25  52  1   
 55  25  53  1   
 56  25  54  1   
@<TRIPOS>SUBSTRUCTURE
  1 ****  10 GROUP 4 **** **** 0

# MOE 2024.06 (io_trps.svl 2023.06)
