@<TRIPOS>MOLECULE
NONAME
46 48 1 0 0 
SMALL
USER_CHARGES


@<TRIPOS>ATOM
  1 S        0.1920     0.2420    -0.5120 S.3   1 <1>  -0.0800 
  2 C        1.5580     0.9250     0.3760 C.2   1 <1>  -0.0450 
  3 C        0.5420    -1.3810     0.0410 C.2   1 <1>  -0.1400 
  4 C        1.7960     2.3470     0.2920 C.2   1 <1>   0.7150 
  5 C        2.1870    -0.0830     1.0350 C.2   1 <1>  -0.1500 
  6 C        1.6200    -1.3770     0.8450 C.2   1 <1>  -0.1500 
  7 C       -0.3710    -2.4900    -0.4360 C.3   1 <1>  -0.0600 
  8 O        0.8570     3.1170     0.1860 O.2   1 <1>  -0.5700 
  9 N        3.0720     2.8750     0.3380 N.am  1 <1>  -0.6600 
 10 C        4.2800     2.1170    -0.1190 C.3   1 <1>   0.1400 
 11 C        3.2820     4.3030     0.7140 C.3   1 <1>   0.1400 
 12 C        4.9750     2.7780    -1.3180 C.3   1 <1>   0.1400 
 13 C        3.4070     5.1710    -0.5450 C.3   1 <1>  -0.1600 
 14 N        5.6440     4.0530    -0.9200 N.am  1 <1>  -0.6600 
 15 C        4.8340     5.2940    -1.0990 C.3   1 <1>   0.1400 
 16 C        6.9100     4.0100    -0.3910 C.2   1 <1>   0.5690 
 17 O        7.4550     2.9560    -0.1560 O.2   1 <1>  -0.5700 
 18 C        7.6590     5.2960    -0.0740 C.3   1 <1>  -0.0990 
 19 C        9.1420     5.0830     0.2590 C.3   1 <1>   0.0210 
 20 C        9.8130     6.4170     0.5290 C.2   1 <1>  -0.1810 
 21 C        9.6830     7.1950     1.6760 C.2   1 <1>   0.1390 
 22 C       10.6510     7.1150    -0.2650 C.2   1 <1>  -0.3020 
 23 N       10.3740     8.2910     1.6070 N.2   1 <1>  -0.7070 
 24 N       10.9770     8.2380     0.4050 N.pl3 1 <1>   0.3000 
 25 H        3.0470     0.0470     1.6680 H     1 <1>   0.1500 
 26 H        2.0450    -2.2440     1.3200 H     1 <1>   0.1500 
 27 H       -0.3470    -2.5480    -1.5100 H     1 <1>   0.0800 
 28 H       -1.3800    -2.2940    -0.1200 H     1 <1>   0.0800 
 29 H       -0.0560    -3.4340    -0.0290 H     1 <1>   0.0800 
 30 H        3.9990     1.1250    -0.4220 H     1 <1>   0.0800 
 31 H        4.9800     2.0240     0.6940 H     1 <1>   0.0800 
 32 H        4.1570     4.3960     1.3340 H     1 <1>   0.0800 
 33 H        2.4380     4.6410     1.2900 H     1 <1>   0.0800 
 34 H        4.2640     2.9540    -2.1060 H     1 <1>   0.0800 
 35 H        5.7180     2.0990    -1.7010 H     1 <1>   0.0800 
 36 H        3.0660     6.1620    -0.3070 H     1 <1>   0.0800 
 37 H        2.7450     4.7970    -1.3050 H     1 <1>   0.0800 
 38 H        5.3090     6.1170    -0.5960 H     1 <1>   0.0800 
 39 H        4.7900     5.5370    -2.1470 H     1 <1>   0.0800 
 40 H        7.1790     5.7710     0.7610 H     1 <1>   0.0800 
 41 H        7.5970     5.9500    -0.9230 H     1 <1>   0.0800 
 42 H        9.6320     4.5960    -0.5660 H     1 <1>   0.0800 
 43 H        9.2420     4.4510     1.1240 H     1 <1>   0.0800 
 44 H        9.0820     6.9300     2.5290 H     1 <1>   0.1500 
 45 H       11.0270     6.8830    -1.2440 H     1 <1>   0.1500 
 46 H       11.6030     8.9830     0.0740 H     1 <1>   0.2700 
@<TRIPOS>BOND
  1   1   2  1   
  2   1   3  1   
  3   2   4  1   
  4   2   5  2   
  5   3   6  2   
  6   3   7  1   
  7   4   8  2   
  8   4   9  am  
  9   5   6  1   
 10   5  25  1   
 11   6  26  1   
 12   7  27  1   
 13   7  28  1   
 14   7  29  1   
 15   9  10  1   
 16   9  11  1   
 17  10  12  1   
 18  10  30  1   
 19  10  31  1   
 20  11  13  1   
 21  11  32  1   
 22  11  33  1   
 23  12  14  1   
 24  12  34  1   
 25  12  35  1   
 26  13  15  1   
 27  13  36  1   
 28  13  37  1   
 29  14  15  1   
 30  14  16  am  
 31  15  38  1   
 32  15  39  1   
 33  16  17  2   
 34  16  18  1   
 35  18  19  1   
 36  18  40  1   
 37  18  41  1   
 38  19  20  1   
 39  19  42  1   
 40  19  43  1   
 41  20  21  1   
 42  20  22  2   
 43  21  23  2   
 44  21  44  1   
 45  22  24  1   
 46  22  45  1   
 47  23  24  1   
 48  24  46  1   
@<TRIPOS>SUBSTRUCTURE
  1 ****  14 GROUP 4 **** **** 0

# MOE 2024.06 (io_trps.svl 2023.06)
