@<TRIPOS>MOLECULE
NONAME
48 50 1 0 0 
SMALL
USER_CHARGES


@<TRIPOS>ATOM
  1 S        0.1310    -0.2050    -1.6580 S.o2  1 <1>   1.4470 
  2 O        0.8730    -1.3100    -2.2250 O.2   1 <1>  -0.6500 
  3 O       -0.5720     0.7010    -2.5420 O.2   1 <1>  -0.6500 
  4 N       -1.0100    -0.8490    -0.5850 N.am  1 <1>  -0.8490 
  5 C        1.2330     0.7370    -0.5660 C.ar  1 <1>  -0.0090 
  6 C       -1.7640    -1.9610    -1.1980 C.3   1 <1>   0.1960 
  7 C       -1.9160     0.1770    -0.0520 C.3   1 <1>   0.1960 
  8 C        1.6660     2.0000    -0.8850 C.ar  1 <1>  -0.1500 
  9 C        1.6770     0.1760     0.6440 C.ar  1 <1>  -0.1500 
 10 C       -2.7550    -2.5940    -0.2050 C.3   1 <1>   0.2000 
 11 C       -2.8540    -0.4340     0.9920 C.3   1 <1>  -0.1600 
 12 C        2.5200     2.7420    -0.0450 C.ar  1 <1>   0.0000 
 13 C        2.5060     0.8670     1.4840 C.ar  1 <1>  -0.1500 
 14 O       -3.4570    -3.6040    -0.8400 O.3   1 <1>  -0.6800 
 15 C       -3.7390    -1.5740     0.4160 C.3   1 <1>  -0.1060 
 16 C        2.9490     2.1640     1.1670 C.ar  1 <1>   0.0000 
 17 C        2.9610     4.0410    -0.3700 C.ar  1 <1>  -0.1500 
 18 C       -4.4990    -2.3060     1.5370 C.2   1 <1>   0.9060 
 19 C       -4.7530    -1.0320    -0.6450 C.3   1 <1>  -0.1600 
 20 C        3.8010     2.9060     2.0090 C.ar  1 <1>  -0.1500 
 21 C        3.7880     4.7400     0.4660 C.ar  1 <1>  -0.1500 
 22 O       -4.5890    -1.7950     2.6590 O.co2 1 <1>  -0.9000 
 23 O       -5.0020    -3.4130     1.2860 O.co2 1 <1>  -0.9000 
 24 C       -5.7300     0.0350    -0.1200 C.3   1 <1>  -0.1600 
 25 C        4.2130     4.1660     1.6700 C.ar  1 <1>  -0.1500 
 26 C       -6.7680     0.3980    -1.1860 C.3   1 <1>  -0.2400 
 27 H       -2.2950    -1.6060    -2.0640 H     1 <1>   0.0800 
 28 H       -1.0770    -2.7270    -1.5120 H     1 <1>   0.0800 
 29 H       -1.3410     0.9560     0.4190 H     1 <1>   0.0800 
 30 H       -2.4880     0.6220    -0.8490 H     1 <1>   0.0800 
 31 H        1.3480     2.4540    -1.8080 H     1 <1>   0.1500 
 32 H        1.3430    -0.8170     0.8980 H     1 <1>   0.1500 
 33 H       -2.1920    -3.0610     0.5860 H     1 <1>   0.0800 
 34 H       -2.2540    -0.8270     1.7950 H     1 <1>   0.0800 
 35 H       -3.4670     0.3330     1.4270 H     1 <1>   0.0800 
 36 H        2.8350     0.4240     2.4080 H     1 <1>   0.1500 
 37 H       -4.1860    -3.8490    -0.1960 H     1 <1>   0.4000 
 38 H        2.6330     4.4780    -1.2960 H     1 <1>   0.1500 
 39 H       -4.2350    -0.6350    -1.4980 H     1 <1>   0.0800 
 40 H       -5.3410    -1.8630    -0.9970 H     1 <1>   0.0800 
 41 H        4.1260     2.4610     2.9320 H     1 <1>   0.1500 
 42 H        4.1210     5.7310     0.2130 H     1 <1>   0.1500 
 43 H       -6.2380    -0.3390     0.7540 H     1 <1>   0.0800 
 44 H       -5.1980     0.9260     0.1600 H     1 <1>   0.0800 
 45 H        4.8640     4.7280     2.3160 H     1 <1>   0.1500 
 46 H       -7.3400    -0.4720    -1.4580 H     1 <1>   0.0800 
 47 H       -6.2850     0.7870    -2.0650 H     1 <1>   0.0800 
 48 H       -7.4410     1.1430    -0.8020 H     1 <1>   0.0800 
@<TRIPOS>BOND
  1   1   2  2   
  2   1   3  2   
  3   1   4  am  
  4   1   5  1   
  5   4   6  1   
  6   4   7  1   
  7   5   8  ar  
  8   5   9  ar  
  9   6  10  1   
 10   6  27  1   
 11   6  28  1   
 12   7  11  1   
 13   7  29  1   
 14   7  30  1   
 15   8  12  ar  
 16   8  31  1   
 17   9  13  ar  
 18   9  32  1   
 19  10  14  1   
 20  10  15  1   
 21  10  33  1   
 22  11  15  1   
 23  11  34  1   
 24  11  35  1   
 25  12  16  ar  
 26  12  17  ar  
 27  13  16  ar  
 28  13  36  1   
 29  14  37  1   
 30  15  18  1   
 31  15  19  1   
 32  16  20  ar  
 33  17  21  ar  
 34  17  38  1   
 35  18  22  ar  
 36  18  23  ar  
 37  19  24  1   
 38  19  39  1   
 39  19  40  1   
 40  20  25  ar  
 41  20  41  1   
 42  21  25  ar  
 43  21  42  1   
 44  24  26  1   
 45  24  43  1   
 46  24  44  1   
 47  25  45  1   
 48  26  46  1   
 49  26  47  1   
 50  26  48  1   
@<TRIPOS>SUBSTRUCTURE
  1 ****   7 GROUP 4 **** **** 0

# MOE 2024.06 (io_trps.svl 2023.06)
