@<TRIPOS>MOLECULE
NONAME
49 51 1 0 0 
SMALL
USER_CHARGES


@<TRIPOS>ATOM
  1 S       -0.1270    -0.0640    -0.7080 S.o2  1 <1>   1.4470 
  2 O        0.8500    -1.0490    -1.1010 O.2   1 <1>  -0.6500 
  3 O        0.3010     1.1380    -0.0350 O.2   1 <1>  -0.6500 
  4 N       -0.6360     0.4890    -2.1830 N.am  1 <1>  -0.9780 
  5 C       -1.6000    -0.8310     0.0480 C.ar  1 <1>  -0.0090 
  6 C       -2.6990    -0.1080     0.5290 C.ar  1 <1>  -0.1430 
  7 C       -1.6340    -2.2160     0.1460 C.ar  1 <1>  -0.1500 
  8 C       -3.7750    -0.7800     1.1110 C.ar  1 <1>  -0.1430 
  9 C       -2.7010     1.4200     0.4260 C.3   1 <1>  -0.0970 
 10 C       -2.7020    -2.9110     0.6980 C.ar  1 <1>   0.0860 
 11 C       -3.7620    -2.1600     1.1880 C.ar  1 <1>  -0.1500 
 12 C       -4.9860    -0.0540     1.6880 C.3   1 <1>  -0.0970 
 13 C       -2.6970    -4.3600     0.7590 C.2   1 <1>   0.5440 
 14 O       -1.7410    -4.9390     1.2370 O.2   1 <1>  -0.5700 
 15 N       -3.7440    -5.1060     0.2690 N.am  1 <1>  -0.6600 
 16 C       -4.7880    -4.6010    -0.6580 C.3   1 <1>   0.1400 
 17 C       -3.7340    -6.5900     0.2870 C.3   1 <1>   0.1400 
 18 C       -5.3480    -5.8510    -1.3370 C.3   1 <1>   0.2000 
 19 C       -5.0430    -7.0060    -0.3860 C.3   1 <1>  -0.0800 
 20 O       -6.7160    -5.7520    -1.5400 O.3   1 <1>  -0.6800 
 21 C       -4.9790    -8.3640    -1.1070 C.3   1 <1>  -0.0170 
 22 C       -4.7330    -9.5060    -0.1350 C.ar  1 <1>   0.1670 
 23 N       -3.4750    -9.7330     0.2050 N.ar  1 <1>  -0.6200 
 24 C       -5.8070   -10.2490     0.3530 C.ar  1 <1>   0.1600 
 25 C       -3.3630   -10.7370     1.0580 C.ar  1 <1>   0.1600 
 26 N       -5.6980   -11.2530     1.2070 N.ar  1 <1>  -0.6200 
 27 C       -4.4380   -11.4720     1.5430 C.ar  1 <1>   0.1600 
 28 H       -0.2430    -0.1910    -2.8300 H     1 <1>   0.4200 
 29 H       -0.0910     1.3370    -2.3100 H     1 <1>   0.4200 
 30 H       -0.7990    -2.7950    -0.2140 H     1 <1>   0.1500 
 31 H       -3.6680     1.8510     0.5960 H     1 <1>   0.0800 
 32 H       -2.3960     1.7360    -0.5540 H     1 <1>   0.0800 
 33 H       -2.0210     1.8350     1.1490 H     1 <1>   0.0800 
 34 H       -4.5830    -2.6840     1.6450 H     1 <1>   0.1500 
 35 H       -5.6510    -0.7370     2.1850 H     1 <1>   0.0800 
 36 H       -5.5330     0.4350     0.9020 H     1 <1>   0.0800 
 37 H       -4.6690     0.6790     2.4090 H     1 <1>   0.0800 
 38 H       -5.5520    -4.0990    -0.0920 H     1 <1>   0.0800 
 39 H       -4.3590    -3.9310    -1.3840 H     1 <1>   0.0800 
 40 H       -2.8820    -6.9420    -0.2700 H     1 <1>   0.0800 
 41 H       -3.6690    -6.9600     1.2970 H     1 <1>   0.0800 
 42 H       -4.8700    -5.9910    -2.2920 H     1 <1>   0.0800 
 43 H       -5.7950    -7.0450     0.3830 H     1 <1>   0.0800 
 44 H       -7.1820    -5.6440    -0.6890 H     1 <1>   0.4000 
 45 H       -4.1930    -8.3540    -1.8420 H     1 <1>   0.0800 
 46 H       -5.9050    -8.5310    -1.6280 H     1 <1>   0.0800 
 47 H       -6.8010   -10.0010     0.0250 H     1 <1>   0.1500 
 48 H       -2.3720   -10.9910     1.3900 H     1 <1>   0.1500 
 49 H       -4.2460   -12.2720     2.2350 H     1 <1>   0.1500 
@<TRIPOS>BOND
  1   1   2  2   
  2   1   3  2   
  3   1   4  am  
  4   1   5  1   
  5   4  28  1   
  6   4  29  1   
  7   5   6  ar  
  8   5   7  ar  
  9   6   8  ar  
 10   6   9  1   
 11   7  10  ar  
 12   7  30  1   
 13   8  11  ar  
 14   8  12  1   
 15   9  31  1   
 16   9  32  1   
 17   9  33  1   
 18  10  11  ar  
 19  10  13  1   
 20  11  34  1   
 21  12  35  1   
 22  12  36  1   
 23  12  37  1   
 24  13  14  2   
 25  13  15  am  
 26  15  16  1   
 27  15  17  1   
 28  16  18  1   
 29  16  38  1   
 30  16  39  1   
 31  17  19  1   
 32  17  40  1   
 33  17  41  1   
 34  18  19  1   
 35  18  20  1   
 36  18  42  1   
 37  19  21  1   
 38  19  43  1   
 39  20  44  1   
 40  21  22  1   
 41  21  45  1   
 42  21  46  1   
 43  22  23  ar  
 44  22  24  ar  
 45  23  25  ar  
 46  24  26  ar  
 47  24  47  1   
 48  25  27  ar  
 49  25  48  1   
 50  26  27  ar  
 51  27  49  1   
@<TRIPOS>SUBSTRUCTURE
  1 ****  15 GROUP 4 **** **** 0

# MOE 2024.06 (io_trps.svl 2023.06)
