@<TRIPOS>MOLECULE
NONAME
50 53 1 0 0 
SMALL
USER_CHARGES


@<TRIPOS>ATOM
  1 O        2.9600    -0.8900     2.4470 O.2   1 <1>  -0.5700 
  2 C        2.6230    -1.2380     1.3240 C.2   1 <1>   0.7160 
  3 N        2.7850    -0.3120     0.3000 N.am  1 <1>  -0.6600 
  4 C        2.0790    -2.5780     1.1020 C.2   1 <1>   0.1410 
  5 C        3.0140     1.1300     0.6380 C.3   1 <1>   0.1400 
  6 C        2.9580    -0.7690    -1.1150 C.3   1 <1>   0.1400 
  7 N        1.1230    -2.8480     0.1630 N.2   1 <1>  -0.5650 
  8 C        2.3860    -3.7440     1.7500 C.2   1 <1>  -0.3320 
  9 C        4.4710     1.6150     0.4210 C.3   1 <1>   0.4230 
 10 C        4.1870    -0.1900    -1.8470 C.3   1 <1>  -0.0800 
 11 C        0.8760    -4.1230     0.2540 C.2   1 <1>   0.1330 
 12 N        1.6250    -4.7050     1.2190 N.pl3 1 <1>   0.0330 
 13 C        3.3780    -4.0170     2.8710 C.3   1 <1>  -0.0600 
 14 N        4.7260     2.1220    -0.9770 N.4   1 <1>  -0.9590 
 15 C        5.5620     0.5910     0.8310 C.3   1 <1>   0.1200 
 16 C        5.5530    -0.6330    -1.2800 C.3   1 <1>   0.1200 
 17 C        4.0620     1.3210    -2.0480 C.3   1 <1>   0.3430 
 18 C       -0.0770    -4.8560    -0.5500 C.ar  1 <1>   0.0530 
 19 C        4.3710     3.5690    -1.1110 C.3   1 <1>   0.2630 
 20 O        5.5830    -0.6170     0.1120 O.3   1 <1>  -0.5600 
 21 C       -1.2350    -4.2370    -1.0180 C.ar  1 <1>  -0.1500 
 22 C        0.1170    -6.1960    -0.8890 C.ar  1 <1>  -0.1500 
 23 C       -2.1640    -4.9220    -1.7790 C.ar  1 <1>  -0.1500 
 24 C       -0.8090    -6.8880    -1.6490 C.ar  1 <1>  -0.1500 
 25 C       -1.9540    -6.2520    -2.0950 C.ar  1 <1>  -0.1500 
 26 H        2.3290     1.7380     0.0770 H     1 <1>   0.0800 
 27 H        2.7710     1.2920     1.6740 H     1 <1>   0.0800 
 28 H        3.0600    -1.8410    -1.1350 H     1 <1>   0.0800 
 29 H        2.0590    -0.5320    -1.6590 H     1 <1>   0.0800 
 30 H        4.6000     2.4530     1.0850 H     1 <1>   0.0800 
 31 H        4.1370    -0.6040    -2.8380 H     1 <1>   0.0800 
 32 H        1.5840    -5.6910     1.4840 H     1 <1>   0.2700 
 33 H        3.9730    -3.1470     3.0800 H     1 <1>   0.0800 
 34 H        4.0420    -4.8170     2.5940 H     1 <1>   0.0800 
 35 H        2.8540    -4.2920     3.7690 H     1 <1>   0.0800 
 36 H        5.7410     2.0220    -1.1190 H     1 <1>   0.4500 
 37 H        5.4090     0.3210     1.8630 H     1 <1>   0.0800 
 38 H        6.5380     1.0350     0.7550 H     1 <1>   0.0800 
 39 H        6.3680    -0.0400    -1.6570 H     1 <1>   0.0800 
 40 H        5.7310    -1.6560    -1.5650 H     1 <1>   0.0800 
 41 H        3.0160     1.5740    -2.1000 H     1 <1>   0.0800 
 42 H        4.5050     1.5780    -2.9970 H     1 <1>   0.0800 
 43 H        3.3130     3.7110    -0.9610 H     1 <1>   0.0800 
 44 H        4.6310     3.9290    -2.0930 H     1 <1>   0.0800 
 45 H        4.9050     4.1550    -0.3800 H     1 <1>   0.0800 
 46 H       -1.4020    -3.2020    -0.7750 H     1 <1>   0.1500 
 47 H        1.0050    -6.7070    -0.5650 H     1 <1>   0.1500 
 48 H       -3.0510    -4.4200    -2.1250 H     1 <1>   0.1500 
 49 H       -0.6410    -7.9210    -1.8990 H     1 <1>   0.1500 
 50 H       -2.6760    -6.7880    -2.6860 H     1 <1>   0.1500 
@<TRIPOS>BOND
  1   1   2  2   
  2   2   3  am  
  3   2   4  1   
  4   3   5  1   
  5   3   6  1   
  6   4   7  1   
  7   4   8  2   
  8   5   9  1   
  9   5  26  1   
 10   5  27  1   
 11   6  10  1   
 12   6  28  1   
 13   6  29  1   
 14   7  11  2   
 15   8  12  1   
 16   8  13  1   
 17   9  14  1   
 18   9  15  1   
 19   9  30  1   
 20  10  16  1   
 21  10  17  1   
 22  10  31  1   
 23  11  12  1   
 24  11  18  1   
 25  12  32  1   
 26  13  33  1   
 27  13  34  1   
 28  13  35  1   
 29  14  17  1   
 30  14  19  1   
 31  14  36  1   
 32  15  20  1   
 33  15  37  1   
 34  15  38  1   
 35  16  20  1   
 36  16  39  1   
 37  16  40  1   
 38  17  41  1   
 39  17  42  1   
 40  18  21  ar  
 41  18  22  ar  
 42  19  43  1   
 43  19  44  1   
 44  19  45  1   
 45  21  23  ar  
 46  21  46  1   
 47  22  24  ar  
 48  22  47  1   
 49  23  25  ar  
 50  23  48  1   
 51  24  25  ar  
 52  24  49  1   
 53  25  50  1   
@<TRIPOS>SUBSTRUCTURE
  1 ****   4 GROUP 4 **** **** 0

# MOE 2024.06 (io_trps.svl 2023.06)
