@<TRIPOS>MOLECULE
NONAME
33 33 1 0 0 
SMALL
USER_CHARGES


@<TRIPOS>ATOM
  1 O       -0.0430     1.7700     1.6920 O.2   1 <1>  -0.5700 
  2 C       -0.9130     1.5730     0.8770 C.2   1 <1>   0.5690 
  3 N       -0.6610     1.5510    -0.4600 N.am  1 <1>  -0.7300 
  4 C       -2.3250     1.3610     1.3740 C.3   1 <1>   0.1570 
  5 C        0.6610     1.7390    -1.1050 C.3   1 <1>   0.0600 
  6 N       -2.9470     0.2330     0.6650 N.pl3 1 <1>   0.3140 
  7 N       -3.4530     0.3710    -0.5770 N.2   1 <1>  -0.7070 
  8 C       -3.0840    -1.0340     1.1150 C.2   1 <1>  -0.3020 
  9 C       -3.9020    -0.8110    -0.8830 C.2   1 <1>   0.1390 
 10 C       -3.6970    -1.7380     0.1410 C.2   1 <1>   0.0630 
 11 N       -4.0340    -3.1140     0.1920 N.am  1 <1>  -0.4930 
 12 C       -4.6300    -3.8780    -0.7650 C.2   1 <1>   0.5690 
 13 O       -4.9700    -3.4510    -1.8420 O.2   1 <1>  -0.5700 
 14 C       -4.8850    -5.3390    -0.4570 C.3   1 <1>  -0.0990 
 15 C       -6.3010    -5.5530     0.0840 C.3   1 <1>  -0.0220 
 16 C       -6.5220    -7.0150     0.4270 C.2   1 <1>  -0.2880 
 17 C       -7.4130    -7.8090    -0.1730 C.2   1 <1>  -0.3000 
 18 H       -1.4440     1.2940    -1.0820 H     1 <1>   0.3700 
 19 H       -2.9030     2.2460     1.1920 H     1 <1>   0.0800 
 20 H       -2.3120     1.1550     2.4260 H     1 <1>   0.0800 
 21 H        1.4080     1.9720    -0.3650 H     1 <1>   0.0800 
 22 H        0.6080     2.5480    -1.8120 H     1 <1>   0.0800 
 23 H        0.9460     0.8370    -1.6170 H     1 <1>   0.0800 
 24 H       -2.7400    -1.3530     2.0800 H     1 <1>   0.1500 
 25 H       -4.3770    -1.0450    -1.8220 H     1 <1>   0.1500 
 26 H       -3.7870    -3.5800     1.0620 H     1 <1>   0.3700 
 27 H       -4.1600    -5.6920     0.2530 H     1 <1>   0.0800 
 28 H       -4.7630    -5.9060    -1.3630 H     1 <1>   0.0800 
 29 H       -7.0160    -5.2390    -0.6590 H     1 <1>   0.0800 
 30 H       -6.4570    -4.9550     0.9650 H     1 <1>   0.0800 
 31 H       -5.8820    -7.3670     1.2200 H     1 <1>   0.1500 
 32 H       -7.5610    -8.8450     0.0800 H     1 <1>   0.1500 
 33 H       -8.0690    -7.4940    -0.9670 H     1 <1>   0.1500 
@<TRIPOS>BOND
  1   1   2  2   
  2   2   3  am  
  3   2   4  1   
  4   3   5  1   
  5   3  18  1   
  6   4   6  1   
  7   4  19  1   
  8   4  20  1   
  9   5  21  1   
 10   5  22  1   
 11   5  23  1   
 12   6   7  1   
 13   6   8  1   
 14   7   9  2   
 15   8  10  2   
 16   8  24  1   
 17   9  10  1   
 18   9  25  1   
 19  10  11  1   
 20  11  12  am  
 21  11  26  1   
 22  12  13  2   
 23  12  14  1   
 24  14  15  1   
 25  14  27  1   
 26  14  28  1   
 27  15  16  1   
 28  15  29  1   
 29  15  30  1   
 30  16  17  2   
 31  16  31  1   
 32  17  32  1   
 33  17  33  1   
@<TRIPOS>SUBSTRUCTURE
  1 ****  10 GROUP 4 **** **** 0

# MOE 2024.06 (io_trps.svl 2023.06)
