@<TRIPOS>MOLECULE
NONAME
48 50 1 0 0 
SMALL
USER_CHARGES


@<TRIPOS>ATOM
  1 F        1.1520    -0.9490     1.5780 F     1 <1>  -0.3400 
  2 C        0.8840    -2.1000     0.9750 C.3   1 <1>   1.0200 
  3 F        1.9060    -2.3340     0.1570 F     1 <1>  -0.3400 
  4 F        0.9380    -3.0370     1.9130 F     1 <1>  -0.3400 
  5 C       -0.4680    -2.0490     0.2230 C.3   1 <1>   0.1400 
  6 N       -0.9130    -3.3300    -0.4560 N.am  1 <1>  -0.6600 
  7 C       -1.7410    -4.2090     0.2090 C.2   1 <1>   0.5690 
  8 C       -0.2330    -3.6380    -1.7480 C.3   1 <1>   0.0600 
  9 O       -2.1830    -3.9110     1.2970 O.2   1 <1>  -0.5700 
 10 C       -2.1230    -5.5690    -0.4120 C.3   1 <1>   0.2610 
 11 O       -0.9760    -6.3740    -0.5980 O.3   1 <1>  -0.5600 
 12 C       -3.2300    -6.2980     0.4010 C.3   1 <1>   0.3640 
 13 C       -1.2400    -7.5900    -1.2470 C.3   1 <1>   0.1810 
 14 N       -3.2270    -7.7950     0.2570 N.am  1 <1>  -0.5090 
 15 C       -4.5800    -5.7230    -0.0330 C.ar  1 <1>  -0.1430 
 16 C       -2.2670    -8.4280    -0.4920 C.2   1 <1>   0.5690 
 17 C       -4.0150    -8.5350     1.2800 C.3   1 <1>   0.0490 
 18 C       -5.1660    -6.0950    -1.2380 C.ar  1 <1>  -0.1500 
 19 C       -5.2310    -4.8000     0.7730 C.ar  1 <1>  -0.1500 
 20 O       -2.1780    -9.6310    -0.5870 O.2   1 <1>  -0.5700 
 21 C       -4.8200    -9.7280     0.8640 C.3   1 <1>  -0.2000 
 22 C       -5.5130    -8.4780     1.2960 C.3   1 <1>  -0.2000 
 23 C       -6.3770    -5.5510    -1.6250 C.ar  1 <1>  -0.1500 
 24 C       -6.4440    -4.2550     0.3880 C.ar  1 <1>  -0.1500 
 25 C       -7.0240    -4.6290    -0.8200 C.ar  1 <1>   0.0820 
 26 O       -8.2060    -4.1430    -1.2740 O.3   1 <1>  -0.3630 
 27 C       -8.9410    -3.1950    -0.5330 C.3   1 <1>   0.0400 
 28 H       -0.4060    -1.2700    -0.5130 H     1 <1>   0.0800 
 29 H       -1.2140    -1.7460     0.9350 H     1 <1>   0.0800 
 30 H       -0.0110    -2.7290    -2.2800 H     1 <1>   0.0800 
 31 H       -0.8570    -4.2490    -2.3750 H     1 <1>   0.0800 
 32 H        0.6870    -4.1640    -1.5560 H     1 <1>   0.0800 
 33 H       -2.5150    -5.3610    -1.3900 H     1 <1>   0.0800 
 34 H       -3.0840    -6.0940     1.4470 H     1 <1>   0.0800 
 35 H       -1.5910    -7.3880    -2.2420 H     1 <1>   0.0800 
 36 H       -0.3150    -8.1350    -1.3070 H     1 <1>   0.0800 
 37 H       -3.4990    -8.5910     2.2240 H     1 <1>   0.1000 
 38 H       -4.6880    -6.8170    -1.8770 H     1 <1>   0.1500 
 39 H       -4.7930    -4.4950     1.7090 H     1 <1>   0.1500 
 40 H       -4.8360    -9.9990    -0.1770 H     1 <1>   0.1000 
 41 H       -4.8410   -10.5830     1.5150 H     1 <1>   0.1000 
 42 H       -6.0190    -8.4810     2.2450 H     1 <1>   0.1000 
 43 H       -6.0580    -7.9370     0.5450 H     1 <1>   0.1000 
 44 H       -6.8320    -5.8400    -2.5550 H     1 <1>   0.1500 
 45 H       -6.9170    -3.5440     1.0380 H     1 <1>   0.1500 
 46 H       -9.8330    -2.9600    -1.0850 H     1 <1>   0.0800 
 47 H       -8.3430    -2.3090    -0.4090 H     1 <1>   0.0800 
 48 H       -9.2020    -3.6220     0.4190 H     1 <1>   0.0800 
@<TRIPOS>BOND
  1   1   2  1   
  2   2   3  1   
  3   2   4  1   
  4   2   5  1   
  5   5   6  1   
  6   5  28  1   
  7   5  29  1   
  8   6   7  am  
  9   6   8  1   
 10   7   9  2   
 11   7  10  1   
 12   8  30  1   
 13   8  31  1   
 14   8  32  1   
 15  10  11  1   
 16  10  12  1   
 17  10  33  1   
 18  11  13  1   
 19  12  14  1   
 20  12  15  1   
 21  12  34  1   
 22  13  16  1   
 23  13  35  1   
 24  13  36  1   
 25  14  16  am  
 26  14  17  1   
 27  15  18  ar  
 28  15  19  ar  
 29  16  20  2   
 30  17  21  1   
 31  17  22  1   
 32  17  37  1   
 33  18  23  ar  
 34  18  38  1   
 35  19  24  ar  
 36  19  39  1   
 37  21  22  1   
 38  21  40  1   
 39  21  41  1   
 40  22  42  1   
 41  22  43  1   
 42  23  25  ar  
 43  23  44  1   
 44  24  25  ar  
 45  24  45  1   
 46  25  26  1   
 47  26  27  1   
 48  27  46  1   
 49  27  47  1   
 50  27  48  1   
@<TRIPOS>SUBSTRUCTURE
  1 ****  10 GROUP 4 **** **** 0

# MOE 2024.06 (io_trps.svl 2023.06)
