@<TRIPOS>MOLECULE
NONAME
35 36 1 0 0 
SMALL
USER_CHARGES


@<TRIPOS>ATOM
  1 S       -0.6540     0.7260     1.3060 S.3   1 <1>  -0.0800 
  2 C       -0.8270     1.1870    -0.3670 C.2   1 <1>  -0.1400 
  3 C       -2.3890     0.8450     1.4870 C.2   1 <1>   0.2280 
  4 C       -2.1300     1.3810    -0.6300 C.2   1 <1>   0.0460 
  5 C        0.4340     1.2950    -1.1900 C.3   1 <1>   0.5230 
  6 N       -2.9990     1.1920     0.4260 N.2   1 <1>  -0.5650 
  7 C       -2.7710     1.7860    -1.9420 C.3   1 <1>  -0.0590 
  8 N        1.2720     2.3870    -0.6160 N.4   1 <1>  -0.9590 
  9 C        0.5940     3.7160    -0.7820 C.3   1 <1>   0.3430 
 10 C        2.6530     2.3680    -1.1950 C.3   1 <1>   0.2630 
 11 C        1.1710     4.7850     0.1500 C.3   1 <1>   0.0200 
 12 C        0.4470     6.0900    -0.1020 C.2   1 <1>  -0.1400 
 13 S        0.7400     6.8670    -1.6350 S.3   1 <1>  -0.0800 
 14 C       -0.4180     6.8420     0.6010 C.2   1 <1>   0.0460 
 15 C       -0.3510     8.1490    -1.1640 C.2   1 <1>   0.2280 
 16 N       -0.8640     7.9990    -0.0100 N.2   1 <1>  -0.5650 
 17 C       -0.9730     6.5800     1.9860 C.3   1 <1>  -0.0590 
 18 H       -2.8050     0.6230     2.4560 H     1 <1>   0.1500 
 19 H        0.1900     1.5090    -2.2180 H     1 <1>   0.0800 
 20 H        0.9630     0.3560    -1.1490 H     1 <1>   0.0800 
 21 H       -2.0390     1.9110    -2.7170 H     1 <1>   0.0800 
 22 H       -3.3070     2.7090    -1.8130 H     1 <1>   0.0800 
 23 H       -3.4710     1.0280    -2.2460 H     1 <1>   0.0800 
 24 H        1.3190     2.1810     0.3930 H     1 <1>   0.4500 
 25 H       -0.4570     3.6220    -0.5600 H     1 <1>   0.0800 
 26 H        0.6830     4.0480    -1.8030 H     1 <1>   0.0800 
 27 H        2.6210     2.5780    -2.2520 H     1 <1>   0.0800 
 28 H        3.1090     1.4020    -1.0470 H     1 <1>   0.0800 
 29 H        3.2720     3.1100    -0.7170 H     1 <1>   0.0800 
 30 H        2.2190     4.9350    -0.0340 H     1 <1>   0.0800 
 31 H        1.0330     4.4890     1.1730 H     1 <1>   0.0800 
 32 H       -0.5070     8.9500    -1.8660 H     1 <1>   0.1500 
 33 H       -0.5890     5.6660     2.3970 H     1 <1>   0.0800 
 34 H       -2.0450     6.5180     1.9380 H     1 <1>   0.0800 
 35 H       -0.7070     7.3930     2.6370 H     1 <1>   0.0800 
@<TRIPOS>BOND
  1   1   2  1   
  2   1   3  1   
  3   2   4  2   
  4   2   5  1   
  5   3   6  2   
  6   3  18  1   
  7   4   6  1   
  8   4   7  1   
  9   5   8  1   
 10   5  19  1   
 11   5  20  1   
 12   7  21  1   
 13   7  22  1   
 14   7  23  1   
 15   8   9  1   
 16   8  10  1   
 17   8  24  1   
 18   9  11  1   
 19   9  25  1   
 20   9  26  1   
 21  10  27  1   
 22  10  28  1   
 23  10  29  1   
 24  11  12  1   
 25  11  30  1   
 26  11  31  1   
 27  12  13  1   
 28  12  14  2   
 29  13  15  1   
 30  14  16  1   
 31  14  17  1   
 32  15  16  2   
 33  15  32  1   
 34  17  33  1   
 35  17  34  1   
 36  17  35  1   
@<TRIPOS>SUBSTRUCTURE
  1 ****   9 GROUP 4 **** **** 0

# MOE 2024.06 (io_trps.svl 2023.06)
