@<TRIPOS>MOLECULE
NONAME
43 45 1 0 0 
SMALL
USER_CHARGES


@<TRIPOS>ATOM
  1 CL      -0.8910    -0.5000     0.0680 Cl    1 <1>  -0.1770 
  2 C       -2.1500     0.6940     0.2710 C.ar  1 <1>   0.1770 
  3 C       -3.4160     0.2930     0.6520 C.ar  1 <1>  -0.1440 
  4 C       -1.8680     2.0330     0.0370 C.ar  1 <1>   0.1600 
  5 C       -4.3380     1.3140     0.7710 C.ar  1 <1>   0.1770 
  6 C       -3.7550    -1.1560     0.9330 C.3   1 <1>   0.4860 
  7 N       -2.7590     3.0090     0.1500 N.ar  1 <1>  -0.6200 
  8 CL      -5.9810     0.9510     1.2330 Cl    1 <1>  -0.1770 
  9 C       -3.9770     2.6300     0.5190 C.ar  1 <1>   0.1600 
 10 N       -3.7440    -1.9300    -0.3410 N.4   1 <1>  -0.9590 
 11 C       -4.9350    -1.6000    -1.1910 C.3   1 <1>   0.3430 
 12 C       -3.8270    -3.3950    -0.0430 C.3   1 <1>   0.3430 
 13 C       -5.9610    -2.6970    -0.9020 C.3   1 <1>   0.2000 
 14 C       -5.0760    -3.9300    -0.7500 C.3   1 <1>  -0.0800 
 15 O       -6.5550    -2.4300     0.3360 O.3   1 <1>  -0.5600 
 16 C       -5.7340    -5.1150    -0.0150 C.3   1 <1>   0.0200 
 17 C       -7.8230    -1.8500     0.2720 C.3   1 <1>   0.0400 
 18 C       -4.7730    -6.2840     0.0860 C.2   1 <1>  -0.0400 
 19 O       -3.6930    -6.1770     0.8140 O.3   1 <1>  -0.0190 
 20 C       -4.7830    -7.5100    -0.4560 C.2   1 <1>  -0.1500 
 21 N       -2.9720    -7.2550     0.7730 N.2   1 <1>  -0.4100 
 22 C       -3.6060    -8.0820     0.0220 C.2   1 <1>   0.1080 
 23 C       -3.1310    -9.4830    -0.2960 C.3   1 <1>  -0.0590 
 24 H       -0.8680     2.3080    -0.2570 H     1 <1>   0.1500 
 25 H       -4.7230    -1.2360     1.4030 H     1 <1>   0.0800 
 26 H       -3.0210    -1.5610     1.6110 H     1 <1>   0.0800 
 27 H       -4.7230     3.4010     0.6250 H     1 <1>   0.1500 
 28 H       -2.8640    -1.7220    -0.8350 H     1 <1>   0.4500 
 29 H       -5.3370    -0.6240    -0.9780 H     1 <1>   0.0800 
 30 H       -4.6560    -1.6480    -2.2310 H     1 <1>   0.0800 
 31 H       -2.9460    -3.9190    -0.3820 H     1 <1>   0.0800 
 32 H       -3.9320    -3.5520     1.0190 H     1 <1>   0.0800 
 33 H       -6.7100    -2.8070    -1.6690 H     1 <1>   0.0800 
 34 H       -4.7820    -4.2640    -1.7300 H     1 <1>   0.0800 
 35 H       -6.6140    -5.4280    -0.5500 H     1 <1>   0.0800 
 36 H       -6.0360    -4.8330     0.9790 H     1 <1>   0.0800 
 37 H       -8.1550    -1.6550     1.2780 H     1 <1>   0.0800 
 38 H       -8.5060    -2.5340    -0.2020 H     1 <1>   0.0800 
 39 H       -7.7740    -0.9240    -0.2750 H     1 <1>   0.0800 
 40 H       -5.5000    -7.9780    -1.1060 H     1 <1>   0.1500 
 41 H       -3.8530   -10.1990     0.0480 H     1 <1>   0.0800 
 42 H       -2.1930    -9.6730     0.1950 H     1 <1>   0.0800 
 43 H       -2.9970    -9.5930    -1.3560 H     1 <1>   0.0800 
@<TRIPOS>BOND
  1   1   2  1   
  2   2   3  ar  
  3   2   4  ar  
  4   3   5  ar  
  5   3   6  1   
  6   4   7  ar  
  7   4  24  1   
  8   5   8  1   
  9   5   9  ar  
 10   6  10  1   
 11   6  25  1   
 12   6  26  1   
 13   7   9  ar  
 14   9  27  1   
 15  10  11  1   
 16  10  12  1   
 17  10  28  1   
 18  11  13  1   
 19  11  29  1   
 20  11  30  1   
 21  12  14  1   
 22  12  31  1   
 23  12  32  1   
 24  13  14  1   
 25  13  15  1   
 26  13  33  1   
 27  14  16  1   
 28  14  34  1   
 29  15  17  1   
 30  16  18  1   
 31  16  35  1   
 32  16  36  1   
 33  17  37  1   
 34  17  38  1   
 35  17  39  1   
 36  18  19  1   
 37  18  20  2   
 38  19  21  1   
 39  20  22  1   
 40  20  40  1   
 41  21  22  2   
 42  22  23  1   
 43  23  41  1   
 44  23  42  1   
 45  23  43  1   
@<TRIPOS>SUBSTRUCTURE
  1 ****  10 GROUP 4 **** **** 0

# MOE 2024.06 (io_trps.svl 2023.06)
