@<TRIPOS>MOLECULE
NONAME
21 22 1 0 0 
SMALL
USER_CHARGES


@<TRIPOS>ATOM
  1 BR      -0.2470     0.0580     0.2650 Br    1 <1>  -0.1110 
  2 C        1.4450    -0.8500     0.1450 C.ar  1 <1>   0.1110 
  3 C        1.4650    -2.2250     0.2280 C.ar  1 <1>  -0.1500 
  4 C        2.5930    -0.1020    -0.0220 C.ar  1 <1>  -0.1500 
  5 C        2.7000    -2.8350     0.1370 C.ar  1 <1>   0.1900 
  6 C        3.8410    -0.7270    -0.1140 C.ar  1 <1>   0.0860 
  7 F        2.7330    -4.1390     0.2060 F     1 <1>  -0.1900 
  8 C        3.8850    -2.1270    -0.0260 C.ar  1 <1>  -0.1440 
  9 C        5.0410     0.0640    -0.2930 C.2   1 <1>   0.4230 
 10 C        5.2200    -2.8660    -0.1200 C.3   1 <1>  -0.0170 
 11 O        5.0420     1.2650    -0.3710 O.2   1 <1>  -0.5700 
 12 C        6.3820    -0.6430    -0.4010 C.3   1 <1>  -0.0990 
 13 C        6.3850    -1.9850     0.3420 C.3   1 <1>  -0.1600 
 14 H        0.5640    -2.7970     0.3550 H     1 <1>   0.1500 
 15 H        2.5250     0.9710    -0.0830 H     1 <1>   0.1500 
 16 H        5.3790    -3.1680    -1.1420 H     1 <1>   0.0800 
 17 H        5.2010    -3.7550     0.4860 H     1 <1>   0.0800 
 18 H        7.1470    -0.0050     0.0050 H     1 <1>   0.0800 
 19 H        6.5990    -0.7980    -1.4420 H     1 <1>   0.0800 
 20 H        7.3180    -2.4940     0.1740 H     1 <1>   0.0800 
 21 H        6.2920    -1.8040     1.4000 H     1 <1>   0.0800 
@<TRIPOS>BOND
  1   1   2  1   
  2   2   3  ar  
  3   2   4  ar  
  4   3   5  ar  
  5   3  14  1   
  6   4   6  ar  
  7   4  15  1   
  8   5   7  1   
  9   5   8  ar  
 10   6   8  ar  
 11   6   9  1   
 12   8  10  1   
 13   9  11  2   
 14   9  12  1   
 15  10  13  1   
 16  10  16  1   
 17  10  17  1   
 18  12  13  1   
 19  12  18  1   
 20  12  19  1   
 21  13  20  1   
 22  13  21  1   
@<TRIPOS>SUBSTRUCTURE
  1 ****   6 GROUP 4 **** **** 0

# MOE 2024.06 (io_trps.svl 2023.06)
