@<TRIPOS>MOLECULE
NONAME
48 51 1 0 0 
SMALL
USER_CHARGES


@<TRIPOS>ATOM
  1 S       -0.2560     1.1130    -2.3920 S.3   1 <1>  -0.0800 
  2 C       -0.1220     2.2000    -1.0270 C.2   1 <1>  -0.1400 
  3 C        1.3650     1.5440    -2.9180 C.2   1 <1>  -0.1100 
  4 C        1.0670     2.8150    -0.9910 C.2   1 <1>  -0.1810 
  5 C       -1.2350     2.3980    -0.0340 C.3   1 <1>   0.0200 
  6 C        1.9210     2.4430    -2.0830 C.2   1 <1>  -0.1500 
  7 C        1.4120     3.8010     0.1280 C.3   1 <1>   0.4610 
  8 C       -0.9450     3.7070     0.7180 C.3   1 <1>   0.1200 
  9 O        0.4030     3.7760     1.1230 O.3   1 <1>  -0.5600 
 10 C        2.7070     3.3770     0.8320 C.3   1 <1>  -0.1600 
 11 C        1.5410     5.2320    -0.4150 C.3   1 <1>  -0.1600 
 12 C        3.1260     4.3850     1.9030 C.3   1 <1>   0.1400 
 13 C        1.9640     6.2110     0.6800 C.3   1 <1>   0.1400 
 14 N        3.2410     5.7350     1.2820 N.am  1 <1>  -0.6600 
 15 C        4.4330     6.4170     1.2720 C.2   1 <1>   0.5690 
 16 O        5.4320     5.9520     1.7700 O.2   1 <1>  -0.5700 
 17 C        4.5220     7.7880     0.6160 C.3   1 <1>  -0.0990 
 18 C        5.9240     8.4140     0.6560 C.3   1 <1>  -0.0170 
 19 C        5.9140     9.7700    -0.0320 C.ar  1 <1>  -0.1440 
 20 C        6.1520     9.8620    -1.3960 C.ar  1 <1>  -0.1500 
 21 C        5.6610    10.9230     0.6970 C.ar  1 <1>  -0.1500 
 22 C        6.1370    11.0940    -2.0260 C.ar  1 <1>  -0.1500 
 23 C        5.6460    12.1580     0.0710 C.ar  1 <1>  -0.1500 
 24 C        5.8840    12.2380    -1.2910 C.ar  1 <1>   0.0820 
 25 O        5.8730    13.4270    -1.9110 O.3   1 <1>  -0.5330 
 26 H        1.7340     1.0710    -3.8110 H     1 <1>   0.1500 
 27 H       -1.2660     1.5710     0.6520 H     1 <1>   0.0800 
 28 H       -2.1810     2.4690    -0.5380 H     1 <1>   0.0800 
 29 H        2.9060     2.8620    -2.1920 H     1 <1>   0.1500 
 30 H       -1.5570     3.7710     1.6010 H     1 <1>   0.0800 
 31 H       -1.1570     4.5530     0.0900 H     1 <1>   0.0800 
 32 H        3.5030     3.2960     0.1160 H     1 <1>   0.0800 
 33 H        2.5680     2.4080     1.2740 H     1 <1>   0.0800 
 34 H        0.6140     5.5440    -0.8560 H     1 <1>   0.0800 
 35 H        2.2820     5.2480    -1.1930 H     1 <1>   0.0800 
 36 H        4.0620     4.0810     2.3400 H     1 <1>   0.0800 
 37 H        2.3890     4.4180     2.6880 H     1 <1>   0.0800 
 38 H        1.2090     6.2510     1.4480 H     1 <1>   0.0800 
 39 H        2.0640     7.1970     0.2640 H     1 <1>   0.0800 
 40 H        3.8380     8.4480     1.1140 H     1 <1>   0.0800 
 41 H        4.2210     7.6930    -0.4110 H     1 <1>   0.0800 
 42 H        6.6270     7.7620     0.1660 H     1 <1>   0.0800 
 43 H        6.2440     8.5240     1.6780 H     1 <1>   0.0800 
 44 H        6.3510     8.9750    -1.9720 H     1 <1>   0.1500 
 45 H        5.4760    10.8610     1.7550 H     1 <1>   0.1500 
 46 H        6.3210    11.1740    -3.0820 H     1 <1>   0.1500 
 47 H        5.4500    13.0450     0.6450 H     1 <1>   0.1500 
 48 H        5.6990    14.1700    -1.3080 H     1 <1>   0.4500 
@<TRIPOS>BOND
  1   1   2  1   
  2   1   3  1   
  3   2   4  2   
  4   2   5  1   
  5   3   6  2   
  6   3  26  1   
  7   4   6  1   
  8   4   7  1   
  9   5   8  1   
 10   5  27  1   
 11   5  28  1   
 12   6  29  1   
 13   7   9  1   
 14   7  10  1   
 15   7  11  1   
 16   8   9  1   
 17   8  30  1   
 18   8  31  1   
 19  10  12  1   
 20  10  32  1   
 21  10  33  1   
 22  11  13  1   
 23  11  34  1   
 24  11  35  1   
 25  12  14  1   
 26  12  36  1   
 27  12  37  1   
 28  13  14  1   
 29  13  38  1   
 30  13  39  1   
 31  14  15  am  
 32  15  16  2   
 33  15  17  1   
 34  17  18  1   
 35  17  40  1   
 36  17  41  1   
 37  18  19  1   
 38  18  42  1   
 39  18  43  1   
 40  19  20  ar  
 41  19  21  ar  
 42  20  22  ar  
 43  20  44  1   
 44  21  23  ar  
 45  21  45  1   
 46  22  24  ar  
 47  22  46  1   
 48  23  24  ar  
 49  23  47  1   
 50  24  25  1   
 51  25  48  1   
@<TRIPOS>SUBSTRUCTURE
  1 ****  13 GROUP 4 **** **** 0

# MOE 2024.06 (io_trps.svl 2023.06)
