@<TRIPOS>MOLECULE
NONAME
55 57 1 0 0 
SMALL
USER_CHARGES


@<TRIPOS>ATOM
  1 O       -0.3460     0.6740    -0.3080 O.3   1 <1>  -0.3630 
  2 C        0.0280     1.9790    -0.2420 C.ar  1 <1>   0.0830 
  3 C       -1.6920     0.2800    -0.3500 C.3   1 <1>   0.1200 
  4 C        1.3850     2.2770    -0.0870 C.ar  1 <1>  -0.1440 
  5 C       -0.9050     3.0140    -0.3240 C.ar  1 <1>  -0.1500 
  6 C       -1.7070    -1.2500    -0.3420 C.3   1 <1>   0.3430 
  7 C        1.7700     3.6100    -0.0150 C.ar  1 <1>  -0.1500 
  8 C        2.4910     1.2170     0.0100 C.3   1 <1>   0.0640 
  9 C       -0.4980     4.3320    -0.2490 C.ar  1 <1>  -0.1500 
 10 N       -3.0700    -1.8770    -0.4880 N.4   1 <1>  -0.9590 
 11 C        0.8410     4.6300    -0.0940 C.ar  1 <1>  -0.1500 
 12 C        2.6070     0.3810    -1.2710 C.3   1 <1>  -0.2400 
 13 C        2.3350     0.3280     1.2490 C.3   1 <1>  -0.2400 
 14 C       -3.9720    -1.5610     0.6760 C.3   1 <1>   0.4230 
 15 C       -2.8580    -3.3380    -0.7520 C.3   1 <1>   0.2630 
 16 C       -5.0300    -2.6340     0.9700 C.3   1 <1>  -0.1600 
 17 C       -4.8550    -0.3680     0.2960 C.3   1 <1>  -0.1600 
 18 C       -6.1260    -2.4310    -0.0850 C.3   1 <1>  -0.0800 
 19 C       -6.0290    -0.9590    -0.4990 C.3   1 <1>  -0.0800 
 20 C       -7.5630    -2.6630     0.4040 C.3   1 <1>  -0.1600 
 21 C       -7.3990    -0.3290    -0.2130 C.3   1 <1>  -0.1600 
 22 C       -8.3580    -1.5120    -0.2000 C.3   1 <1>   0.2000 
 23 O       -9.4550    -1.2270     0.5800 O.3   1 <1>  -0.6800 
 24 H       -2.1770     0.6820     0.5220 H     1 <1>   0.0800 
 25 H       -2.1220     0.6670    -1.2570 H     1 <1>   0.0800 
 26 H       -1.9520     2.8260    -0.4480 H     1 <1>   0.1500 
 27 H       -1.2560    -1.5890     0.5770 H     1 <1>   0.0800 
 28 H       -1.0820    -1.5800    -1.1570 H     1 <1>   0.0800 
 29 H        2.8070     3.8700     0.1050 H     1 <1>   0.1500 
 30 H        3.4320     1.7280     0.1220 H     1 <1>   0.0800 
 31 H       -1.2200     5.1280    -0.3120 H     1 <1>   0.1500 
 32 H       -3.5280    -1.4830    -1.3210 H     1 <1>   0.4500 
 33 H        1.1620     5.6560    -0.0360 H     1 <1>   0.1500 
 34 H        1.7390    -0.2330    -1.4160 H     1 <1>   0.0800 
 35 H        3.4720    -0.2550    -1.2200 H     1 <1>   0.0800 
 36 H        2.7110     1.0330    -2.1200 H     1 <1>   0.0800 
 37 H        1.4610    -0.2900     1.1780 H     1 <1>   0.0800 
 38 H        2.2510     0.9420     2.1280 H     1 <1>   0.0800 
 39 H        3.1950    -0.3080     1.3590 H     1 <1>   0.0800 
 40 H       -3.3860    -1.3580     1.5580 H     1 <1>   0.0800 
 41 H       -2.4280    -3.8170     0.1130 H     1 <1>   0.0800 
 42 H       -2.1930    -3.4760    -1.5890 H     1 <1>   0.0800 
 43 H       -3.7940    -3.8200    -0.9830 H     1 <1>   0.0800 
 44 H       -4.6660    -3.6430     1.0180 H     1 <1>   0.0800 
 45 H       -5.4350    -2.4090     1.9420 H     1 <1>   0.0800 
 46 H       -5.2190     0.0670     1.2100 H     1 <1>   0.0800 
 47 H       -4.3550     0.4040    -0.2570 H     1 <1>   0.0800 
 48 H       -5.9380    -3.0490    -0.9480 H     1 <1>   0.0800 
 49 H       -5.8310    -0.9110    -1.5580 H     1 <1>   0.0800 
 50 H       -7.6150    -2.6170     1.4780 H     1 <1>   0.0800 
 51 H       -7.9460    -3.6110     0.0700 H     1 <1>   0.0800 
 52 H       -7.6750     0.3830    -0.9720 H     1 <1>   0.0800 
 53 H       -7.4060     0.1520     0.7490 H     1 <1>   0.0800 
 54 H       -8.6920    -1.7520    -1.1960 H     1 <1>   0.0800 
 55 H       -9.1860    -1.0240     1.4950 H     1 <1>   0.4000 
@<TRIPOS>BOND
  1   1   2  1   
  2   1   3  1   
  3   2   4  ar  
  4   2   5  ar  
  5   3   6  1   
  6   3  24  1   
  7   3  25  1   
  8   4   7  ar  
  9   4   8  1   
 10   5   9  ar  
 11   5  26  1   
 12   6  10  1   
 13   6  27  1   
 14   6  28  1   
 15   7  11  ar  
 16   7  29  1   
 17   8  12  1   
 18   8  13  1   
 19   8  30  1   
 20   9  11  ar  
 21   9  31  1   
 22  10  14  1   
 23  10  15  1   
 24  10  32  1   
 25  11  33  1   
 26  12  34  1   
 27  12  35  1   
 28  12  36  1   
 29  13  37  1   
 30  13  38  1   
 31  13  39  1   
 32  14  16  1   
 33  14  17  1   
 34  14  40  1   
 35  15  41  1   
 36  15  42  1   
 37  15  43  1   
 38  16  18  1   
 39  16  44  1   
 40  16  45  1   
 41  17  19  1   
 42  17  46  1   
 43  17  47  1   
 44  18  19  1   
 45  18  20  1   
 46  18  48  1   
 47  19  21  1   
 48  19  49  1   
 49  20  22  1   
 50  20  50  1   
 51  20  51  1   
 52  21  22  1   
 53  21  52  1   
 54  21  53  1   
 55  22  23  1   
 56  22  54  1   
 57  23  55  1   
@<TRIPOS>SUBSTRUCTURE
  1 ****   3 GROUP 4 **** **** 0

# MOE 2024.06 (io_trps.svl 2023.06)
