@<TRIPOS>MOLECULE
NONAME
48 50 1 0 0 
SMALL
USER_CHARGES


@<TRIPOS>ATOM
  1 F        0.4270    -0.0220     0.5550 F     1 <1>  -0.1900 
  2 C        1.4970     0.7020     0.3760 C.ar  1 <1>   0.1900 
  3 C        2.7190     0.0860     0.3000 C.ar  1 <1>  -0.1500 
  4 C        1.3460     2.0790     0.2690 C.ar  1 <1>  -0.1500 
  5 C        3.8800     0.8550     0.1060 C.ar  1 <1>   0.0000 
  6 C        2.4700     2.8490     0.0810 C.ar  1 <1>  -0.1500 
  7 C        3.7400     2.2560    -0.0020 C.ar  1 <1>   0.3610 
  8 C        5.1950     0.3050     0.0100 C.ar  1 <1>  -0.1440 
  9 N        4.8740     3.0320    -0.1920 N.ar  1 <1>  -0.1790 
 10 C        6.2590     1.1340    -0.1760 C.ar  1 <1>  -0.1500 
 11 C        5.4040    -1.2010     0.1160 C.3   1 <1>  -0.0970 
 12 C        6.1120     2.5370    -0.2780 C.ar  1 <1>   0.4610 
 13 N        7.1990     3.3070    -0.4660 N.pl3 1 <1>  -0.8690 
 14 C        7.4020     4.7970    -0.5650 C.3   1 <1>   0.2090 
 15 C        8.7410     5.2960     0.0760 C.3   1 <1>   0.4230 
 16 N        9.0100     6.7660    -0.1640 N.4   1 <1>  -0.9590 
 17 C        9.9350     4.4820    -0.4640 C.3   1 <1>  -0.1600 
 18 C       10.2790     7.2060     0.5060 C.3   1 <1>   0.3430 
 19 C        7.9010     7.6750     0.2470 C.3   1 <1>   0.3430 
 20 C       11.2780     4.9260     0.1260 C.3   1 <1>  -0.1600 
 21 C       11.4660     6.4320    -0.0570 C.3   1 <1>  -0.1600 
 22 C        8.0310     9.0080    -0.4830 C.3   1 <1>  -0.2400 
 23 H        2.7670    -0.9840     0.3900 H     1 <1>   0.1500 
 24 H        0.3590     2.5070     0.3370 H     1 <1>   0.1500 
 25 H        2.3590     3.9160    -0.0030 H     1 <1>   0.1500 
 26 H        4.7400     4.0300    -0.2980 H     1 <1>   0.4570 
 27 H        7.2540     0.7340    -0.2510 H     1 <1>   0.1500 
 28 H        4.8670    -1.7100    -0.6660 H     1 <1>   0.0800 
 29 H        5.0570    -1.5620     1.0690 H     1 <1>   0.0800 
 30 H        6.4450    -1.4580     0.0240 H     1 <1>   0.0800 
 31 H        8.0780     2.7900    -0.6170 H     1 <1>   0.4000 
 32 H        6.5760     5.2900    -0.0860 H     1 <1>   0.0800 
 33 H        7.4040     5.0640    -1.6090 H     1 <1>   0.0800 
 34 H        8.6770     5.1340     1.1400 H     1 <1>   0.0800 
 35 H        9.1680     6.8940    -1.1730 H     1 <1>   0.4500 
 36 H        9.9720     4.5600    -1.5370 H     1 <1>   0.0800 
 37 H        9.8130     3.4420    -0.2220 H     1 <1>   0.0800 
 38 H       10.2110     7.0350     1.5690 H     1 <1>   0.0800 
 39 H       10.4440     8.2590     0.3450 H     1 <1>   0.0800 
 40 H        7.9210     7.8330     1.3150 H     1 <1>   0.0800 
 41 H        6.9470     7.2480    -0.0120 H     1 <1>   0.0800 
 42 H       12.0850     4.3980    -0.3560 H     1 <1>   0.0800 
 43 H       11.3130     4.6840     1.1760 H     1 <1>   0.0800 
 44 H       12.3620     6.7420     0.4540 H     1 <1>   0.0800 
 45 H       11.5940     6.6700    -1.0990 H     1 <1>   0.0800 
 46 H        8.9150     9.5420    -0.1870 H     1 <1>   0.0800 
 47 H        7.1860     9.6270    -0.2350 H     1 <1>   0.0800 
 48 H        8.0330     8.8670    -1.5490 H     1 <1>   0.0800 
@<TRIPOS>BOND
  1   1   2  1   
  2   2   3  ar  
  3   2   4  ar  
  4   3   5  ar  
  5   3  23  1   
  6   4   6  ar  
  7   4  24  1   
  8   5   7  ar  
  9   5   8  ar  
 10   6   7  ar  
 11   6  25  1   
 12   7   9  ar  
 13   8  10  ar  
 14   8  11  1   
 15   9  12  ar  
 16   9  26  1   
 17  10  12  ar  
 18  10  27  1   
 19  11  28  1   
 20  11  29  1   
 21  11  30  1   
 22  12  13  1   
 23  13  14  1   
 24  13  31  1   
 25  14  15  1   
 26  14  32  1   
 27  14  33  1   
 28  15  16  1   
 29  15  17  1   
 30  15  34  1   
 31  16  18  1   
 32  16  19  1   
 33  16  35  1   
 34  17  20  1   
 35  17  36  1   
 36  17  37  1   
 37  18  21  1   
 38  18  38  1   
 39  18  39  1   
 40  19  22  1   
 41  19  40  1   
 42  19  41  1   
 43  20  21  1   
 44  20  42  1   
 45  20  43  1   
 46  21  44  1   
 47  21  45  1   
 48  22  46  1   
 49  22  47  1   
 50  22  48  1   
@<TRIPOS>SUBSTRUCTURE
  1 ****  12 GROUP 4 **** **** 0

# MOE 2024.06 (io_trps.svl 2023.06)
