@<TRIPOS>MOLECULE
NONAME
48 50 1 0 0 
SMALL
USER_CHARGES


@<TRIPOS>ATOM
  1 O        0.2780     0.1750     1.2480 O.3   1 <1>  -0.2170 
  2 N       -0.1460     0.0650     0.0030 N.2   1 <1>  -0.5130 
  3 C        1.5560    -0.4110     1.4170 C.3   1 <1>   0.2000 
  4 C        0.7850    -0.2920    -0.7600 C.2   1 <1>   0.3280 
  5 C        2.0660    -0.5420    -0.0220 C.3   1 <1>  -0.0990 
  6 C        1.3310    -1.7560     2.1460 C.3   1 <1>   0.3430 
  7 C        0.7350    -0.5050    -2.2660 C.3   1 <1>  -0.0990 
  8 N        0.0990    -2.4450     1.6340 N.4   1 <1>  -0.9590 
  9 C       -0.6750    -0.3620    -2.8580 C.3   1 <1>  -0.2400 
 10 C       -0.8320    -2.8350     2.7250 C.3   1 <1>   0.3430 
 11 C        0.3740    -3.5630     0.6940 C.3   1 <1>   0.3430 
 12 C       -2.1640    -3.2710     2.1140 C.3   1 <1>  -0.1600 
 13 C       -0.9350    -4.0170     0.0480 C.3   1 <1>  -0.1600 
 14 C       -1.9960    -4.4110     1.0940 C.3   1 <1>  -0.0800 
 15 C       -3.3560    -4.7260     0.4420 C.3   1 <1>  -0.1600 
 16 C       -3.3360    -5.9750    -0.4560 C.3   1 <1>   0.0960 
 17 N       -4.6460    -6.1630    -1.1040 N.pl3 1 <1>   0.3140 
 18 N       -4.9600    -5.5290    -2.2480 N.2   1 <1>  -0.7070 
 19 C       -5.6630    -6.9390    -0.6780 C.2   1 <1>  -0.3020 
 20 C       -6.1680    -5.9170    -2.5220 C.2   1 <1>   0.1390 
 21 C       -6.6640    -6.8030    -1.5730 C.2   1 <1>  -0.1500 
 22 H        2.1710     0.2540     1.9980 H     1 <1>   0.0800 
 23 H        2.4860    -1.5070    -0.2310 H     1 <1>   0.0800 
 24 H        2.7810     0.2290    -0.2470 H     1 <1>   0.0800 
 25 H        1.2130    -1.5440     3.1960 H     1 <1>   0.0800 
 26 H        2.1970    -2.3870     2.0380 H     1 <1>   0.0800 
 27 H        1.1090    -1.4860    -2.4960 H     1 <1>   0.0800 
 28 H        1.3830     0.2150    -2.7350 H     1 <1>   0.0800 
 29 H       -0.3970    -1.7000     1.0950 H     1 <1>   0.4500 
 30 H       -1.3450    -1.0800    -2.4200 H     1 <1>   0.0800 
 31 H       -0.6510    -0.5190    -3.9220 H     1 <1>   0.0800 
 32 H       -1.0610     0.6250    -2.6680 H     1 <1>   0.0800 
 33 H       -1.0000    -1.9970     3.3830 H     1 <1>   0.0800 
 34 H       -0.4100    -3.6440     3.2990 H     1 <1>   0.0800 
 35 H        0.8190    -4.3880     1.2270 H     1 <1>   0.0800 
 36 H        1.0560    -3.2430    -0.0750 H     1 <1>   0.0800 
 37 H       -2.6250    -2.4180     1.6440 H     1 <1>   0.0800 
 38 H       -2.8170    -3.5910     2.9070 H     1 <1>   0.0800 
 39 H       -0.7190    -4.8530    -0.5920 H     1 <1>   0.0800 
 40 H       -1.3100    -3.2220    -0.5770 H     1 <1>   0.0800 
 41 H       -1.6560    -5.2880     1.6210 H     1 <1>   0.0800 
 42 H       -3.6750    -3.8810    -0.1480 H     1 <1>   0.0800 
 43 H       -4.0910    -4.8820     1.2130 H     1 <1>   0.0800 
 44 H       -3.1080    -6.8530     0.1190 H     1 <1>   0.0800 
 45 H       -2.6070    -5.8720    -1.2380 H     1 <1>   0.0800 
 46 H       -5.6210    -7.5310     0.2170 H     1 <1>   0.1500 
 47 H       -6.7150    -5.5850    -3.3890 H     1 <1>   0.1500 
 48 H       -7.6370    -7.2620    -1.5800 H     1 <1>   0.1500 
@<TRIPOS>BOND
  1   1   2  1   
  2   1   3  1   
  3   2   4  2   
  4   3   5  1   
  5   3   6  1   
  6   3  22  1   
  7   4   5  1   
  8   4   7  1   
  9   5  23  1   
 10   5  24  1   
 11   6   8  1   
 12   6  25  1   
 13   6  26  1   
 14   7   9  1   
 15   7  27  1   
 16   7  28  1   
 17   8  10  1   
 18   8  11  1   
 19   8  29  1   
 20   9  30  1   
 21   9  31  1   
 22   9  32  1   
 23  10  12  1   
 24  10  33  1   
 25  10  34  1   
 26  11  13  1   
 27  11  35  1   
 28  11  36  1   
 29  12  14  1   
 30  12  37  1   
 31  12  38  1   
 32  13  14  1   
 33  13  39  1   
 34  13  40  1   
 35  14  15  1   
 36  14  41  1   
 37  15  16  1   
 38  15  42  1   
 39  15  43  1   
 40  16  17  1   
 41  16  44  1   
 42  16  45  1   
 43  17  18  1   
 44  17  19  1   
 45  18  20  2   
 46  19  21  2   
 47  19  46  1   
 48  20  21  1   
 49  20  47  1   
 50  21  48  1   
@<TRIPOS>SUBSTRUCTURE
  1 ****  13 GROUP 4 **** **** 0

# MOE 2024.06 (io_trps.svl 2023.06)
