@<TRIPOS>MOLECULE
NONAME
48 49 1 0 0 
SMALL
USER_CHARGES


@<TRIPOS>ATOM
  1 S       -0.4680     0.6210    -1.5170 S.o2  1 <1>   1.4470 
  2 O       -1.4200     1.7080    -1.4120 O.2   1 <1>  -0.6500 
  3 O       -0.0760     0.1790    -2.8390 O.2   1 <1>  -0.6500 
  4 N       -1.1570    -0.7140    -0.7300 N.am  1 <1>  -0.8490 
  5 C        1.0450     0.9930    -0.5640 C.ar  1 <1>  -0.0090 
  6 C       -2.0320    -1.5010    -1.6330 C.3   1 <1>   0.1960 
  7 C       -1.7690    -0.4010     0.5820 C.3   1 <1>   0.1960 
  8 C        1.6780     2.2390    -0.6150 C.ar  1 <1>  -0.1440 
  9 C        1.6280     0.0070     0.2300 C.ar  1 <1>  -0.1500 
 10 C       -2.9750    -2.4060    -0.8320 C.3   1 <1>   0.2000 
 11 C       -3.2910    -0.2650     0.4790 C.3   1 <1>  -0.1600 
 12 C        2.8250     2.4740     0.1290 C.ar  1 <1>  -0.1500 
 13 C        1.1420     3.3710    -1.4830 C.3   1 <1>  -0.0960 
 14 C        2.7720     0.2380     0.9740 C.ar  1 <1>  -0.1440 
 15 O       -3.6430    -3.2970    -1.6570 O.3   1 <1>  -0.6800 
 16 C       -3.9780    -1.5930     0.0270 C.3   1 <1>  -0.1060 
 17 C        3.3690     1.4820     0.9210 C.ar  1 <1>  -0.1500 
 18 C        3.3610    -0.8690     1.8290 C.3   1 <1>  -0.0970 
 19 C       -4.2850    -2.5440     1.1930 C.2   1 <1>   0.9060 
 20 C       -5.2880    -1.2240    -0.7410 C.3   1 <1>  -0.1600 
 21 O       -3.9310    -2.2550     2.3430 O.co2 1 <1>  -0.9000 
 22 O       -4.8250    -3.6280     0.9280 O.co2 1 <1>  -0.9000 
 23 C       -6.3000    -0.4180     0.0930 C.3   1 <1>  -0.1600 
 24 C       -7.5770    -0.1490    -0.7080 C.3   1 <1>  -0.2400 
 25 H       -2.6260    -0.8360    -2.2370 H     1 <1>   0.0800 
 26 H       -1.4180    -2.1010    -2.2820 H     1 <1>   0.0800 
 27 H       -1.5470    -1.1990     1.2720 H     1 <1>   0.0800 
 28 H       -1.3480     0.5030     0.9910 H     1 <1>   0.0800 
 29 H        1.1780    -0.9700     0.2680 H     1 <1>   0.1500 
 30 H       -2.3570    -3.0110    -0.1870 H     1 <1>   0.0800 
 31 H       -3.6820     0.0440     1.4330 H     1 <1>   0.0800 
 32 H       -3.5030     0.5280    -0.2150 H     1 <1>   0.0800 
 33 H        3.3070     3.4350     0.0940 H     1 <1>   0.1500 
 34 H        1.8500     4.1770    -1.5480 H     1 <1>   0.0800 
 35 H        0.2300     3.7580    -1.0640 H     1 <1>   0.0800 
 36 H        0.9480     3.0220    -2.4820 H     1 <1>   0.0800 
 37 H       -4.2640    -3.7860    -1.0560 H     1 <1>   0.4000 
 38 H        4.2600     1.6830     1.4890 H     1 <1>   0.1500 
 39 H        3.9880    -0.4610     2.6010 H     1 <1>   0.0800 
 40 H        3.9490    -1.5280     1.2160 H     1 <1>   0.0800 
 41 H        2.5750    -1.4370     2.2950 H     1 <1>   0.0800 
 42 H       -5.0360    -0.6710    -1.6290 H     1 <1>   0.0800 
 43 H       -5.7790    -2.1290    -1.0560 H     1 <1>   0.0800 
 44 H       -6.5510    -0.9710     0.9830 H     1 <1>   0.0800 
 45 H       -5.8750     0.5220     0.3960 H     1 <1>   0.0800 
 46 H       -8.0390    -1.0780    -0.9920 H     1 <1>   0.0800 
 47 H       -7.3520     0.4150    -1.5950 H     1 <1>   0.0800 
 48 H       -8.2740     0.4110    -0.1090 H     1 <1>   0.0800 
@<TRIPOS>BOND
  1   1   2  2   
  2   1   3  2   
  3   1   4  am  
  4   1   5  1   
  5   4   6  1   
  6   4   7  1   
  7   5   8  ar  
  8   5   9  ar  
  9   6  10  1   
 10   6  25  1   
 11   6  26  1   
 12   7  11  1   
 13   7  27  1   
 14   7  28  1   
 15   8  12  ar  
 16   8  13  1   
 17   9  14  ar  
 18   9  29  1   
 19  10  15  1   
 20  10  16  1   
 21  10  30  1   
 22  11  16  1   
 23  11  31  1   
 24  11  32  1   
 25  12  17  ar  
 26  12  33  1   
 27  13  34  1   
 28  13  35  1   
 29  13  36  1   
 30  14  17  ar  
 31  14  18  1   
 32  15  37  1   
 33  16  19  1   
 34  16  20  1   
 35  17  38  1   
 36  18  39  1   
 37  18  40  1   
 38  18  41  1   
 39  19  21  ar  
 40  19  22  ar  
 41  20  23  1   
 42  20  42  1   
 43  20  43  1   
 44  23  24  1   
 45  23  44  1   
 46  23  45  1   
 47  24  46  1   
 48  24  47  1   
 49  24  48  1   
@<TRIPOS>SUBSTRUCTURE
  1 ****   4 GROUP 4 **** **** 0

# MOE 2024.06 (io_trps.svl 2023.06)
