@<TRIPOS>MOLECULE
NONAME
45 47 1 0 0 
SMALL
USER_CHARGES


@<TRIPOS>ATOM
  1 CL       1.9800     0.6760     1.3040 Cl    1 <1>  -0.1770 
  2 C        3.4230     1.6020     1.6290 C.ar  1 <1>   0.1770 
  3 C        4.4660     1.0360     2.3410 C.ar  1 <1>   0.1600 
  4 C        3.5140     2.8950     1.1700 C.ar  1 <1>  -0.1500 
  5 N        5.5920     1.6750     2.6250 N.ar  1 <1>  -0.6200 
  6 C        4.6840     3.5940     1.4480 C.ar  1 <1>   0.0860 
  7 C        5.6680     2.9210     2.1770 C.ar  1 <1>   0.1600 
  8 C        4.8900     4.9610     1.0110 C.2   1 <1>   0.5440 
  9 O        5.7740     5.6520     1.4800 O.2   1 <1>  -0.5700 
 10 N        4.1530     5.5190    -0.0030 N.am  1 <1>  -0.6600 
 11 C        4.4540     5.1520    -1.4200 C.3   1 <1>   0.1400 
 12 C        3.4530     6.8200     0.1910 C.3   1 <1>   0.1400 
 13 C        5.8130     5.7210    -1.8890 C.3   1 <1>   0.3430 
 14 C        4.3990     8.0280     0.0920 C.3   1 <1>  -0.1600 
 15 N        6.2520     6.9070    -1.0800 N.4   1 <1>  -0.9590 
 16 C        5.3160     8.0570    -1.1330 C.3   1 <1>   0.3430 
 17 C        7.6650     7.2790    -1.3370 C.3   1 <1>   0.4860 
 18 C        8.3560     7.4960     0.0000 C.ar  1 <1>  -0.1430 
 19 C        8.7700     6.4010     0.7660 C.ar  1 <1>   0.0730 
 20 C        8.5770     8.7870     0.4560 C.ar  1 <1>  -0.1500 
 21 C        8.5360     5.0590     0.3110 C.1   1 <1>   0.4840 
 22 C        9.3990     6.6340     1.9830 C.ar  1 <1>  -0.1500 
 23 C        9.2040     9.0000     1.6700 C.ar  1 <1>  -0.1500 
 24 N        8.2430     4.0680    -0.1710 N.1   1 <1>  -0.5570 
 25 C        9.6150     7.9230     2.4340 C.ar  1 <1>  -0.1500 
 26 H        4.3660     0.0220     2.6870 H     1 <1>   0.1500 
 27 H        2.7010     3.3380     0.6240 H     1 <1>   0.1500 
 28 H        6.5790     3.4510     2.4010 H     1 <1>   0.1500 
 29 H        3.6720     5.5200    -2.0610 H     1 <1>   0.0800 
 30 H        4.4700     4.0800    -1.5220 H     1 <1>   0.0800 
 31 H        2.9870     6.8220     1.1640 H     1 <1>   0.0800 
 32 H        2.6650     6.9110    -0.5390 H     1 <1>   0.0800 
 33 H        5.7560     5.9750    -2.9340 H     1 <1>   0.0800 
 34 H        6.5460     4.9370    -1.7880 H     1 <1>   0.0800 
 35 H        4.9960     8.0910     0.9850 H     1 <1>   0.0800 
 36 H        3.7930     8.9160     0.0750 H     1 <1>   0.0800 
 37 H        6.2030     6.5760    -0.0900 H     1 <1>   0.4500 
 38 H        5.8730     8.9800    -1.1190 H     1 <1>   0.0800 
 39 H        4.7320     8.0280    -2.0390 H     1 <1>   0.0800 
 40 H        7.7180     8.1730    -1.9360 H     1 <1>   0.0800 
 41 H        8.1680     6.4870    -1.8680 H     1 <1>   0.0800 
 42 H        8.2690     9.6420    -0.1220 H     1 <1>   0.1500 
 43 H        9.7210     5.8040     2.5900 H     1 <1>   0.1500 
 44 H        9.3760    10.0030     2.0240 H     1 <1>   0.1500 
 45 H       10.1030     8.0900     3.3800 H     1 <1>   0.1500 
@<TRIPOS>BOND
  1   1   2  1   
  2   2   3  ar  
  3   2   4  ar  
  4   3   5  ar  
  5   3  26  1   
  6   4   6  ar  
  7   4  27  1   
  8   5   7  ar  
  9   6   7  ar  
 10   6   8  1   
 11   7  28  1   
 12   8   9  2   
 13   8  10  am  
 14  10  11  1   
 15  10  12  1   
 16  11  13  1   
 17  11  29  1   
 18  11  30  1   
 19  12  14  1   
 20  12  31  1   
 21  12  32  1   
 22  13  15  1   
 23  13  33  1   
 24  13  34  1   
 25  14  16  1   
 26  14  35  1   
 27  14  36  1   
 28  15  16  1   
 29  15  17  1   
 30  15  37  1   
 31  16  38  1   
 32  16  39  1   
 33  17  18  1   
 34  17  40  1   
 35  17  41  1   
 36  18  19  ar  
 37  18  20  ar  
 38  19  21  1   
 39  19  22  ar  
 40  20  23  ar  
 41  20  42  1   
 42  21  24  3   
 43  22  25  ar  
 44  22  43  1   
 45  23  25  ar  
 46  23  44  1   
 47  25  45  1   
@<TRIPOS>SUBSTRUCTURE
  1 ****   9 GROUP 4 **** **** 0

# MOE 2024.06 (io_trps.svl 2023.06)
