@<TRIPOS>MOLECULE
NONAME
47 49 1 0 0 
SMALL
USER_CHARGES


@<TRIPOS>ATOM
  1 O       -1.3830     1.0040    -1.8190 O.2   1 <1>  -0.5700 
  2 C       -1.5640     0.9600    -0.6240 C.2   1 <1>   0.5690 
  3 N       -1.8270    -0.2330     0.0130 N.am  1 <1>  -0.6600 
  4 C       -1.4980     2.2840     0.1540 C.3   1 <1>  -0.0190 
  5 C       -1.7310    -1.5220    -0.7630 C.3   1 <1>   0.2200 
  6 C       -2.2310    -0.3430     1.4520 C.3   1 <1>   0.0600 
  7 C       -2.8570     3.0220     0.1040 C.3   1 <1>  -0.1600 
  8 C       -0.3770     3.2120    -0.3500 C.3   1 <1>  -0.1600 
  9 C       -3.1120    -2.1920    -0.8980 C.3   1 <1>  -0.0160 
 10 C       -0.8220    -2.5460    -0.0520 C.3   1 <1>  -0.0160 
 11 C       -2.7850     4.5200     0.4740 C.3   1 <1>   0.2000 
 12 C       -0.2110     4.4550     0.5480 C.3   1 <1>  -0.1600 
 13 C       -3.0670    -3.3240     0.1030 C.ar  1 <1>  -0.1440 
 14 C       -1.7930    -3.5170     0.5770 C.ar  1 <1>  -0.1440 
 15 O       -2.7910     5.2980    -0.6960 O.3   1 <1>  -0.5600 
 16 C       -1.5080     4.8630     1.2720 C.3   1 <1>   0.2000 
 17 C       -4.1140    -4.1090     0.5480 C.ar  1 <1>  -0.1500 
 18 C       -1.5280    -4.5010     1.5120 C.ar  1 <1>  -0.1500 
 19 C       -4.0530     5.6070    -1.1990 C.3   1 <1>   0.0400 
 20 O       -1.4680     6.2280     1.4770 O.3   1 <1>  -0.6800 
 21 C       -3.8590    -5.0980     1.4850 C.ar  1 <1>  -0.1500 
 22 C       -2.5720    -5.2930     1.9660 C.ar  1 <1>  -0.1500 
 23 H       -1.2580     2.0630     1.1760 H     1 <1>   0.0800 
 24 H       -1.3330    -1.3320    -1.7450 H     1 <1>   0.0800 
 25 H       -2.8860    -1.1820     1.6040 H     1 <1>   0.0800 
 26 H       -2.7570     0.5370     1.7720 H     1 <1>   0.0800 
 27 H       -1.3570    -0.4760     2.0650 H     1 <1>   0.0800 
 28 H       -3.5290     2.5320     0.7840 H     1 <1>   0.0800 
 29 H       -3.2750     2.9180    -0.8830 H     1 <1>   0.0800 
 30 H        0.5550     2.6760    -0.4030 H     1 <1>   0.0800 
 31 H       -0.6220     3.5330    -1.3500 H     1 <1>   0.0800 
 32 H       -3.9160    -1.5050    -0.7030 H     1 <1>   0.0800 
 33 H       -3.2220    -2.6040    -1.8850 H     1 <1>   0.0800 
 34 H       -0.2320    -3.0730    -0.7800 H     1 <1>   0.0800 
 35 H       -0.1710    -2.0880     0.6690 H     1 <1>   0.0800 
 36 H       -3.6420     4.7910     1.0690 H     1 <1>   0.0800 
 37 H        0.1400     5.2640    -0.0690 H     1 <1>   0.0800 
 38 H        0.5390     4.2580     1.2930 H     1 <1>   0.0800 
 39 H       -1.5510     4.3880     2.2370 H     1 <1>   0.0800 
 40 H       -5.1110    -3.9550     0.1740 H     1 <1>   0.1500 
 41 H       -0.5290    -4.6510     1.8810 H     1 <1>   0.1500 
 42 H       -3.9210     6.1780    -2.1010 H     1 <1>   0.0800 
 43 H       -4.5890     6.1950    -0.4740 H     1 <1>   0.0800 
 44 H       -4.5870     4.7010    -1.4220 H     1 <1>   0.0800 
 45 H       -1.6650     6.6440     0.6110 H     1 <1>   0.4000 
 46 H       -4.6640    -5.7170     1.8420 H     1 <1>   0.1500 
 47 H       -2.3830    -6.0630     2.6920 H     1 <1>   0.1500 
@<TRIPOS>BOND
  1   1   2  2   
  2   2   3  am  
  3   2   4  1   
  4   3   5  1   
  5   3   6  1   
  6   4   7  1   
  7   4   8  1   
  8   4  23  1   
  9   5   9  1   
 10   5  10  1   
 11   5  24  1   
 12   6  25  1   
 13   6  26  1   
 14   6  27  1   
 15   7  11  1   
 16   7  28  1   
 17   7  29  1   
 18   8  12  1   
 19   8  30  1   
 20   8  31  1   
 21   9  13  1   
 22   9  32  1   
 23   9  33  1   
 24  10  14  1   
 25  10  34  1   
 26  10  35  1   
 27  11  15  1   
 28  11  16  1   
 29  11  36  1   
 30  12  16  1   
 31  12  37  1   
 32  12  38  1   
 33  13  14  ar  
 34  13  17  ar  
 35  14  18  ar  
 36  15  19  1   
 37  16  20  1   
 38  16  39  1   
 39  17  21  ar  
 40  17  40  1   
 41  18  22  ar  
 42  18  41  1   
 43  19  42  1   
 44  19  43  1   
 45  19  44  1   
 46  20  45  1   
 47  21  22  ar  
 48  21  46  1   
 49  22  47  1   
@<TRIPOS>SUBSTRUCTURE
  1 ****   3 GROUP 4 **** **** 0

# MOE 2024.06 (io_trps.svl 2023.06)
