@<TRIPOS>MOLECULE
NONAME
48 50 1 0 0 
SMALL
USER_CHARGES


@<TRIPOS>ATOM
  1 O       -0.3480     0.1580     0.6950 O.2   1 <1>  -0.5700 
  2 C       -1.3840     0.8030     0.7150 C.2   1 <1>   0.5440 
  3 N       -2.5770     0.0990     0.6680 N.am  1 <1>  -0.6600 
  4 C       -1.3330     2.2700     0.7550 C.ar  1 <1>   0.3960 
  5 C       -2.6430    -1.3930     0.7640 C.3   1 <1>   0.1400 
  6 C       -3.9230     0.7320     0.5290 C.3   1 <1>   0.1400 
  7 N       -1.9750     2.9020     1.7550 N.ar  1 <1>  -0.6200 
  8 C       -0.6410     2.9860    -0.2380 C.ar  1 <1>  -0.1430 
  9 C       -3.5340    -1.9820    -0.3440 C.3   1 <1>   0.3440 
 10 C       -4.7470     0.0330    -0.5760 C.3   1 <1>   0.2000 
 11 C       -1.9120     4.2180     1.7810 C.ar  1 <1>   0.1600 
 12 C       -0.5950     4.3650    -0.1900 C.ar  1 <1>  -0.1500 
 13 C        0.0750     2.2830    -1.3890 C.3   1 <1>  -0.0970 
 14 O       -4.7880    -1.3500    -0.3490 O.3   1 <1>  -0.5600 
 15 C       -3.7210    -3.4840    -0.1460 C.ar  1 <1>  -0.1430 
 16 C       -6.2020     0.5400    -0.7010 C.3   1 <1>  -0.0800 
 17 C       -1.2470     4.9880     0.8480 C.ar  1 <1>  -0.1500 
 18 C       -4.7330    -3.9840     0.6630 C.ar  1 <1>  -0.1500 
 19 C       -2.8590    -4.3730    -0.7720 C.ar  1 <1>  -0.1500 
 20 C       -6.2620     2.0240    -1.0980 C.3   1 <1>  -0.2400 
 21 C       -7.0460     0.3110     0.5650 C.3   1 <1>  -0.2400 
 22 C       -4.8800    -5.3490     0.8420 C.ar  1 <1>  -0.1500 
 23 C       -3.0040    -5.7380    -0.5930 C.ar  1 <1>  -0.1500 
 24 C       -4.0150    -6.2270     0.2140 C.ar  1 <1>  -0.1500 
 25 H       -1.6620    -1.8270     0.6900 H     1 <1>   0.0800 
 26 H       -3.0490    -1.6660     1.7220 H     1 <1>   0.0800 
 27 H       -4.4360     0.6600     1.4710 H     1 <1>   0.0800 
 28 H       -3.8250     1.7730     0.2840 H     1 <1>   0.0800 
 29 H       -3.0750    -1.8070    -1.3010 H     1 <1>   0.0800 
 30 H       -4.2560     0.1890    -1.5220 H     1 <1>   0.0800 
 31 H       -2.4190     4.7150     2.5920 H     1 <1>   0.1500 
 32 H       -0.0680     4.9420    -0.9310 H     1 <1>   0.1500 
 33 H        0.3810     2.9840    -2.1440 H     1 <1>   0.0800 
 34 H       -0.5730     1.5570    -1.8470 H     1 <1>   0.0800 
 35 H        0.9500     1.7780    -1.0190 H     1 <1>   0.0800 
 36 H       -6.6550    -0.0210    -1.5020 H     1 <1>   0.0800 
 37 H       -1.2390     6.0600     0.9370 H     1 <1>   0.1500 
 38 H       -5.4130    -3.3080     1.1530 H     1 <1>   0.1500 
 39 H       -2.0670    -4.0070    -1.4020 H     1 <1>   0.1500 
 40 H       -5.8890     2.6540    -0.3090 H     1 <1>   0.0800 
 41 H       -7.2790     2.3090    -1.3030 H     1 <1>   0.0800 
 42 H       -5.6800     2.1990    -1.9860 H     1 <1>   0.0800 
 43 H       -6.6870     0.9020     1.3880 H     1 <1>   0.0800 
 44 H       -7.0190    -0.7270     0.8490 H     1 <1>   0.0800 
 45 H       -8.0710     0.5780     0.3790 H     1 <1>   0.0800 
 46 H       -5.6690    -5.7250     1.4700 H     1 <1>   0.1500 
 47 H       -2.3310    -6.4200    -1.0830 H     1 <1>   0.1500 
 48 H       -4.1290    -7.2880     0.3530 H     1 <1>   0.1500 
@<TRIPOS>BOND
  1   1   2  2   
  2   2   3  am  
  3   2   4  1   
  4   3   5  1   
  5   3   6  1   
  6   4   7  ar  
  7   4   8  ar  
  8   5   9  1   
  9   5  25  1   
 10   5  26  1   
 11   6  10  1   
 12   6  27  1   
 13   6  28  1   
 14   7  11  ar  
 15   8  12  ar  
 16   8  13  1   
 17   9  14  1   
 18   9  15  1   
 19   9  29  1   
 20  10  14  1   
 21  10  16  1   
 22  10  30  1   
 23  11  17  ar  
 24  11  31  1   
 25  12  17  ar  
 26  12  32  1   
 27  13  33  1   
 28  13  34  1   
 29  13  35  1   
 30  15  18  ar  
 31  15  19  ar  
 32  16  20  1   
 33  16  21  1   
 34  16  36  1   
 35  17  37  1   
 36  18  22  ar  
 37  18  38  1   
 38  19  23  ar  
 39  19  39  1   
 40  20  40  1   
 41  20  41  1   
 42  20  42  1   
 43  21  43  1   
 44  21  44  1   
 45  21  45  1   
 46  22  24  ar  
 47  22  46  1   
 48  23  24  ar  
 49  23  47  1   
 50  24  48  1   
@<TRIPOS>SUBSTRUCTURE
  1 ****   3 GROUP 4 **** **** 0

# MOE 2024.06 (io_trps.svl 2023.06)
