@<TRIPOS>MOLECULE
NONAME
58 61 1 0 0 
SMALL
USER_CHARGES


@<TRIPOS>ATOM
  1 O       -1.1790     0.8630     1.9610 O.2   1 <1>  -0.5700 
  2 C       -0.9710     1.8820     1.3240 C.2   1 <1>   0.7150 
  3 N       -2.0550     2.5260     0.7530 N.am  1 <1>  -0.6600 
  4 C        0.3750     2.4000     1.1860 C.2   1 <1>   0.0550 
  5 C       -1.9060     3.4700    -0.3900 C.3   1 <1>   0.1400 
  6 C       -3.4420     2.1280     1.1230 C.3   1 <1>   0.1400 
  7 O        1.4110     1.5820     1.0110 O.3   1 <1>  -0.2800 
  8 C        0.8460     3.6810     1.2020 C.2   1 <1>  -0.1500 
  9 C       -3.1210     3.3700    -1.3120 C.3   1 <1>  -0.1600 
 10 C       -4.4170     3.2820     0.8730 C.3   1 <1>  -0.1600 
 11 C        2.5090     2.2950     0.9140 C.2   1 <1>  -0.0100 
 12 C        2.2280     3.6100     1.0240 C.2   1 <1>  -0.1500 
 13 C       -4.4230     3.8020    -0.5920 C.3   1 <1>   0.2800 
 14 O       -4.3730     5.2090    -0.4710 O.3   1 <1>  -0.5600 
 15 C       -5.7300     3.3500    -1.3410 C.3   1 <1>   0.2000 
 16 C       -4.8540     5.9860    -1.5260 C.3   1 <1>   0.1200 
 17 O       -5.4850     3.1100    -2.7040 O.3   1 <1>  -0.6800 
 18 C       -6.8690     4.4030    -1.1940 C.3   1 <1>   0.3000 
 19 C       -6.3600     5.7550    -1.7360 C.3   1 <1>  -0.1600 
 20 N       -7.1750     4.6300     0.2400 N.am  1 <1>  -0.7300 
 21 C       -8.1470     4.0080    -1.9560 C.3   1 <1>  -0.2400 
 22 C       -8.2880     4.3780     0.9720 C.2   1 <1>   0.7150 
 23 O       -8.6660     5.2820     1.6860 O.2   1 <1>  -0.5700 
 24 C       -8.9660     3.1150     0.9460 C.2   1 <1>  -0.2370 
 25 N      -10.3040     2.9600     1.1220 N.pl3 1 <1>   0.3140 
 26 C       -8.4850     1.8540     0.7600 C.2   1 <1>  -0.1500 
 27 N      -10.6820     1.6760     1.0340 N.2   1 <1>  -0.7070 
 28 C      -11.3040     4.0110     1.3710 C.3   1 <1>   0.0160 
 29 C       -9.5860     1.0210     0.8210 C.2   1 <1>   0.1080 
 30 C       -9.5660    -0.4810     0.6650 C.3   1 <1>  -0.0590 
 31 H       -1.8200     4.4760    -0.0130 H     1 <1>   0.0800 
 32 H       -1.0160     3.2330    -0.9480 H     1 <1>   0.0800 
 33 H       -3.7260     1.2660     0.5420 H     1 <1>   0.0800 
 34 H       -3.4730     1.8520     2.1640 H     1 <1>   0.0800 
 35 H        0.2820     4.5860     1.3350 H     1 <1>   0.1500 
 36 H       -3.2040     2.3480    -1.6420 H     1 <1>   0.0800 
 37 H       -2.9550     3.9690    -2.1860 H     1 <1>   0.0800 
 38 H       -4.1470     4.0780     1.5440 H     1 <1>   0.0800 
 39 H       -5.3940     2.9480     1.1650 H     1 <1>   0.0800 
 40 H        3.4480     1.7900     0.7700 H     1 <1>   0.1500 
 41 H        2.9040     4.4460     0.9880 H     1 <1>   0.1500 
 42 H       -6.0620     2.4080    -0.9460 H     1 <1>   0.0800 
 43 H       -4.6650     7.0180    -1.2850 H     1 <1>   0.0800 
 44 H       -4.2970     5.7400    -2.4120 H     1 <1>   0.0800 
 45 H       -5.1420     3.9160    -3.1320 H     1 <1>   0.4000 
 46 H       -6.9180     6.5630    -1.2950 H     1 <1>   0.0800 
 47 H       -6.5390     5.8150    -2.7950 H     1 <1>   0.0800 
 48 H       -6.6220     5.4060     0.6100 H     1 <1>   0.3700 
 49 H       -7.9640     3.9920    -3.0150 H     1 <1>   0.0800 
 50 H       -8.9380     4.7120    -1.7680 H     1 <1>   0.0800 
 51 H       -8.4710     3.0220    -1.6840 H     1 <1>   0.0800 
 52 H       -7.4710     1.5430     0.6030 H     1 <1>   0.1500 
 53 H      -11.2180     4.7700     0.6170 H     1 <1>   0.0800 
 54 H      -11.1280     4.4390     2.3400 H     1 <1>   0.0800 
 55 H      -12.2870     3.5800     1.3410 H     1 <1>   0.0800 
 56 H       -8.5680    -0.8270     0.4700 H     1 <1>   0.0800 
 57 H      -10.2050    -0.7640    -0.1500 H     1 <1>   0.0800 
 58 H       -9.9280    -0.9380     1.5670 H     1 <1>   0.0800 
@<TRIPOS>BOND
  1   1   2  2   
  2   2   3  am  
  3   2   4  1   
  4   3   5  1   
  5   3   6  1   
  6   4   7  1   
  7   4   8  2   
  8   5   9  1   
  9   5  31  1   
 10   5  32  1   
 11   6  10  1   
 12   6  33  1   
 13   6  34  1   
 14   7  11  1   
 15   8  12  1   
 16   8  35  1   
 17   9  13  1   
 18   9  36  1   
 19   9  37  1   
 20  10  13  1   
 21  10  38  1   
 22  10  39  1   
 23  11  12  2   
 24  11  40  1   
 25  12  41  1   
 26  13  14  1   
 27  13  15  1   
 28  14  16  1   
 29  15  17  1   
 30  15  18  1   
 31  15  42  1   
 32  16  19  1   
 33  16  43  1   
 34  16  44  1   
 35  17  45  1   
 36  18  19  1   
 37  18  20  1   
 38  18  21  1   
 39  19  46  1   
 40  19  47  1   
 41  20  22  am  
 42  20  48  1   
 43  21  49  1   
 44  21  50  1   
 45  21  51  1   
 46  22  23  2   
 47  22  24  1   
 48  24  25  1   
 49  24  26  2   
 50  25  27  1   
 51  25  28  1   
 52  26  29  1   
 53  26  52  1   
 54  27  29  2   
 55  28  53  1   
 56  28  54  1   
 57  28  55  1   
 58  29  30  1   
 59  30  56  1   
 60  30  57  1   
 61  30  58  1   
@<TRIPOS>SUBSTRUCTURE
  1 ****  10 GROUP 4 **** **** 0

# MOE 2024.06 (io_trps.svl 2023.06)
