@<TRIPOS>MOLECULE
NONAME
43 44 1 0 0 
SMALL
USER_CHARGES


@<TRIPOS>ATOM
  1 O       -2.1990     0.3870    -0.0770 O.co2 1 <1>  -0.9000 
  2 C       -1.3530     1.0280    -0.7200 C.2   1 <1>   0.9060 
  3 O       -1.1710     0.7870    -1.9210 O.co2 1 <1>  -0.9000 
  4 C       -0.5210     2.1280    -0.0270 C.3   1 <1>  -0.1060 
  5 C       -1.3140     2.8470     1.1030 C.3   1 <1>   0.2000 
  6 C       -0.1700     3.1800    -1.1180 C.3   1 <1>   0.2090 
  7 C        0.7640     1.5280     0.6200 C.3   1 <1>  -0.1600 
  8 O       -2.0140     1.9640     1.8990 O.3   1 <1>  -0.6800 
  9 C       -2.2870     3.8830     0.5490 C.3   1 <1>  -0.1600 
 10 N       -0.1790     4.5930    -0.5990 N.pl3 1 <1>  -0.8380 
 11 C        1.6360     0.6600    -0.3070 C.3   1 <1>  -0.1600 
 12 C       -1.4940     5.0470    -0.0580 C.3   1 <1>   0.2090 
 13 C        0.9740     5.3410    -0.4710 C.ar  1 <1>   0.4100 
 14 C        2.8660     0.1330     0.4370 C.3   1 <1>  -0.2400 
 15 N        2.1230     4.6850    -0.3390 N.ar  1 <1>  -0.6200 
 16 C        0.9270     6.7350    -0.4780 C.ar  1 <1>  -0.1500 
 17 C        3.2140     5.4100    -0.1980 C.ar  1 <1>   0.1600 
 18 C        2.0740     7.4750    -0.3300 C.ar  1 <1>  -0.1500 
 19 C        3.2850     6.8050    -0.1780 C.ar  1 <1>   0.0860 
 20 C        4.5200     7.5320    -0.0130 C.2   1 <1>   0.4230 
 21 O        4.5750     8.7350     0.0160 O.2   1 <1>  -0.5700 
 22 C        5.8390     6.7950     0.1360 C.3   1 <1>  -0.1790 
 23 H       -0.6230     3.3580     1.7540 H     1 <1>   0.0800 
 24 H       -0.9050     3.1420    -1.9040 H     1 <1>   0.0800 
 25 H        0.7710     2.9530    -1.5830 H     1 <1>   0.0800 
 26 H        1.3620     2.3340     1.0070 H     1 <1>   0.0800 
 27 H        0.4630     0.9180     1.4550 H     1 <1>   0.0800 
 28 H       -2.2700     1.2010     1.2890 H     1 <1>   0.4000 
 29 H       -2.9060     3.4300    -0.2060 H     1 <1>   0.0800 
 30 H       -2.9220     4.2560     1.3310 H     1 <1>   0.0800 
 31 H        1.0600    -0.1760    -0.6700 H     1 <1>   0.0800 
 32 H        1.9600     1.2280    -1.1590 H     1 <1>   0.0800 
 33 H       -1.3180     5.7760     0.7150 H     1 <1>   0.0800 
 34 H       -2.0670     5.5090    -0.8420 H     1 <1>   0.0800 
 35 H        2.5630    -0.4670     1.2770 H     1 <1>   0.0800 
 36 H        3.4670     0.9520     0.7890 H     1 <1>   0.0800 
 37 H        3.4590    -0.4750    -0.2240 H     1 <1>   0.0800 
 38 H       -0.0170     7.2260    -0.6110 H     1 <1>   0.1500 
 39 H        4.1220     4.8460    -0.0900 H     1 <1>   0.1500 
 40 H        2.0470     8.5520    -0.3330 H     1 <1>   0.1500 
 41 H        6.0270     6.1940    -0.7340 H     1 <1>   0.0800 
 42 H        5.8190     6.1750     1.0120 H     1 <1>   0.0800 
 43 H        6.6410     7.5040     0.2390 H     1 <1>   0.0800 
@<TRIPOS>BOND
  1   1   2  ar  
  2   2   3  ar  
  3   2   4  1   
  4   4   5  1   
  5   4   6  1   
  6   4   7  1   
  7   5   8  1   
  8   5   9  1   
  9   5  23  1   
 10   6  10  1   
 11   6  24  1   
 12   6  25  1   
 13   7  11  1   
 14   7  26  1   
 15   7  27  1   
 16   8  28  1   
 17   9  12  1   
 18   9  29  1   
 19   9  30  1   
 20  10  12  1   
 21  10  13  1   
 22  11  14  1   
 23  11  31  1   
 24  11  32  1   
 25  12  33  1   
 26  12  34  1   
 27  13  15  ar  
 28  13  16  ar  
 29  14  35  1   
 30  14  36  1   
 31  14  37  1   
 32  15  17  ar  
 33  16  18  ar  
 34  16  38  1   
 35  17  19  ar  
 36  17  39  1   
 37  18  19  ar  
 38  18  40  1   
 39  19  20  1   
 40  20  21  2   
 41  20  22  1   
 42  22  41  1   
 43  22  42  1   
 44  22  43  1   
@<TRIPOS>SUBSTRUCTURE
  1 ****  10 GROUP 4 **** **** 0

# MOE 2024.06 (io_trps.svl 2023.06)
