@<TRIPOS>MOLECULE
NONAME
56 58 1 0 0 
SMALL
USER_CHARGES


@<TRIPOS>ATOM
  1 O       -0.5640     0.2890    -0.3510 O.co2 1 <1>  -0.9000 
  2 C       -1.4900     1.0910    -0.5150 C.2   1 <1>   0.9060 
  3 O       -2.2220     1.0450    -1.5110 O.co2 1 <1>  -0.9000 
  4 C       -1.8080     2.0480     0.6630 C.3   1 <1>   0.4600 
  5 N       -2.9820     1.6700     1.5760 N.4   1 <1>  -0.9590 
  6 C       -1.6990     3.5520     0.3410 C.ar  1 <1>  -0.1430 
  7 C       -4.1580     1.1590     0.8090 C.3   1 <1>   0.3430 
  8 C       -3.3700     2.7590     2.5180 C.3   1 <1>   0.2630 
  9 C       -2.6470     4.3390    -0.3330 C.ar  1 <1>  -0.0230 
 10 C       -0.5250     4.1550     0.7750 C.ar  1 <1>  -0.1500 
 11 C       -4.5090    -0.2640     1.2570 C.3   1 <1>  -0.0800 
 12 N       -3.8900     3.8590    -0.8340 N.pl3 1 <1>   0.5930 
 13 C       -2.3850     5.6930    -0.5250 C.ar  1 <1>  -0.1500 
 14 C       -0.2830     5.5000     0.5710 C.ar  1 <1>  -0.1500 
 15 C       -3.3920    -1.2890     0.9640 C.3   1 <1>  -0.1600 
 16 C       -5.7980    -0.7450     0.5740 C.3   1 <1>  -0.1600 
 17 N       -5.0160     3.8490    -0.0650 N.2   1 <1>  -0.7070 
 18 C       -4.2240     3.6330    -2.1340 C.2   1 <1>  -0.3320 
 19 C       -1.2170     6.2810    -0.0790 C.ar  1 <1>  -0.1430 
 20 C       -3.8890    -2.7420     1.0350 C.3   1 <1>   0.1200 
 21 C       -6.1680    -2.1800     0.9970 C.3   1 <1>   0.1200 
 22 C       -5.9890     3.5890    -0.8760 C.2   1 <1>   0.1080 
 23 C       -5.5570     3.4390    -2.1860 C.2   1 <1>  -0.1500 
 24 C       -3.2300     3.6300    -3.2860 C.3   1 <1>  -0.0600 
 25 C       -0.9580     7.7590    -0.3070 C.3   1 <1>  -0.0970 
 26 O       -5.1190    -2.7890     1.6920 O.3   1 <1>  -0.5600 
 27 C       -7.4260     3.4830    -0.4220 C.3   1 <1>  -0.0590 
 28 H       -0.9460     1.8770     1.2810 H     1 <1>   0.0800 
 29 H       -2.6400     0.8550     2.0970 H     1 <1>   0.4500 
 30 H       -3.9730     1.1710    -0.2510 H     1 <1>   0.0800 
 31 H       -5.0090     1.7920     0.9930 H     1 <1>   0.0800 
 32 H       -3.7560     3.6040     1.9720 H     1 <1>   0.0800 
 33 H       -2.5140     3.0830     3.0860 H     1 <1>   0.0800 
 34 H       -4.1310     2.4120     3.1960 H     1 <1>   0.0800 
 35 H        0.2320     3.5770     1.2780 H     1 <1>   0.1500 
 36 H       -4.6980    -0.2510     2.3170 H     1 <1>   0.0800 
 37 H       -3.1190     6.2940    -1.0350 H     1 <1>   0.1500 
 38 H        0.6390     5.9360     0.9170 H     1 <1>   0.1500 
 39 H       -2.5730    -1.1670     1.6480 H     1 <1>   0.0800 
 40 H       -2.9980    -1.1370    -0.0270 H     1 <1>   0.0800 
 41 H       -5.6630    -0.7280    -0.4950 H     1 <1>   0.0800 
 42 H       -6.6180    -0.0870     0.8020 H     1 <1>   0.0800 
 43 H       -3.1950    -3.3560     1.5820 H     1 <1>   0.0800 
 44 H       -4.0150    -3.1560     0.0480 H     1 <1>   0.0800 
 45 H       -6.4060    -2.7860     0.1400 H     1 <1>   0.0800 
 46 H       -7.0170    -2.1680     1.6590 H     1 <1>   0.0800 
 47 H       -6.1720     3.2260    -3.0420 H     1 <1>   0.1500 
 48 H       -2.4490     2.9120    -3.1150 H     1 <1>   0.0800 
 49 H       -2.7820     4.6010    -3.3960 H     1 <1>   0.0800 
 50 H       -3.7260     3.3720    -4.2040 H     1 <1>   0.0800 
 51 H       -1.8840     8.2920    -0.4330 H     1 <1>   0.0800 
 52 H       -0.3590     7.8910    -1.1900 H     1 <1>   0.0800 
 53 H       -0.4360     8.1810     0.5330 H     1 <1>   0.0800 
 54 H       -7.5260     2.6790     0.2830 H     1 <1>   0.0800 
 55 H       -8.0720     3.2990    -1.2600 H     1 <1>   0.0800 
 56 H       -7.7210     4.4020     0.0510 H     1 <1>   0.0800 
@<TRIPOS>BOND
  1   1   2  ar  
  2   2   3  ar  
  3   2   4  1   
  4   4   5  1   
  5   4   6  1   
  6   4  28  1   
  7   5   7  1   
  8   5   8  1   
  9   5  29  1   
 10   6   9  ar  
 11   6  10  ar  
 12   7  11  1   
 13   7  30  1   
 14   7  31  1   
 15   8  32  1   
 16   8  33  1   
 17   8  34  1   
 18   9  12  1   
 19   9  13  ar  
 20  10  14  ar  
 21  10  35  1   
 22  11  15  1   
 23  11  16  1   
 24  11  36  1   
 25  12  17  1   
 26  12  18  1   
 27  13  19  ar  
 28  13  37  1   
 29  14  19  ar  
 30  14  38  1   
 31  15  20  1   
 32  15  39  1   
 33  15  40  1   
 34  16  21  1   
 35  16  41  1   
 36  16  42  1   
 37  17  22  2   
 38  18  23  2   
 39  18  24  1   
 40  19  25  1   
 41  20  26  1   
 42  20  43  1   
 43  20  44  1   
 44  21  26  1   
 45  21  45  1   
 46  21  46  1   
 47  22  23  1   
 48  22  27  1   
 49  23  47  1   
 50  24  48  1   
 51  24  49  1   
 52  24  50  1   
 53  25  51  1   
 54  25  52  1   
 55  25  53  1   
 56  27  54  1   
 57  27  55  1   
 58  27  56  1   
@<TRIPOS>SUBSTRUCTURE
  1 ****   7 GROUP 4 **** **** 0

# MOE 2024.06 (io_trps.svl 2023.06)
