@<TRIPOS>MOLECULE
NONAME
48 49 1 0 0 
SMALL
USER_CHARGES


@<TRIPOS>ATOM
  1 O        0.0830     1.0830     1.5000 O.2   1 <1>  -0.5700 
  2 C        0.0420     2.2620     1.2610 C.2   1 <1>   0.5690 
  3 N       -1.0940     2.9660     1.4550 N.am  1 <1>  -0.7300 
  4 C        1.2740     2.9750     0.6980 C.3   1 <1>   0.1810 
  5 C       -1.2260     4.4160     1.1680 C.3   1 <1>   0.3640 
  6 O        1.2080     4.3770     0.8420 O.3   1 <1>  -0.5600 
  7 C       -2.5180     4.6360     0.3820 C.ar  1 <1>  -0.1440 
  8 C       -0.0020     4.9630     0.3820 C.3   1 <1>   0.2610 
  9 C       -3.3630     5.6820     0.7250 C.ar  1 <1>  -0.1500 
 10 C       -2.8670     3.8120    -0.6820 C.ar  1 <1>  -0.1500 
 11 C        0.0940     6.4990     0.4440 C.2   1 <1>   0.5690 
 12 C       -4.5350     5.9010     0.0220 C.ar  1 <1>  -0.1500 
 13 C       -4.0380     4.0300    -1.3860 C.ar  1 <1>  -0.1500 
 14 O       -0.5530     7.0890     1.2830 O.2   1 <1>  -0.5700 
 15 N        0.9150     7.1960    -0.4180 N.am  1 <1>  -0.6600 
 16 C       -4.8740     5.0740    -1.0340 C.ar  1 <1>  -0.1500 
 17 C        1.8060     6.5590    -1.4380 C.3   1 <1>   0.1400 
 18 C        0.9960     8.6890    -0.3470 C.3   1 <1>   0.1400 
 19 C        3.2220     6.3750    -0.8920 C.3   1 <1>   0.1200 
 20 C        1.7570     9.1400     0.9020 C.3   1 <1>   0.1200 
 21 O        3.9660     5.6770    -1.8390 O.3   1 <1>  -0.5600 
 22 O        2.0790    10.4880     0.7610 O.3   1 <1>  -0.5600 
 23 C        5.2800     5.4340    -1.4520 C.3   1 <1>   0.0400 
 24 C        2.6950    11.0370     1.8800 C.3   1 <1>   0.0400 
 25 H       -1.9200     2.4880     1.8180 H     1 <1>   0.3700 
 26 H        1.3770     2.7450    -0.3470 H     1 <1>   0.0800 
 27 H        2.1510     2.6340     1.2170 H     1 <1>   0.0800 
 28 H       -1.2940     4.9280     2.1130 H     1 <1>   0.0800 
 29 H       -0.1270     4.6830    -0.6460 H     1 <1>   0.0800 
 30 H       -3.1110     6.3400     1.5400 H     1 <1>   0.1500 
 31 H       -2.2310     2.9920    -0.9690 H     1 <1>   0.1500 
 32 H       -5.1810     6.7160     0.2970 H     1 <1>   0.1500 
 33 H       -4.3010     3.3850    -2.2060 H     1 <1>   0.1500 
 34 H       -5.7860     5.2430    -1.5800 H     1 <1>   0.1500 
 35 H        1.4220     5.5990    -1.7290 H     1 <1>   0.0800 
 36 H        1.8430     7.1760    -2.3190 H     1 <1>   0.0800 
 37 H        1.4940     9.0700    -1.2210 H     1 <1>   0.0800 
 38 H        0.0000     9.0970    -0.3180 H     1 <1>   0.0800 
 39 H        3.2020     5.8030     0.0190 H     1 <1>   0.0800 
 40 H        3.6880     7.3310    -0.7250 H     1 <1>   0.0800 
 41 H        2.6710     8.5840     1.0110 H     1 <1>   0.0800 
 42 H        1.1390     9.0170     1.7760 H     1 <1>   0.0800 
 43 H        5.7680     4.8940    -2.2440 H     1 <1>   0.0800 
 44 H        5.2820     4.8410    -0.5530 H     1 <1>   0.0800 
 45 H        5.7830     6.3720    -1.2890 H     1 <1>   0.0800 
 46 H        2.9090    12.0700     1.6720 H     1 <1>   0.0800 
 47 H        3.6110    10.5080     2.0780 H     1 <1>   0.0800 
 48 H        2.0270    10.9680     2.7220 H     1 <1>   0.0800 
@<TRIPOS>BOND
  1   1   2  2   
  2   2   3  am  
  3   2   4  1   
  4   3   5  1   
  5   3  25  1   
  6   4   6  1   
  7   4  26  1   
  8   4  27  1   
  9   5   7  1   
 10   5   8  1   
 11   5  28  1   
 12   6   8  1   
 13   7   9  ar  
 14   7  10  ar  
 15   8  11  1   
 16   8  29  1   
 17   9  12  ar  
 18   9  30  1   
 19  10  13  ar  
 20  10  31  1   
 21  11  14  2   
 22  11  15  am  
 23  12  16  ar  
 24  12  32  1   
 25  13  16  ar  
 26  13  33  1   
 27  15  17  1   
 28  15  18  1   
 29  16  34  1   
 30  17  19  1   
 31  17  35  1   
 32  17  36  1   
 33  18  20  1   
 34  18  37  1   
 35  18  38  1   
 36  19  21  1   
 37  19  39  1   
 38  19  40  1   
 39  20  22  1   
 40  20  41  1   
 41  20  42  1   
 42  21  23  1   
 43  22  24  1   
 44  23  43  1   
 45  23  44  1   
 46  23  45  1   
 47  24  46  1   
 48  24  47  1   
 49  24  48  1   
@<TRIPOS>SUBSTRUCTURE
  1 ****   8 GROUP 4 **** **** 0

# MOE 2024.06 (io_trps.svl 2023.06)
