@<TRIPOS>MOLECULE
NONAME
56 58 1 0 0 
SMALL
USER_CHARGES


@<TRIPOS>ATOM
  1 O       -0.5670     1.4460    -1.3570 O.2   1 <1>  -0.5700 
  2 C       -0.9400     2.5830    -1.1840 C.2   1 <1>   0.5690 
  3 N       -1.6140     3.0050    -0.0660 N.am  1 <1>  -0.6600 
  4 C       -0.6460     3.5960    -2.2850 C.3   1 <1>   0.1810 
  5 C       -2.0560     4.4360     0.0610 C.3   1 <1>   0.3640 
  6 C       -1.8940     2.1600     1.1280 C.3   1 <1>   0.2200 
  7 O       -0.4070     4.8740    -1.7570 O.3   1 <1>  -0.5600 
  8 C       -3.5860     4.4930     0.0570 C.ar  1 <1>  -0.1440 
  9 C       -1.4980     5.4090    -1.0180 C.3   1 <1>   0.2610 
 10 C       -0.5840     1.7520     1.8000 C.3   1 <1>  -0.2400 
 11 C       -2.7540     0.9480     0.7670 C.3   1 <1>  -0.2400 
 12 C       -4.3350     3.7710    -0.8640 C.ar  1 <1>  -0.1500 
 13 C       -4.2490     5.2860     0.9830 C.ar  1 <1>  -0.1500 
 14 C       -1.0870     6.7280    -0.3520 C.2   1 <1>   0.5690 
 15 C       -5.7180     3.8370    -0.8560 C.ar  1 <1>  -0.1500 
 16 C       -5.6310     5.3540     0.9930 C.ar  1 <1>  -0.1500 
 17 O       -1.8860     7.3250     0.3320 O.2   1 <1>  -0.5700 
 18 N        0.1770     7.1910    -0.5350 N.am  1 <1>  -0.7300 
 19 C       -6.3670     4.6290     0.0740 C.ar  1 <1>  -0.1500 
 20 C        0.7510     8.4260     0.0190 C.3   1 <1>   0.2200 
 21 C        1.2230     9.2930    -1.1540 C.3   1 <1>  -0.1600 
 22 C        1.8490     8.0210     1.0090 C.3   1 <1>  -0.1600 
 23 C        1.5410    10.7350    -0.7270 C.3   1 <1>  -0.1600 
 24 C        2.6300     9.1920     1.6310 C.3   1 <1>  -0.1600 
 25 C        2.9760    10.9610    -0.2280 C.3   1 <1>  -0.1600 
 26 C        3.5940     9.8480     0.6320 C.3   1 <1>  -0.1600 
 27 H       -1.4740     3.6490    -2.9690 H     1 <1>   0.0800 
 28 H        0.2340     3.2930    -2.8220 H     1 <1>   0.0800 
 29 H       -1.7120     4.7860     1.0190 H     1 <1>   0.0800 
 30 H       -2.4550     2.7440     1.8390 H     1 <1>   0.0800 
 31 H       -2.2750     5.6350    -1.7250 H     1 <1>   0.0800 
 32 H       -0.0110     1.1050     1.1600 H     1 <1>   0.0800 
 33 H       -0.7920     1.2230     2.7120 H     1 <1>   0.0800 
 34 H       -0.0020     2.6230     2.0370 H     1 <1>   0.0800 
 35 H       -2.2240     0.2700     0.1240 H     1 <1>   0.0800 
 36 H       -3.6590     1.2650     0.2820 H     1 <1>   0.0800 
 37 H       -3.0220     0.4160     1.6610 H     1 <1>   0.0800 
 38 H       -3.8480     3.1450    -1.5920 H     1 <1>   0.1500 
 39 H       -3.6930     5.8660     1.7010 H     1 <1>   0.1500 
 40 H       -6.2880     3.2720    -1.5720 H     1 <1>   0.1500 
 41 H       -6.1320     5.9750     1.7150 H     1 <1>   0.1500 
 42 H        0.7970     6.6270    -1.1240 H     1 <1>   0.3700 
 43 H       -7.4420     4.6820     0.0810 H     1 <1>   0.1500 
 44 H       -0.0200     8.9570     0.5550 H     1 <1>   0.0800 
 45 H        2.0720     8.8490    -1.6430 H     1 <1>   0.0800 
 46 H        0.4180     9.3420    -1.8670 H     1 <1>   0.0800 
 47 H        1.3780     7.4770     1.8090 H     1 <1>   0.0800 
 48 H        2.5410     7.3540     0.5260 H     1 <1>   0.0800 
 49 H        1.3800    11.3870    -1.5680 H     1 <1>   0.0800 
 50 H        0.8450    11.0420     0.0360 H     1 <1>   0.0800 
 51 H        1.9590     9.9210     2.0510 H     1 <1>   0.0800 
 52 H        3.2160     8.7950     2.4420 H     1 <1>   0.0800 
 53 H        3.6170    11.1130    -1.0800 H     1 <1>   0.0800 
 54 H        2.9870    11.8790     0.3360 H     1 <1>   0.0800 
 55 H        4.4150    10.2780     1.1800 H     1 <1>   0.0800 
 56 H        4.0160     9.0930    -0.0090 H     1 <1>   0.0800 
@<TRIPOS>BOND
  1   1   2  2   
  2   2   3  am  
  3   2   4  1   
  4   3   5  1   
  5   3   6  1   
  6   4   7  1   
  7   4  27  1   
  8   4  28  1   
  9   5   8  1   
 10   5   9  1   
 11   5  29  1   
 12   6  10  1   
 13   6  11  1   
 14   6  30  1   
 15   7   9  1   
 16   8  12  ar  
 17   8  13  ar  
 18   9  14  1   
 19   9  31  1   
 20  10  32  1   
 21  10  33  1   
 22  10  34  1   
 23  11  35  1   
 24  11  36  1   
 25  11  37  1   
 26  12  15  ar  
 27  12  38  1   
 28  13  16  ar  
 29  13  39  1   
 30  14  17  2   
 31  14  18  am  
 32  15  19  ar  
 33  15  40  1   
 34  16  19  ar  
 35  16  41  1   
 36  18  20  1   
 37  18  42  1   
 38  19  43  1   
 39  20  21  1   
 40  20  22  1   
 41  20  44  1   
 42  21  23  1   
 43  21  45  1   
 44  21  46  1   
 45  22  24  1   
 46  22  47  1   
 47  22  48  1   
 48  23  25  1   
 49  23  49  1   
 50  23  50  1   
 51  24  26  1   
 52  24  51  1   
 53  24  52  1   
 54  25  26  1   
 55  25  53  1   
 56  25  54  1   
 57  26  55  1   
 58  26  56  1   
@<TRIPOS>SUBSTRUCTURE
  1 ****   9 GROUP 4 **** **** 0

# MOE 2024.06 (io_trps.svl 2023.06)
