@<TRIPOS>MOLECULE
NONAME
62 64 1 0 0 
SMALL
USER_CHARGES


@<TRIPOS>ATOM
  1 O        0.8090     0.3090     1.2970 O.2   1 <1>  -0.5700 
  2 C        1.8640     0.1390     0.7230 C.2   1 <1>   0.7150 
  3 N        2.4850     1.2360     0.2360 N.am  1 <1>  -0.8000 
  4 C        2.4240    -1.1820     0.5640 C.2   1 <1>   0.0550 
  5 O        3.5400    -1.3910    -0.1220 O.3   1 <1>  -0.2800 
  6 C        1.9840    -2.3800     1.0250 C.2   1 <1>  -0.1500 
  7 C        3.8380    -2.6760    -0.1200 C.2   1 <1>  -0.0400 
  8 C        2.8870    -3.3500     0.5790 C.2   1 <1>  -0.1810 
  9 C        5.1200    -3.0780    -0.8690 C.3   1 <1>   0.1800 
 10 C        2.6960    -4.8180     0.8820 C.3   1 <1>   0.5240 
 11 C        4.9660    -2.7240    -2.3540 C.3   1 <1>  -0.2400 
 12 C        6.3080    -2.2990    -0.2860 C.3   1 <1>  -0.2400 
 13 C        5.4350    -4.5750    -0.7590 C.3   1 <1>  -0.2400 
 14 N        1.4760    -5.2220     0.1380 N.4   1 <1>  -0.9590 
 15 C        1.8110    -6.2040    -0.9510 C.3   1 <1>   0.3430 
 16 C        0.3870    -5.6400     1.0630 C.3   1 <1>   0.3430 
 17 C        1.0800    -7.5630    -0.8580 C.3   1 <1>   0.0000 
 18 C       -0.8080    -6.1430     0.2590 C.3   1 <1>  -0.1600 
 19 C       -0.4430    -7.2540    -0.7440 C.3   1 <1>   0.2000 
 20 C        1.3350    -8.2730    -2.2100 C.3   1 <1>   0.1200 
 21 C        1.6180    -8.4510     0.3200 C.3   1 <1>  -0.0170 
 22 O       -1.1270    -8.4060    -0.3900 O.3   1 <1>  -0.6800 
 23 O        0.6720    -9.4840    -2.2630 O.3   1 <1>  -0.6800 
 24 C        3.0000    -8.0770     0.8530 C.ar  1 <1>  -0.1430 
 25 C        3.1410    -7.6310     2.1610 C.ar  1 <1>  -0.1500 
 26 C        4.1290    -8.1940     0.0570 C.ar  1 <1>  -0.1500 
 27 C        4.3830    -7.2610     2.6470 C.ar  1 <1>  -0.1500 
 28 C        5.3710    -7.8240     0.5420 C.ar  1 <1>  -0.1500 
 29 C        5.4980    -7.3510     1.8350 C.ar  1 <1>  -0.1500 
 30 H        2.0700     2.1570     0.3740 H     1 <1>   0.3700 
 31 H        3.3800     1.1780    -0.2470 H     1 <1>   0.3700 
 32 H        1.1050    -2.5310     1.6280 H     1 <1>   0.1500 
 33 H        2.5630    -4.9550     1.9430 H     1 <1>   0.0800 
 34 H        3.5470    -5.4000     0.5730 H     1 <1>   0.0800 
 35 H        5.8530    -2.9860    -2.9030 H     1 <1>   0.0800 
 36 H        4.7990    -1.6670    -2.4730 H     1 <1>   0.0800 
 37 H        4.1290    -3.2450    -2.7820 H     1 <1>   0.0800 
 38 H        7.2220    -2.5610    -0.7880 H     1 <1>   0.0800 
 39 H        6.4180    -2.5140     0.7620 H     1 <1>   0.0800 
 40 H        6.1570    -1.2400    -0.3970 H     1 <1>   0.0800 
 41 H        6.3550    -4.7990    -1.2710 H     1 <1>   0.0800 
 42 H        4.6600    -5.1640    -1.2080 H     1 <1>   0.0800 
 43 H        5.5590    -4.8560     0.2710 H     1 <1>   0.0800 
 44 H        1.1830    -4.3450    -0.3160 H     1 <1>   0.4500 
 45 H        1.5500    -5.7540    -1.8950 H     1 <1>   0.0800 
 46 H        2.8740    -6.3760    -0.9760 H     1 <1>   0.0800 
 47 H        0.7380    -6.4270     1.7090 H     1 <1>   0.0800 
 48 H        0.0870    -4.8090     1.6820 H     1 <1>   0.0800 
 49 H       -1.2230    -5.3090    -0.2790 H     1 <1>   0.0800 
 50 H       -1.5650    -6.4820     0.9460 H     1 <1>   0.0800 
 51 H       -0.8160    -6.9630    -1.7130 H     1 <1>   0.0800 
 52 H        2.3800    -8.4740    -2.3700 H     1 <1>   0.0800 
 53 H        0.9740    -7.6790    -3.0330 H     1 <1>   0.0800 
 54 H        0.9260    -8.4230     1.1420 H     1 <1>   0.0800 
 55 H        1.6520    -9.4870     0.0300 H     1 <1>   0.0800 
 56 H       -2.0980    -8.2740    -0.4310 H     1 <1>   0.4000 
 57 H       -0.1350    -9.4540    -1.6940 H     1 <1>   0.4000 
 58 H        2.2910    -7.5800     2.8200 H     1 <1>   0.1500 
 59 H        4.0610    -8.5870    -0.9420 H     1 <1>   0.1500 
 60 H        4.4890    -6.9190     3.6640 H     1 <1>   0.1500 
 61 H        6.2450    -7.9180    -0.0820 H     1 <1>   0.1500 
 62 H        6.4670    -7.0720     2.2140 H     1 <1>   0.1500 
@<TRIPOS>BOND
  1   1   2  2   
  2   2   3  am  
  3   2   4  1   
  4   3  30  1   
  5   3  31  1   
  6   4   5  1   
  7   4   6  2   
  8   5   7  1   
  9   6   8  1   
 10   6  32  1   
 11   7   8  2   
 12   7   9  1   
 13   8  10  1   
 14   9  11  1   
 15   9  12  1   
 16   9  13  1   
 17  10  14  1   
 18  10  33  1   
 19  10  34  1   
 20  11  35  1   
 21  11  36  1   
 22  11  37  1   
 23  12  38  1   
 24  12  39  1   
 25  12  40  1   
 26  13  41  1   
 27  13  42  1   
 28  13  43  1   
 29  14  15  1   
 30  14  16  1   
 31  14  44  1   
 32  15  17  1   
 33  15  45  1   
 34  15  46  1   
 35  16  18  1   
 36  16  47  1   
 37  16  48  1   
 38  17  19  1   
 39  17  20  1   
 40  17  21  1   
 41  18  19  1   
 42  18  49  1   
 43  18  50  1   
 44  19  22  1   
 45  19  51  1   
 46  20  23  1   
 47  20  52  1   
 48  20  53  1   
 49  21  24  1   
 50  21  54  1   
 51  21  55  1   
 52  22  56  1   
 53  23  57  1   
 54  24  25  ar  
 55  24  26  ar  
 56  25  27  ar  
 57  25  58  1   
 58  26  28  ar  
 59  26  59  1   
 60  27  29  ar  
 61  27  60  1   
 62  28  29  ar  
 63  28  61  1   
 64  29  62  1   
@<TRIPOS>SUBSTRUCTURE
  1 ****  10 GROUP 4 **** **** 0

# MOE 2024.06 (io_trps.svl 2023.06)
