@<TRIPOS>MOLECULE
NONAME
38 39 1 0 0 
SMALL
USER_CHARGES


@<TRIPOS>ATOM
  1 O       -0.4260     0.7280     0.7610 O.2   1 <1>  -0.5700 
  2 C       -0.3400     1.8890     0.4520 C.2   1 <1>   0.5690 
  3 N       -1.1620     2.8110     0.9990 N.am  1 <1>  -0.7300 
  4 C        0.6900     2.3330    -0.5910 C.3   1 <1>   0.1810 
  5 C       -1.1310     4.2520     0.6510 C.3   1 <1>   0.3640 
  6 O        0.9620     3.7160    -0.5300 O.3   1 <1>  -0.5600 
  7 C       -2.5540     4.7300     0.3780 C.ar  1 <1>  -0.1440 
  8 C       -0.1970     4.5410    -0.5500 C.3   1 <1>   0.2610 
  9 C       -3.4350     3.9790    -0.3910 C.ar  1 <1>  -0.1500 
 10 C       -2.9820     5.9430     0.8980 C.ar  1 <1>  -0.1500 
 11 C        0.1550     6.0350    -0.5810 C.2   1 <1>   0.5690 
 12 C       -4.7200     4.4310    -0.6300 C.ar  1 <1>  -0.1500 
 13 C       -4.2680     6.3960     0.6600 C.ar  1 <1>  -0.1500 
 14 O       -0.3700     6.6960    -1.4490 O.2   1 <1>  -0.5700 
 15 N        1.0080     6.6300     0.3280 N.am  1 <1>  -0.6600 
 16 C       -5.1380     5.6400    -0.1040 C.ar  1 <1>  -0.1500 
 17 C        1.2830     8.0940     0.2350 C.3   1 <1>   0.1400 
 18 C        1.8610     5.9090     1.3210 C.3   1 <1>   0.0600 
 19 C        2.3800     8.3650    -0.7990 C.3   1 <1>   0.1200 
 20 O        2.6010     9.7310    -0.8860 O.3   1 <1>  -0.6800 
 21 H       -1.8800     2.5050     1.6580 H     1 <1>   0.3700 
 22 H        0.3290     2.1000    -1.5760 H     1 <1>   0.0800 
 23 H        1.6140     1.8090    -0.4260 H     1 <1>   0.0800 
 24 H       -0.7590     4.7830     1.5090 H     1 <1>   0.0800 
 25 H       -0.7260     4.3170    -1.4590 H     1 <1>   0.0800 
 26 H       -3.1280     3.0360    -0.8100 H     1 <1>   0.1500 
 27 H       -2.3180     6.5500     1.4900 H     1 <1>   0.1500 
 28 H       -5.3960     3.8430    -1.2260 H     1 <1>   0.1500 
 29 H       -4.5900     7.3390     1.0650 H     1 <1>   0.1500 
 30 H       -6.1380     5.9930    -0.2900 H     1 <1>   0.1500 
 31 H        0.3820     8.6060    -0.0580 H     1 <1>   0.0800 
 32 H        1.5900     8.4700     1.1950 H     1 <1>   0.0800 
 33 H        1.8920     6.4580     2.2460 H     1 <1>   0.0800 
 34 H        2.8610     5.8170     0.9350 H     1 <1>   0.0800 
 35 H        1.4850     4.9250     1.5300 H     1 <1>   0.0800 
 36 H        2.0880     8.0060    -1.7720 H     1 <1>   0.0800 
 37 H        3.3030     7.9000    -0.5010 H     1 <1>   0.0800 
 38 H        1.8490    10.1690    -1.3320 H     1 <1>   0.4000 
@<TRIPOS>BOND
  1   1   2  2   
  2   2   3  am  
  3   2   4  1   
  4   3   5  1   
  5   3  21  1   
  6   4   6  1   
  7   4  22  1   
  8   4  23  1   
  9   5   7  1   
 10   5   8  1   
 11   5  24  1   
 12   6   8  1   
 13   7   9  ar  
 14   7  10  ar  
 15   8  11  1   
 16   8  25  1   
 17   9  12  ar  
 18   9  26  1   
 19  10  13  ar  
 20  10  27  1   
 21  11  14  2   
 22  11  15  am  
 23  12  16  ar  
 24  12  28  1   
 25  13  16  ar  
 26  13  29  1   
 27  15  17  1   
 28  15  18  1   
 29  16  30  1   
 30  17  19  1   
 31  17  31  1   
 32  17  32  1   
 33  18  33  1   
 34  18  34  1   
 35  18  35  1   
 36  19  20  1   
 37  19  36  1   
 38  19  37  1   
 39  20  38  1   
@<TRIPOS>SUBSTRUCTURE
  1 ****   8 GROUP 4 **** **** 0

# MOE 2024.06 (io_trps.svl 2023.06)
