@<TRIPOS>MOLECULE
NONAME
48 50 1 0 0 
SMALL
USER_CHARGES


@<TRIPOS>ATOM
  1 O        2.0000    -0.6170     1.6480 O.2   1 <1>  -0.5700 
  2 C        1.6010    -1.4260     0.8270 C.2   1 <1>   0.5440 
  3 N        2.0380    -1.2660    -0.4770 N.am  1 <1>  -0.6600 
  4 C        0.7290    -2.5140     1.2780 C.ar  1 <1>   0.3960 
  5 C        1.7850    -2.1940    -1.6040 C.3   1 <1>   0.1400 
  6 C        2.9970    -0.2110    -0.8750 C.3   1 <1>   0.1400 
  7 N       -0.1900    -3.0610     0.4610 N.ar  1 <1>  -0.6200 
  8 C        0.8860    -2.9650     2.5940 C.ar  1 <1>   0.1600 
  9 C        2.5540    -1.6120    -2.7860 C.3   1 <1>  -0.1600 
 10 C        3.6290    -0.7280    -2.1600 C.3   1 <1>  -0.1600 
 11 C       -0.8740    -4.0400     1.0110 C.ar  1 <1>   0.4100 
 12 N        0.1940    -3.9410     3.1680 N.ar  1 <1>  -0.6200 
 13 N       -1.7900    -4.6030     0.1590 N.pl3 1 <1>  -0.8690 
 14 C       -0.6890    -4.4540     2.3380 C.ar  1 <1>   0.1600 
 15 C       -1.5840    -5.9500    -0.4330 C.3   1 <1>   0.2890 
 16 C       -1.7610    -7.0480     0.6220 C.3   1 <1>   0.0960 
 17 C       -0.2220    -5.9920    -1.1320 C.3   1 <1>  -0.2400 
 18 N       -1.9140    -8.3600    -0.0260 N.pl3 1 <1>   0.3140 
 19 N       -0.8570    -9.1700    -0.2130 N.2   1 <1>  -0.7070 
 20 C       -3.0500    -8.9150    -0.5090 C.2   1 <1>  -0.3320 
 21 C       -1.3360   -10.2150    -0.8070 C.2   1 <1>   0.1080 
 22 C       -2.7050   -10.1150    -1.0200 C.2   1 <1>  -0.1500 
 23 C       -4.4310    -8.2830    -0.4590 C.3   1 <1>  -0.0600 
 24 C       -0.4710   -11.3880    -1.2030 C.3   1 <1>  -0.0590 
 25 H        0.7330    -2.2510    -1.8260 H     1 <1>   0.0800 
 26 H        2.1580    -3.1720    -1.3520 H     1 <1>   0.0800 
 27 H        3.7360    -0.0440    -0.1090 H     1 <1>   0.0800 
 28 H        2.4550     0.7010    -1.0580 H     1 <1>   0.0800 
 29 H        1.6310    -2.4850     3.2040 H     1 <1>   0.1500 
 30 H        1.8850    -1.0080    -3.3730 H     1 <1>   0.0800 
 31 H        2.9690    -2.3820    -3.4110 H     1 <1>   0.0800 
 32 H        4.4920    -1.3210    -1.9090 H     1 <1>   0.0800 
 33 H        3.9320     0.0750    -2.8080 H     1 <1>   0.0800 
 34 H       -1.9680    -3.9310    -0.5940 H     1 <1>   0.4000 
 35 H       -1.3170    -5.2410     2.7100 H     1 <1>   0.1500 
 36 H       -2.3490    -6.0850    -1.1800 H     1 <1>   0.0800 
 37 H       -2.6380    -6.8580     1.2080 H     1 <1>   0.0800 
 38 H       -0.9020    -7.0920     1.2650 H     1 <1>   0.0800 
 39 H        0.5780    -5.9370    -0.4160 H     1 <1>   0.0800 
 40 H       -0.1340    -5.1800    -1.8300 H     1 <1>   0.0800 
 41 H       -0.1170    -6.9140    -1.6760 H     1 <1>   0.0800 
 42 H       -3.3270   -10.8540    -1.4920 H     1 <1>   0.1500 
 43 H       -4.4400    -7.3520    -0.9960 H     1 <1>   0.0800 
 44 H       -4.7240    -8.1050     0.5600 H     1 <1>   0.0800 
 45 H       -5.1530    -8.9410    -0.9090 H     1 <1>   0.0800 
 46 H        0.2770   -11.0600    -1.9010 H     1 <1>   0.0800 
 47 H       -1.0660   -12.1590    -1.6560 H     1 <1>   0.0800 
 48 H        0.0150   -11.7820    -0.3310 H     1 <1>   0.0800 
@<TRIPOS>BOND
  1   1   2  2   
  2   2   3  am  
  3   2   4  1   
  4   3   5  1   
  5   3   6  1   
  6   4   7  ar  
  7   4   8  ar  
  8   5   9  1   
  9   5  25  1   
 10   5  26  1   
 11   6  10  1   
 12   6  27  1   
 13   6  28  1   
 14   7  11  ar  
 15   8  12  ar  
 16   8  29  1   
 17   9  10  1   
 18   9  30  1   
 19   9  31  1   
 20  10  32  1   
 21  10  33  1   
 22  11  13  1   
 23  11  14  ar  
 24  12  14  ar  
 25  13  15  1   
 26  13  34  1   
 27  14  35  1   
 28  15  16  1   
 29  15  17  1   
 30  15  36  1   
 31  16  18  1   
 32  16  37  1   
 33  16  38  1   
 34  17  39  1   
 35  17  40  1   
 36  17  41  1   
 37  18  19  1   
 38  18  20  1   
 39  19  21  2   
 40  20  22  2   
 41  20  23  1   
 42  21  22  1   
 43  21  24  1   
 44  22  42  1   
 45  23  43  1   
 46  23  44  1   
 47  23  45  1   
 48  24  46  1   
 49  24  47  1   
 50  24  48  1   
@<TRIPOS>SUBSTRUCTURE
  1 ****  11 GROUP 4 **** **** 0

# MOE 2024.06 (io_trps.svl 2023.06)
