@<TRIPOS>MOLECULE
NONAME
47 49 1 0 0 
SMALL
USER_CHARGES


@<TRIPOS>ATOM
  1 O       -2.5200     1.5720    -1.1730 O.2   1 <1>  -0.5700 
  2 C       -1.8220     1.0200    -0.3540 C.2   1 <1>   0.5690 
  3 N       -1.9320    -0.3180    -0.1490 N.am  1 <1>  -0.7300 
  4 C       -0.8050     1.8510     0.4680 C.3   1 <1>   0.0610 
  5 C       -2.8640    -1.2170    -0.8600 C.3   1 <1>   0.2200 
  6 C       -0.0060     0.9950     1.4760 C.3   1 <1>  -0.2400 
  7 C       -1.5460     2.9440     1.2610 C.3   1 <1>  -0.2400 
  8 C        0.2020     2.5290    -0.4800 C.3   1 <1>  -0.2400 
  9 C       -3.9840    -1.6210     0.0890 C.3   1 <1>  -0.0800 
 10 C       -2.1770    -2.5500    -1.1200 C.3   1 <1>   0.1200 
 11 C       -3.4030    -2.8580     0.7930 C.3   1 <1>   0.1200 
 12 C       -5.2790    -1.9490    -0.6820 C.3   1 <1>  -0.0170 
 13 O       -2.2630    -3.2470     0.0830 O.3   1 <1>  -0.5600 
 14 C       -6.4860    -2.3680     0.1690 C.ar  1 <1>  -0.1440 
 15 C       -7.6330    -2.9200    -0.4550 C.ar  1 <1>   0.0000 
 16 C       -6.5280    -2.2300     1.5290 C.ar  1 <1>  -0.1500 
 17 C       -8.7140    -3.3160     0.3720 C.ar  1 <1>   0.3100 
 18 C       -7.7770    -3.0960    -1.8520 C.ar  1 <1>  -0.1500 
 19 C       -7.6530    -2.6450     2.2510 C.ar  1 <1>   0.1600 
 20 N       -8.7070    -3.1730     1.7200 N.ar  1 <1>  -0.6200 
 21 C       -9.8550    -3.8810    -0.2200 C.ar  1 <1>  -0.1500 
 22 C       -8.9040    -3.6460    -2.3980 C.ar  1 <1>  -0.1500 
 23 C       -9.9580    -4.0480    -1.5740 C.ar  1 <1>  -0.1500 
 24 H       -1.3420    -0.7820     0.5430 H     1 <1>   0.3700 
 25 H       -3.2160    -0.7540    -1.7670 H     1 <1>   0.0800 
 26 H        0.6860     1.6090     2.0250 H     1 <1>   0.0800 
 27 H        0.5580     0.2350     0.9640 H     1 <1>   0.0800 
 28 H       -0.6670     0.5240     2.1820 H     1 <1>   0.0800 
 29 H       -0.8570     3.5400     1.8320 H     1 <1>   0.0800 
 30 H       -2.2580     2.4990     1.9330 H     1 <1>   0.0800 
 31 H       -2.0800     3.5930     0.5890 H     1 <1>   0.0800 
 32 H        0.9100     3.1220     0.0700 H     1 <1>   0.0800 
 33 H       -0.3150     3.1700    -1.1730 H     1 <1>   0.0800 
 34 H        0.7380     1.7880    -1.0460 H     1 <1>   0.0800 
 35 H       -4.1850    -0.8250     0.7830 H     1 <1>   0.0800 
 36 H       -1.1450    -2.4390    -1.4030 H     1 <1>   0.0800 
 37 H       -2.7040    -3.1160    -1.8680 H     1 <1>   0.0800 
 38 H       -4.0930    -3.6840     0.8090 H     1 <1>   0.0800 
 39 H       -3.0970    -2.6250     1.7980 H     1 <1>   0.0800 
 40 H       -5.0600    -2.7440    -1.3730 H     1 <1>   0.0800 
 41 H       -5.5660    -1.0840    -1.2560 H     1 <1>   0.0800 
 42 H       -5.7230    -1.8070     2.0960 H     1 <1>   0.1500 
 43 H       -6.9870    -2.7880    -2.5100 H     1 <1>   0.1500 
 44 H       -7.6370    -2.5180     3.3210 H     1 <1>   0.1500 
 45 H      -10.6540    -4.1790     0.4340 H     1 <1>   0.1500 
 46 H       -8.9960    -3.7750    -3.4630 H     1 <1>   0.1500 
 47 H      -10.8390    -4.4830    -2.0140 H     1 <1>   0.1500 
@<TRIPOS>BOND
  1   1   2  2   
  2   2   3  am  
  3   2   4  1   
  4   3   5  1   
  5   3  24  1   
  6   4   6  1   
  7   4   7  1   
  8   4   8  1   
  9   5   9  1   
 10   5  10  1   
 11   5  25  1   
 12   6  26  1   
 13   6  27  1   
 14   6  28  1   
 15   7  29  1   
 16   7  30  1   
 17   7  31  1   
 18   8  32  1   
 19   8  33  1   
 20   8  34  1   
 21   9  11  1   
 22   9  12  1   
 23   9  35  1   
 24  10  13  1   
 25  10  36  1   
 26  10  37  1   
 27  11  13  1   
 28  11  38  1   
 29  11  39  1   
 30  12  14  1   
 31  12  40  1   
 32  12  41  1   
 33  14  15  ar  
 34  14  16  ar  
 35  15  17  ar  
 36  15  18  ar  
 37  16  19  ar  
 38  16  42  1   
 39  17  20  ar  
 40  17  21  ar  
 41  18  22  ar  
 42  18  43  1   
 43  19  20  ar  
 44  19  44  1   
 45  21  23  ar  
 46  21  45  1   
 47  22  23  ar  
 48  22  46  1   
 49  23  47  1   
@<TRIPOS>SUBSTRUCTURE
  1 ****   9 GROUP 4 **** **** 0

# MOE 2024.06 (io_trps.svl 2023.06)
