@<TRIPOS>MOLECULE
NONAME
55 58 1 0 0 
SMALL
USER_CHARGES


@<TRIPOS>ATOM
  1 O       -1.2110     0.4510     2.3380 O.2   1 <1>  -0.5700 
  2 C       -1.0580     1.0430     1.2970 C.2   1 <1>   0.5690 
  3 N       -2.0400     1.4210     0.4490 N.am  1 <1>  -0.6600 
  4 C        0.2890     1.4450     0.7670 C.3   1 <1>  -0.0990 
  5 C       -1.5330     2.1070    -0.7500 C.3   1 <1>   0.1400 
  6 C       -3.4810     1.1720     0.6510 C.3   1 <1>   0.1400 
  7 C       -0.0440     2.3320    -0.4460 C.3   1 <1>  -0.1600 
  8 C       -3.8990    -0.0590    -0.1530 C.3   1 <1>  -0.1600 
  9 C       -5.3640    -0.4340     0.1190 C.3   1 <1>  -0.0990 
 10 C       -5.7900    -1.6450    -0.6840 C.2   1 <1>   0.5690 
 11 O       -6.5080    -1.4980    -1.6420 O.2   1 <1>  -0.5700 
 12 N       -5.3540    -2.8670    -0.2970 N.am  1 <1>  -0.7300 
 13 C       -5.6890    -4.1280    -0.9940 C.3   1 <1>   0.2200 
 14 C       -6.8970    -4.7590    -0.3250 C.3   1 <1>  -0.0800 
 15 C       -4.6060    -5.1730    -0.7460 C.3   1 <1>   0.1200 
 16 C       -6.2540    -5.5290     0.8310 C.3   1 <1>   0.1200 
 17 C       -7.6580    -5.6850    -1.2940 C.3   1 <1>  -0.0170 
 18 O       -4.9390    -5.8160     0.4500 O.3   1 <1>  -0.5600 
 19 C       -8.9330    -6.2310    -0.6600 C.ar  1 <1>  -0.1440 
 20 C      -10.0970    -5.4410    -0.5010 C.ar  1 <1>   0.0000 
 21 C       -8.9810    -7.5220    -0.2210 C.ar  1 <1>  -0.1500 
 22 C      -11.2200    -6.0440     0.1180 C.ar  1 <1>   0.3100 
 23 C      -10.2160    -4.0950    -0.9200 C.ar  1 <1>  -0.1500 
 24 C      -10.1460    -8.0220     0.3730 C.ar  1 <1>   0.1600 
 25 N      -11.2280    -7.3310     0.5490 N.ar  1 <1>  -0.6200 
 26 C      -12.3860    -5.2830     0.2990 C.ar  1 <1>  -0.1500 
 27 C      -11.3680    -3.3830    -0.7300 C.ar  1 <1>  -0.1500 
 28 C      -12.4680    -3.9810    -0.1120 C.ar  1 <1>  -0.1500 
 29 H        0.8450     1.9790     1.5160 H     1 <1>   0.0800 
 30 H        0.8230     0.5620     0.4700 H     1 <1>   0.0800 
 31 H       -1.6590     1.4710    -1.6100 H     1 <1>   0.0800 
 32 H       -2.0480     3.0410    -0.9030 H     1 <1>   0.0800 
 33 H       -3.6620     1.0000     1.7000 H     1 <1>   0.0800 
 34 H       -4.0450     2.0370     0.3460 H     1 <1>   0.0800 
 35 H        0.5690     2.0950    -1.2980 H     1 <1>   0.0800 
 36 H        0.1060     3.3660    -0.1900 H     1 <1>   0.0800 
 37 H       -3.7750     0.1380    -1.2040 H     1 <1>   0.0800 
 38 H       -3.2650    -0.8850     0.1190 H     1 <1>   0.0800 
 39 H       -6.0040     0.3900    -0.1430 H     1 <1>   0.0800 
 40 H       -5.5040    -0.6450     1.1640 H     1 <1>   0.0800 
 41 H       -4.7840    -2.9760     0.5450 H     1 <1>   0.3700 
 42 H       -5.8370    -3.9380    -2.0440 H     1 <1>   0.0800 
 43 H       -7.5690    -4.0080     0.0480 H     1 <1>   0.0800 
 44 H       -3.6240    -4.7420    -0.6640 H     1 <1>   0.0800 
 45 H       -4.6120    -5.9150    -1.5240 H     1 <1>   0.0800 
 46 H       -6.7620    -6.4480     1.0640 H     1 <1>   0.0800 
 47 H       -6.2070    -4.9140     1.7130 H     1 <1>   0.0800 
 48 H       -7.0240    -6.5020    -1.5900 H     1 <1>   0.0800 
 49 H       -7.9150    -5.1490    -2.1910 H     1 <1>   0.0800 
 50 H       -8.1380    -8.1820    -0.3140 H     1 <1>   0.1500 
 51 H       -9.3850    -3.6120    -1.4010 H     1 <1>   0.1500 
 52 H      -10.1410    -9.0460     0.7060 H     1 <1>   0.1500 
 53 H      -13.2200    -5.7650     0.7750 H     1 <1>   0.1500 
 54 H      -11.4420    -2.3580    -1.0530 H     1 <1>   0.1500 
 55 H      -13.3690    -3.4100     0.0330 H     1 <1>   0.1500 
@<TRIPOS>BOND
  1   1   2  2   
  2   2   3  am  
  3   2   4  1   
  4   3   5  1   
  5   3   6  1   
  6   4   7  1   
  7   4  29  1   
  8   4  30  1   
  9   5   7  1   
 10   5  31  1   
 11   5  32  1   
 12   6   8  1   
 13   6  33  1   
 14   6  34  1   
 15   7  35  1   
 16   7  36  1   
 17   8   9  1   
 18   8  37  1   
 19   8  38  1   
 20   9  10  1   
 21   9  39  1   
 22   9  40  1   
 23  10  11  2   
 24  10  12  am  
 25  12  13  1   
 26  12  41  1   
 27  13  14  1   
 28  13  15  1   
 29  13  42  1   
 30  14  16  1   
 31  14  17  1   
 32  14  43  1   
 33  15  18  1   
 34  15  44  1   
 35  15  45  1   
 36  16  18  1   
 37  16  46  1   
 38  16  47  1   
 39  17  19  1   
 40  17  48  1   
 41  17  49  1   
 42  19  20  ar  
 43  19  21  ar  
 44  20  22  ar  
 45  20  23  ar  
 46  21  24  ar  
 47  21  50  1   
 48  22  25  ar  
 49  22  26  ar  
 50  23  27  ar  
 51  23  51  1   
 52  24  25  ar  
 53  24  52  1   
 54  26  28  ar  
 55  26  53  1   
 56  27  28  ar  
 57  27  54  1   
 58  28  55  1   
@<TRIPOS>SUBSTRUCTURE
  1 ****  12 GROUP 4 **** **** 0

# MOE 2024.06 (io_trps.svl 2023.06)
