@<TRIPOS>MOLECULE
NONAME
45 46 1 0 0 
SMALL
USER_CHARGES


@<TRIPOS>ATOM
  1 CL      -0.4630    -2.7780     3.3150 Cl    1 <1>  -0.1770 
  2 C       -1.6280    -2.5890     2.0300 C.ar  1 <1>   0.1770 
  3 C       -2.4040    -3.6670     1.6540 C.ar  1 <1>  -0.1500 
  4 C       -1.7530    -1.3600     1.4080 C.ar  1 <1>  -0.1500 
  5 C       -3.3290    -3.5200     0.6330 C.ar  1 <1>   0.0830 
  6 C       -2.6770    -1.2100     0.3870 C.ar  1 <1>  -0.1500 
  7 O       -4.0590    -4.6170     0.3110 O.3   1 <1>  -0.3630 
  8 C       -3.4630    -2.2850     0.0000 C.ar  1 <1>  -0.1500 
  9 C       -5.0280    -4.5780    -0.7300 C.3   1 <1>   0.1810 
 10 C       -5.7070    -5.9290    -0.9210 C.2   1 <1>   0.5690 
 11 O       -6.6350    -6.0060    -1.6900 O.2   1 <1>  -0.5700 
 12 N       -5.2750    -7.0130    -0.2270 N.am  1 <1>  -0.7300 
 13 C       -5.8350    -8.3760    -0.3490 C.3   1 <1>   0.2200 
 14 C       -7.0410    -8.5170     0.5830 C.3   1 <1>  -0.0800 
 15 C       -4.8550    -9.4180     0.1870 C.3   1 <1>   0.1200 
 16 C       -6.6090    -9.5960     1.5840 C.3   1 <1>   0.1200 
 17 C       -8.3740    -8.7490    -0.1660 C.3   1 <1>  -0.0550 
 18 O       -5.2220    -9.6140     1.5140 O.3   1 <1>  -0.5600 
 19 S       -8.5840   -10.3150    -1.0300 S.o2  1 <1>   1.3330 
 20 O       -7.3060   -10.7410    -1.5560 O.2   1 <1>  -0.6500 
 21 O       -9.7200   -10.2130    -1.9170 O.2   1 <1>  -0.6500 
 22 N       -9.0240   -11.3930     0.2080 N.am  1 <1>  -0.8490 
 23 C       -8.6230   -12.7730    -0.0890 C.3   1 <1>   0.1160 
 24 C      -10.4540   -11.3550     0.5350 C.3   1 <1>   0.1160 
 25 H       -2.2900    -4.6130     2.1510 H     1 <1>   0.1500 
 26 H       -1.1360    -0.5370     1.7210 H     1 <1>   0.1500 
 27 H       -2.7840    -0.2580    -0.1040 H     1 <1>   0.1500 
 28 H       -4.1700    -2.1350    -0.7940 H     1 <1>   0.1500 
 29 H       -5.7700    -3.8440    -0.4760 H     1 <1>   0.0800 
 30 H       -4.5350    -4.3020    -1.6440 H     1 <1>   0.0800 
 31 H       -4.5560    -6.8860     0.4920 H     1 <1>   0.3700 
 32 H       -6.0700    -8.5740    -1.3820 H     1 <1>   0.0800 
 33 H       -7.1560    -7.6060     1.1440 H     1 <1>   0.0800 
 34 H       -3.8290    -9.0990     0.1350 H     1 <1>   0.0800 
 35 H       -4.9770   -10.3540    -0.3310 H     1 <1>   0.0800 
 36 H       -6.9510   -10.5780     1.3180 H     1 <1>   0.0800 
 37 H       -6.9080    -9.3670     2.5920 H     1 <1>   0.0800 
 38 H       -8.4700    -7.9590    -0.8860 H     1 <1>   0.0800 
 39 H       -9.1810    -8.6300     0.5290 H     1 <1>   0.0800 
 40 H       -8.9090   -13.4270     0.7160 H     1 <1>   0.0800 
 41 H       -7.5540   -12.8300    -0.2040 H     1 <1>   0.0800 
 42 H       -9.0870   -13.1080    -1.0020 H     1 <1>   0.0800 
 43 H      -10.6560   -11.9830     1.3860 H     1 <1>   0.0800 
 44 H      -11.0420   -11.6990    -0.3010 H     1 <1>   0.0800 
 45 H      -10.7550   -10.3500     0.7770 H     1 <1>   0.0800 
@<TRIPOS>BOND
  1   1   2  1   
  2   2   3  ar  
  3   2   4  ar  
  4   3   5  ar  
  5   3  25  1   
  6   4   6  ar  
  7   4  26  1   
  8   5   7  1   
  9   5   8  ar  
 10   6   8  ar  
 11   6  27  1   
 12   7   9  1   
 13   8  28  1   
 14   9  10  1   
 15   9  29  1   
 16   9  30  1   
 17  10  11  2   
 18  10  12  am  
 19  12  13  1   
 20  12  31  1   
 21  13  14  1   
 22  13  15  1   
 23  13  32  1   
 24  14  16  1   
 25  14  17  1   
 26  14  33  1   
 27  15  18  1   
 28  15  34  1   
 29  15  35  1   
 30  16  18  1   
 31  16  36  1   
 32  16  37  1   
 33  17  19  1   
 34  17  38  1   
 35  17  39  1   
 36  19  20  2   
 37  19  21  2   
 38  19  22  am  
 39  22  23  1   
 40  22  24  1   
 41  23  40  1   
 42  23  41  1   
 43  23  42  1   
 44  24  43  1   
 45  24  44  1   
 46  24  45  1   
@<TRIPOS>SUBSTRUCTURE
  1 ****  12 GROUP 4 **** **** 0

# MOE 2024.06 (io_trps.svl 2023.06)
