@<TRIPOS>MOLECULE
NONAME
58 61 1 0 0 
SMALL
USER_CHARGES


@<TRIPOS>ATOM
  1 O       -0.3060    -0.5100    -0.2860 O.2   1 <1>  -0.5700 
  2 C       -1.2110     0.1650     0.1650 C.2   1 <1>   0.7160 
  3 N       -2.2920    -0.4740     0.6890 N.am  1 <1>  -0.7300 
  4 C       -1.1810     1.5960     0.1280 C.2   1 <1>  -0.0860 
  5 C       -2.6450    -1.9040     0.5290 C.3   1 <1>   0.1400 
  6 C       -2.2940     2.4390     0.2580 C.2   1 <1>   0.3720 
  7 C       -0.1530     2.4700    -0.0660 C.2   1 <1>   0.0870 
  8 C       -3.9130    -2.0770    -0.3440 C.3   1 <1>   0.0000 
  9 N       -1.9620     3.6750     0.1390 N.2   1 <1>  -0.4100 
 10 N       -3.6170     2.0160     0.4660 N.pl3 1 <1>  -0.8210 
 11 O       -0.6710     3.6730    -0.0550 O.3   1 <1>  -0.0190 
 12 C        1.2680     2.3190    -0.2520 C.ar  1 <1>   0.0530 
 13 C       -5.1450    -1.4840     0.3670 C.3   1 <1>  -0.1600 
 14 C       -4.2680    -3.5720    -0.4110 C.3   1 <1>  -0.1600 
 15 C       -3.6400    -1.4690    -1.7440 C.3   1 <1>   0.1200 
 16 C       -4.3090     2.6570     1.6210 C.3   1 <1>   0.2090 
 17 C       -4.4830     2.1600    -0.7400 C.3   1 <1>   0.2090 
 18 C        2.0070     1.3400     0.4130 C.ar  1 <1>  -0.1500 
 19 C        1.9670     3.1760    -1.1040 C.ar  1 <1>  -0.1500 
 20 C       -5.5880    -2.5410     1.3820 C.3   1 <1>  -0.1600 
 21 C       -5.0310    -3.8790     0.8820 C.3   1 <1>  -0.1600 
 22 O       -4.7600    -1.5270    -2.5650 O.3   1 <1>  -0.6800 
 23 C       -5.7520     2.8450     1.1800 C.3   1 <1>  -0.1600 
 24 C       -5.6500     3.0450    -0.3230 C.3   1 <1>  -0.1600 
 25 C        3.3720     1.2120     0.2340 C.ar  1 <1>  -0.1500 
 26 C        3.3310     3.0560    -1.2880 C.ar  1 <1>  -0.1500 
 27 C        4.0470     2.0750    -0.6230 C.ar  1 <1>   0.0830 
 28 O        5.3800     2.0190    -0.8570 O.3   1 <1>  -0.3620 
 29 C        6.1900     1.0290    -0.2650 C.3   1 <1>   0.0400 
 30 H       -3.0810     0.1580     0.8950 H     1 <1>   0.3700 
 31 H       -2.8010    -2.3280     1.5050 H     1 <1>   0.0800 
 32 H       -1.8200    -2.4290     0.0750 H     1 <1>   0.0800 
 33 H       -5.9450    -1.3430    -0.3390 H     1 <1>   0.0800 
 34 H       -4.9520    -0.5370     0.8380 H     1 <1>   0.0800 
 35 H       -3.4000    -4.1980    -0.5220 H     1 <1>   0.0800 
 36 H       -4.9290    -3.7600    -1.2370 H     1 <1>   0.0800 
 37 H       -2.8390    -1.9970    -2.2330 H     1 <1>   0.0800 
 38 H       -3.3610    -0.4340    -1.6650 H     1 <1>   0.0800 
 39 H       -3.8670     3.6140     1.8420 H     1 <1>   0.0800 
 40 H       -4.2470     2.0300     2.4940 H     1 <1>   0.0800 
 41 H       -4.8470     1.1890    -1.0300 H     1 <1>   0.0800 
 42 H       -3.9470     2.5940    -1.5690 H     1 <1>   0.0800 
 43 H        1.5040     0.6660     1.0830 H     1 <1>   0.1500 
 44 H        1.4300     3.9440    -1.6310 H     1 <1>   0.1500 
 45 H       -6.6610    -2.5680     1.4630 H     1 <1>   0.0800 
 46 H       -5.1750    -2.3160     2.3510 H     1 <1>   0.0800 
 47 H       -4.3620    -4.2900     1.6180 H     1 <1>   0.0800 
 48 H       -5.8210    -4.5880     0.7010 H     1 <1>   0.0800 
 49 H       -5.0620    -2.4500    -2.6580 H     1 <1>   0.4000 
 50 H       -6.2150     3.6800     1.6750 H     1 <1>   0.0800 
 51 H       -6.3070     1.9500     1.3980 H     1 <1>   0.0800 
 52 H       -6.5560     2.7810    -0.8390 H     1 <1>   0.0800 
 53 H       -5.4030     4.0690    -0.5420 H     1 <1>   0.0800 
 54 H        3.8910     0.4380     0.7670 H     1 <1>   0.1500 
 55 H        3.8540     3.7240    -1.9490 H     1 <1>   0.1500 
 56 H        7.1990     1.1750    -0.6070 H     1 <1>   0.0800 
 57 H        5.8360     0.0600    -0.5710 H     1 <1>   0.0800 
 58 H        6.1470     1.1360     0.8040 H     1 <1>   0.0800 
@<TRIPOS>BOND
  1   1   2  2   
  2   2   3  am  
  3   2   4  1   
  4   3   5  1   
  5   3  30  1   
  6   4   6  1   
  7   4   7  2   
  8   5   8  1   
  9   5  31  1   
 10   5  32  1   
 11   6   9  2   
 12   6  10  1   
 13   7  11  1   
 14   7  12  1   
 15   8  13  1   
 16   8  14  1   
 17   8  15  1   
 18   9  11  1   
 19  10  16  1   
 20  10  17  1   
 21  12  18  ar  
 22  12  19  ar  
 23  13  20  1   
 24  13  33  1   
 25  13  34  1   
 26  14  21  1   
 27  14  35  1   
 28  14  36  1   
 29  15  22  1   
 30  15  37  1   
 31  15  38  1   
 32  16  23  1   
 33  16  39  1   
 34  16  40  1   
 35  17  24  1   
 36  17  41  1   
 37  17  42  1   
 38  18  25  ar  
 39  18  43  1   
 40  19  26  ar  
 41  19  44  1   
 42  20  21  1   
 43  20  45  1   
 44  20  46  1   
 45  21  47  1   
 46  21  48  1   
 47  22  49  1   
 48  23  24  1   
 49  23  50  1   
 50  23  51  1   
 51  24  52  1   
 52  24  53  1   
 53  25  27  ar  
 54  25  54  1   
 55  26  27  ar  
 56  26  55  1   
 57  27  28  1   
 58  28  29  1   
 59  29  56  1   
 60  29  57  1   
 61  29  58  1   
@<TRIPOS>SUBSTRUCTURE
  1 ****   2 GROUP 4 **** **** 0

# MOE 2024.06 (io_trps.svl 2023.06)
