@<TRIPOS>MOLECULE
NONAME
49 52 1 0 0 
SMALL
USER_CHARGES


@<TRIPOS>ATOM
  1 O        3.0450     1.8870     2.0200 O.co2 1 <1>  -0.9000 
  2 C        2.3800     0.9840     1.4900 C.2   1 <1>   0.9060 
  3 O        1.9500     0.0380     2.1480 O.co2 1 <1>  -0.9000 
  4 C        2.3570     0.8630    -0.0400 C.3   1 <1>  -0.1060 
  5 C        3.2860    -0.3390    -0.3100 C.3   1 <1>   0.2000 
  6 C        2.9620     2.1210    -0.7450 C.3   1 <1>  -0.1600 
  7 C        0.9070     0.5970    -0.5250 C.3   1 <1>  -0.0160 
  8 O        3.4370    -0.5350    -1.6850 O.3   1 <1>  -0.6800 
  9 C        4.6870    -0.0830     0.3080 C.3   1 <1>   0.3430 
 10 C        4.5000     2.1400    -0.8030 C.3   1 <1>   0.3430 
 11 C        0.0010     1.8180    -0.4080 C.ar  1 <1>  -0.1440 
 12 N        5.0620     1.3770     0.3430 N.4   1 <1>  -0.9590 
 13 C       -0.3260     2.5650    -1.5310 C.ar  1 <1>  -0.1500 
 14 C       -0.5090     2.1940     0.8250 C.ar  1 <1>  -0.1500 
 15 C        6.5140     1.6010     0.6230 C.3   1 <1>   0.5240 
 16 C       -1.1460     3.6750    -1.4220 C.ar  1 <1>  -0.1500 
 17 C       -1.3280     3.3040     0.9370 C.ar  1 <1>  -0.1500 
 18 C        6.9190     3.0700     0.7910 C.2   1 <1>   0.3350 
 19 C       -1.6470     4.0460    -0.1870 C.ar  1 <1>  -0.1500 
 20 N        7.2090     3.6110     1.9050 N.2   1 <1>  -0.4100 
 21 N        7.0160     3.9020    -0.2420 N.2   1 <1>  -0.5650 
 22 O        7.5020     4.8530     1.6630 O.3   1 <1>  -0.0190 
 23 C        7.3670     4.9670     0.3640 C.2   1 <1>   0.3930 
 24 C        7.6290     6.3110    -0.3010 C.3   1 <1>  -0.0150 
 25 C        8.6740     7.2520     0.2170 C.3   1 <1>  -0.2000 
 26 C        7.2190     7.5960     0.3520 C.3   1 <1>  -0.2000 
 27 H        2.8750    -1.2450     0.1060 H     1 <1>   0.0800 
 28 H        2.6160     3.0110    -0.2460 H     1 <1>   0.0800 
 29 H        2.6070     2.1810    -1.7570 H     1 <1>   0.0800 
 30 H        0.9150     0.2800    -1.5510 H     1 <1>   0.0800 
 31 H        0.4750    -0.2070     0.0470 H     1 <1>   0.0800 
 32 H        2.5790    -0.7960    -2.0770 H     1 <1>   0.4000 
 33 H        5.4130    -0.6520    -0.2460 H     1 <1>   0.0800 
 34 H        4.6700    -0.4490     1.3230 H     1 <1>   0.0800 
 35 H        4.8330     3.1640    -0.7840 H     1 <1>   0.0800 
 36 H        4.8280     1.6870    -1.7240 H     1 <1>   0.0800 
 37 H        4.5210     1.7620     1.1650 H     1 <1>   0.4500 
 38 H        0.0550     2.2870    -2.4970 H     1 <1>   0.1500 
 39 H       -0.2680     1.6240     1.7080 H     1 <1>   0.1500 
 40 H        6.7750     1.0850     1.5310 H     1 <1>   0.0800 
 41 H        7.0980     1.1830    -0.1780 H     1 <1>   0.0800 
 42 H       -1.3940     4.2500    -2.2960 H     1 <1>   0.1500 
 43 H       -1.7110     3.5860     1.9010 H     1 <1>   0.1500 
 44 H       -2.2820     4.9090    -0.0980 H     1 <1>   0.1500 
 45 H        7.5150     6.2510    -1.3690 H     1 <1>   0.1000 
 46 H        9.2240     6.9920     1.1060 H     1 <1>   0.1000 
 47 H        9.2720     7.7980    -0.4910 H     1 <1>   0.1000 
 48 H        6.8130     8.3820    -0.2620 H     1 <1>   0.1000 
 49 H        6.7710     7.5660     1.3310 H     1 <1>   0.1000 
@<TRIPOS>BOND
  1   1   2  ar  
  2   2   3  ar  
  3   2   4  1   
  4   4   5  1   
  5   4   6  1   
  6   4   7  1   
  7   5   8  1   
  8   5   9  1   
  9   5  27  1   
 10   6  10  1   
 11   6  28  1   
 12   6  29  1   
 13   7  11  1   
 14   7  30  1   
 15   7  31  1   
 16   8  32  1   
 17   9  12  1   
 18   9  33  1   
 19   9  34  1   
 20  10  12  1   
 21  10  35  1   
 22  10  36  1   
 23  11  13  ar  
 24  11  14  ar  
 25  12  15  1   
 26  12  37  1   
 27  13  16  ar  
 28  13  38  1   
 29  14  17  ar  
 30  14  39  1   
 31  15  18  1   
 32  15  40  1   
 33  15  41  1   
 34  16  19  ar  
 35  16  42  1   
 36  17  19  ar  
 37  17  43  1   
 38  18  20  2   
 39  18  21  1   
 40  19  44  1   
 41  20  22  1   
 42  21  23  2   
 43  22  23  1   
 44  23  24  1   
 45  24  25  1   
 46  24  26  1   
 47  24  45  1   
 48  25  26  1   
 49  25  46  1   
 50  25  47  1   
 51  26  48  1   
 52  26  49  1   
@<TRIPOS>SUBSTRUCTURE
  1 ****   6 GROUP 4 **** **** 0

# MOE 2024.06 (io_trps.svl 2023.06)
