@<TRIPOS>MOLECULE
NONAME
52 54 1 0 0 
SMALL
USER_CHARGES


@<TRIPOS>ATOM
  1 F       -3.6130    -1.3930    -3.7080 F     1 <1>  -0.1900 
  2 C       -3.2290    -1.5910    -2.4750 C.ar  1 <1>   0.1900 
  3 C       -3.5290    -2.7950    -1.8710 C.ar  1 <1>  -0.1500 
  4 C       -2.5410    -0.5850    -1.8230 C.ar  1 <1>  -0.1500 
  5 C       -3.1310    -3.0020    -0.5610 C.ar  1 <1>   0.0830 
  6 C       -2.1380    -0.8000    -0.5150 C.ar  1 <1>  -0.1500 
  7 O       -3.4620    -4.1940    -0.0100 O.3   1 <1>  -0.3630 
  8 C       -2.4300    -2.0010     0.1140 C.ar  1 <1>  -0.1500 
  9 C       -3.2130    -4.4700     1.3620 C.3   1 <1>   0.1810 
 10 C       -3.7960    -5.8190     1.7870 C.2   1 <1>   0.5690 
 11 O       -3.0220    -6.5980     2.2950 O.2   1 <1>  -0.5700 
 12 N       -5.1340    -6.1300     1.6390 N.am  1 <1>  -0.6600 
 13 C       -6.1330    -5.1720     1.0740 C.3   1 <1>   0.2200 
 14 C       -5.6110    -7.4960     2.0230 C.3   1 <1>   0.0600 
 15 C       -7.4630    -5.1110     1.8270 C.3   1 <1>  -0.1600 
 16 C       -6.5230    -5.5160    -0.3610 C.3   1 <1>  -0.1600 
 17 C       -8.4430    -4.5120     0.8070 C.3   1 <1>  -0.0800 
 18 C       -7.8500    -4.7780    -0.5810 C.3   1 <1>  -0.0800 
 19 C       -9.8460    -5.1400     0.7910 C.3   1 <1>  -0.1600 
 20 C       -8.9200    -5.5660    -1.3500 C.3   1 <1>  -0.1600 
 21 C      -10.2510    -5.1990    -0.6860 C.3   1 <1>   0.4230 
 22 N      -10.7350    -3.8600    -1.1570 N.4   1 <1>  -0.9590 
 23 C      -11.9750    -3.4100    -0.4450 C.3   1 <1>   0.2630 
 24 C      -10.9970    -3.8220    -2.6330 C.3   1 <1>   0.2630 
 25 H       -4.0580    -3.5580    -2.4090 H     1 <1>   0.1500 
 26 H       -2.3250     0.3380    -2.3300 H     1 <1>   0.1500 
 27 H       -1.5970    -0.0320     0.0120 H     1 <1>   0.1500 
 28 H       -2.0990    -2.1370     1.1270 H     1 <1>   0.1500 
 29 H       -2.1490    -4.4830     1.5100 H     1 <1>   0.0800 
 30 H       -3.6520    -3.6920     1.9570 H     1 <1>   0.0800 
 31 H       -5.7300    -4.1740     1.0750 H     1 <1>   0.0800 
 32 H       -6.3610    -7.8460     1.3390 H     1 <1>   0.0800 
 33 H       -6.0200    -7.4690     3.0180 H     1 <1>   0.0800 
 34 H       -4.7960    -8.2010     2.0100 H     1 <1>   0.0800 
 35 H       -7.7860    -6.0950     2.1110 H     1 <1>   0.0800 
 36 H       -7.3830    -4.4980     2.7070 H     1 <1>   0.0800 
 37 H       -5.7700    -5.1880    -1.0560 H     1 <1>   0.0800 
 38 H       -6.6520    -6.5770    -0.4610 H     1 <1>   0.0800 
 39 H       -8.5110    -3.4470     0.9590 H     1 <1>   0.0800 
 40 H       -7.6580    -3.8340    -1.0660 H     1 <1>   0.0800 
 41 H      -10.5340    -4.6210     1.4310 H     1 <1>   0.0800 
 42 H       -9.7880    -6.1560     1.1430 H     1 <1>   0.0800 
 43 H       -8.7680    -6.6200    -1.1950 H     1 <1>   0.0800 
 44 H       -8.8750    -5.3920    -2.4090 H     1 <1>   0.0800 
 45 H      -11.0020    -5.9540    -0.8610 H     1 <1>   0.0800 
 46 H       -9.9770    -3.1950    -0.9450 H     1 <1>   0.4500 
 47 H      -12.7640    -4.1340    -0.5740 H     1 <1>   0.0800 
 48 H      -12.3090    -2.4640    -0.8400 H     1 <1>   0.0800 
 49 H      -11.7890    -3.2850     0.6080 H     1 <1>   0.0800 
 50 H      -11.7150    -4.5780    -2.9050 H     1 <1>   0.0800 
 51 H      -10.0890    -3.9920    -3.1870 H     1 <1>   0.0800 
 52 H      -11.3860    -2.8580    -2.9170 H     1 <1>   0.0800 
@<TRIPOS>BOND
  1   1   2  1   
  2   2   3  ar  
  3   2   4  ar  
  4   3   5  ar  
  5   3  25  1   
  6   4   6  ar  
  7   4  26  1   
  8   5   7  1   
  9   5   8  ar  
 10   6   8  ar  
 11   6  27  1   
 12   7   9  1   
 13   8  28  1   
 14   9  10  1   
 15   9  29  1   
 16   9  30  1   
 17  10  11  2   
 18  10  12  am  
 19  12  13  1   
 20  12  14  1   
 21  13  15  1   
 22  13  16  1   
 23  13  31  1   
 24  14  32  1   
 25  14  33  1   
 26  14  34  1   
 27  15  17  1   
 28  15  35  1   
 29  15  36  1   
 30  16  18  1   
 31  16  37  1   
 32  16  38  1   
 33  17  18  1   
 34  17  19  1   
 35  17  39  1   
 36  18  20  1   
 37  18  40  1   
 38  19  21  1   
 39  19  41  1   
 40  19  42  1   
 41  20  21  1   
 42  20  43  1   
 43  20  44  1   
 44  21  22  1   
 45  21  45  1   
 46  22  23  1   
 47  22  24  1   
 48  22  46  1   
 49  23  47  1   
 50  23  48  1   
 51  23  49  1   
 52  24  50  1   
 53  24  51  1   
 54  24  52  1   
@<TRIPOS>SUBSTRUCTURE
  1 ****  16 GROUP 4 **** **** 0

# MOE 2024.06 (io_trps.svl 2023.06)
