@<TRIPOS>MOLECULE
NONAME
41 43 1 0 0 
SMALL
USER_CHARGES


@<TRIPOS>ATOM
  1 O        3.4350    -0.7020    -1.2000 O.2   1 <1>  -0.5700 
  2 C        2.5100    -1.0080    -0.4690 C.2   1 <1>   0.7150 
  3 N        2.0510    -0.1410     0.4880 N.am  1 <1>  -0.4940 
  4 C        1.8830    -2.2920    -0.6050 C.2   1 <1>  -0.2370 
  5 C        2.3490     1.2170     0.7640 C.2   1 <1>  -0.0880 
  6 N        2.1670    -3.1190    -1.6570 N.pl3 1 <1>   0.0330 
  7 C        0.9570    -2.9380     0.1770 C.2   1 <1>  -0.1500 
  8 N        3.5590     1.8530     0.7460 N.pl3 1 <1>   0.3140 
  9 C        1.4390     2.1530     1.1220 C.2   1 <1>  -0.1500 
 10 C        1.4340    -4.2470    -1.5300 C.2   1 <1>  -0.3020 
 11 C        0.6650    -4.1780    -0.4020 C.2   1 <1>   0.0190 
 12 N        3.4250     3.1640     1.0700 N.2   1 <1>  -0.7070 
 13 C        4.9090     1.2940     0.4720 C.3   1 <1>   0.1760 
 14 C        2.1580     3.3270     1.2910 C.2   1 <1>   0.1390 
 15 C       -0.2580    -5.1500     0.1150 C.1   1 <1>   0.5380 
 16 C        5.9060     1.6620     1.5840 C.3   1 <1>  -0.1600 
 17 C        5.4110     1.8040    -0.8880 C.3   1 <1>  -0.1600 
 18 N       -0.9960    -5.9100     0.5380 N.1   1 <1>  -0.5570 
 19 C        7.3060     1.1590     1.2470 C.3   1 <1>   0.3430 
 20 C        6.8130     1.2870    -1.1760 C.3   1 <1>   0.3430 
 21 N        7.7310     1.7040    -0.0750 N.4   1 <1>  -0.9590 
 22 C        9.1420     1.3230    -0.3840 C.3   1 <1>   0.2630 
 23 H        1.1990    -0.4790     0.9330 H     1 <1>   0.3700 
 24 H        2.8320    -2.8900    -2.4090 H     1 <1>   0.2700 
 25 H        0.5070    -2.5890     1.0910 H     1 <1>   0.1500 
 26 H        0.3780     2.0480     1.2500 H     1 <1>   0.1500 
 27 H        1.4840    -5.0540    -2.2420 H     1 <1>   0.1500 
 28 H        4.8310     0.2250     0.4520 H     1 <1>   0.0800 
 29 H        1.7230     4.2720     1.5740 H     1 <1>   0.1500 
 30 H        5.5850     1.2200     2.5100 H     1 <1>   0.0800 
 31 H        5.9430     2.7290     1.7220 H     1 <1>   0.0800 
 32 H        5.4160     2.8810    -0.9020 H     1 <1>   0.0800 
 33 H        4.7500     1.4700    -1.6670 H     1 <1>   0.0800 
 34 H        7.3060     0.0810     1.2150 H     1 <1>   0.0800 
 35 H        7.9930     1.4750     2.0160 H     1 <1>   0.0800 
 36 H        7.1560     1.6890    -2.1170 H     1 <1>   0.0800 
 37 H        6.7930     0.2120    -1.2540 H     1 <1>   0.0800 
 38 H        7.6770     2.7330    -0.0110 H     1 <1>   0.4500 
 39 H        9.2330     0.2520    -0.4610 H     1 <1>   0.0800 
 40 H        9.8030     1.6710     0.3940 H     1 <1>   0.0800 
 41 H        9.4530     1.7630    -1.3180 H     1 <1>   0.0800 
@<TRIPOS>BOND
  1   1   2  2   
  2   2   3  am  
  3   2   4  1   
  4   3   5  1   
  5   3  23  1   
  6   4   6  1   
  7   4   7  2   
  8   5   8  1   
  9   5   9  2   
 10   6  10  1   
 11   6  24  1   
 12   7  11  1   
 13   7  25  1   
 14   8  12  1   
 15   8  13  1   
 16   9  14  1   
 17   9  26  1   
 18  10  11  2   
 19  10  27  1   
 20  11  15  1   
 21  12  14  2   
 22  13  16  1   
 23  13  17  1   
 24  13  28  1   
 25  14  29  1   
 26  15  18  3   
 27  16  19  1   
 28  16  30  1   
 29  16  31  1   
 30  17  20  1   
 31  17  32  1   
 32  17  33  1   
 33  19  21  1   
 34  19  34  1   
 35  19  35  1   
 36  20  21  1   
 37  20  36  1   
 38  20  37  1   
 39  21  22  1   
 40  21  38  1   
 41  22  39  1   
 42  22  40  1   
 43  22  41  1   
@<TRIPOS>SUBSTRUCTURE
  1 ****   2 GROUP 4 **** **** 0

# MOE 2024.06 (io_trps.svl 2023.06)
