@<TRIPOS>MOLECULE
NONAME
48 49 1 0 0 
SMALL
USER_CHARGES


@<TRIPOS>ATOM
  1 O        1.3210     2.0180     0.7180 O.co2 1 <1>  -0.9000 
  2 C        0.5350     2.7420     1.3320 C.2   1 <1>   0.9060 
  3 O        0.1170     2.5080     2.4650 O.co2 1 <1>  -0.9000 
  4 C        0.0240     3.9690     0.6470 C.3   1 <1>  -0.1860 
  5 C       -1.5020     3.8990     0.5730 C.3   1 <1>   0.2000 
  6 C        0.6280     4.0460    -0.7410 C.3   1 <1>   0.3430 
  7 O       -1.9710     4.4970     1.7160 O.3   1 <1>  -0.6800 
  8 C       -2.0810     4.6440    -0.6320 C.3   1 <1>  -0.1600 
  9 N        0.1730     5.2890    -1.4660 N.4   1 <1>  -0.9590 
 10 C       -1.1660     5.8030    -1.0030 C.3   1 <1>   0.3430 
 11 C        1.2270     6.3400    -1.3140 C.3   1 <1>   0.3430 
 12 C        1.0540     7.5030    -2.3020 C.3   1 <1>   0.1200 
 13 O        2.1140     8.4180    -2.1390 O.3   1 <1>  -0.3630 
 14 C        2.0270     9.2360    -1.0620 C.ar  1 <1>   0.0830 
 15 C        2.6040     8.8840     0.1590 C.ar  1 <1>   0.0830 
 16 C        1.3420    10.4350    -1.1840 C.ar  1 <1>  -0.1500 
 17 O        3.3010     7.7310     0.3050 O.3   1 <1>  -0.3630 
 18 C        2.4450     9.7100     1.2590 C.ar  1 <1>  -0.1500 
 19 C        1.2010    11.2640    -0.0840 C.ar  1 <1>  -0.1500 
 20 C        4.6040     7.7010    -0.2370 C.3   1 <1>   0.2000 
 21 C        1.7460    10.9000     1.1370 C.ar  1 <1>  -0.1500 
 22 C        4.9790     6.2360    -0.4490 C.3   1 <1>  -0.2400 
 23 C        5.5630     8.3800     0.7420 C.3   1 <1>  -0.2400 
 24 H        0.3570     4.8160     1.2180 H     1 <1>   0.0800 
 25 H       -1.8480     2.8760     0.5760 H     1 <1>   0.0800 
 26 H        0.3200     3.1660    -1.2840 H     1 <1>   0.0800 
 27 H        1.7030     4.0140    -0.6650 H     1 <1>   0.0800 
 28 H       -1.5810     3.9960     2.4770 H     1 <1>   0.4000 
 29 H       -2.1660     3.9750    -1.4690 H     1 <1>   0.0800 
 30 H       -3.0690     5.0030    -0.3990 H     1 <1>   0.0800 
 31 H        0.1050     5.0260    -2.4560 H     1 <1>   0.4500 
 32 H       -1.0350     6.4170    -0.1250 H     1 <1>   0.0800 
 33 H       -1.6210     6.4030    -1.7740 H     1 <1>   0.0800 
 34 H        1.2040     6.7200    -0.3060 H     1 <1>   0.0800 
 35 H        2.1950     5.8990    -1.4810 H     1 <1>   0.0800 
 36 H        0.1290     8.0270    -2.1400 H     1 <1>   0.0800 
 37 H        1.1000     7.1450    -3.3140 H     1 <1>   0.0800 
 38 H        0.9240    10.7190    -2.1330 H     1 <1>   0.1500 
 39 H        2.8720     9.4230     2.2030 H     1 <1>   0.1500 
 40 H        0.6670    12.1950    -0.1760 H     1 <1>   0.1500 
 41 H        4.6010     8.2200    -1.1820 H     1 <1>   0.0800 
 42 H        1.6290    11.5450     1.9920 H     1 <1>   0.1500 
 43 H        4.9240     5.6960     0.4800 H     1 <1>   0.0800 
 44 H        5.9830     6.1660    -0.8250 H     1 <1>   0.0800 
 45 H        4.3220     5.7820    -1.1670 H     1 <1>   0.0800 
 46 H        5.5220     7.8990     1.7020 H     1 <1>   0.0800 
 47 H        5.3130     9.4200     0.8500 H     1 <1>   0.0800 
 48 H        6.5700     8.3190     0.3700 H     1 <1>   0.0800 
@<TRIPOS>BOND
  1   1   2  ar  
  2   2   3  ar  
  3   2   4  1   
  4   4   5  1   
  5   4   6  1   
  6   4  24  1   
  7   5   7  1   
  8   5   8  1   
  9   5  25  1   
 10   6   9  1   
 11   6  26  1   
 12   6  27  1   
 13   7  28  1   
 14   8  10  1   
 15   8  29  1   
 16   8  30  1   
 17   9  10  1   
 18   9  11  1   
 19   9  31  1   
 20  10  32  1   
 21  10  33  1   
 22  11  12  1   
 23  11  34  1   
 24  11  35  1   
 25  12  13  1   
 26  12  36  1   
 27  12  37  1   
 28  13  14  1   
 29  14  15  ar  
 30  14  16  ar  
 31  15  17  1   
 32  15  18  ar  
 33  16  19  ar  
 34  16  38  1   
 35  17  20  1   
 36  18  21  ar  
 37  18  39  1   
 38  19  21  ar  
 39  19  40  1   
 40  20  22  1   
 41  20  23  1   
 42  20  41  1   
 43  21  42  1   
 44  22  43  1   
 45  22  44  1   
 46  22  45  1   
 47  23  46  1   
 48  23  47  1   
 49  23  48  1   
@<TRIPOS>SUBSTRUCTURE
  1 ****  11 GROUP 4 **** **** 0

# MOE 2024.06 (io_trps.svl 2023.06)
