@<TRIPOS>MOLECULE
NONAME
44 45 1 0 0 
SMALL
USER_CHARGES


@<TRIPOS>ATOM
  1 S        1.2250     1.5700     0.7150 S.o2  1 <1>   1.3330 
  2 O        0.8300     2.7070     1.5140 O.2   1 <1>  -0.6500 
  3 O        0.2220     0.8070     0.0070 O.2   1 <1>  -0.6500 
  4 N        2.0610     0.5020     1.7380 N.am  1 <1>  -0.8490 
  5 C        2.4590     2.0970    -0.4740 C.3   1 <1>  -0.0550 
  6 C        2.9150     1.1850     2.7180 C.3   1 <1>   0.1160 
  7 C        1.1500    -0.4110     2.4340 C.3   1 <1>   0.1160 
  8 C        2.9660     0.9940    -1.4300 C.3   1 <1>  -0.0800 
  9 C        3.8560     1.4970    -2.5610 C.3   1 <1>   0.2200 
 10 C        3.8320    -0.0820    -0.7590 C.3   1 <1>   0.1200 
 11 N        4.7690     2.5540    -2.0670 N.am  1 <1>  -0.7300 
 12 C        4.6680     0.2470    -2.8630 C.3   1 <1>   0.1200 
 13 O        4.9080    -0.3290    -1.6170 O.3   1 <1>  -0.5600 
 14 C        4.5900     3.8860    -2.2500 C.2   1 <1>   0.5690 
 15 O        3.7340     4.3170    -2.9830 O.2   1 <1>  -0.5700 
 16 C        5.4540     4.8540    -1.4620 C.3   1 <1>   0.0440 
 17 C        5.2410     4.6570     0.0360 C.ar  1 <1>  -0.1440 
 18 C        6.2350     4.0910     0.8250 C.ar  1 <1>  -0.1500 
 19 C        4.0300     5.0300     0.6060 C.ar  1 <1>  -0.1500 
 20 C        6.0190     3.8890     2.1780 C.ar  1 <1>  -0.1500 
 21 C        3.7990     4.8260     1.9560 C.ar  1 <1>  -0.1500 
 22 C        4.8010     4.2580     2.7170 C.ar  1 <1>   0.1900 
 23 F        4.5880     4.0500     3.9880 F     1 <1>  -0.1900 
 24 H        2.0310     2.8800    -1.0710 H     1 <1>   0.0800 
 25 H        3.2880     2.5170     0.0550 H     1 <1>   0.0800 
 26 H        3.4580     0.4630     3.3040 H     1 <1>   0.0800 
 27 H        2.3230     1.7970     3.3790 H     1 <1>   0.0800 
 28 H        3.6290     1.8110     2.2130 H     1 <1>   0.0800 
 29 H        1.7040    -1.0870     3.0610 H     1 <1>   0.0800 
 30 H        0.5950    -0.9950     1.7180 H     1 <1>   0.0800 
 31 H        0.4530     0.1450     3.0390 H     1 <1>   0.0800 
 32 H        2.1150     0.5020    -1.8700 H     1 <1>   0.0800 
 33 H        3.2970     1.8420    -3.4150 H     1 <1>   0.0800 
 34 H        3.2850    -0.9970    -0.6110 H     1 <1>   0.0800 
 35 H        4.2390     0.2520     0.1790 H     1 <1>   0.0800 
 36 H        5.4710     2.2110    -1.4070 H     1 <1>   0.3700 
 37 H        5.6010     0.4620    -3.3530 H     1 <1>   0.0800 
 38 H        4.0950    -0.4520    -3.4480 H     1 <1>   0.0800 
 39 H        6.4820     4.6980    -1.7280 H     1 <1>   0.0800 
 40 H        5.1920     5.8600    -1.7340 H     1 <1>   0.0800 
 41 H        7.1800     3.8060     0.3950 H     1 <1>   0.1500 
 42 H        3.2560     5.4730    -0.0010 H     1 <1>   0.1500 
 43 H        6.7760     3.4540     2.8060 H     1 <1>   0.1500 
 44 H        2.8610     5.0980     2.4080 H     1 <1>   0.1500 
@<TRIPOS>BOND
  1   1   2  2   
  2   1   3  2   
  3   1   4  am  
  4   1   5  1   
  5   4   6  1   
  6   4   7  1   
  7   5   8  1   
  8   5  24  1   
  9   5  25  1   
 10   6  26  1   
 11   6  27  1   
 12   6  28  1   
 13   7  29  1   
 14   7  30  1   
 15   7  31  1   
 16   8   9  1   
 17   8  10  1   
 18   8  32  1   
 19   9  11  1   
 20   9  12  1   
 21   9  33  1   
 22  10  13  1   
 23  10  34  1   
 24  10  35  1   
 25  11  14  am  
 26  11  36  1   
 27  12  13  1   
 28  12  37  1   
 29  12  38  1   
 30  14  15  2   
 31  14  16  1   
 32  16  17  1   
 33  16  39  1   
 34  16  40  1   
 35  17  18  ar  
 36  17  19  ar  
 37  18  20  ar  
 38  18  41  1   
 39  19  21  ar  
 40  19  42  1   
 41  20  22  ar  
 42  20  43  1   
 43  21  22  ar  
 44  21  44  1   
 45  22  23  1   
@<TRIPOS>SUBSTRUCTURE
  1 ****   5 GROUP 4 **** **** 0

# MOE 2024.06 (io_trps.svl 2023.06)
