@<TRIPOS>MOLECULE
NONAME
54 56 1 0 0 
SMALL
USER_CHARGES


@<TRIPOS>ATOM
  1 O        1.8180    -2.1970     1.3750 O.3   1 <1>  -0.5600 
  2 C        0.6800    -1.4660     1.0370 C.3   1 <1>   0.1200 
  3 C        1.5700    -3.4580     1.9140 C.3   1 <1>   0.1200 
  4 C       -0.1440    -2.2320    -0.0150 C.3   1 <1>   0.3430 
  5 C        0.7910    -4.3180     0.9000 C.3   1 <1>   0.3430 
  6 N       -0.4870    -3.6430     0.4380 N.4   1 <1>  -0.9590 
  7 C       -1.3070    -4.4460    -0.5480 C.3   1 <1>   0.5030 
  8 C       -1.5820    -5.9060    -0.0150 C.3   1 <1>   0.3430 
  9 C       -2.6320    -3.6980    -0.7610 C.3   1 <1>  -0.2400 
 10 C       -0.5640    -4.5360    -1.8910 C.3   1 <1>  -0.2400 
 11 N       -2.4970    -6.8120    -0.8240 N.4   1 <1>  -0.9590 
 12 C       -3.9410    -6.6760    -0.4070 C.3   1 <1>   0.3430 
 13 C       -2.1520    -8.2530    -0.5510 C.3   1 <1>   0.3430 
 14 C       -4.1660    -7.7280     0.6820 C.3   1 <1>   0.2000 
 15 C       -3.3580    -8.9030     0.1410 C.3   1 <1>  -0.0800 
 16 O       -3.5980    -7.2590     1.8660 O.3   1 <1>  -0.6800 
 17 C       -2.9680   -10.0040     1.1480 C.3   1 <1>   0.0200 
 18 C       -1.9670   -10.9580     0.5230 C.2   1 <1>  -0.0400 
 19 O       -2.1550   -11.3890    -0.6950 O.3   1 <1>  -0.0190 
 20 C       -0.8200   -11.4870     0.9750 C.2   1 <1>  -0.1500 
 21 N       -1.1870   -12.1580    -1.0910 N.2   1 <1>  -0.4100 
 22 C       -0.3720   -12.2480    -0.1010 C.2   1 <1>   0.1080 
 23 C        0.8960   -13.0730    -0.1170 C.3   1 <1>  -0.0590 
 24 H        0.1070    -1.2760     1.9290 H     1 <1>   0.0800 
 25 H        1.0070    -0.5220     0.6360 H     1 <1>   0.0800 
 26 H        2.5230    -3.9100     2.1320 H     1 <1>   0.0800 
 27 H        1.0280    -3.3430     2.8380 H     1 <1>   0.0800 
 28 H        0.4340    -2.2650    -0.9240 H     1 <1>   0.0800 
 29 H       -1.0420    -1.6710    -0.2150 H     1 <1>   0.0800 
 30 H        0.5720    -5.2670     1.3590 H     1 <1>   0.0800 
 31 H        1.4370    -4.4970     0.0560 H     1 <1>   0.0800 
 32 H       -1.0630    -3.5090     1.2800 H     1 <1>   0.4500 
 33 H       -1.9780    -5.8300     0.9830 H     1 <1>   0.0800 
 34 H       -0.6260    -6.3940     0.0580 H     1 <1>   0.0800 
 35 H       -3.2520    -4.2220    -1.4660 H     1 <1>   0.0800 
 36 H       -2.4820    -2.7190    -1.1780 H     1 <1>   0.0800 
 37 H       -3.1770    -3.6060     0.1620 H     1 <1>   0.0800 
 38 H       -1.1410    -5.0990    -2.6020 H     1 <1>   0.0800 
 39 H        0.3860    -5.0280    -1.7850 H     1 <1>   0.0800 
 40 H       -0.4050    -3.5660    -2.3270 H     1 <1>   0.0800 
 41 H       -2.4030    -6.6430    -1.8370 H     1 <1>   0.4500 
 42 H       -4.1810    -5.6920    -0.0430 H     1 <1>   0.0800 
 43 H       -4.5800    -6.9060    -1.2440 H     1 <1>   0.0800 
 44 H       -1.9240    -8.7830    -1.4640 H     1 <1>   0.0800 
 45 H       -1.2940    -8.3160     0.1000 H     1 <1>   0.0800 
 46 H       -5.2090    -7.9460     0.8450 H     1 <1>   0.0800 
 47 H       -3.9420    -9.3710    -0.6340 H     1 <1>   0.0800 
 48 H       -3.9750    -7.7310     2.6420 H     1 <1>   0.4000 
 49 H       -3.8450   -10.5580     1.4360 H     1 <1>   0.0800 
 50 H       -2.5270    -9.5890     2.0370 H     1 <1>   0.0800 
 51 H       -0.3280   -11.3810     1.9250 H     1 <1>   0.1500 
 52 H        0.8350   -13.8490     0.6240 H     1 <1>   0.0800 
 53 H        1.7450   -12.4500     0.0920 H     1 <1>   0.0800 
 54 H        1.0270   -13.5280    -1.0830 H     1 <1>   0.0800 
@<TRIPOS>BOND
  1   1   2  1   
  2   1   3  1   
  3   2   4  1   
  4   2  24  1   
  5   2  25  1   
  6   3   5  1   
  7   3  26  1   
  8   3  27  1   
  9   4   6  1   
 10   4  28  1   
 11   4  29  1   
 12   5   6  1   
 13   5  30  1   
 14   5  31  1   
 15   6   7  1   
 16   6  32  1   
 17   7   8  1   
 18   7   9  1   
 19   7  10  1   
 20   8  11  1   
 21   8  33  1   
 22   8  34  1   
 23   9  35  1   
 24   9  36  1   
 25   9  37  1   
 26  10  38  1   
 27  10  39  1   
 28  10  40  1   
 29  11  12  1   
 30  11  13  1   
 31  11  41  1   
 32  12  14  1   
 33  12  42  1   
 34  12  43  1   
 35  13  15  1   
 36  13  44  1   
 37  13  45  1   
 38  14  15  1   
 39  14  16  1   
 40  14  46  1   
 41  15  17  1   
 42  15  47  1   
 43  16  48  1   
 44  17  18  1   
 45  17  49  1   
 46  17  50  1   
 47  18  19  1   
 48  18  20  2   
 49  19  21  1   
 50  20  22  1   
 51  20  51  1   
 52  21  22  2   
 53  22  23  1   
 54  23  52  1   
 55  23  53  1   
 56  23  54  1   
@<TRIPOS>SUBSTRUCTURE
  1 ****   8 GROUP 4 **** **** 0

# MOE 2024.06 (io_trps.svl 2023.06)
