@<TRIPOS>MOLECULE
NONAME
55 58 1 0 0 
SMALL
USER_CHARGES


@<TRIPOS>ATOM
  1 O       -2.7610     0.0620    -2.4550 O.2   1 <1>  -0.5700 
  2 C       -2.1630    -0.6870    -1.7240 C.2   1 <1>   0.5690 
  3 N       -2.1510    -2.0440    -1.9690 N.am  1 <1>  -0.6600 
  4 C       -1.5030    -0.0610    -0.4980 C.3   1 <1>   0.0440 
  5 C       -1.5740    -3.0630    -1.0100 C.3   1 <1>   0.2200 
  6 C       -2.8340    -2.5570    -3.2090 C.3   1 <1>   0.1400 
  7 C       -2.1360    -0.5580     0.7980 C.ar  1 <1>  -0.1440 
  8 C       -0.7180    -4.1330    -1.7100 C.3   1 <1>   0.1200 
  9 C       -2.6940    -3.7040    -0.1500 C.3   1 <1>   0.3430 
 10 C       -3.3340    -4.0150    -3.1480 C.3   1 <1>  -0.0800 
 11 C       -3.5170    -0.6030     0.9280 C.ar  1 <1>   0.1600 
 12 C       -1.3550    -0.9950     1.8500 C.ar  1 <1>  -0.1500 
 13 O       -1.5010    -5.2080    -2.1280 O.3   1 <1>  -0.5600 
 14 N       -4.0580    -3.5120    -0.7540 N.4   1 <1>  -0.9590 
 15 C       -2.1930    -5.0280    -3.3170 C.3   1 <1>   0.1200 
 16 C       -4.2530    -4.3740    -1.9600 C.3   1 <1>   0.3430 
 17 N       -4.1620    -1.1080     1.9670 N.ar  1 <1>  -0.6200 
 18 C       -2.0130    -1.4770     2.9610 C.ar  1 <1>  -0.1500 
 19 C       -5.1380    -3.7520     0.2640 C.3   1 <1>   0.5240 
 20 C       -3.3960    -1.5120     2.9700 C.ar  1 <1>   0.1600 
 21 C       -4.9420    -5.0670     1.0210 C.2   1 <1>   0.1080 
 22 N       -4.7150    -6.2120     0.4470 N.2   1 <1>  -0.7070 
 23 C       -4.9650    -5.1770     2.4070 C.2   1 <1>  -0.1500 
 24 N       -4.5820    -7.0930     1.4590 N.pl3 1 <1>   0.3140 
 25 C       -4.7290    -6.4830     2.6510 C.2   1 <1>  -0.3020 
 26 C       -4.2940    -8.5240     1.2260 C.3   1 <1>   0.0960 
 27 C       -2.7890    -8.7600     1.0540 C.3   1 <1>  -0.2400 
 28 H       -0.4510    -0.2750    -0.5220 H     1 <1>   0.0800 
 29 H       -1.6130     1.0080    -0.5500 H     1 <1>   0.0800 
 30 H       -0.8940    -2.5690    -0.3430 H     1 <1>   0.0800 
 31 H       -3.6830    -1.9280    -3.4260 H     1 <1>   0.0800 
 32 H       -2.1540    -2.4490    -4.0370 H     1 <1>   0.0800 
 33 H       -0.0130    -4.5350    -1.0030 H     1 <1>   0.0800 
 34 H       -0.1670    -3.7280    -2.5410 H     1 <1>   0.0800 
 35 H       -2.6730    -3.2430     0.8230 H     1 <1>   0.0800 
 36 H       -2.4960    -4.7550    -0.0120 H     1 <1>   0.0800 
 37 H       -3.9350    -4.1480    -4.0300 H     1 <1>   0.0800 
 38 H       -4.1260    -0.2130     0.1270 H     1 <1>   0.1500 
 39 H       -0.2780    -0.9600     1.8190 H     1 <1>   0.1500 
 40 H       -4.0930    -2.5340    -1.0660 H     1 <1>   0.4500 
 41 H       -1.5010    -4.7300    -4.0870 H     1 <1>   0.0800 
 42 H       -2.5970    -5.9900    -3.5860 H     1 <1>   0.0800 
 43 H       -4.0940    -5.4080    -1.6950 H     1 <1>   0.0800 
 44 H       -5.2750    -4.2810    -2.2860 H     1 <1>   0.0800 
 45 H       -1.4600    -1.8180     3.8200 H     1 <1>   0.1500 
 46 H       -5.1500    -2.9500     0.9780 H     1 <1>   0.0800 
 47 H       -6.0980    -3.7730    -0.2220 H     1 <1>   0.0800 
 48 H       -3.8950    -1.8880     3.8480 H     1 <1>   0.1500 
 49 H       -5.1350    -4.3860     3.1170 H     1 <1>   0.1500 
 50 H       -4.6600    -7.0040     3.5890 H     1 <1>   0.1500 
 51 H       -4.6670    -9.0900     2.0600 H     1 <1>   0.0800 
 52 H       -4.8190    -8.8320     0.3400 H     1 <1>   0.0800 
 53 H       -2.2580    -8.4690     1.9430 H     1 <1>   0.0800 
 54 H       -2.4180    -8.1960     0.2160 H     1 <1>   0.0800 
 55 H       -2.6020    -9.8030     0.8710 H     1 <1>   0.0800 
@<TRIPOS>BOND
  1   1   2  2   
  2   2   3  am  
  3   2   4  1   
  4   3   5  1   
  5   3   6  1   
  6   4   7  1   
  7   4  28  1   
  8   4  29  1   
  9   5   8  1   
 10   5   9  1   
 11   5  30  1   
 12   6  10  1   
 13   6  31  1   
 14   6  32  1   
 15   7  11  ar  
 16   7  12  ar  
 17   8  13  1   
 18   8  33  1   
 19   8  34  1   
 20   9  14  1   
 21   9  35  1   
 22   9  36  1   
 23  10  15  1   
 24  10  16  1   
 25  10  37  1   
 26  11  17  ar  
 27  11  38  1   
 28  12  18  ar  
 29  12  39  1   
 30  13  15  1   
 31  14  16  1   
 32  14  19  1   
 33  14  40  1   
 34  15  41  1   
 35  15  42  1   
 36  16  43  1   
 37  16  44  1   
 38  17  20  ar  
 39  18  20  ar  
 40  18  45  1   
 41  19  21  1   
 42  19  46  1   
 43  19  47  1   
 44  20  48  1   
 45  21  22  2   
 46  21  23  1   
 47  22  24  1   
 48  23  25  2   
 49  23  49  1   
 50  24  25  1   
 51  24  26  1   
 52  25  50  1   
 53  26  27  1   
 54  26  51  1   
 55  26  52  1   
 56  27  53  1   
 57  27  54  1   
 58  27  55  1   
@<TRIPOS>SUBSTRUCTURE
  1 ****   9 GROUP 4 **** **** 0

# MOE 2024.06 (io_trps.svl 2023.06)
