@<TRIPOS>MOLECULE
NONAME
46 48 1 0 0 
SMALL
USER_CHARGES


@<TRIPOS>ATOM
  1 O        2.7710    -1.1550    -2.3120 O.2   1 <1>  -0.5700 
  2 C        2.1010    -1.4610    -1.3360 C.2   1 <1>   0.5440 
  3 N        1.4980    -0.4290    -0.6240 N.am  1 <1>  -0.6600 
  4 C        2.0020    -2.8780    -0.9630 C.ar  1 <1>   0.3960 
  5 C        1.4370     0.9630    -1.1500 C.3   1 <1>   0.0600 
  6 C        0.8850    -0.6100     0.7200 C.3   1 <1>   0.0600 
  7 N        0.8510    -3.3760    -0.4810 N.ar  1 <1>  -0.6200 
  8 C        3.1260    -3.6860    -1.1320 C.ar  1 <1>  -0.1500 
  9 C        0.8100    -4.6610    -0.1640 C.ar  1 <1>   0.4100 
 10 C        3.0970    -5.0210    -0.7950 C.ar  1 <1>  -0.1500 
 11 N       -0.3940    -5.1450     0.3300 N.pl3 1 <1>  -0.8380 
 12 C        1.9130    -5.5030    -0.2990 C.ar  1 <1>  -0.1500 
 13 C       -1.5960    -4.2640     0.4510 C.3   1 <1>   0.2090 
 14 C       -0.8320    -6.5360     0.0580 C.3   1 <1>   0.2090 
 15 C       -2.8120    -5.1850     0.3190 C.3   1 <1>   0.2000 
 16 C       -2.2850    -6.6030     0.5230 C.3   1 <1>  -0.0800 
 17 O       -3.7800    -4.9050     1.2730 O.3   1 <1>  -0.6800 
 18 C       -3.1210    -7.6640    -0.2080 C.3   1 <1>  -0.0170 
 19 C       -2.5010    -9.0460    -0.0660 C.ar  1 <1>  -0.1430 
 20 C       -2.5740    -9.7550     1.1160 C.ar  1 <1>  -0.1500 
 21 C       -1.8340    -9.6620    -1.1050 C.ar  1 <1>  -0.1500 
 22 C       -1.9870   -11.0060     1.2020 C.ar  1 <1>   0.1600 
 23 C       -1.2820   -10.9180    -0.9150 C.ar  1 <1>   0.1600 
 24 N       -1.3400   -11.6040     0.2150 N.ar  1 <1>  -0.6200 
 25 H        0.4410     1.3530    -1.0340 H     1 <1>   0.0800 
 26 H        1.6910     0.9890    -2.1960 H     1 <1>   0.0800 
 27 H        2.1290     1.5840    -0.6100 H     1 <1>   0.0800 
 28 H        1.0100     0.2820     1.3080 H     1 <1>   0.0800 
 29 H        1.3520    -1.4280     1.2410 H     1 <1>   0.0800 
 30 H       -0.1650    -0.8200     0.6100 H     1 <1>   0.0800 
 31 H        4.0260    -3.2530    -1.5310 H     1 <1>   0.1500 
 32 H        3.9620    -5.6510    -0.9150 H     1 <1>   0.1500 
 33 H        1.8380    -6.5320    -0.0070 H     1 <1>   0.1500 
 34 H       -1.5780    -3.7730     1.4070 H     1 <1>   0.0800 
 35 H       -1.6180    -3.5280    -0.3350 H     1 <1>   0.0800 
 36 H       -0.7590    -6.7290    -0.9990 H     1 <1>   0.0800 
 37 H       -0.2290    -7.2460     0.5990 H     1 <1>   0.0800 
 38 H       -3.2520    -5.0630    -0.6560 H     1 <1>   0.0800 
 39 H       -2.2630    -6.8270     1.5750 H     1 <1>   0.0800 
 40 H       -3.3960    -4.9710     2.1690 H     1 <1>   0.4000 
 41 H       -3.2040    -7.4100    -1.2500 H     1 <1>   0.0800 
 42 H       -4.1170    -7.6770     0.2010 H     1 <1>   0.0800 
 43 H       -3.0820    -9.3460     1.9710 H     1 <1>   0.1500 
 44 H       -1.7380    -9.1820    -2.0620 H     1 <1>   0.1500 
 45 H       -2.0530   -11.5440     2.1320 H     1 <1>   0.1500 
 46 H       -0.7660   -11.3840    -1.7370 H     1 <1>   0.1500 
@<TRIPOS>BOND
  1   1   2  2   
  2   2   3  am  
  3   2   4  1   
  4   3   5  1   
  5   3   6  1   
  6   4   7  ar  
  7   4   8  ar  
  8   5  25  1   
  9   5  26  1   
 10   5  27  1   
 11   6  28  1   
 12   6  29  1   
 13   6  30  1   
 14   7   9  ar  
 15   8  10  ar  
 16   8  31  1   
 17   9  11  1   
 18   9  12  ar  
 19  10  12  ar  
 20  10  32  1   
 21  11  13  1   
 22  11  14  1   
 23  12  33  1   
 24  13  15  1   
 25  13  34  1   
 26  13  35  1   
 27  14  16  1   
 28  14  36  1   
 29  14  37  1   
 30  15  16  1   
 31  15  17  1   
 32  15  38  1   
 33  16  18  1   
 34  16  39  1   
 35  17  40  1   
 36  18  19  1   
 37  18  41  1   
 38  18  42  1   
 39  19  20  ar  
 40  19  21  ar  
 41  20  22  ar  
 42  20  43  1   
 43  21  23  ar  
 44  21  44  1   
 45  22  24  ar  
 46  22  45  1   
 47  23  24  ar  
 48  23  46  1   
@<TRIPOS>SUBSTRUCTURE
  1 ****  11 GROUP 4 **** **** 0

# MOE 2024.06 (io_trps.svl 2023.06)
