@<TRIPOS>MOLECULE
NONAME
56 59 1 0 0 
SMALL
USER_CHARGES


@<TRIPOS>ATOM
  1 O        0.8910    -0.2040     0.1950 O.2   1 <1>  -0.5700 
  2 C        0.2040     0.6900     0.6350 C.2   1 <1>   0.5690 
  3 N       -1.0240     0.9710     0.0780 N.am  1 <1>  -0.6600 
  4 C        0.7320     1.4340     1.8670 C.3   1 <1>   0.1810 
  5 C       -1.8720     2.1500     0.4580 C.3   1 <1>   0.1400 
  6 C       -1.5500     0.1140    -1.0300 C.3   1 <1>   0.1400 
  7 O        1.6090     2.5060     1.5280 O.3   1 <1>  -0.3620 
  8 C       -2.5920     2.7490    -0.7610 C.3   1 <1>   0.1440 
  9 C       -3.0740     0.2490    -1.1770 C.3   1 <1>  -0.1600 
 10 C        1.1030     3.7410     1.3200 C.ar  1 <1>   0.0820 
 11 C       -3.3290     4.0120    -0.3540 C.ar  1 <1>   0.1660 
 12 C       -3.5580     1.7040    -1.3670 C.3   1 <1>  -0.1600 
 13 C       -1.5920     3.2800    -1.8270 C.3   1 <1>  -0.1600 
 14 C        0.2710     4.3600     2.2450 C.ar  1 <1>  -0.1500 
 15 C        1.4250     4.3910     0.1410 C.ar  1 <1>  -0.1500 
 16 N       -4.1260     4.1220     0.6800 N.ar  1 <1>  -0.6200 
 17 C       -3.0530     5.0510    -1.1900 C.ar  1 <1>  -0.1430 
 18 C       -2.1030     4.6540    -2.2900 C.3   1 <1>  -0.0170 
 19 C       -0.2830     5.5940     1.9550 C.ar  1 <1>  -0.1500 
 20 C        0.8800     5.6310    -0.1390 C.ar  1 <1>  -0.1500 
 21 C       -4.6520     5.3350     0.8680 C.ar  1 <1>   0.7200 
 22 C       -3.6440     6.2590    -0.9230 C.ar  1 <1>   0.1600 
 23 C        0.0110     6.2310     0.7600 C.ar  1 <1>  -0.1430 
 24 N       -4.4420     6.4140     0.1060 N.ar  1 <1>  -0.6200 
 25 N       -5.4900     5.4890     1.9550 N.pl3 1 <1>  -0.8380 
 26 C       -0.6130     7.5790     0.4530 C.3   1 <1>  -0.0970 
 27 C       -6.1020     4.3250     2.6520 C.3   1 <1>   0.1290 
 28 C       -5.9240     6.8300     2.4340 C.3   1 <1>   0.1290 
 29 H        1.3050     0.7420     2.4540 H     1 <1>   0.0800 
 30 H       -0.0760     1.7940     2.4720 H     1 <1>   0.0800 
 31 H       -1.2780     2.9180     0.9030 H     1 <1>   0.0800 
 32 H       -2.6040     1.8390     1.1820 H     1 <1>   0.0800 
 33 H       -1.3000    -0.9150    -0.8330 H     1 <1>   0.0800 
 34 H       -1.0650     0.3980    -1.9480 H     1 <1>   0.0800 
 35 H       -3.5240    -0.1580    -0.2870 H     1 <1>   0.0800 
 36 H       -3.4090    -0.3530    -2.0030 H     1 <1>   0.0800 
 37 H       -3.7060     1.9110    -2.4120 H     1 <1>   0.0800 
 38 H       -4.5210     1.7960    -0.8920 H     1 <1>   0.0800 
 39 H       -1.4720     2.6070    -2.6560 H     1 <1>   0.0800 
 40 H       -0.6280     3.4150    -1.3720 H     1 <1>   0.0800 
 41 H        0.0500     3.8870     3.1830 H     1 <1>   0.1500 
 42 H        2.0940     3.9150    -0.5530 H     1 <1>   0.1500 
 43 H       -2.6400     4.5690    -3.2190 H     1 <1>   0.0800 
 44 H       -1.2970     5.3600    -2.3920 H     1 <1>   0.0800 
 45 H       -0.9470     6.0590     2.6630 H     1 <1>   0.1500 
 46 H        1.1330     6.1260    -1.0600 H     1 <1>   0.1500 
 47 H       -3.4580     7.1070    -1.5580 H     1 <1>   0.1500 
 48 H       -1.6170     7.6200     0.8380 H     1 <1>   0.0800 
 49 H       -0.6510     7.7470    -0.6080 H     1 <1>   0.0800 
 50 H       -0.0340     8.3610     0.9100 H     1 <1>   0.0800 
 51 H       -6.1830     3.4830     1.9860 H     1 <1>   0.0800 
 52 H       -7.0890     4.5770     2.9980 H     1 <1>   0.0800 
 53 H       -5.4900     4.0480     3.4920 H     1 <1>   0.0800 
 54 H       -5.1620     7.5650     2.2390 H     1 <1>   0.0800 
 55 H       -6.1050     6.8040     3.4940 H     1 <1>   0.0800 
 56 H       -6.8270     7.1190     1.9240 H     1 <1>   0.0800 
@<TRIPOS>BOND
  1   1   2  2   
  2   2   3  am  
  3   2   4  1   
  4   3   5  1   
  5   3   6  1   
  6   4   7  1   
  7   4  29  1   
  8   4  30  1   
  9   5   8  1   
 10   5  31  1   
 11   5  32  1   
 12   6   9  1   
 13   6  33  1   
 14   6  34  1   
 15   7  10  1   
 16   8  11  1   
 17   8  12  1   
 18   8  13  1   
 19   9  12  1   
 20   9  35  1   
 21   9  36  1   
 22  10  14  ar  
 23  10  15  ar  
 24  11  16  ar  
 25  11  17  ar  
 26  12  37  1   
 27  12  38  1   
 28  13  18  1   
 29  13  39  1   
 30  13  40  1   
 31  14  19  ar  
 32  14  41  1   
 33  15  20  ar  
 34  15  42  1   
 35  16  21  ar  
 36  17  18  1   
 37  17  22  ar  
 38  18  43  1   
 39  18  44  1   
 40  19  23  ar  
 41  19  45  1   
 42  20  23  ar  
 43  20  46  1   
 44  21  24  ar  
 45  21  25  1   
 46  22  24  ar  
 47  22  47  1   
 48  23  26  1   
 49  25  27  1   
 50  25  28  1   
 51  26  48  1   
 52  26  49  1   
 53  26  50  1   
 54  27  51  1   
 55  27  52  1   
 56  27  53  1   
 57  28  54  1   
 58  28  55  1   
 59  28  56  1   
@<TRIPOS>SUBSTRUCTURE
  1 ****   5 GROUP 4 **** **** 0

# MOE 2024.06 (io_trps.svl 2023.06)
