@<TRIPOS>MOLECULE
NONAME
45 46 1 0 0 
SMALL
USER_CHARGES


@<TRIPOS>ATOM
  1 S        0.1800     1.1130    -1.1180 S.o2  1 <1>   1.3330 
  2 O       -0.6090     2.0230    -1.9170 O.2   1 <1>  -0.6500 
  3 O        0.2750    -0.2700    -1.5280 O.2   1 <1>  -0.6500 
  4 N        1.7630     1.7100    -1.0000 N.am  1 <1>  -0.8490 
  5 C       -0.4550     1.1420     0.5680 C.3   1 <1>  -0.0550 
  6 C        2.7600     0.7130    -0.6070 C.3   1 <1>   0.1160 
  7 C        2.2050     2.4320    -2.1960 C.3   1 <1>   0.1160 
  8 C       -0.5270     2.4800     1.3480 C.3   1 <1>  -0.0800 
  9 C       -1.2500     3.6190     0.6190 C.3   1 <1>   0.2000 
 10 C        0.8420     3.0580     1.7310 C.3   1 <1>   0.2090 
 11 O       -1.9080     4.3680     1.5840 O.3   1 <1>  -0.6800 
 12 C       -0.1400     4.4890     0.0260 C.3   1 <1>   0.2090 
 13 N        1.0300     4.2890     0.9230 N.pl3 1 <1>  -0.8380 
 14 C        2.2930     4.6940     0.5470 C.ar  1 <1>   0.7200 
 15 N        2.3770     5.4750    -0.5210 N.ar  1 <1>  -0.6200 
 16 N        3.2990     4.2680     1.3000 N.ar  1 <1>  -0.6200 
 17 C        3.5810     5.8600    -0.8570 C.ar  1 <1>   0.3930 
 18 C        4.4920     4.6670     0.9420 C.ar  1 <1>   0.3930 
 19 O        3.6370     6.6490    -1.9480 O.3   1 <1>  -0.3630 
 20 C        4.6970     5.4810    -0.1480 C.ar  1 <1>  -0.1500 
 21 O        5.4950     4.2170     1.7220 O.3   1 <1>  -0.3630 
 22 C        4.8170     7.3010    -2.3670 C.3   1 <1>   0.0400 
 23 C        6.8280     4.6620     1.5940 C.3   1 <1>   0.0400 
 24 H       -1.4510     0.7450     0.5340 H     1 <1>   0.0800 
 25 H        0.1230     0.4530     1.1530 H     1 <1>   0.0800 
 26 H        3.7070     1.1930    -0.4270 H     1 <1>   0.0800 
 27 H        2.8780    -0.0260    -1.3830 H     1 <1>   0.0800 
 28 H        2.4530     0.2190     0.2980 H     1 <1>   0.0800 
 29 H        3.1890     2.8380    -2.0410 H     1 <1>   0.0800 
 30 H        1.5400     3.2540    -2.4030 H     1 <1>   0.0800 
 31 H        2.2170     1.7730    -3.0480 H     1 <1>   0.0800 
 32 H       -1.0540     2.2530     2.2580 H     1 <1>   0.0800 
 33 H       -1.9730     3.2950    -0.1090 H     1 <1>   0.0800 
 34 H        1.6340     2.3520     1.5540 H     1 <1>   0.0800 
 35 H        0.8540     3.3300     2.7720 H     1 <1>   0.0800 
 36 H       -1.2310     4.8660     2.0890 H     1 <1>   0.4000 
 37 H       -0.4250     5.5270    -0.0160 H     1 <1>   0.0800 
 38 H        0.1080     4.1610    -0.9650 H     1 <1>   0.0800 
 39 H        5.6750     5.7980    -0.4330 H     1 <1>   0.1500 
 40 H        4.5730     7.9170    -3.2140 H     1 <1>   0.0800 
 41 H        5.5440     6.5620    -2.6520 H     1 <1>   0.0800 
 42 H        5.1810     7.9160    -1.5630 H     1 <1>   0.0800 
 43 H        7.4090     4.1990     2.3730 H     1 <1>   0.0800 
 44 H        6.8530     5.7310     1.7100 H     1 <1>   0.0800 
 45 H        7.2070     4.3650     0.6330 H     1 <1>   0.0800 
@<TRIPOS>BOND
  1   1   2  2   
  2   1   3  2   
  3   1   4  am  
  4   1   5  1   
  5   4   6  1   
  6   4   7  1   
  7   5   8  1   
  8   5  24  1   
  9   5  25  1   
 10   6  26  1   
 11   6  27  1   
 12   6  28  1   
 13   7  29  1   
 14   7  30  1   
 15   7  31  1   
 16   8   9  1   
 17   8  10  1   
 18   8  32  1   
 19   9  11  1   
 20   9  12  1   
 21   9  33  1   
 22  10  13  1   
 23  10  34  1   
 24  10  35  1   
 25  11  36  1   
 26  12  13  1   
 27  12  37  1   
 28  12  38  1   
 29  13  14  1   
 30  14  15  ar  
 31  14  16  ar  
 32  15  17  ar  
 33  16  18  ar  
 34  17  19  1   
 35  17  20  ar  
 36  18  20  ar  
 37  18  21  1   
 38  19  22  1   
 39  20  39  1   
 40  21  23  1   
 41  22  40  1   
 42  22  41  1   
 43  22  42  1   
 44  23  43  1   
 45  23  44  1   
 46  23  45  1   
@<TRIPOS>SUBSTRUCTURE
  1 ****  14 GROUP 4 **** **** 0

# MOE 2024.06 (io_trps.svl 2023.06)
