@<TRIPOS>MOLECULE
NONAME
47 50 1 0 0 
SMALL
USER_CHARGES


@<TRIPOS>ATOM
  1 O       -0.6510    -1.8630     1.4040 O.3   1 <1>  -0.6800 
  2 C       -0.4980    -2.2310     0.0750 C.3   1 <1>   0.4240 
  3 C        0.9630    -1.9160    -0.3190 C.ar  1 <1>  -0.1440 
  4 C       -1.5030    -1.3970    -0.7460 C.3   1 <1>  -0.0800 
  5 C       -0.8460    -3.7210     0.0060 C.3   1 <1>  -0.1600 
  6 C        1.7240    -2.7630    -1.1220 C.ar  1 <1>  -0.1500 
  7 C        1.5530    -0.7330     0.1160 C.ar  1 <1>  -0.1500 
  8 C       -2.9750    -1.6940    -0.3560 C.3   1 <1>   0.2890 
  9 C       -1.3290    -1.5030    -2.2790 C.3   1 <1>  -0.1600 
 10 C       -2.2550    -3.9940     0.5160 C.3   1 <1>   0.2090 
 11 C        3.0250    -2.4400    -1.4700 C.ar  1 <1>  -0.1500 
 12 C        2.8530    -0.4060    -0.2310 C.ar  1 <1>  -0.1500 
 13 N       -3.2460    -3.1690    -0.2220 N.pl3 1 <1>  -0.8380 
 14 C       -3.9730    -1.0930    -1.3790 C.3   1 <1>  -0.1600 
 15 C       -2.1620    -0.4340    -3.0140 C.3   1 <1>  -0.1600 
 16 C        3.5910    -1.2610    -1.0250 C.ar  1 <1>  -0.1500 
 17 C       -4.5600    -3.5670    -0.0290 C.ar  1 <1>   0.4100 
 18 C       -3.3800     0.0530    -2.2090 C.3   1 <1>  -0.1600 
 19 N       -5.1130    -3.1140     1.0920 N.ar  1 <1>  -0.6200 
 20 C       -5.2440    -4.3980    -0.9500 C.ar  1 <1>   0.3830 
 21 C       -6.3610    -3.5100     1.2440 C.ar  1 <1>   0.1600 
 22 N       -6.5080    -4.7880    -0.7740 N.ar  1 <1>  -0.6200 
 23 C       -4.5390    -4.8390    -2.1210 C.1   1 <1>   0.4840 
 24 C       -7.0380    -4.3180     0.3430 C.ar  1 <1>   0.1600 
 25 N       -3.9700    -5.1980    -3.0470 N.1   1 <1>  -0.5570 
 26 H       -1.5740    -2.0270     1.6670 H     1 <1>   0.4000 
 27 H       -1.3000    -0.3700    -0.4980 H     1 <1>   0.0800 
 28 H       -0.7930    -4.0680    -1.0080 H     1 <1>   0.0800 
 29 H       -0.1350    -4.2820     0.5850 H     1 <1>   0.0800 
 30 H        1.3230    -3.6860    -1.4970 H     1 <1>   0.1500 
 31 H        0.9970    -0.0530     0.7380 H     1 <1>   0.1500 
 32 H       -3.1600    -1.2320     0.6000 H     1 <1>   0.0800 
 33 H       -0.2990    -1.3850    -2.5650 H     1 <1>   0.0800 
 34 H       -1.6480    -2.4800    -2.6020 H     1 <1>   0.0800 
 35 H       -2.3270    -3.7840     1.5710 H     1 <1>   0.0800 
 36 H       -2.4820    -5.0370     0.3760 H     1 <1>   0.0800 
 37 H        3.5970    -3.1080    -2.0900 H     1 <1>   0.1500 
 38 H        3.2870     0.5130     0.1210 H     1 <1>   0.1500 
 39 H       -4.2810    -1.8500    -2.0780 H     1 <1>   0.0800 
 40 H       -4.8450    -0.7450    -0.8560 H     1 <1>   0.0800 
 41 H       -1.5390     0.4150    -3.2390 H     1 <1>   0.0800 
 42 H       -2.4930    -0.8460    -3.9520 H     1 <1>   0.0800 
 43 H        4.6020    -1.0100    -1.2960 H     1 <1>   0.1500 
 44 H       -4.1230     0.4450    -2.8820 H     1 <1>   0.0800 
 45 H       -3.0840     0.8520    -1.5500 H     1 <1>   0.0800 
 46 H       -6.8780    -3.1790     2.1280 H     1 <1>   0.1500 
 47 H       -8.0580    -4.5890     0.5550 H     1 <1>   0.1500 
@<TRIPOS>BOND
  1   1   2  1   
  2   1  26  1   
  3   2   3  1   
  4   2   4  1   
  5   2   5  1   
  6   3   6  ar  
  7   3   7  ar  
  8   4   8  1   
  9   4   9  1   
 10   4  27  1   
 11   5  10  1   
 12   5  28  1   
 13   5  29  1   
 14   6  11  ar  
 15   6  30  1   
 16   7  12  ar  
 17   7  31  1   
 18   8  13  1   
 19   8  14  1   
 20   8  32  1   
 21   9  15  1   
 22   9  33  1   
 23   9  34  1   
 24  10  13  1   
 25  10  35  1   
 26  10  36  1   
 27  11  16  ar  
 28  11  37  1   
 29  12  16  ar  
 30  12  38  1   
 31  13  17  1   
 32  14  18  1   
 33  14  39  1   
 34  14  40  1   
 35  15  18  1   
 36  15  41  1   
 37  15  42  1   
 38  16  43  1   
 39  17  19  ar  
 40  17  20  ar  
 41  18  44  1   
 42  18  45  1   
 43  19  21  ar  
 44  20  22  ar  
 45  20  23  1   
 46  21  24  ar  
 47  21  46  1   
 48  22  24  ar  
 49  23  25  3   
 50  24  47  1   
@<TRIPOS>SUBSTRUCTURE
  1 ****   8 GROUP 4 **** **** 0

# MOE 2024.06 (io_trps.svl 2023.06)
