@<TRIPOS>MOLECULE
NONAME
44 45 1 0 0 
SMALL
USER_CHARGES


@<TRIPOS>ATOM
  1 S        0.4030     0.0510    -1.0510 S.o2  1 <1>   1.3330 
  2 O       -0.6140     0.2650    -2.0550 O.2   1 <1>  -0.6500 
  3 O        1.6710    -0.5300    -1.4330 O.2   1 <1>  -0.6500 
  4 N       -0.2890    -0.9490     0.1370 N.am  1 <1>  -0.8490 
  5 C        0.6960     1.5940    -0.1710 C.3   1 <1>  -0.0550 
  6 C       -1.7300    -0.7360     0.3140 C.3   1 <1>   0.1160 
  7 C       -0.0280    -2.3700    -0.1150 C.3   1 <1>   0.1160 
  8 C        1.9570     1.6800     0.7180 C.3   1 <1>  -0.0800 
  9 C        3.2630     1.6810    -0.0810 C.3   1 <1>   0.2200 
 10 C        2.1630     0.5700     1.7560 C.3   1 <1>   0.1200 
 11 N        3.9520     2.9750     0.1240 N.am  1 <1>  -0.7300 
 12 C        4.0590     0.5390     0.5470 C.3   1 <1>   0.1200 
 13 O        3.5400     0.3990     1.8300 O.3   1 <1>  -0.5600 
 14 C        3.6560     4.1180    -0.5600 C.2   1 <1>   0.5440 
 15 O        2.8010     4.0730    -1.4220 O.2   1 <1>  -0.5700 
 16 C        4.3220     5.3540    -0.2460 C.ar  1 <1>   0.0860 
 17 C        5.6900     5.5380    -0.4290 C.ar  1 <1>   0.1900 
 18 C        3.6390     6.4540     0.2660 C.ar  1 <1>   0.1900 
 19 F        6.3940     4.5420    -0.8950 F     1 <1>  -0.1900 
 20 C        6.3520     6.7270    -0.1400 C.ar  1 <1>  -0.1440 
 21 F        2.3580     6.3600     0.4980 F     1 <1>  -0.1900 
 22 C        4.2530     7.6560     0.5660 C.ar  1 <1>  -0.1500 
 23 C        5.6170     7.7920     0.3610 C.ar  1 <1>  -0.1500 
 24 C        7.8510     6.8700    -0.3660 C.3   1 <1>  -0.0970 
 25 H        0.7700     2.3810    -0.8980 H     1 <1>   0.0800 
 26 H       -0.1620     1.8140     0.4320 H     1 <1>   0.0800 
 27 H       -2.0920    -1.3230     1.1400 H     1 <1>   0.0800 
 28 H       -2.2650    -1.0190    -0.5780 H     1 <1>   0.0800 
 29 H       -1.9310     0.3010     0.5200 H     1 <1>   0.0800 
 30 H       -0.4720    -2.9750     0.6570 H     1 <1>   0.0800 
 31 H        1.0340    -2.5560    -0.1170 H     1 <1>   0.0800 
 32 H       -0.4310    -2.6610    -1.0710 H     1 <1>   0.0800 
 33 H        1.8820     2.6020     1.2670 H     1 <1>   0.0800 
 34 H        3.1220     1.5120    -1.1360 H     1 <1>   0.0800 
 35 H        1.7450    -0.3720     1.4530 H     1 <1>   0.0800 
 36 H        1.7890     0.8390     2.7280 H     1 <1>   0.0800 
 37 H        4.5950     2.9950     0.9170 H     1 <1>   0.3700 
 38 H        5.1140     0.7370     0.5980 H     1 <1>   0.0800 
 39 H        3.8810    -0.3810     0.0160 H     1 <1>   0.0800 
 40 H        3.6720     8.4720     0.9570 H     1 <1>   0.1500 
 41 H        6.0980     8.7280     0.5930 H     1 <1>   0.1500 
 42 H        8.1890     7.8580    -0.1110 H     1 <1>   0.0800 
 43 H        8.0860     6.6850    -1.3990 H     1 <1>   0.0800 
 44 H        8.3840     6.1590     0.2410 H     1 <1>   0.0800 
@<TRIPOS>BOND
  1   1   2  2   
  2   1   3  2   
  3   1   4  am  
  4   1   5  1   
  5   4   6  1   
  6   4   7  1   
  7   5   8  1   
  8   5  25  1   
  9   5  26  1   
 10   6  27  1   
 11   6  28  1   
 12   6  29  1   
 13   7  30  1   
 14   7  31  1   
 15   7  32  1   
 16   8   9  1   
 17   8  10  1   
 18   8  33  1   
 19   9  11  1   
 20   9  12  1   
 21   9  34  1   
 22  10  13  1   
 23  10  35  1   
 24  10  36  1   
 25  11  14  am  
 26  11  37  1   
 27  12  13  1   
 28  12  38  1   
 29  12  39  1   
 30  14  15  2   
 31  14  16  1   
 32  16  17  ar  
 33  16  18  ar  
 34  17  19  1   
 35  17  20  ar  
 36  18  21  1   
 37  18  22  ar  
 38  20  23  ar  
 39  20  24  1   
 40  22  23  ar  
 41  22  40  1   
 42  23  41  1   
 43  24  42  1   
 44  24  43  1   
 45  24  44  1   
@<TRIPOS>SUBSTRUCTURE
  1 ****  11 GROUP 4 **** **** 0

# MOE 2024.06 (io_trps.svl 2023.06)
