@<TRIPOS>MOLECULE
NONAME
44 46 1 0 0 
SMALL
USER_CHARGES


@<TRIPOS>ATOM
  1 O       -0.0510     0.8500    -0.7910 O.3   1 <1>  -0.3630 
  2 C        1.0910     0.6830    -0.0750 C.ar  1 <1>   0.0830 
  3 C       -1.1610     1.3460    -0.0780 C.3   1 <1>   0.0400 
  4 C        1.8170     1.7880     0.3850 C.ar  1 <1>   0.0830 
  5 C        1.5350    -0.6100     0.2030 C.ar  1 <1>  -0.1440 
  6 O        1.4600     3.0670     0.1080 O.3   1 <1>  -0.3620 
  7 C        2.9480     1.6010     1.1580 C.ar  1 <1>  -0.1500 
  8 C        2.6830    -0.7730     0.9710 C.ar  1 <1>  -0.1500 
  9 C        0.7840    -1.8450    -0.3090 C.3   1 <1>   0.0630 
 10 C        1.5790     3.4700    -1.2380 C.3   1 <1>   0.0400 
 11 C        3.3820     0.3210     1.4510 C.ar  1 <1>  -0.1500 
 12 C        0.3110    -2.7800     0.8050 C.3   1 <1>   0.2090 
 13 C        1.6250    -2.7310    -1.2300 C.3   1 <1>  -0.1600 
 14 N        0.3830    -4.1430     0.2250 N.pl3 1 <1>  -0.8380 
 15 C        0.9920    -4.1120    -1.1220 C.3   1 <1>   0.2090 
 16 C       -0.3730    -5.1980     0.6760 C.ar  1 <1>   0.7200 
 17 N       -0.4220    -6.2720    -0.1000 N.ar  1 <1>  -0.6200 
 18 N       -0.9780    -5.0400     1.8520 N.ar  1 <1>  -0.6200 
 19 C       -1.1370    -7.2730     0.3460 C.ar  1 <1>   0.3930 
 20 C       -1.6860    -6.0570     2.2760 C.ar  1 <1>   0.1600 
 21 O       -1.1720    -8.3530    -0.4590 O.3   1 <1>  -0.3630 
 22 C       -1.8030    -7.2160     1.5550 C.ar  1 <1>  -0.1500 
 23 C       -1.8720    -9.5330    -0.1330 C.3   1 <1>   0.0400 
 24 H       -2.0100     1.3510    -0.7370 H     1 <1>   0.0800 
 25 H       -0.9510     2.3460     0.2570 H     1 <1>   0.0800 
 26 H       -1.3490     0.7020     0.7640 H     1 <1>   0.0800 
 27 H        3.4860     2.4570     1.5230 H     1 <1>   0.1500 
 28 H        3.0420    -1.7600     1.2040 H     1 <1>   0.1500 
 29 H       -0.0950    -1.5570    -0.8570 H     1 <1>   0.0800 
 30 H        1.3710     4.5230    -1.2940 H     1 <1>   0.0800 
 31 H        0.8730     2.9250    -1.8380 H     1 <1>   0.0800 
 32 H        2.5830     3.2740    -1.5720 H     1 <1>   0.0800 
 33 H        4.2640     0.1750     2.0490 H     1 <1>   0.1500 
 34 H       -0.6930    -2.5370     1.1070 H     1 <1>   0.0800 
 35 H        0.9600    -2.7340     1.6610 H     1 <1>   0.0800 
 36 H        2.6390    -2.7940    -0.8820 H     1 <1>   0.0800 
 37 H        1.6260    -2.3710    -2.2430 H     1 <1>   0.0800 
 38 H        1.7220    -4.8970    -1.2280 H     1 <1>   0.0800 
 39 H        0.2190    -4.2360    -1.8620 H     1 <1>   0.0800 
 40 H       -2.1850    -5.9600     3.2250 H     1 <1>   0.1500 
 41 H       -2.3900    -8.0290     1.9300 H     1 <1>   0.1500 
 42 H       -1.7310   -10.2350    -0.9350 H     1 <1>   0.0800 
 43 H       -2.9180    -9.3030    -0.0300 H     1 <1>   0.0800 
 44 H       -1.4710    -9.9370     0.7800 H     1 <1>   0.0800 
@<TRIPOS>BOND
  1   1   2  1   
  2   1   3  1   
  3   2   4  ar  
  4   2   5  ar  
  5   3  24  1   
  6   3  25  1   
  7   3  26  1   
  8   4   6  1   
  9   4   7  ar  
 10   5   8  ar  
 11   5   9  1   
 12   6  10  1   
 13   7  11  ar  
 14   7  27  1   
 15   8  11  ar  
 16   8  28  1   
 17   9  12  1   
 18   9  13  1   
 19   9  29  1   
 20  10  30  1   
 21  10  31  1   
 22  10  32  1   
 23  11  33  1   
 24  12  14  1   
 25  12  34  1   
 26  12  35  1   
 27  13  15  1   
 28  13  36  1   
 29  13  37  1   
 30  14  15  1   
 31  14  16  1   
 32  15  38  1   
 33  15  39  1   
 34  16  17  ar  
 35  16  18  ar  
 36  17  19  ar  
 37  18  20  ar  
 38  19  21  1   
 39  19  22  ar  
 40  20  22  ar  
 41  20  40  1   
 42  21  23  1   
 43  22  41  1   
 44  23  42  1   
 45  23  43  1   
 46  23  44  1   
@<TRIPOS>SUBSTRUCTURE
  1 ****  12 GROUP 4 **** **** 0

# MOE 2024.06 (io_trps.svl 2023.06)
