@<TRIPOS>MOLECULE
NONAME
54 57 1 0 0 
SMALL
USER_CHARGES


@<TRIPOS>ATOM
  1 F        0.6530    -0.4390    -1.0680 F     1 <1>  -0.1900 
  2 C        1.7230    -1.1250    -0.7530 C.ar  1 <1>   0.1900 
  3 C        1.8810    -1.5530     0.5520 C.ar  1 <1>  -0.1500 
  4 C        2.6560    -1.3940    -1.7370 C.ar  1 <1>  -0.1500 
  5 C        3.0140    -2.2790     0.8760 C.ar  1 <1>  -0.1500 
  6 C        3.7840    -2.1200    -1.3970 C.ar  1 <1>  -0.1500 
  7 C        3.9690    -2.5740    -0.0930 C.ar  1 <1>   0.1000 
  8 N        5.0930    -3.3090     0.2490 N.pl3 1 <1>  -0.8690 
  9 C        5.3190    -4.6070    -0.4570 C.3   1 <1>   0.2700 
 10 C        5.7240    -5.7590     0.4860 C.2   1 <1>   0.5690 
 11 O        5.5190    -5.6380     1.6740 O.2   1 <1>  -0.5700 
 12 N        6.2920    -6.9190     0.0080 N.am  1 <1>  -0.6600 
 13 C        6.9410    -7.8470     0.9950 C.3   1 <1>   0.2200 
 14 C        6.1840    -7.3540    -1.4080 C.3   1 <1>   0.1400 
 15 C        8.1250    -8.6600     0.4090 C.3   1 <1>   0.1200 
 16 C        5.8520    -8.7180     1.6650 C.3   1 <1>   0.3430 
 17 C        5.8720    -8.8520    -1.5280 C.3   1 <1>  -0.0800 
 18 O        7.7140    -9.8360    -0.2420 O.3   1 <1>  -0.5600 
 19 N        5.2770    -9.7850     0.7710 N.4   1 <1>  -0.9590 
 20 C        7.1640    -9.7000    -1.5190 C.3   1 <1>   0.1200 
 21 C        4.7590    -9.3130    -0.5560 C.3   1 <1>   0.3430 
 22 C        4.3360   -10.6790     1.4930 C.3   1 <1>   0.4860 
 23 C        4.0570   -11.8900     0.6290 C.ar  1 <1>  -0.1430 
 24 C        2.7940   -12.0750     0.0870 C.ar  1 <1>   0.1600 
 25 C        5.0460   -12.8160     0.3500 C.ar  1 <1>  -0.1500 
 26 N        2.4570   -13.0700    -0.7110 N.ar  1 <1>  -0.6200 
 27 C        4.7010   -13.8680    -0.4710 C.ar  1 <1>  -0.1500 
 28 C        3.4130   -13.9480    -0.9700 C.ar  1 <1>   0.1600 
 29 H        1.1360    -1.3190     1.2900 H     1 <1>   0.1500 
 30 H        2.5000    -1.0370    -2.7390 H     1 <1>   0.1500 
 31 H        3.1610    -2.6190     1.8850 H     1 <1>   0.1500 
 32 H        4.5330    -2.3290    -2.1370 H     1 <1>   0.1500 
 33 H        5.1770    -3.4750     1.2640 H     1 <1>   0.4000 
 34 H        4.4190    -4.8880    -0.9730 H     1 <1>   0.0800 
 35 H        6.0980    -4.4630    -1.1830 H     1 <1>   0.0800 
 36 H        7.3670    -7.2290     1.7690 H     1 <1>   0.0800 
 37 H        5.3930    -6.8060    -1.8910 H     1 <1>   0.0800 
 38 H        7.1010    -7.1190    -1.9250 H     1 <1>   0.0800 
 39 H        8.7610    -8.9720     1.2190 H     1 <1>   0.0800 
 40 H        8.7200    -8.0630    -0.2620 H     1 <1>   0.0800 
 41 H        5.0670    -8.0670     2.0150 H     1 <1>   0.0800 
 42 H        6.2930    -9.1890     2.5280 H     1 <1>   0.0800 
 43 H        5.4660    -8.9670    -2.5180 H     1 <1>   0.0800 
 44 H        6.1050   -10.3550     0.5110 H     1 <1>   0.4500 
 45 H        7.9140    -9.2770    -2.1680 H     1 <1>   0.0800 
 46 H        6.9470   -10.6950    -1.8730 H     1 <1>   0.0800 
 47 H        4.2390   -10.1280    -1.0340 H     1 <1>   0.0800 
 48 H        4.0490    -8.5150    -0.4100 H     1 <1>   0.0800 
 49 H        4.7730   -11.0040     2.4240 H     1 <1>   0.0800 
 50 H        3.4190   -10.1560     1.7100 H     1 <1>   0.0800 
 51 H        2.0110   -11.3690     0.3100 H     1 <1>   0.1500 
 52 H        6.0450   -12.7400     0.7470 H     1 <1>   0.1500 
 53 H        5.4210   -14.6270    -0.7250 H     1 <1>   0.1500 
 54 H        3.1540   -14.7740    -1.6120 H     1 <1>   0.1500 
@<TRIPOS>BOND
  1   1   2  1   
  2   2   3  ar  
  3   2   4  ar  
  4   3   5  ar  
  5   3  29  1   
  6   4   6  ar  
  7   4  30  1   
  8   5   7  ar  
  9   5  31  1   
 10   6   7  ar  
 11   6  32  1   
 12   7   8  1   
 13   8   9  1   
 14   8  33  1   
 15   9  10  1   
 16   9  34  1   
 17   9  35  1   
 18  10  11  2   
 19  10  12  am  
 20  12  13  1   
 21  12  14  1   
 22  13  15  1   
 23  13  16  1   
 24  13  36  1   
 25  14  17  1   
 26  14  37  1   
 27  14  38  1   
 28  15  18  1   
 29  15  39  1   
 30  15  40  1   
 31  16  19  1   
 32  16  41  1   
 33  16  42  1   
 34  17  20  1   
 35  17  21  1   
 36  17  43  1   
 37  18  20  1   
 38  19  21  1   
 39  19  22  1   
 40  19  44  1   
 41  20  45  1   
 42  20  46  1   
 43  21  47  1   
 44  21  48  1   
 45  22  23  1   
 46  22  49  1   
 47  22  50  1   
 48  23  24  ar  
 49  23  25  ar  
 50  24  26  ar  
 51  24  51  1   
 52  25  27  ar  
 53  25  52  1   
 54  26  28  ar  
 55  27  28  ar  
 56  27  53  1   
 57  28  54  1   
@<TRIPOS>SUBSTRUCTURE
  1 ****  12 GROUP 4 **** **** 0

# MOE 2024.06 (io_trps.svl 2023.06)
