@<TRIPOS>MOLECULE
NONAME
44 46 1 0 0 
SMALL
USER_CHARGES


@<TRIPOS>ATOM
  1 CL       1.9130    -2.4720     2.7400 Cl    1 <1>  -0.1770 
  2 C        0.9930    -2.5010     1.2510 C.ar  1 <1>   0.1770 
  3 C        1.5810    -2.1280     0.0500 C.ar  1 <1>  -0.0320 
  4 C       -0.3330    -2.8890     1.3160 C.ar  1 <1>  -0.1500 
  5 C        0.7990    -2.1270    -1.0950 C.ar  1 <1>  -0.1500 
  6 C        3.0400    -1.7040    -0.0320 C.3   1 <1>   0.1810 
  7 C       -1.0980    -2.8970     0.1620 C.ar  1 <1>  -0.1500 
  8 C       -0.5310    -2.5130    -1.0420 C.ar  1 <1>  -0.1500 
  9 N        3.2300    -0.3010     0.3430 N.am  1 <1>  -0.5790 
 10 C        3.9350    -2.2750    -1.0870 C.3   1 <1>  -0.2000 
 11 C        4.1350    -2.6520     0.3440 C.3   1 <1>  -0.2000 
 12 C        3.0940     0.7640    -0.4900 C.2   1 <1>   0.5690 
 13 O        2.8820     0.6390    -1.6730 O.2   1 <1>  -0.5700 
 14 C        3.2150     2.1640     0.1150 C.3   1 <1>  -0.0190 
 15 C        2.3790     3.2190    -0.6400 C.3   1 <1>  -0.1600 
 16 C        4.6960     2.6030     0.2020 C.3   1 <1>  -0.1600 
 17 C        2.3900     4.5900     0.0700 C.3   1 <1>   0.2000 
 18 C        4.8860     4.1270     0.3390 C.3   1 <1>  -0.1600 
 19 O        2.3340     5.6010    -0.9070 O.3   1 <1>  -0.5600 
 20 C        3.6530     4.8020     0.9460 C.3   1 <1>   0.2000 
 21 C        1.0780     5.8110    -1.4750 C.3   1 <1>   0.0400 
 22 O        3.9120     6.1520     1.0530 O.3   1 <1>  -0.6800 
 23 H       -0.7600    -3.1790     2.2590 H     1 <1>   0.1500 
 24 H        1.2310    -1.8180    -2.0330 H     1 <1>   0.1500 
 25 H       -2.1310    -3.1990     0.2000 H     1 <1>   0.1500 
 26 H       -1.1240    -2.5110    -1.9400 H     1 <1>   0.1500 
 27 H        3.3460    -0.1550     1.3440 H     1 <1>   0.3700 
 28 H        3.5450    -3.0210    -1.7570 H     1 <1>   0.1000 
 29 H        4.6320    -1.6120    -1.5690 H     1 <1>   0.1000 
 30 H        5.0000    -2.2750     0.8580 H     1 <1>   0.1000 
 31 H        3.8800    -3.6550     0.6390 H     1 <1>   0.1000 
 32 H        2.8220     2.1080     1.1150 H     1 <1>   0.0800 
 33 H        1.3650     2.8730    -0.7320 H     1 <1>   0.0800 
 34 H        2.7880     3.3250    -1.6310 H     1 <1>   0.0800 
 35 H        5.1540     2.1080     1.0410 H     1 <1>   0.0800 
 36 H        5.2180     2.2780    -0.6830 H     1 <1>   0.0800 
 37 H        1.5280     4.6830     0.7100 H     1 <1>   0.0800 
 38 H        5.0520     4.5450    -0.6400 H     1 <1>   0.0800 
 39 H        5.7520     4.3320     0.9440 H     1 <1>   0.0800 
 40 H        3.4890     4.4190     1.9390 H     1 <1>   0.0800 
 41 H        1.1620     6.6210    -2.1790 H     1 <1>   0.0800 
 42 H        0.3770     6.0750    -0.7030 H     1 <1>   0.0800 
 43 H        0.7600     4.9210    -1.9900 H     1 <1>   0.0800 
 44 H        3.5980     6.5500     0.2090 H     1 <1>   0.4000 
@<TRIPOS>BOND
  1   1   2  1   
  2   2   3  ar  
  3   2   4  ar  
  4   3   5  ar  
  5   3   6  1   
  6   4   7  ar  
  7   4  23  1   
  8   5   8  ar  
  9   5  24  1   
 10   6   9  1   
 11   6  10  1   
 12   6  11  1   
 13   7   8  ar  
 14   7  25  1   
 15   8  26  1   
 16   9  12  am  
 17   9  27  1   
 18  10  11  1   
 19  10  28  1   
 20  10  29  1   
 21  11  30  1   
 22  11  31  1   
 23  12  13  2   
 24  12  14  1   
 25  14  15  1   
 26  14  16  1   
 27  14  32  1   
 28  15  17  1   
 29  15  33  1   
 30  15  34  1   
 31  16  18  1   
 32  16  35  1   
 33  16  36  1   
 34  17  19  1   
 35  17  20  1   
 36  17  37  1   
 37  18  20  1   
 38  18  38  1   
 39  18  39  1   
 40  19  21  1   
 41  20  22  1   
 42  20  40  1   
 43  21  41  1   
 44  21  42  1   
 45  21  43  1   
 46  22  44  1   
@<TRIPOS>SUBSTRUCTURE
  1 ****  12 GROUP 4 **** **** 0

# MOE 2024.06 (io_trps.svl 2023.06)
