@<TRIPOS>MOLECULE
NONAME
54 57 1 0 0 
SMALL
USER_CHARGES


@<TRIPOS>ATOM
  1 S       -1.8310     0.1620    -1.8180 S.3   1 <1>  -0.3320 
  2 C       -0.7980     1.1540    -0.7210 C.ar  1 <1>   0.1020 
  3 C       -2.8090    -1.0060    -0.7740 C.3   1 <1>   0.1500 
  4 C       -0.1700     2.2500    -1.2860 C.ar  1 <1>  -0.1500 
  5 C       -0.6220     0.8500     0.6200 C.ar  1 <1>  -0.1500 
  6 C       -3.4110    -2.0620    -1.7020 C.3   1 <1>  -0.1600 
  7 C       -3.9030    -0.2130    -0.0500 C.3   1 <1>  -0.1600 
  8 C        0.6380     3.0640    -0.5080 C.ar  1 <1>  -0.1430 
  9 C        0.1860     1.6630     1.3970 C.ar  1 <1>  -0.1500 
 10 C       -4.3460    -2.9890    -0.9270 C.3   1 <1>   0.2090 
 11 C       -4.8270    -1.1590     0.7160 C.3   1 <1>   0.2090 
 12 C        0.8120     2.7640     0.8350 C.ar  1 <1>  -0.1500 
 13 C        1.3300     4.2690    -1.1170 C.3   1 <1>  -0.0960 
 14 N       -5.3750    -2.1780    -0.2190 N.pl3 1 <1>  -0.8380 
 15 C       -6.6060    -2.7430     0.0800 C.ar  1 <1>   0.4100 
 16 N       -6.6220    -4.0490     0.2900 N.ar  1 <1>  -0.6200 
 17 C       -7.7630    -1.9520     0.1590 C.ar  1 <1>   0.1600 
 18 C       -7.8370    -4.5340     0.5970 C.ar  1 <1>   0.3960 
 19 N       -8.9660    -2.3940     0.4680 N.ar  1 <1>  -0.6200 
 20 C       -8.0270    -5.9580     0.8620 C.2   1 <1>   0.5440 
 21 C       -8.9560    -3.7020     0.6890 C.ar  1 <1>   0.1600 
 22 O       -8.7570    -6.2900     1.7810 O.2   1 <1>  -0.5700 
 23 N       -7.4380    -6.9650     0.1160 N.am  1 <1>  -0.6600 
 24 C       -6.7380    -6.7750    -1.1890 C.3   1 <1>   0.1400 
 25 C       -7.2680    -8.3490     0.6480 C.3   1 <1>   0.1400 
 26 C       -5.2690    -7.2020    -1.0540 C.3   1 <1>   0.1200 
 27 C       -5.7750    -8.7240     0.6680 C.3   1 <1>   0.1200 
 28 O       -5.1860    -8.5210    -0.5890 O.3   1 <1>  -0.5600 
 29 H       -2.1330    -1.4730    -0.0810 H     1 <1>   0.0800 
 30 H       -0.3180     2.4590    -2.3290 H     1 <1>   0.1500 
 31 H       -1.0900     0.0000     1.0700 H     1 <1>   0.1500 
 32 H       -2.6250    -2.6390    -2.1540 H     1 <1>   0.0800 
 33 H       -3.9710    -1.5830    -2.4860 H     1 <1>   0.0800 
 34 H       -4.4860     0.3380    -0.7660 H     1 <1>   0.0800 
 35 H       -3.4640     0.4890     0.6340 H     1 <1>   0.0800 
 36 H        0.3330     1.4390     2.4390 H     1 <1>   0.1500 
 37 H       -3.7910    -3.5650    -0.2060 H     1 <1>   0.0800 
 38 H       -4.8250    -3.6700    -1.6100 H     1 <1>   0.0800 
 39 H       -5.6250    -0.5980     1.1710 H     1 <1>   0.0800 
 40 H       -4.2790    -1.6580     1.4980 H     1 <1>   0.0800 
 41 H        1.4390     3.3870     1.4480 H     1 <1>   0.1500 
 42 H        0.8120     4.5970    -2.0000 H     1 <1>   0.0800 
 43 H        2.3400     4.0120    -1.3830 H     1 <1>   0.0800 
 44 H        1.3510     5.0820    -0.4140 H     1 <1>   0.0800 
 45 H       -7.6580    -0.9050    -0.0510 H     1 <1>   0.1500 
 46 H       -9.8950    -4.1540     0.9590 H     1 <1>   0.1500 
 47 H       -6.7970    -5.7570    -1.5240 H     1 <1>   0.0800 
 48 H       -7.2130    -7.3890    -1.9340 H     1 <1>   0.0800 
 49 H       -7.8030    -9.0410     0.0220 H     1 <1>   0.0800 
 50 H       -7.6650    -8.4270     1.6450 H     1 <1>   0.0800 
 51 H       -4.7500    -6.5570    -0.3660 H     1 <1>   0.0800 
 52 H       -4.7790    -7.1600    -2.0100 H     1 <1>   0.0800 
 53 H       -5.6570    -9.7620     0.9230 H     1 <1>   0.0800 
 54 H       -5.2490    -8.1280     1.3940 H     1 <1>   0.0800 
@<TRIPOS>BOND
  1   1   2  1   
  2   1   3  1   
  3   2   4  ar  
  4   2   5  ar  
  5   3   6  1   
  6   3   7  1   
  7   3  29  1   
  8   4   8  ar  
  9   4  30  1   
 10   5   9  ar  
 11   5  31  1   
 12   6  10  1   
 13   6  32  1   
 14   6  33  1   
 15   7  11  1   
 16   7  34  1   
 17   7  35  1   
 18   8  12  ar  
 19   8  13  1   
 20   9  12  ar  
 21   9  36  1   
 22  10  14  1   
 23  10  37  1   
 24  10  38  1   
 25  11  14  1   
 26  11  39  1   
 27  11  40  1   
 28  12  41  1   
 29  13  42  1   
 30  13  43  1   
 31  13  44  1   
 32  14  15  1   
 33  15  16  ar  
 34  15  17  ar  
 35  16  18  ar  
 36  17  19  ar  
 37  17  45  1   
 38  18  20  1   
 39  18  21  ar  
 40  19  21  ar  
 41  20  22  2   
 42  20  23  am  
 43  21  46  1   
 44  23  24  1   
 45  23  25  1   
 46  24  26  1   
 47  24  47  1   
 48  24  48  1   
 49  25  27  1   
 50  25  49  1   
 51  25  50  1   
 52  26  28  1   
 53  26  51  1   
 54  26  52  1   
 55  27  28  1   
 56  27  53  1   
 57  27  54  1   
@<TRIPOS>SUBSTRUCTURE
  1 ****  14 GROUP 4 **** **** 0

# MOE 2024.06 (io_trps.svl 2023.06)
