@<TRIPOS>MOLECULE
NONAME
46 48 1 0 0 
SMALL
USER_CHARGES


@<TRIPOS>ATOM
  1 CL      -1.0960    -0.0230    -1.7230 Cl    1 <1>  -0.1400 
  2 C       -1.9290    -0.9340    -0.4810 C.2   1 <1>   0.1540 
  3 C       -2.4080    -0.2380     0.6730 C.2   1 <1>   0.6160 
  4 C       -2.1080    -2.2740    -0.6310 C.2   1 <1>  -0.1500 
  5 O       -2.2960     0.9600     0.8780 O.2   1 <1>  -0.5700 
  6 N       -3.0490    -0.9910     1.6210 N.am  1 <1>  -0.5390 
  7 C       -2.7910    -3.0300     0.3740 C.2   1 <1>   0.0140 
  8 C       -3.2310    -2.3460     1.4830 C.2   1 <1>  -0.0410 
  9 C       -2.9780    -4.4540     0.2030 C.2   1 <1>   0.6160 
 10 O       -2.1680    -5.1010    -0.4370 O.2   1 <1>  -0.5700 
 11 N       -4.0650    -5.1120     0.7310 N.am  1 <1>  -0.6600 
 12 C       -4.0540    -6.6000     0.9060 C.3   1 <1>   0.1400 
 13 C       -5.4520    -4.5680     0.6130 C.3   1 <1>   0.1400 
 14 C       -4.9230    -7.2870    -0.1620 C.3   1 <1>   0.3430 
 15 C       -6.2590    -5.3580    -0.4450 C.3   1 <1>   0.2000 
 16 O       -6.2120    -6.7280    -0.1590 O.3   1 <1>  -0.5600 
 17 C       -5.0130    -8.7860     0.1040 C.ar  1 <1>  -0.1430 
 18 C       -7.7440    -4.9430    -0.5530 C.3   1 <1>  -0.0800 
 19 C       -4.0860    -9.6400    -0.4770 C.ar  1 <1>  -0.1500 
 20 C       -5.9950    -9.3200     0.9290 C.ar  1 <1>  -0.1500 
 21 C       -7.9020    -3.4810    -1.0010 C.3   1 <1>  -0.2400 
 22 C       -8.5480    -5.1770     0.7380 C.3   1 <1>  -0.2400 
 23 C       -4.1370   -11.0030    -0.2370 C.ar  1 <1>  -0.1500 
 24 C       -6.0480   -10.6820     1.1690 C.ar  1 <1>  -0.1500 
 25 C       -5.1190   -11.5250     0.5860 C.ar  1 <1>  -0.1500 
 26 H       -1.7390    -2.7900    -1.5000 H     1 <1>   0.1500 
 27 H       -3.3590    -0.4610     2.4390 H     1 <1>   0.3700 
 28 H       -3.7320    -2.8630     2.2870 H     1 <1>   0.1500 
 29 H       -3.0500    -6.9800     0.8440 H     1 <1>   0.0800 
 30 H       -4.4370    -6.8480     1.8800 H     1 <1>   0.0800 
 31 H       -5.9380    -4.6410     1.5690 H     1 <1>   0.0800 
 32 H       -5.4220    -3.5320     0.3300 H     1 <1>   0.0800 
 33 H       -4.4930    -7.1240    -1.1350 H     1 <1>   0.0800 
 34 H       -5.8000    -5.2140    -1.4090 H     1 <1>   0.0800 
 35 H       -8.1780    -5.5590    -1.3240 H     1 <1>   0.0800 
 36 H       -3.3160    -9.2480    -1.1190 H     1 <1>   0.1500 
 37 H       -6.7240    -8.6720     1.3840 H     1 <1>   0.1500 
 38 H       -7.5580    -2.8000    -0.2430 H     1 <1>   0.0800 
 39 H       -8.9390    -3.2680    -1.1960 H     1 <1>   0.0800 
 40 H       -7.3500    -3.3040    -1.9070 H     1 <1>   0.0800 
 41 H       -8.2100    -4.5390     1.5340 H     1 <1>   0.0800 
 42 H       -8.4560    -6.2020     1.0540 H     1 <1>   0.0800 
 43 H       -9.5910    -4.9780     0.5640 H     1 <1>   0.0800 
 44 H       -3.4140   -11.6570    -0.6930 H     1 <1>   0.1500 
 45 H       -6.8140   -11.0840     1.8080 H     1 <1>   0.1500 
 46 H       -5.1600   -12.5840     0.7720 H     1 <1>   0.1500 
@<TRIPOS>BOND
  1   1   2  1   
  2   2   3  1   
  3   2   4  2   
  4   3   5  2   
  5   3   6  am  
  6   4   7  1   
  7   4  26  1   
  8   6   8  1   
  9   6  27  1   
 10   7   8  2   
 11   7   9  1   
 12   8  28  1   
 13   9  10  2   
 14   9  11  am  
 15  11  12  1   
 16  11  13  1   
 17  12  14  1   
 18  12  29  1   
 19  12  30  1   
 20  13  15  1   
 21  13  31  1   
 22  13  32  1   
 23  14  16  1   
 24  14  17  1   
 25  14  33  1   
 26  15  16  1   
 27  15  18  1   
 28  15  34  1   
 29  17  19  ar  
 30  17  20  ar  
 31  18  21  1   
 32  18  22  1   
 33  18  35  1   
 34  19  23  ar  
 35  19  36  1   
 36  20  24  ar  
 37  20  37  1   
 38  21  38  1   
 39  21  39  1   
 40  21  40  1   
 41  22  41  1   
 42  22  42  1   
 43  22  43  1   
 44  23  25  ar  
 45  23  44  1   
 46  24  25  ar  
 47  24  45  1   
 48  25  46  1   
@<TRIPOS>SUBSTRUCTURE
  1 ****  11 GROUP 4 **** **** 0

# MOE 2024.06 (io_trps.svl 2023.06)
