@<TRIPOS>MOLECULE
NONAME
54 57 1 0 0 
SMALL
USER_CHARGES


@<TRIPOS>ATOM
  1 CL       2.4680    -0.0340    -2.2750 Cl    1 <1>  -0.1770 
  2 C        3.1540     0.8860    -0.9570 C.ar  1 <1>   0.1770 
  3 C        3.3550     0.2870     0.2870 C.ar  1 <1>   0.0530 
  4 C        3.4990     2.2020    -1.2020 C.ar  1 <1>  -0.1500 
  5 C        2.9950    -1.0820     0.5560 C.2   1 <1>   0.0870 
  6 C        3.9330     1.0710     1.2840 C.ar  1 <1>  -0.1500 
  7 C        4.0670     2.9600    -0.1930 C.ar  1 <1>  -0.1500 
  8 O        3.9010    -1.9100     1.0530 O.3   1 <1>  -0.2800 
  9 C        1.8280    -1.7570     0.3940 C.2   1 <1>  -0.1500 
 10 C        4.2840     2.3890     1.0510 C.ar  1 <1>  -0.1500 
 11 C        3.3550    -3.1020     1.1980 C.2   1 <1>  -0.0400 
 12 C        2.0600    -3.0680     0.8160 C.2   1 <1>  -0.1500 
 13 C        4.1990    -4.2550     1.7310 C.3   1 <1>   0.2900 
 14 N        5.0220    -4.9070     0.6770 N.3   1 <1>  -0.8100 
 15 C        5.8840    -3.9710    -0.1020 C.3   1 <1>   0.1900 
 16 C        4.1340    -5.6760    -0.2190 C.3   1 <1>   0.1100 
 17 C        6.7970    -4.7390    -1.1010 C.3   1 <1>   0.0000 
 18 C        6.7210    -3.0260     0.8000 C.3   1 <1>   0.3430 
 19 C        4.9400    -6.4800    -1.2410 C.3   1 <1>  -0.1600 
 20 C        7.5880    -3.7160    -1.9730 C.3   1 <1>  -0.1600 
 21 C        5.8890    -5.5730    -2.0360 C.3   1 <1>  -0.1600 
 22 C        7.7600    -5.7300    -0.3720 C.3   1 <1>   0.1200 
 23 N        7.9620    -2.5050     0.1340 N.4   1 <1>  -0.9590 
 24 C        7.7840    -2.3370    -1.3250 C.3   1 <1>   0.3430 
 25 O        8.8580    -5.1100     0.2280 O.3   1 <1>  -0.6800 
 26 C        8.5020    -1.2960     0.8120 C.3   1 <1>   0.2630 
 27 H        3.3230     2.6290    -2.1730 H     1 <1>   0.1500 
 28 H        4.0980     0.6390     2.2560 H     1 <1>   0.1500 
 29 H        4.3360     3.9870    -0.3720 H     1 <1>   0.1500 
 30 H        0.8950    -1.3790     0.0140 H     1 <1>   0.1500 
 31 H        4.7230     2.9790     1.8390 H     1 <1>   0.1500 
 32 H        1.3340    -3.8610     0.8150 H     1 <1>   0.1500 
 33 H        3.5470    -4.9910     2.1690 H     1 <1>   0.0800 
 34 H        4.8330    -3.8950     2.5210 H     1 <1>   0.0800 
 35 H        5.2320    -3.3420    -0.6860 H     1 <1>   0.0800 
 36 H        3.5340    -6.3570     0.3610 H     1 <1>   0.0800 
 37 H        3.4710    -5.0060    -0.7410 H     1 <1>   0.0800 
 38 H        7.0100    -3.5750     1.6810 H     1 <1>   0.0800 
 39 H        6.1040    -2.1990     1.1020 H     1 <1>   0.0800 
 40 H        5.4820    -7.2570    -0.7320 H     1 <1>   0.0800 
 41 H        4.2580    -6.9630    -1.9190 H     1 <1>   0.0800 
 42 H        7.0810    -3.5450    -2.9060 H     1 <1>   0.0800 
 43 H        8.5500    -4.1230    -2.2310 H     1 <1>   0.0800 
 44 H        5.2850    -4.9160    -2.6380 H     1 <1>   0.0800 
 45 H        6.4830    -6.1710    -2.7060 H     1 <1>   0.0800 
 46 H        8.1510    -6.4400    -1.0810 H     1 <1>   0.0800 
 47 H        7.2330    -6.2770     0.3920 H     1 <1>   0.0800 
 48 H        8.6330    -3.3000     0.2270 H     1 <1>   0.4500 
 49 H        6.9190    -1.7200    -1.5110 H     1 <1>   0.0800 
 50 H        8.6460    -1.8560    -1.7580 H     1 <1>   0.0800 
 51 H        9.4410    -5.7960     0.6220 H     1 <1>   0.4000 
 52 H        7.8030    -0.4800     0.7310 H     1 <1>   0.0800 
 53 H        9.4350    -1.0020     0.3600 H     1 <1>   0.0800 
 54 H        8.6760    -1.5020     1.8550 H     1 <1>   0.0800 
@<TRIPOS>BOND
  1   1   2  1   
  2   2   3  ar  
  3   2   4  ar  
  4   3   5  1   
  5   3   6  ar  
  6   4   7  ar  
  7   4  27  1   
  8   5   8  1   
  9   5   9  2   
 10   6  10  ar  
 11   6  28  1   
 12   7  10  ar  
 13   7  29  1   
 14   8  11  1   
 15   9  12  1   
 16   9  30  1   
 17  10  31  1   
 18  11  12  2   
 19  11  13  1   
 20  12  32  1   
 21  13  14  1   
 22  13  33  1   
 23  13  34  1   
 24  14  15  1   
 25  14  16  1   
 26  15  17  1   
 27  15  18  1   
 28  15  35  1   
 29  16  19  1   
 30  16  36  1   
 31  16  37  1   
 32  17  20  1   
 33  17  21  1   
 34  17  22  1   
 35  18  23  1   
 36  18  38  1   
 37  18  39  1   
 38  19  21  1   
 39  19  40  1   
 40  19  41  1   
 41  20  24  1   
 42  20  42  1   
 43  20  43  1   
 44  21  44  1   
 45  21  45  1   
 46  22  25  1   
 47  22  46  1   
 48  22  47  1   
 49  23  24  1   
 50  23  26  1   
 51  23  48  1   
 52  24  49  1   
 53  24  50  1   
 54  25  51  1   
 55  26  52  1   
 56  26  53  1   
 57  26  54  1   
@<TRIPOS>SUBSTRUCTURE
  1 ****   8 GROUP 4 **** **** 0

# MOE 2024.06 (io_trps.svl 2023.06)
