@<TRIPOS>MOLECULE
NONAME
43 45 1 0 0 
SMALL
USER_CHARGES


@<TRIPOS>ATOM
  1 S       -0.0600     0.3040    -0.8420 S.3   1 <1>  -0.0800 
  2 C        0.1690     1.9690    -1.3340 C.ar  1 <1>   0.2970 
  3 C        1.4170     0.3160     0.1220 C.2   1 <1>  -0.1400 
  4 N       -0.6960     2.5870    -2.1080 N.ar  1 <1>  -0.5670 
  5 C        1.3310     2.4800    -0.8050 C.ar  1 <1>   0.0000 
  6 C        2.0190     1.5290     0.0590 C.2   1 <1>  -0.1810 
  7 C        1.6560    -1.0210     0.8050 C.3   1 <1>  -0.0600 
  8 C       -0.3400     3.8280    -2.3620 C.ar  1 <1>   0.4700 
  9 C        1.5950     3.8000    -1.2110 C.ar  1 <1>   0.4100 
 10 C        3.2760     2.0160     0.7870 C.3   1 <1>   0.0210 
 11 N        0.7440     4.4740    -1.9660 N.ar  1 <1>  -0.6200 
 12 N        2.7490     4.4820    -0.8960 N.pl3 1 <1>  -0.8380 
 13 C        3.8620     1.1140     1.8740 C.3   1 <1>  -0.2400 
 14 C        2.6010     5.8010    -0.2060 C.3   1 <1>   0.2090 
 15 C        3.9230     4.2680    -1.7890 C.3   1 <1>   0.2090 
 16 C        3.7340     6.0370     0.7890 C.3   1 <1>   0.0960 
 17 C        3.9930     5.3280    -2.8850 C.3   1 <1>  -0.2400 
 18 N        3.5810     7.3650     1.3960 N.pl3 1 <1>   0.3140 
 19 N        2.8290     7.5640     2.4930 N.2   1 <1>  -0.7070 
 20 C        4.1310     8.5190     0.9660 C.2   1 <1>  -0.3020 
 21 C        2.9190     8.8360     2.7350 C.2   1 <1>   0.1390 
 22 C        3.7230     9.4900     1.8090 C.2   1 <1>  -0.1500 
 23 H        1.5330    -1.8160     0.0900 H     1 <1>   0.0800 
 24 H        0.9370    -1.1570     1.5920 H     1 <1>   0.0800 
 25 H        2.6390    -1.1090     1.2160 H     1 <1>   0.0800 
 26 H       -1.0180     4.3930    -2.9800 H     1 <1>   0.1500 
 27 H        3.0310     2.9510     1.2580 H     1 <1>   0.0800 
 28 H        4.0440     2.2060     0.0610 H     1 <1>   0.0800 
 29 H        3.0970     0.8190     2.5700 H     1 <1>   0.0800 
 30 H        4.6230     1.6480     2.4140 H     1 <1>   0.0800 
 31 H        4.3190     0.2470     1.4340 H     1 <1>   0.0800 
 32 H        1.6650     5.8140     0.3280 H     1 <1>   0.0800 
 33 H        2.5740     6.5890    -0.9380 H     1 <1>   0.0800 
 34 H        3.8360     3.2980    -2.2500 H     1 <1>   0.0800 
 35 H        4.8290     4.2720    -1.2080 H     1 <1>   0.0800 
 36 H        4.6860     5.9970     0.2980 H     1 <1>   0.0800 
 37 H        3.6950     5.3000     1.5690 H     1 <1>   0.0800 
 38 H        3.0590     5.3690    -3.4180 H     1 <1>   0.0800 
 39 H        4.7700     5.0720    -3.5810 H     1 <1>   0.0800 
 40 H        4.2170     6.2950    -2.4750 H     1 <1>   0.0800 
 41 H        4.7670     8.5850     0.1020 H     1 <1>   0.1500 
 42 H        2.4240     9.3180     3.5610 H     1 <1>   0.1500 
 43 H        3.9500    10.5410     1.7970 H     1 <1>   0.1500 
@<TRIPOS>BOND
  1   1   2  1   
  2   1   3  1   
  3   2   4  ar  
  4   2   5  ar  
  5   3   6  2   
  6   3   7  1   
  7   4   8  ar  
  8   5   6  1   
  9   5   9  ar  
 10   6  10  1   
 11   7  23  1   
 12   7  24  1   
 13   7  25  1   
 14   8  11  ar  
 15   8  26  1   
 16   9  11  ar  
 17   9  12  1   
 18  10  13  1   
 19  10  27  1   
 20  10  28  1   
 21  12  14  1   
 22  12  15  1   
 23  13  29  1   
 24  13  30  1   
 25  13  31  1   
 26  14  16  1   
 27  14  32  1   
 28  14  33  1   
 29  15  17  1   
 30  15  34  1   
 31  15  35  1   
 32  16  18  1   
 33  16  36  1   
 34  16  37  1   
 35  17  38  1   
 36  17  39  1   
 37  17  40  1   
 38  18  19  1   
 39  18  20  1   
 40  19  21  2   
 41  20  22  2   
 42  20  41  1   
 43  21  22  1   
 44  21  42  1   
 45  22  43  1   
@<TRIPOS>SUBSTRUCTURE
  1 ****  12 GROUP 4 **** **** 0

# MOE 2024.06 (io_trps.svl 2023.06)
