@<TRIPOS>MOLECULE
NONAME
45 47 1 0 0 
SMALL
USER_CHARGES


@<TRIPOS>ATOM
  1 O       -1.8580     0.1230     1.0840 O.2   1 <1>  -0.5700 
  2 C       -2.0650     0.7460     0.0640 C.2   1 <1>   0.7150 
  3 N       -2.5590     0.1030    -1.0300 N.am  1 <1>  -0.7300 
  4 C       -1.8210     2.1510    -0.0340 C.2   1 <1>  -0.2370 
  5 C       -2.8550    -1.3480    -1.1910 C.3   1 <1>   0.2200 
  6 N       -0.7400     2.8320     0.4520 N.pl3 1 <1>   0.3140 
  7 C       -2.6030     3.0900    -0.6370 C.2   1 <1>  -0.1500 
  8 C       -3.8550    -1.8690    -0.1540 C.3   1 <1>  -0.0800 
  9 C       -1.6190    -2.2350    -1.0020 C.3   1 <1>   0.1200 
 10 N       -0.8250     4.1470     0.1660 N.2   1 <1>  -0.7070 
 11 C        0.4920     2.3500     1.1580 C.3   1 <1>   0.1760 
 12 C       -1.9420     4.2900    -0.4770 C.2   1 <1>   0.1390 
 13 C       -3.0240    -2.8870     0.6300 C.3   1 <1>   0.1200 
 14 C       -5.0740    -2.5180    -0.8320 C.3   1 <1>  -0.0160 
 15 O       -2.0610    -3.3300    -0.2670 O.3   1 <1>  -0.5600 
 16 C        1.1740     1.1710     0.4460 C.3   1 <1>  -0.2400 
 17 C        0.2300     2.0610     2.6430 C.3   1 <1>  -0.2400 
 18 C       -6.0740    -3.0490     0.1840 C.ar  1 <1>  -0.1430 
 19 C       -6.2330    -4.4010     0.4150 C.ar  1 <1>  -0.1500 
 20 C       -6.8760    -2.2060     0.9270 C.ar  1 <1>  -0.1500 
 21 C       -7.1590    -4.8310     1.3520 C.ar  1 <1>   0.1600 
 22 C       -7.7710    -2.7400     1.8400 C.ar  1 <1>   0.1600 
 23 N       -7.9320    -4.0330     2.0700 N.ar  1 <1>  -0.6200 
 24 H       -2.6590     0.6650    -1.8740 H     1 <1>   0.3700 
 25 H       -3.2340    -1.5060    -2.1850 H     1 <1>   0.0800 
 26 H       -3.5470     2.9560    -1.1330 H     1 <1>   0.1500 
 27 H       -4.1900    -1.0920     0.5090 H     1 <1>   0.0800 
 28 H       -0.8550    -1.7420    -0.4280 H     1 <1>   0.0800 
 29 H       -1.2210    -2.5860    -1.9370 H     1 <1>   0.0800 
 30 H        1.1870     3.1720     1.1220 H     1 <1>   0.0800 
 31 H       -2.2940     5.2420    -0.8370 H     1 <1>   0.1500 
 32 H       -3.5900    -3.7270     0.9900 H     1 <1>   0.0800 
 33 H       -2.5160    -2.4130     1.4540 H     1 <1>   0.0800 
 34 H       -4.7480    -3.3210    -1.4710 H     1 <1>   0.0800 
 35 H       -5.5690    -1.7900    -1.4510 H     1 <1>   0.0800 
 36 H        0.6150     0.2620     0.5600 H     1 <1>   0.0800 
 37 H        2.1470     1.0110     0.8730 H     1 <1>   0.0800 
 38 H        1.2980     1.3910    -0.6000 H     1 <1>   0.0800 
 39 H       -0.4150     1.2140     2.7720 H     1 <1>   0.0800 
 40 H       -0.2200     2.9200     3.1080 H     1 <1>   0.0800 
 41 H        1.1580     1.8540     3.1430 H     1 <1>   0.0800 
 42 H       -5.6460    -5.1230    -0.1210 H     1 <1>   0.1500 
 43 H       -6.8130    -1.1410     0.8060 H     1 <1>   0.1500 
 44 H       -7.2680    -5.8890     1.5190 H     1 <1>   0.1500 
 45 H       -8.3870    -2.0670     2.4110 H     1 <1>   0.1500 
@<TRIPOS>BOND
  1   1   2  2   
  2   2   3  am  
  3   2   4  1   
  4   3   5  1   
  5   3  24  1   
  6   4   6  1   
  7   4   7  2   
  8   5   8  1   
  9   5   9  1   
 10   5  25  1   
 11   6  10  1   
 12   6  11  1   
 13   7  12  1   
 14   7  26  1   
 15   8  13  1   
 16   8  14  1   
 17   8  27  1   
 18   9  15  1   
 19   9  28  1   
 20   9  29  1   
 21  10  12  2   
 22  11  16  1   
 23  11  17  1   
 24  11  30  1   
 25  12  31  1   
 26  13  15  1   
 27  13  32  1   
 28  13  33  1   
 29  14  18  1   
 30  14  34  1   
 31  14  35  1   
 32  16  36  1   
 33  16  37  1   
 34  16  38  1   
 35  17  39  1   
 36  17  40  1   
 37  17  41  1   
 38  18  19  ar  
 39  18  20  ar  
 40  19  21  ar  
 41  19  42  1   
 42  20  22  ar  
 43  20  43  1   
 44  21  23  ar  
 45  21  44  1   
 46  22  23  ar  
 47  22  45  1   
@<TRIPOS>SUBSTRUCTURE
  1 ****   8 GROUP 4 **** **** 0

# MOE 2024.06 (io_trps.svl 2023.06)
