@<TRIPOS>MOLECULE
NONAME
35 36 1 0 0 
SMALL
USER_CHARGES


@<TRIPOS>ATOM
  1 O        0.1960     1.4450     1.4250 O.2   1 <1>  -0.5700 
  2 C        1.2660     1.7540     0.9550 C.2   1 <1>   1.0110 
  3 N        2.3260     0.9440     1.1260 N.am  1 <1>  -0.5470 
  4 N        1.3940     2.9130     0.2010 N.pl3 1 <1>  -0.7250 
  5 C        3.5460     1.1410     0.5250 C.ar  1 <1>   0.1170 
  6 C        2.5910     3.1980    -0.3660 C.cat 1 <1>   0.7310 
  7 C        0.1880     3.8300     0.1850 C.3   1 <1>   0.3300 
  8 C        3.7040     2.2850    -0.2640 C.ar  1 <1>  -0.0220 
  9 C        4.5830     0.2280     0.6890 C.ar  1 <1>  -0.1500 
 10 N        2.7570     4.3340    -1.0200 N.pl3 1 <1>  -0.7540 
 11 C       -0.9680     3.3670    -0.7550 C.3   1 <1>   0.3430 
 12 C        4.9460     2.4600    -0.8990 C.ar  1 <1>  -0.1500 
 13 C        5.7900     0.4310     0.0620 C.ar  1 <1>  -0.1500 
 14 N       -1.8470     2.2680    -0.2120 N.4   1 <1>  -0.9590 
 15 C        5.9690     1.5510    -0.7370 C.ar  1 <1>  -0.1500 
 16 C       -2.5110     1.4940    -1.3110 C.3   1 <1>   0.2630 
 17 C       -2.8840     2.7750     0.7460 C.3   1 <1>   0.2630 
 18 H        2.1690     0.1260     1.7170 H     1 <1>   0.3700 
 19 H        0.4820     4.8150    -0.1260 H     1 <1>   0.0800 
 20 H       -0.1950     3.9430     1.1870 H     1 <1>   0.0800 
 21 H        4.4470    -0.6430     1.3060 H     1 <1>   0.1500 
 22 H        3.6610     4.5730    -1.4390 H     1 <1>   0.4500 
 23 H        2.0810     5.0830    -1.1420 H     1 <1>   0.4500 
 24 H       -0.5310     3.0490    -1.6880 H     1 <1>   0.0800 
 25 H       -1.5910     4.2190    -0.9740 H     1 <1>   0.0800 
 26 H        5.1400     3.3070    -1.5310 H     1 <1>   0.1500 
 27 H        6.5970    -0.2740     0.1840 H     1 <1>   0.1500 
 28 H       -1.2540     1.6040     0.3300 H     1 <1>   0.4500 
 29 H        6.9180     1.6980    -1.2280 H     1 <1>   0.1500 
 30 H       -3.1610     2.1340    -1.8860 H     1 <1>   0.0800 
 31 H       -3.1010     0.6910    -0.8980 H     1 <1>   0.0800 
 32 H       -1.7730     1.0670    -1.9720 H     1 <1>   0.0800 
 33 H       -3.5440     3.4730     0.2560 H     1 <1>   0.0800 
 34 H       -2.4180     3.2650     1.5850 H     1 <1>   0.0800 
 35 H       -3.4750     1.9540     1.1230 H     1 <1>   0.0800 
@<TRIPOS>BOND
  1   1   2  2   
  2   2   3  am  
  3   2   4  1   
  4   3   5  1   
  5   3  18  1   
  6   4   6  ar  
  7   4   7  1   
  8   5   8  ar  
  9   5   9  ar  
 10   6   8  1   
 11   6  10  ar  
 12   7  11  1   
 13   7  19  1   
 14   7  20  1   
 15   8  12  ar  
 16   9  13  ar  
 17   9  21  1   
 18  10  22  1   
 19  10  23  1   
 20  11  14  1   
 21  11  24  1   
 22  11  25  1   
 23  12  15  ar  
 24  12  26  1   
 25  13  15  ar  
 26  13  27  1   
 27  14  16  1   
 28  14  17  1   
 29  14  28  1   
 30  15  29  1   
 31  16  30  1   
 32  16  31  1   
 33  16  32  1   
 34  17  33  1   
 35  17  34  1   
 36  17  35  1   
@<TRIPOS>SUBSTRUCTURE
  1 ****   4 GROUP 4 **** **** 0

# MOE 2024.06 (io_trps.svl 2023.06)
