@<TRIPOS>MOLECULE
NONAME
40 42 1 0 0 
SMALL
USER_CHARGES


@<TRIPOS>ATOM
  1 S       -2.1800    -0.2500    -2.5010 S.3   1 <1>  -0.0800 
  2 C       -2.3890    -1.4050    -1.1980 C.2   1 <1>  -0.1100 
  3 C       -2.5440     1.0870    -1.4260 C.2   1 <1>  -0.1100 
  4 C       -2.7200    -0.7830    -0.0490 C.2   1 <1>  -0.1810 
  5 C       -2.8020     0.6420    -0.1830 C.2   1 <1>  -0.1500 
  6 C       -2.9900    -1.4500     1.2970 C.3   1 <1>   0.0820 
  7 C       -3.2450    -2.9500     1.2100 C.2   1 <1>   0.5690 
  8 O       -2.4610    -3.6940     1.7500 O.2   1 <1>  -0.5700 
  9 N       -4.3460    -3.4370     0.5570 N.am  1 <1>  -0.6600 
 10 C       -5.4060    -2.6480    -0.1250 C.3   1 <1>   0.1400 
 11 C       -4.6190    -4.8890     0.4100 C.3   1 <1>   0.1400 
 12 C       -6.5840    -3.6150    -0.2230 C.3   1 <1>   0.2000 
 13 C       -5.9080    -4.9750    -0.4160 C.3   1 <1>  -0.0800 
 14 O       -7.2520    -3.5950     0.9930 O.3   1 <1>  -0.6800 
 15 C       -6.7760    -6.2030    -0.0870 C.3   1 <1>   0.0210 
 16 C       -5.9990    -7.4860    -0.3040 C.2   1 <1>   0.1080 
 17 N       -5.5380    -7.8430    -1.4630 N.2   1 <1>  -0.7070 
 18 C       -5.6860    -8.4050     0.6920 C.2   1 <1>  -0.1500 
 19 N       -4.9130    -9.0130    -1.2340 N.pl3 1 <1>   0.3000 
 20 C       -4.9870    -9.3740     0.0640 C.2   1 <1>  -0.3320 
 21 C       -4.3760   -10.6410     0.6340 C.3   1 <1>  -0.0600 
 22 H       -2.2400    -2.4450    -1.4340 H     1 <1>   0.1500 
 23 H       -2.5230     2.0780    -1.8450 H     1 <1>   0.1500 
 24 H       -3.0480     1.2690     0.6570 H     1 <1>   0.1500 
 25 H       -3.8440    -0.9930     1.7590 H     1 <1>   0.0800 
 26 H       -2.1450    -1.2810     1.9400 H     1 <1>   0.0800 
 27 H       -5.6680    -1.7560     0.4160 H     1 <1>   0.0800 
 28 H       -5.0680    -2.3850    -1.1120 H     1 <1>   0.0800 
 29 H       -3.8010    -5.3840    -0.0890 H     1 <1>   0.0800 
 30 H       -4.7510    -5.3240     1.3860 H     1 <1>   0.0800 
 31 H       -7.2790    -3.3630    -1.0050 H     1 <1>   0.0800 
 32 H       -5.6150    -5.0490    -1.4490 H     1 <1>   0.0800 
 33 H       -6.5950    -3.7130     1.7080 H     1 <1>   0.4000 
 34 H       -7.6420    -6.2120    -0.7250 H     1 <1>   0.0800 
 35 H       -7.1150    -6.1670     0.9320 H     1 <1>   0.0800 
 36 H       -5.9550    -8.3330     1.7310 H     1 <1>   0.1500 
 37 H       -4.4460    -9.5390    -1.9830 H     1 <1>   0.2700 
 38 H       -4.5700   -10.7020     1.6900 H     1 <1>   0.0800 
 39 H       -3.3110   -10.6420     0.4820 H     1 <1>   0.0800 
 40 H       -4.8010   -11.5060     0.1570 H     1 <1>   0.0800 
@<TRIPOS>BOND
  1   1   2  1   
  2   1   3  1   
  3   2   4  2   
  4   2  22  1   
  5   3   5  2   
  6   3  23  1   
  7   4   5  1   
  8   4   6  1   
  9   5  24  1   
 10   6   7  1   
 11   6  25  1   
 12   6  26  1   
 13   7   8  2   
 14   7   9  am  
 15   9  10  1   
 16   9  11  1   
 17  10  12  1   
 18  10  27  1   
 19  10  28  1   
 20  11  13  1   
 21  11  29  1   
 22  11  30  1   
 23  12  13  1   
 24  12  14  1   
 25  12  31  1   
 26  13  15  1   
 27  13  32  1   
 28  14  33  1   
 29  15  16  1   
 30  15  34  1   
 31  15  35  1   
 32  16  17  2   
 33  16  18  1   
 34  17  19  1   
 35  18  20  2   
 36  18  36  1   
 37  19  20  1   
 38  19  37  1   
 39  20  21  1   
 40  21  38  1   
 41  21  39  1   
 42  21  40  1   
@<TRIPOS>SUBSTRUCTURE
  1 ****  11 GROUP 4 **** **** 0

# MOE 2024.06 (io_trps.svl 2023.06)
