@<TRIPOS>MOLECULE
NONAME
39 41 1 0 0 
SMALL
USER_CHARGES


@<TRIPOS>ATOM
  1 CL      -0.2120     0.0400     0.2160 Cl    1 <1>  -0.1770 
  2 C       -0.1320     1.7770     0.3240 C.ar  1 <1>   0.1770 
  3 C       -1.2520     2.4880     0.7100 C.ar  1 <1>  -0.1500 
  4 C        1.0510     2.4240     0.0260 C.ar  1 <1>  -0.1500 
  5 C       -1.1810     3.8680     0.7910 C.ar  1 <1>  -0.1500 
  6 C        1.1110     3.8040     0.1120 C.ar  1 <1>  -0.1500 
  7 C       -0.0050     4.5600     0.4870 C.ar  1 <1>   0.0860 
  8 C        0.0370     6.0090     0.5660 C.2   1 <1>   0.5440 
  9 O       -0.6470     6.5970     1.3810 O.2   1 <1>  -0.5700 
 10 N        0.8480     6.7180    -0.2900 N.am  1 <1>  -0.4940 
 11 C        1.0000     8.1210    -0.4100 C.2   1 <1>  -0.0880 
 12 N        2.1910     8.7810    -0.4090 N.pl3 1 <1>   0.3140 
 13 C        0.0410     9.0660    -0.5590 C.2   1 <1>  -0.1810 
 14 N        2.0140    10.1160    -0.5780 N.2   1 <1>  -0.7070 
 15 C        3.5360     8.1690    -0.2030 C.3   1 <1>   0.1760 
 16 C        0.7300    10.2690    -0.6550 C.2   1 <1>   0.1390 
 17 C       -1.4670     8.9050    -0.6140 C.3   1 <1>  -0.0590 
 18 C        4.3250     8.8010     0.9440 C.3   1 <1>  -0.1600 
 19 C        4.4590     8.3250    -1.4140 C.3   1 <1>  -0.1600 
 20 C        5.7800     8.4210     0.6620 C.3   1 <1>  -0.1600 
 21 C        5.8840     8.2210    -0.8560 C.3   1 <1>  -0.1600 
 22 H       -2.1630     1.9650     0.9440 H     1 <1>   0.1500 
 23 H        1.9110     1.8460    -0.2640 H     1 <1>   0.1500 
 24 H       -2.0500     4.4270     1.0960 H     1 <1>   0.1500 
 25 H        2.0430     4.2940    -0.1060 H     1 <1>   0.1500 
 26 H        1.3330     6.1640    -0.9930 H     1 <1>   0.3700 
 27 H        3.4160     7.1240     0.0090 H     1 <1>   0.0800 
 28 H        0.2590    11.2290    -0.7820 H     1 <1>   0.1500 
 29 H       -1.7260     7.8950    -0.8720 H     1 <1>   0.0800 
 30 H       -1.8860     9.5680    -1.3490 H     1 <1>   0.0800 
 31 H       -1.8880     9.1320     0.3480 H     1 <1>   0.0800 
 32 H        3.9920     8.4450     1.9030 H     1 <1>   0.0800 
 33 H        4.2300     9.8730     0.9050 H     1 <1>   0.0800 
 34 H        4.3250     9.3030    -1.8440 H     1 <1>   0.0800 
 35 H        4.2670     7.5760    -2.1610 H     1 <1>   0.0800 
 36 H        6.0160     7.4970     1.1630 H     1 <1>   0.0800 
 37 H        6.4540     9.1850     1.0090 H     1 <1>   0.0800 
 38 H        6.5120     8.9760    -1.2990 H     1 <1>   0.0800 
 39 H        6.3040     7.2530    -1.0700 H     1 <1>   0.0800 
@<TRIPOS>BOND
  1   1   2  1   
  2   2   3  ar  
  3   2   4  ar  
  4   3   5  ar  
  5   3  22  1   
  6   4   6  ar  
  7   4  23  1   
  8   5   7  ar  
  9   5  24  1   
 10   6   7  ar  
 11   6  25  1   
 12   7   8  1   
 13   8   9  2   
 14   8  10  am  
 15  10  11  1   
 16  10  26  1   
 17  11  12  1   
 18  11  13  2   
 19  12  14  1   
 20  12  15  1   
 21  13  16  1   
 22  13  17  1   
 23  14  16  2   
 24  15  18  1   
 25  15  19  1   
 26  15  27  1   
 27  16  28  1   
 28  17  29  1   
 29  17  30  1   
 30  17  31  1   
 31  18  20  1   
 32  18  32  1   
 33  18  33  1   
 34  19  21  1   
 35  19  34  1   
 36  19  35  1   
 37  20  21  1   
 38  20  36  1   
 39  20  37  1   
 40  21  38  1   
 41  21  39  1   
@<TRIPOS>SUBSTRUCTURE
  1 ****  10 GROUP 4 **** **** 0

# MOE 2024.06 (io_trps.svl 2023.06)
