@<TRIPOS>MOLECULE
NONAME
46 48 1 0 0 
SMALL
USER_CHARGES


@<TRIPOS>ATOM
  1 O       -0.1230     0.2390     0.5280 O.2   1 <1>  -0.5700 
  2 C       -1.1200     0.8580     0.2060 C.2   1 <1>   0.5440 
  3 N       -2.2390     0.1690    -0.2130 N.am  1 <1>  -0.6600 
  4 C       -1.0940     2.3060     0.2620 C.ar  1 <1>   0.0860 
  5 C       -2.4340    -1.2850     0.0850 C.3   1 <1>   0.1400 
  6 C       -3.2920     0.7570    -1.0860 C.3   1 <1>   0.1400 
  7 C       -2.0830     3.0290     0.9310 C.ar  1 <1>  -0.1500 
  8 C       -0.0710     3.0280    -0.3520 C.ar  1 <1>  -0.1500 
  9 C       -3.8050    -1.5030     0.7380 C.3   1 <1>  -0.1860 
 10 C       -4.6590     0.5890    -0.4240 C.3   1 <1>  -0.1600 
 11 C       -2.0610     4.4100     0.9750 C.ar  1 <1>  -0.1500 
 12 C       -0.0400     4.4100    -0.3150 C.ar  1 <1>  -0.1500 
 13 C       -4.1000    -2.9740     0.9330 C.2   1 <1>   0.9060 
 14 C       -4.9180    -0.8820    -0.1070 C.3   1 <1>   0.2000 
 15 C       -1.0370     5.1100     0.3560 C.ar  1 <1>   0.0820 
 16 O       -3.3370    -3.8270     0.4710 O.co2 1 <1>  -0.9000 
 17 O       -5.1470    -3.2730     1.5220 O.co2 1 <1>  -0.9000 
 18 O       -6.0990    -0.9640     0.5970 O.3   1 <1>  -0.6800 
 19 O       -1.0580     6.4620     0.4200 O.3   1 <1>  -0.1650 
 20 C        0.0780     7.2030     0.4330 C.ar  1 <1>   0.0820 
 21 C        0.1200     8.3570    -0.3330 C.ar  1 <1>  -0.1500 
 22 C        1.1760     6.8410     1.2040 C.ar  1 <1>  -0.1500 
 23 C        1.2600     9.1450    -0.3490 C.ar  1 <1>  -0.1440 
 24 C        2.3140     7.6260     1.1910 C.ar  1 <1>  -0.1500 
 25 C        2.3550     8.7740     0.4150 C.ar  1 <1>  -0.1500 
 26 C        1.3140    10.4080    -1.1900 C.3   1 <1>  -0.0970 
 27 H       -2.3700    -1.8470    -0.8320 H     1 <1>   0.0800 
 28 H       -1.6640    -1.6470     0.7450 H     1 <1>   0.0800 
 29 H       -3.1000     1.7970    -1.2780 H     1 <1>   0.0800 
 30 H       -3.2830     0.2390    -2.0300 H     1 <1>   0.0800 
 31 H       -2.8730     2.4890     1.4250 H     1 <1>   0.1500 
 32 H        0.7060     2.4850    -0.8630 H     1 <1>   0.1500 
 33 H       -3.7890    -1.0440     1.7070 H     1 <1>   0.0800 
 34 H       -5.4240     0.9500    -1.0860 H     1 <1>   0.0800 
 35 H       -4.6880     1.1640     0.4830 H     1 <1>   0.0800 
 36 H       -2.8320     4.9520     1.4920 H     1 <1>   0.1500 
 37 H        0.7550     4.9410    -0.8090 H     1 <1>   0.1500 
 38 H       -5.0390    -1.4490    -1.0170 H     1 <1>   0.0800 
 39 H       -6.0800    -1.8560     1.0550 H     1 <1>   0.4000 
 40 H       -0.7420     8.6280    -0.9140 H     1 <1>   0.1500 
 41 H        1.1390     5.9550     1.8120 H     1 <1>   0.1500 
 42 H        3.1670     7.3480     1.7840 H     1 <1>   0.1500 
 43 H        3.2440     9.3790     0.4120 H     1 <1>   0.1500 
 44 H        2.2680    10.4880    -1.6780 H     1 <1>   0.0800 
 45 H        1.1700    11.2690    -0.5620 H     1 <1>   0.0800 
 46 H        0.5470    10.3970    -1.9430 H     1 <1>   0.0800 
@<TRIPOS>BOND
  1   1   2  2   
  2   2   3  am  
  3   2   4  1   
  4   3   5  1   
  5   3   6  1   
  6   4   7  ar  
  7   4   8  ar  
  8   5   9  1   
  9   5  27  1   
 10   5  28  1   
 11   6  10  1   
 12   6  29  1   
 13   6  30  1   
 14   7  11  ar  
 15   7  31  1   
 16   8  12  ar  
 17   8  32  1   
 18   9  13  1   
 19   9  14  1   
 20   9  33  1   
 21  10  14  1   
 22  10  34  1   
 23  10  35  1   
 24  11  15  ar  
 25  11  36  1   
 26  12  15  ar  
 27  12  37  1   
 28  13  16  ar  
 29  13  17  ar  
 30  14  18  1   
 31  14  38  1   
 32  15  19  1   
 33  18  39  1   
 34  19  20  1   
 35  20  21  ar  
 36  20  22  ar  
 37  21  23  ar  
 38  21  40  1   
 39  22  24  ar  
 40  22  41  1   
 41  23  25  ar  
 42  23  26  1   
 43  24  25  ar  
 44  24  42  1   
 45  25  43  1   
 46  26  44  1   
 47  26  45  1   
 48  26  46  1   
@<TRIPOS>SUBSTRUCTURE
  1 ****   4 GROUP 4 **** **** 0

# MOE 2024.06 (io_trps.svl 2023.06)
