@<TRIPOS>MOLECULE
NONAME
43 46 1 0 0 
SMALL
USER_CHARGES


@<TRIPOS>ATOM
  1 S        0.7840    -0.5000     2.3330 S.3   1 <1>  -0.0800 
  2 C        1.2630    -1.1420     0.7740 C.2   1 <1>  -0.0450 
  3 C        1.3840     1.0680     1.8680 C.2   1 <1>   0.2280 
  4 C        1.8250    -0.1210     0.0830 C.2   1 <1>   0.0460 
  5 C        1.0420    -2.5370     0.4810 C.2   1 <1>   0.7150 
  6 N        1.8810     1.1130     0.6980 N.2   1 <1>  -0.5650 
  7 C        2.4100    -0.1840    -1.3140 C.3   1 <1>  -0.0590 
  8 O        1.8600    -3.1530    -0.1760 O.2   1 <1>  -0.5700 
  9 N       -0.0900    -3.2030     0.8970 N.am  1 <1>  -0.6600 
 10 C       -0.1730    -4.6990     0.8940 C.3   1 <1>   0.1400 
 11 C       -1.4350    -2.5530     0.9620 C.3   1 <1>   0.1400 
 12 C       -1.1910    -5.1950    -0.1480 C.3   1 <1>   0.3440 
 13 C       -2.3970    -3.1730    -0.0720 C.3   1 <1>   0.2950 
 14 O       -2.4300    -4.5640     0.0560 O.3   1 <1>  -0.5600 
 15 C       -1.3610    -6.7080    -0.0530 C.ar  1 <1>  -0.1440 
 16 C       -3.8280    -2.6600     0.1160 C.3   1 <1>  -0.1950 
 17 C       -0.5390    -7.5360    -0.8050 C.ar  1 <1>  -0.1500 
 18 C       -2.3110    -7.2830     0.7820 C.ar  1 <1>  -0.1500 
 19 C       -4.8170    -2.6970    -1.0050 C.3   1 <1>  -0.2000 
 20 C       -4.2800    -1.3800    -0.5170 C.3   1 <1>  -0.2000 
 21 C       -0.6630    -8.9120    -0.7250 C.ar  1 <1>  -0.1500 
 22 C       -2.4370    -8.6590     0.8630 C.ar  1 <1>  -0.1500 
 23 C       -1.6120    -9.4750     0.1100 C.ar  1 <1>  -0.1500 
 24 H        1.2930     1.8660     2.5840 H     1 <1>   0.1500 
 25 H        2.2930    -1.1610    -1.7450 H     1 <1>   0.0800 
 26 H        3.4570     0.0530    -1.2750 H     1 <1>   0.0800 
 27 H        1.9170     0.5330    -1.9450 H     1 <1>   0.0800 
 28 H        0.7890    -5.1340     0.6850 H     1 <1>   0.0800 
 29 H       -0.4760    -5.0390     1.8680 H     1 <1>   0.0800 
 30 H       -1.8430    -2.6810     1.9500 H     1 <1>   0.0800 
 31 H       -1.3600    -1.4990     0.7670 H     1 <1>   0.0800 
 32 H       -0.8490    -4.9410    -1.1370 H     1 <1>   0.0800 
 33 H       -2.0610    -2.9370    -1.0680 H     1 <1>   0.0800 
 34 H       -4.2040    -2.8760     1.1010 H     1 <1>   0.1000 
 35 H        0.2050    -7.1130    -1.4580 H     1 <1>   0.1500 
 36 H       -2.9610    -6.6570     1.3700 H     1 <1>   0.1500 
 37 H       -4.4980    -3.0740    -1.9620 H     1 <1>   0.1000 
 38 H       -5.8350    -2.9650    -0.7790 H     1 <1>   0.1000 
 39 H       -4.9380    -0.7310     0.0340 H     1 <1>   0.1000 
 40 H       -3.6120    -0.8360    -1.1630 H     1 <1>   0.1000 
 41 H       -0.0220    -9.5460    -1.3130 H     1 <1>   0.1500 
 42 H       -3.1780    -9.0930     1.5110 H     1 <1>   0.1500 
 43 H       -1.7100   -10.5450     0.1720 H     1 <1>   0.1500 
@<TRIPOS>BOND
  1   1   2  1   
  2   1   3  1   
  3   2   4  2   
  4   2   5  1   
  5   3   6  2   
  6   3  24  1   
  7   4   6  1   
  8   4   7  1   
  9   5   8  2   
 10   5   9  am  
 11   7  25  1   
 12   7  26  1   
 13   7  27  1   
 14   9  10  1   
 15   9  11  1   
 16  10  12  1   
 17  10  28  1   
 18  10  29  1   
 19  11  13  1   
 20  11  30  1   
 21  11  31  1   
 22  12  14  1   
 23  12  15  1   
 24  12  32  1   
 25  13  14  1   
 26  13  16  1   
 27  13  33  1   
 28  15  17  ar  
 29  15  18  ar  
 30  16  19  1   
 31  16  20  1   
 32  16  34  1   
 33  17  21  ar  
 34  17  35  1   
 35  18  22  ar  
 36  18  36  1   
 37  19  20  1   
 38  19  37  1   
 39  19  38  1   
 40  20  39  1   
 41  20  40  1   
 42  21  23  ar  
 43  21  41  1   
 44  22  23  ar  
 45  22  42  1   
 46  23  43  1   
@<TRIPOS>SUBSTRUCTURE
  1 ****   9 GROUP 4 **** **** 0

# MOE 2024.06 (io_trps.svl 2023.06)
