@<TRIPOS>MOLECULE
NONAME
46 48 1 0 0 
SMALL
USER_CHARGES


@<TRIPOS>ATOM
  1 O       -0.0530    -0.7630     1.1600 O.2   1 <1>  -0.5700 
  2 C       -0.2440    -1.8330     0.5810 C.2   1 <1>   0.6160 
  3 N        0.6890    -2.3330    -0.3270 N.am  1 <1>  -0.2980 
  4 C       -1.3990    -2.5970     0.8030 C.2   1 <1>  -0.1360 
  5 N        0.5290    -3.5090    -1.0130 N.2   1 <1>  -0.5120 
  6 C        1.9300    -1.5710    -0.5920 C.3   1 <1>   0.0600 
  7 C       -1.5890    -3.7760     0.1350 C.2   1 <1>   0.1140 
  8 C       -0.5570    -4.1720    -0.7800 C.2   1 <1>   0.3760 
  9 N       -2.7350    -4.5490     0.3420 N.pl3 1 <1>  -0.8380 
 10 C       -2.7280    -6.0460     0.3590 C.3   1 <1>   0.2090 
 11 C       -4.0850    -3.9430     0.5860 C.3   1 <1>   0.2090 
 12 C       -3.7860    -6.6220    -0.6020 C.3   1 <1>   0.1400 
 13 C       -5.1330    -4.5300    -0.3750 C.3   1 <1>   0.1400 
 14 N       -5.1370    -6.0290    -0.3350 N.am  1 <1>  -0.6600 
 15 C       -6.2700    -6.7230     0.0030 C.2   1 <1>   0.5690 
 16 O       -7.2710    -6.1520     0.3630 O.2   1 <1>  -0.5700 
 17 C       -6.2860    -8.2480    -0.0550 C.3   1 <1>  -0.0990 
 18 C       -7.6980    -8.8660    -0.0070 C.3   1 <1>  -0.1600 
 19 C       -7.6410   -10.3990    -0.0510 C.3   1 <1>   0.0960 
 20 N       -8.9940   -10.9800    -0.1250 N.pl3 1 <1>   0.3140 
 21 N       -9.4450   -11.5810    -1.2410 N.2   1 <1>  -0.7070 
 22 C       -9.9220   -11.0080     0.8530 C.2   1 <1>  -0.3020 
 23 C      -10.6470   -11.9720    -0.9480 C.2   1 <1>   0.1390 
 24 C      -11.0040   -11.6410     0.3530 C.2   1 <1>  -0.1500 
 25 H       -2.1010    -2.2200     1.5170 H     1 <1>   0.1500 
 26 H        2.4800    -1.4540     0.3240 H     1 <1>   0.0800 
 27 H        1.6780    -0.6010    -0.9810 H     1 <1>   0.0800 
 28 H        2.5380    -2.0940    -1.3080 H     1 <1>   0.0800 
 29 H       -0.7100    -5.0890    -1.3180 H     1 <1>   0.0600 
 30 H       -2.9470    -6.3820     1.3580 H     1 <1>   0.0800 
 31 H       -1.7560    -6.4240     0.0970 H     1 <1>   0.0800 
 32 H       -4.0470    -2.8770     0.4450 H     1 <1>   0.0800 
 33 H       -4.3870    -4.1370     1.6010 H     1 <1>   0.0800 
 34 H       -3.8020    -7.6900    -0.4940 H     1 <1>   0.0800 
 35 H       -3.4990    -6.3950    -1.6140 H     1 <1>   0.0800 
 36 H       -4.9090    -4.2080    -1.3760 H     1 <1>   0.0800 
 37 H       -6.1020    -4.1380    -0.1180 H     1 <1>   0.0800 
 38 H       -5.7080    -8.6160     0.7720 H     1 <1>   0.0800 
 39 H       -5.8160    -8.5570    -0.9700 H     1 <1>   0.0800 
 40 H       -8.2660    -8.5060    -0.8490 H     1 <1>   0.0800 
 41 H       -8.1960    -8.5530     0.8950 H     1 <1>   0.0800 
 42 H       -7.1540   -10.7850     0.8250 H     1 <1>   0.0800 
 43 H       -7.0960   -10.7240    -0.9190 H     1 <1>   0.0800 
 44 H       -9.7650   -10.5830     1.8270 H     1 <1>   0.1500 
 45 H      -11.2860   -12.4920    -1.6420 H     1 <1>   0.1500 
 46 H      -11.9450   -11.8560     0.8290 H     1 <1>   0.1500 
@<TRIPOS>BOND
  1   1   2  2   
  2   2   3  am  
  3   2   4  1   
  4   3   5  1   
  5   3   6  1   
  6   4   7  2   
  7   4  25  1   
  8   5   8  2   
  9   6  26  1   
 10   6  27  1   
 11   6  28  1   
 12   7   8  1   
 13   7   9  1   
 14   8  29  1   
 15   9  10  1   
 16   9  11  1   
 17  10  12  1   
 18  10  30  1   
 19  10  31  1   
 20  11  13  1   
 21  11  32  1   
 22  11  33  1   
 23  12  14  1   
 24  12  34  1   
 25  12  35  1   
 26  13  14  1   
 27  13  36  1   
 28  13  37  1   
 29  14  15  am  
 30  15  16  2   
 31  15  17  1   
 32  17  18  1   
 33  17  38  1   
 34  17  39  1   
 35  18  19  1   
 36  18  40  1   
 37  18  41  1   
 38  19  20  1   
 39  19  42  1   
 40  19  43  1   
 41  20  21  1   
 42  20  22  1   
 43  21  23  2   
 44  22  24  2   
 45  22  44  1   
 46  23  24  1   
 47  23  45  1   
 48  24  46  1   
@<TRIPOS>SUBSTRUCTURE
  1 ****  14 GROUP 4 **** **** 0

# MOE 2024.06 (io_trps.svl 2023.06)
