@<TRIPOS>MOLECULE
NONAME
55 57 1 0 0 
SMALL
USER_CHARGES


@<TRIPOS>ATOM
  1 O        3.9220     0.4490     1.3500 O.2   1 <1>  -0.5700 
  2 C        3.0660    -0.2310     0.8120 C.2   1 <1>   0.7160 
  3 N        2.6010     0.2210    -0.3990 N.am  1 <1>  -0.6600 
  4 C        2.7140    -1.5320     1.3220 C.2   1 <1>  -0.0860 
  5 C        3.0330    -0.4980    -1.6350 C.3   1 <1>   0.1400 
  6 C        2.1730     1.6360    -0.5870 C.3   1 <1>   0.1400 
  7 C        1.6660    -2.3850     1.1080 C.2   1 <1>  -0.3320 
  8 C        3.5130    -2.2320     2.2280 C.2   1 <1>   0.1390 
  9 C        4.5520    -0.3360    -1.8730 C.3   1 <1>   0.3430 
 10 C        3.3550     2.6020    -0.7910 C.3   1 <1>  -0.1600 
 11 N        1.8960    -3.4970     1.8380 N.pl3 1 <1>   0.3140 
 12 C        0.4210    -2.1910     0.2500 C.3   1 <1>  -0.0600 
 13 N        3.0450    -3.3990     2.5240 N.2   1 <1>  -0.7070 
 14 N        5.0910     0.9240    -1.2570 N.4   1 <1>  -0.9590 
 15 C        4.4270     2.1470    -1.7850 C.3   1 <1>   0.3430 
 16 C        1.0560    -4.7110     1.9570 C.3   1 <1>   0.0960 
 17 C        6.5750     0.9730    -1.2580 C.3   1 <1>   0.3430 
 18 C        1.3740    -5.7200     0.8460 C.3   1 <1>  -0.2400 
 19 C        7.0580     1.9730    -0.2080 C.3   1 <1>  -0.1600 
 20 C        8.5840     1.9320    -0.0660 C.3   1 <1>   0.0960 
 21 N        9.0150     2.9580     0.8970 N.pl3 1 <1>   0.0480 
 22 C        9.4000     4.2280     0.6030 C.2   1 <1>  -0.3020 
 23 C        9.0600     2.8280     2.2490 C.2   1 <1>  -0.3020 
 24 C        9.6860     4.8930     1.7520 C.2   1 <1>  -0.1500 
 25 C        9.4690     3.9990     2.8040 C.2   1 <1>  -0.1500 
 26 H        2.4920    -0.1150    -2.4830 H     1 <1>   0.0800 
 27 H        2.7950    -1.5450    -1.5500 H     1 <1>   0.0800 
 28 H        1.6130     1.9480     0.2800 H     1 <1>   0.0800 
 29 H        1.5080     1.6900    -1.4320 H     1 <1>   0.0800 
 30 H        4.4310    -1.8460     2.6410 H     1 <1>   0.1500 
 31 H        4.7580    -0.3590    -2.9300 H     1 <1>   0.0800 
 32 H        5.0480    -1.1830    -1.4260 H     1 <1>   0.0800 
 33 H        3.8150     2.8070     0.1600 H     1 <1>   0.0800 
 34 H        2.9540     3.5380    -1.1360 H     1 <1>   0.0800 
 35 H        0.3760    -1.1960    -0.1520 H     1 <1>   0.0800 
 36 H       -0.4630    -2.3430     0.8430 H     1 <1>   0.0800 
 37 H        0.4160    -2.8920    -0.5650 H     1 <1>   0.0800 
 38 H        4.7880     0.8760    -0.2580 H     1 <1>   0.4500 
 39 H        5.1500     2.9380    -1.9010 H     1 <1>   0.0800 
 40 H        3.9860     1.9520    -2.7490 H     1 <1>   0.0800 
 41 H        0.0220    -4.4250     1.9210 H     1 <1>   0.0800 
 42 H        1.2490    -5.1550     2.9170 H     1 <1>   0.0800 
 43 H        6.9400     1.2470    -2.2350 H     1 <1>   0.0800 
 44 H        6.9650    -0.0020    -1.0090 H     1 <1>   0.0800 
 45 H        1.1730    -5.2960    -0.1200 H     1 <1>   0.0800 
 46 H        0.7680    -6.5990     0.9690 H     1 <1>   0.0800 
 47 H        2.4090    -6.0100     0.9010 H     1 <1>   0.0800 
 48 H        6.6200     1.7330     0.7460 H     1 <1>   0.0800 
 49 H        6.7680     2.9700    -0.4870 H     1 <1>   0.0800 
 50 H        9.0630     2.1310    -1.0090 H     1 <1>   0.0800 
 51 H        8.9100     0.9710     0.2910 H     1 <1>   0.0800 
 52 H        9.4550     4.6010    -0.4040 H     1 <1>   0.1500 
 53 H        8.7990     1.9150     2.7540 H     1 <1>   0.1500 
 54 H       10.0180     5.9110     1.8640 H     1 <1>   0.1500 
 55 H        9.6090     4.2250     3.8480 H     1 <1>   0.1500 
@<TRIPOS>BOND
  1   1   2  2   
  2   2   3  am  
  3   2   4  1   
  4   3   5  1   
  5   3   6  1   
  6   4   7  2   
  7   4   8  1   
  8   5   9  1   
  9   5  26  1   
 10   5  27  1   
 11   6  10  1   
 12   6  28  1   
 13   6  29  1   
 14   7  11  1   
 15   7  12  1   
 16   8  13  2   
 17   8  30  1   
 18   9  14  1   
 19   9  31  1   
 20   9  32  1   
 21  10  15  1   
 22  10  33  1   
 23  10  34  1   
 24  11  13  1   
 25  11  16  1   
 26  12  35  1   
 27  12  36  1   
 28  12  37  1   
 29  14  15  1   
 30  14  17  1   
 31  14  38  1   
 32  15  39  1   
 33  15  40  1   
 34  16  18  1   
 35  16  41  1   
 36  16  42  1   
 37  17  19  1   
 38  17  43  1   
 39  17  44  1   
 40  18  45  1   
 41  18  46  1   
 42  18  47  1   
 43  19  20  1   
 44  19  48  1   
 45  19  49  1   
 46  20  21  1   
 47  20  50  1   
 48  20  51  1   
 49  21  22  1   
 50  21  23  1   
 51  22  24  2   
 52  22  52  1   
 53  23  25  2   
 54  23  53  1   
 55  24  25  1   
 56  24  54  1   
 57  25  55  1   
@<TRIPOS>SUBSTRUCTURE
  1 ****   1 GROUP 4 **** **** 0

# MOE 2024.06 (io_trps.svl 2023.06)
