@<TRIPOS>MOLECULE
NONAME
62 64 1 0 0 
SMALL
USER_CHARGES


@<TRIPOS>ATOM
  1 O       -0.6990     0.2850     0.0640 O.2   1 <1>  -0.5700 
  2 C       -1.8440     0.6360     0.2730 C.2   1 <1>   0.5440 
  3 N       -2.8320    -0.3330     0.3610 N.am  1 <1>  -0.6600 
  4 C       -2.1080     2.0530     0.4170 C.ar  1 <1>   0.0860 
  5 C       -4.2320    -0.2300    -0.1560 C.3   1 <1>   0.2200 
  6 C       -2.4390    -1.7300     0.7100 C.3   1 <1>   0.0600 
  7 C       -1.9550     2.9200    -0.6640 C.ar  1 <1>  -0.1500 
  8 C       -2.5050     2.5990     1.6370 C.ar  1 <1>  -0.1500 
  9 C       -4.3530     0.4470    -1.5220 C.3   1 <1>  -0.1600 
 10 C       -5.1640     0.5220     0.7860 C.3   1 <1>  -0.1600 
 11 C       -2.2550     4.2700    -0.5610 C.ar  1 <1>   0.0830 
 12 C       -2.8020     3.9430     1.7610 C.ar  1 <1>  -0.1500 
 13 C       -5.6880     1.2100    -1.5220 C.3   1 <1>  -0.0800 
 14 C       -6.2570     1.1350    -0.0980 C.3   1 <1>  -0.0800 
 15 O       -2.1700     5.1060    -1.6320 O.3   1 <1>  -0.3630 
 16 C       -2.6910     4.7810     0.6650 C.ar  1 <1>   0.0830 
 17 C       -5.5590     2.7070    -1.8560 C.3   1 <1>  -0.1600 
 18 C       -6.6040     2.5730     0.2990 C.3   1 <1>  -0.1600 
 19 C       -1.1950     4.8700    -2.6290 C.3   1 <1>   0.0400 
 20 O       -3.0510     6.0750     0.8170 O.3   1 <1>  -0.3630 
 21 C       -5.6540     3.4410    -0.5210 C.3   1 <1>   0.4230 
 22 C       -2.0320     7.0490     0.7650 C.3   1 <1>   0.2000 
 23 N       -6.1700     4.8310    -0.6730 N.4   1 <1>  -0.9590 
 24 C       -1.5140     7.2750     2.1850 C.3   1 <1>  -0.2400 
 25 C       -2.6440     8.3190     0.1790 C.3   1 <1>  -0.2400 
 26 C       -5.2960     5.6530    -1.5690 C.3   1 <1>   0.2630 
 27 C       -6.2740     5.5180     0.6520 C.3   1 <1>   0.2630 
 28 H       -4.6350    -1.2230    -0.2700 H     1 <1>   0.0800 
 29 H       -3.1730    -2.1680     1.3630 H     1 <1>   0.0800 
 30 H       -1.4870    -1.7400     1.2140 H     1 <1>   0.0800 
 31 H       -2.3590    -2.3190    -0.1870 H     1 <1>   0.0800 
 32 H       -1.6040     2.4990    -1.5880 H     1 <1>   0.1500 
 33 H       -2.5810     1.9500     2.4930 H     1 <1>   0.1500 
 34 H       -3.5320     1.1030    -1.7160 H     1 <1>   0.0800 
 35 H       -4.3570    -0.3050    -2.2910 H     1 <1>   0.0800 
 36 H       -5.5880    -0.1500     1.5120 H     1 <1>   0.0800 
 37 H       -4.6330     1.2880     1.3060 H     1 <1>   0.0800 
 38 H       -3.1150     4.3470     2.7080 H     1 <1>   0.1500 
 39 H       -6.3680     0.7390    -2.2140 H     1 <1>   0.0800 
 40 H       -7.1320     0.5040    -0.0770 H     1 <1>   0.0800 
 41 H       -6.3880     2.9830    -2.4840 H     1 <1>   0.0800 
 42 H       -4.6410     2.9330    -2.3680 H     1 <1>   0.0800 
 43 H       -6.4930     2.7310     1.3570 H     1 <1>   0.0800 
 44 H       -7.6220     2.7700     0.0110 H     1 <1>   0.0800 
 45 H       -1.1230     5.7490    -3.2440 H     1 <1>   0.0800 
 46 H       -1.4970     4.0310    -3.2300 H     1 <1>   0.0800 
 47 H       -0.2470     4.6790    -2.1550 H     1 <1>   0.0800 
 48 H       -4.6850     3.4420    -0.0500 H     1 <1>   0.0800 
 49 H       -1.2350     6.6990     0.1300 H     1 <1>   0.0800 
 50 H       -7.1060     4.7670    -1.0940 H     1 <1>   0.4500 
 51 H       -2.3120     7.5900     2.8330 H     1 <1>   0.0800 
 52 H       -0.7550     8.0370     2.1790 H     1 <1>   0.0800 
 53 H       -1.0760     6.3710     2.5680 H     1 <1>   0.0800 
 54 H       -3.4570     8.6650     0.7910 H     1 <1>   0.0800 
 55 H       -2.9940     8.1290    -0.8190 H     1 <1>   0.0800 
 56 H       -1.8990     9.0930     0.1310 H     1 <1>   0.0800 
 57 H       -4.3230     5.7810    -1.1270 H     1 <1>   0.0800 
 58 H       -5.7280     6.6280    -1.7200 H     1 <1>   0.0800 
 59 H       -5.1770     5.1780    -2.5290 H     1 <1>   0.0800 
 60 H       -5.3090     5.5510     1.1310 H     1 <1>   0.0800 
 61 H       -6.9610     4.9950     1.2960 H     1 <1>   0.0800 
 62 H       -6.6260     6.5280     0.5230 H     1 <1>   0.0800 
@<TRIPOS>BOND
  1   1   2  2   
  2   2   3  am  
  3   2   4  1   
  4   3   5  1   
  5   3   6  1   
  6   4   7  ar  
  7   4   8  ar  
  8   5   9  1   
  9   5  10  1   
 10   5  28  1   
 11   6  29  1   
 12   6  30  1   
 13   6  31  1   
 14   7  11  ar  
 15   7  32  1   
 16   8  12  ar  
 17   8  33  1   
 18   9  13  1   
 19   9  34  1   
 20   9  35  1   
 21  10  14  1   
 22  10  36  1   
 23  10  37  1   
 24  11  15  1   
 25  11  16  ar  
 26  12  16  ar  
 27  12  38  1   
 28  13  14  1   
 29  13  17  1   
 30  13  39  1   
 31  14  18  1   
 32  14  40  1   
 33  15  19  1   
 34  16  20  1   
 35  17  21  1   
 36  17  41  1   
 37  17  42  1   
 38  18  21  1   
 39  18  43  1   
 40  18  44  1   
 41  19  45  1   
 42  19  46  1   
 43  19  47  1   
 44  20  22  1   
 45  21  23  1   
 46  21  48  1   
 47  22  24  1   
 48  22  25  1   
 49  22  49  1   
 50  23  26  1   
 51  23  27  1   
 52  23  50  1   
 53  24  51  1   
 54  24  52  1   
 55  24  53  1   
 56  25  54  1   
 57  25  55  1   
 58  25  56  1   
 59  26  57  1   
 60  26  58  1   
 61  26  59  1   
 62  27  60  1   
 63  27  61  1   
 64  27  62  1   
@<TRIPOS>SUBSTRUCTURE
  1 ****   7 GROUP 4 **** **** 0

# MOE 2024.06 (io_trps.svl 2023.06)
