@<TRIPOS>MOLECULE
NONAME
46 49 1 0 0 
SMALL
USER_CHARGES


@<TRIPOS>ATOM
  1 CL      -2.3120     1.8900    -0.4700 Cl    1 <1>  -0.1770 
  2 C       -1.3750     3.3000    -0.0490 C.ar  1 <1>   0.1770 
  3 C       -1.1880     4.2960    -0.9890 C.ar  1 <1>  -0.1500 
  4 C       -0.8320     3.4000     1.2180 C.ar  1 <1>  -0.1500 
  5 C       -0.4420     5.4130    -0.6510 C.ar  1 <1>  -0.1500 
  6 C       -0.0870     4.5200     1.5490 C.ar  1 <1>  -0.1500 
  7 C        0.1100     5.5300     0.6170 C.ar  1 <1>  -0.0320 
  8 C        0.9380     6.7530     0.9760 C.3   1 <1>  -0.0630 
  9 C        0.2860     8.0960     0.8150 C.3   1 <1>  -0.2000 
 10 C        0.5300     7.5390     2.1890 C.3   1 <1>  -0.2000 
 11 C        2.4210     6.5280     0.6210 C.3   1 <1>   0.3040 
 12 N        3.2440     7.7200     0.9280 N.pl3 1 <1>  -0.8690 
 13 C        3.9210     8.3530    -0.0750 C.ar  1 <1>   0.4100 
 14 N        3.6010     9.6220    -0.2020 N.ar  1 <1>  -0.6200 
 15 C        4.8650     7.7110    -0.8910 C.ar  1 <1>   0.1600 
 16 C        4.2500    10.2480    -1.2000 C.ar  1 <1>   0.3960 
 17 N        5.5130     8.2880    -1.8810 N.ar  1 <1>  -0.6200 
 18 C        4.0140    11.6650    -1.4960 C.2   1 <1>   0.5440 
 19 C        5.1710     9.5640    -2.0040 C.ar  1 <1>   0.1600 
 20 O        4.1720    12.0580    -2.6400 O.2   1 <1>  -0.5700 
 21 N        3.6450    12.6110    -0.5540 N.am  1 <1>  -0.6600 
 22 C        3.5180    14.0500    -0.8750 C.3   1 <1>   0.1400 
 23 C        3.4970    12.3850     0.9030 C.3   1 <1>   0.1400 
 24 C        3.6650    14.7600     0.4650 C.3   1 <1>  -0.1600 
 25 C        3.1520    13.7520     1.4880 C.3   1 <1>  -0.1600 
 26 H       -1.6220     4.1950    -1.9680 H     1 <1>   0.1500 
 27 H       -0.9930     2.6120     1.9320 H     1 <1>   0.1500 
 28 H       -0.2920     6.1940    -1.3760 H     1 <1>   0.1500 
 29 H        0.3390     4.6060     2.5330 H     1 <1>   0.1500 
 30 H       -0.7290     8.1450     0.4620 H     1 <1>   0.1000 
 31 H        0.8690     8.9370     0.4800 H     1 <1>   0.1000 
 32 H        1.2820     7.9940     2.8100 H     1 <1>   0.1000 
 33 H       -0.3230     7.2150     2.7590 H     1 <1>   0.1000 
 34 H        2.4960     6.2890    -0.4270 H     1 <1>   0.0800 
 35 H        2.7970     5.6900     1.1830 H     1 <1>   0.0800 
 36 H        2.6760     8.3990     1.4420 H     1 <1>   0.4000 
 37 H        5.0730     6.6760    -0.6930 H     1 <1>   0.1500 
 38 H        5.6530    10.1130    -2.7950 H     1 <1>   0.1500 
 39 H        2.5440    14.2290    -1.2960 H     1 <1>   0.0800 
 40 H        4.2760    14.3630    -1.5740 H     1 <1>   0.0800 
 41 H        4.4290    12.0240     1.3040 H     1 <1>   0.0800 
 42 H        2.7130    11.6760     1.1050 H     1 <1>   0.0800 
 43 H        3.1180    15.6860     0.4880 H     1 <1>   0.0800 
 44 H        4.7070    14.9620     0.6390 H     1 <1>   0.0800 
 45 H        3.5920    13.8930     2.4590 H     1 <1>   0.0800 
 46 H        2.0830    13.8320     1.5740 H     1 <1>   0.0800 
@<TRIPOS>BOND
  1   1   2  1   
  2   2   3  ar  
  3   2   4  ar  
  4   3   5  ar  
  5   3  26  1   
  6   4   6  ar  
  7   4  27  1   
  8   5   7  ar  
  9   5  28  1   
 10   6   7  ar  
 11   6  29  1   
 12   7   8  1   
 13   8   9  1   
 14   8  10  1   
 15   8  11  1   
 16   9  10  1   
 17   9  30  1   
 18   9  31  1   
 19  10  32  1   
 20  10  33  1   
 21  11  12  1   
 22  11  34  1   
 23  11  35  1   
 24  12  13  1   
 25  12  36  1   
 26  13  14  ar  
 27  13  15  ar  
 28  14  16  ar  
 29  15  17  ar  
 30  15  37  1   
 31  16  18  1   
 32  16  19  ar  
 33  17  19  ar  
 34  18  20  2   
 35  18  21  am  
 36  19  38  1   
 37  21  22  1   
 38  21  23  1   
 39  22  24  1   
 40  22  39  1   
 41  22  40  1   
 42  23  25  1   
 43  23  41  1   
 44  23  42  1   
 45  24  25  1   
 46  24  43  1   
 47  24  44  1   
 48  25  45  1   
 49  25  46  1   
@<TRIPOS>SUBSTRUCTURE
  1 ****  12 GROUP 4 **** **** 0

# MOE 2024.06 (io_trps.svl 2023.06)
