@<TRIPOS>MOLECULE
NONAME
29 30 1 0 0 
SMALL
USER_CHARGES


@<TRIPOS>ATOM
  1 F       -0.8640     0.7060    -0.2360 F     1 <1>  -0.3400 
  2 C       -2.1230     0.8930    -0.6350 C.3   1 <1>   0.2600 
  3 C       -2.8990     1.4520     0.5520 C.3   1 <1>   0.2000 
  4 C       -2.7450    -0.4840    -0.8960 C.3   1 <1>   0.2090 
  5 O       -4.0910     2.0080     0.0930 O.3   1 <1>  -0.6800 
  6 C       -3.2330     0.1970     1.3610 C.3   1 <1>   0.2090 
  7 N       -3.4790    -0.8790     0.3520 N.pl3 1 <1>  -0.8380 
  8 C       -4.7970    -1.2830     0.1910 C.ar  1 <1>   0.4100 
  9 N       -5.6230    -0.3370    -0.2440 N.ar  1 <1>  -0.6200 
 10 C       -5.2220    -2.6030     0.4640 C.ar  1 <1>   0.1670 
 11 C       -6.8640    -0.7650    -0.3870 C.ar  1 <1>   0.1670 
 12 N       -6.4630    -3.0250     0.3120 N.ar  1 <1>  -0.6200 
 13 C       -4.2330    -3.6450     0.9560 C.3   1 <1>  -0.0970 
 14 C       -7.2680    -2.0670    -0.1180 C.ar  1 <1>   0.1600 
 15 C       -7.8600     0.2670    -0.8750 C.3   1 <1>  -0.0970 
 16 H       -2.0870     1.5420    -1.4900 H     1 <1>   0.0800 
 17 H       -2.3580     2.2020     1.1010 H     1 <1>   0.0800 
 18 H       -1.9900    -1.2110    -1.1400 H     1 <1>   0.0800 
 19 H       -3.4390    -0.4110    -1.7160 H     1 <1>   0.0800 
 20 H       -4.7160     1.2570    -0.1030 H     1 <1>   0.4000 
 21 H       -4.0850     0.3550     2.0010 H     1 <1>   0.0800 
 22 H       -2.3870    -0.0830     1.9650 H     1 <1>   0.0800 
 23 H       -3.4860    -3.1960     1.5840 H     1 <1>   0.0800 
 24 H       -3.7530    -4.1070     0.1140 H     1 <1>   0.0800 
 25 H       -4.7430    -4.4010     1.5250 H     1 <1>   0.0800 
 26 H       -8.2990    -2.3350    -0.2630 H     1 <1>   0.1500 
 27 H       -8.8460    -0.1530    -0.9600 H     1 <1>   0.0800 
 28 H       -7.5550     0.6350    -1.8370 H     1 <1>   0.0800 
 29 H       -7.8920     1.0910    -0.1850 H     1 <1>   0.0800 
@<TRIPOS>BOND
  1   1   2  1   
  2   2   3  1   
  3   2   4  1   
  4   2  16  1   
  5   3   5  1   
  6   3   6  1   
  7   3  17  1   
  8   4   7  1   
  9   4  18  1   
 10   4  19  1   
 11   5  20  1   
 12   6   7  1   
 13   6  21  1   
 14   6  22  1   
 15   7   8  1   
 16   8   9  ar  
 17   8  10  ar  
 18   9  11  ar  
 19  10  12  ar  
 20  10  13  1   
 21  11  14  ar  
 22  11  15  1   
 23  12  14  ar  
 24  13  23  1   
 25  13  24  1   
 26  13  25  1   
 27  14  26  1   
 28  15  27  1   
 29  15  28  1   
 30  15  29  1   
@<TRIPOS>SUBSTRUCTURE
  1 ****   8 GROUP 4 **** **** 0

# MOE 2024.06 (io_trps.svl 2023.06)
