@<TRIPOS>MOLECULE
NONAME
37 39 1 0 0 
SMALL
USER_CHARGES


@<TRIPOS>ATOM
  1 F        1.2620     0.6920    -0.2440 F     1 <1>  -0.1900 
  2 C        0.8970     1.9420    -0.1500 C.ar  1 <1>   0.1900 
  3 C        1.8230     2.8940     0.1600 C.ar  1 <1>  -0.1500 
  4 C       -0.4430     2.2490    -0.3750 C.ar  1 <1>  -0.1500 
  5 C        1.4390     4.2390     0.2620 C.ar  1 <1>   0.3100 
  6 C       -0.8400     3.5570    -0.2800 C.ar  1 <1>  -0.1500 
  7 N        2.4000     5.1430     0.5670 N.ar  1 <1>  -0.6200 
  8 C        0.0790     4.5820     0.0400 C.ar  1 <1>   0.0000 
  9 C        2.0380     6.3840     0.6490 C.ar  1 <1>   0.4100 
 10 C       -0.2760     5.9460     0.1600 C.ar  1 <1>  -0.1440 
 11 N        3.0440     7.2510     0.9370 N.pl3 1 <1>  -0.8690 
 12 C        0.7150     6.8250     0.4680 C.ar  1 <1>  -0.1500 
 13 C       -1.7080     6.4230    -0.0380 C.3   1 <1>  -0.0970 
 14 C        3.4560     8.2610    -0.0760 C.3   1 <1>   0.2890 
 15 C        4.8460     8.8080     0.1990 C.3   1 <1>   0.2000 
 16 C        2.6120     9.5350    -0.0510 C.3   1 <1>   0.1200 
 17 O        5.8290     7.9970    -0.3840 O.3   1 <1>  -0.5600 
 18 C        4.7900    10.1920    -0.4400 C.3   1 <1>   0.1200 
 19 O        3.4550    10.6040    -0.3810 O.3   1 <1>  -0.5600 
 20 C        7.1260     8.2370     0.0630 C.3   1 <1>   0.0400 
 21 H        2.8510     2.6370     0.3290 H     1 <1>   0.1500 
 22 H       -1.1310     1.4580    -0.6170 H     1 <1>   0.1500 
 23 H       -1.8710     3.8070    -0.4510 H     1 <1>   0.1500 
 24 H        3.8660     6.6930     1.1890 H     1 <1>   0.4000 
 25 H        0.5160     7.8700     0.5940 H     1 <1>   0.1500 
 26 H       -1.7800     7.4870     0.1010 H     1 <1>   0.0800 
 27 H       -2.3570     5.9450     0.6740 H     1 <1>   0.0800 
 28 H       -2.0410     6.1880    -1.0330 H     1 <1>   0.0800 
 29 H        3.4210     7.8340    -1.0650 H     1 <1>   0.0800 
 30 H        5.0140     8.8880     1.2590 H     1 <1>   0.0800 
 31 H        2.2300     9.7160     0.9380 H     1 <1>   0.0800 
 32 H        1.8100     9.4940    -0.7650 H     1 <1>   0.0800 
 33 H        5.0710    10.1460    -1.4770 H     1 <1>   0.0800 
 34 H        5.3950    10.9070     0.0880 H     1 <1>   0.0800 
 35 H        7.7850     7.5540    -0.4440 H     1 <1>   0.0800 
 36 H        7.1740     8.0640     1.1240 H     1 <1>   0.0800 
 37 H        7.4070     9.2490    -0.1710 H     1 <1>   0.0800 
@<TRIPOS>BOND
  1   1   2  1   
  2   2   3  ar  
  3   2   4  ar  
  4   3   5  ar  
  5   3  21  1   
  6   4   6  ar  
  7   4  22  1   
  8   5   7  ar  
  9   5   8  ar  
 10   6   8  ar  
 11   6  23  1   
 12   7   9  ar  
 13   8  10  ar  
 14   9  11  1   
 15   9  12  ar  
 16  10  12  ar  
 17  10  13  1   
 18  11  14  1   
 19  11  24  1   
 20  12  25  1   
 21  13  26  1   
 22  13  27  1   
 23  13  28  1   
 24  14  15  1   
 25  14  16  1   
 26  14  29  1   
 27  15  17  1   
 28  15  18  1   
 29  15  30  1   
 30  16  19  1   
 31  16  31  1   
 32  16  32  1   
 33  17  20  1   
 34  18  19  1   
 35  18  33  1   
 36  18  34  1   
 37  20  35  1   
 38  20  36  1   
 39  20  37  1   
@<TRIPOS>SUBSTRUCTURE
  1 ****   9 GROUP 4 **** **** 0

# MOE 2024.06 (io_trps.svl 2023.06)
