@<TRIPOS>MOLECULE
NONAME
45 47 1 0 0 
SMALL
USER_CHARGES


@<TRIPOS>ATOM
  1 O        1.9600    -0.4100    -1.9430 O.2   1 <1>  -0.5700 
  2 C        2.1320    -0.7590    -0.7990 C.2   1 <1>   0.5690 
  3 N        2.4920     0.1010     0.1950 N.am  1 <1>  -0.4930 
  4 C        1.9350    -2.2240    -0.4490 C.3   1 <1>  -0.0190 
  5 C        2.7250     1.4970     0.1140 C.2   1 <1>   0.0630 
  6 C        2.7320    -3.1220    -1.3990 C.3   1 <1>   0.1200 
  7 C        0.4550    -2.6180    -0.5220 C.3   1 <1>  -0.0170 
  8 C        2.6350     2.3510    -0.9880 C.2   1 <1>   0.1390 
  9 C        3.0980     2.2990     1.1320 C.2   1 <1>  -0.3020 
 10 O        2.6180    -4.4720    -0.9900 O.3   1 <1>  -0.3630 
 11 C        0.3100    -4.1260    -0.3980 C.ar  1 <1>  -0.1430 
 12 N        2.9280     3.5810    -0.6840 N.2   1 <1>  -0.7070 
 13 N        3.2140     3.5510     0.6330 N.pl3 1 <1>   0.3140 
 14 C        1.3990    -4.9610    -0.6410 C.ar  1 <1>   0.0830 
 15 C       -0.9090    -4.6820    -0.0420 C.ar  1 <1>  -0.1500 
 16 C        3.6060     4.7630     1.3670 C.3   1 <1>   0.1570 
 17 C        1.2660    -6.3340    -0.5190 C.ar  1 <1>  -0.1500 
 18 C       -1.0450    -6.0640     0.0770 C.ar  1 <1>   0.0830 
 19 C        5.0640     5.0730     1.1160 C.2   1 <1>   0.5690 
 20 C        0.0480    -6.8820    -0.1620 C.ar  1 <1>  -0.1500 
 21 O       -2.2050    -6.6830     0.4210 O.3   1 <1>  -0.3620 
 22 O        5.7560     5.3720     2.0590 O.2   1 <1>  -0.5700 
 23 N        5.5530     5.0200    -0.1530 N.am  1 <1>  -0.7300 
 24 C       -3.3850    -5.9470     0.6520 C.3   1 <1>   0.0400 
 25 C        6.9510     5.2950    -0.5640 C.3   1 <1>   0.0600 
 26 H        2.6210    -0.2930     1.1250 H     1 <1>   0.3700 
 27 H        2.2970    -2.3970     0.5480 H     1 <1>   0.0800 
 28 H        3.7760    -2.8650    -1.3930 H     1 <1>   0.0800 
 29 H        2.3570    -3.0470    -2.4060 H     1 <1>   0.0800 
 30 H        0.0420    -2.3130    -1.4690 H     1 <1>   0.0800 
 31 H       -0.0950    -2.1250     0.2610 H     1 <1>   0.0800 
 32 H        2.3550     2.0330    -1.9780 H     1 <1>   0.1500 
 33 H        3.2880     2.0600     2.1620 H     1 <1>   0.1500 
 34 H       -1.7420    -4.0310     0.1380 H     1 <1>   0.1500 
 35 H        3.4420     4.6120     2.4160 H     1 <1>   0.0800 
 36 H        3.0040     5.5840     1.0270 H     1 <1>   0.0800 
 37 H        2.1160    -6.9650    -0.7060 H     1 <1>   0.1500 
 38 H       -0.0640    -7.9460    -0.0660 H     1 <1>   0.1500 
 39 H        4.9160     4.6750    -0.8890 H     1 <1>   0.3700 
 40 H       -4.1690    -6.6420     0.8930 H     1 <1>   0.0800 
 41 H       -3.6380    -5.4050    -0.2410 H     1 <1>   0.0800 
 42 H       -3.2230    -5.2790     1.4790 H     1 <1>   0.0800 
 43 H        7.5340     5.6160     0.2830 H     1 <1>   0.0800 
 44 H        6.9650     6.0700    -1.3100 H     1 <1>   0.0800 
 45 H        7.3920     4.4020    -0.9710 H     1 <1>   0.0800 
@<TRIPOS>BOND
  1   1   2  2   
  2   2   3  am  
  3   2   4  1   
  4   3   5  1   
  5   3  26  1   
  6   4   6  1   
  7   4   7  1   
  8   4  27  1   
  9   5   8  1   
 10   5   9  2   
 11   6  10  1   
 12   6  28  1   
 13   6  29  1   
 14   7  11  1   
 15   7  30  1   
 16   7  31  1   
 17   8  12  2   
 18   8  32  1   
 19   9  13  1   
 20   9  33  1   
 21  10  14  1   
 22  11  14  ar  
 23  11  15  ar  
 24  12  13  1   
 25  13  16  1   
 26  14  17  ar  
 27  15  18  ar  
 28  15  34  1   
 29  16  19  1   
 30  16  35  1   
 31  16  36  1   
 32  17  20  ar  
 33  17  37  1   
 34  18  20  ar  
 35  18  21  1   
 36  19  22  2   
 37  19  23  am  
 38  20  38  1   
 39  21  24  1   
 40  23  25  1   
 41  23  39  1   
 42  24  40  1   
 43  24  41  1   
 44  24  42  1   
 45  25  43  1   
 46  25  44  1   
 47  25  45  1   
@<TRIPOS>SUBSTRUCTURE
  1 ****   2 GROUP 4 **** **** 0

# MOE 2024.06 (io_trps.svl 2023.06)
