@<TRIPOS>MOLECULE
NONAME
42 43 1 0 0 
SMALL
USER_CHARGES


@<TRIPOS>ATOM
  1 F       -2.7850    -1.5700    -2.7930 F     1 <1>  -0.3400 
  2 C       -2.9240    -2.0890    -1.5780 C.3   1 <1>   1.1640 
  3 F       -3.7880    -3.0850    -1.7190 F     1 <1>  -0.3400 
  4 F       -1.7520    -2.6320    -1.2850 F     1 <1>  -0.3400 
  5 C       -3.3760    -1.0420    -0.5420 C.ar  1 <1>  -0.1440 
  6 C       -3.7490    -1.4460     0.7470 C.ar  1 <1>   0.0860 
  7 C       -3.4100     0.3120    -0.8710 C.ar  1 <1>  -0.1500 
  8 C       -3.7540    -2.8340     1.1700 C.2   1 <1>   0.5440 
  9 C       -4.1170    -0.4630     1.6630 C.ar  1 <1>  -0.1500 
 10 C       -3.7980     1.2830     0.0450 C.ar  1 <1>  -0.1440 
 11 O       -2.6980    -3.3480     1.4770 O.2   1 <1>  -0.5700 
 12 N       -4.9130    -3.5760     1.2300 N.am  1 <1>  -0.6600 
 13 C       -4.1480     0.8740     1.3250 C.ar  1 <1>  -0.1500 
 14 C       -3.8230     2.7680    -0.3630 C.3   1 <1>   1.1640 
 15 C       -4.8510    -5.0420     1.5030 C.3   1 <1>   0.3200 
 16 C       -6.2770    -2.9660     1.1300 C.3   1 <1>   0.1400 
 17 F       -4.4670     3.5410     0.5030 F     1 <1>  -0.3400 
 18 F       -4.4130     2.9530    -1.5370 F     1 <1>  -0.3400 
 19 F       -2.6010     3.2690    -0.4760 F     1 <1>  -0.3400 
 20 C       -5.6990    -5.8070     0.5070 C.2   1 <1>  -0.3320 
 21 C       -6.7440    -2.8390    -0.3240 C.3   1 <1>   0.1200 
 22 N       -6.9820    -6.1660     0.7050 N.pl3 1 <1>   0.0330 
 23 C       -5.3670    -6.2620    -0.7210 C.2   1 <1>   0.0770 
 24 O       -8.0410    -2.3490    -0.3250 O.3   1 <1>  -0.6800 
 25 C       -7.3500    -6.8100    -0.4230 C.2   1 <1>   0.0060 
 26 N       -6.4080    -6.8880    -1.3030 N.2   1 <1>  -0.5650 
 27 C       -8.7370    -7.3800    -0.6260 C.3   1 <1>  -0.0600 
 28 H       -3.1240     0.6320    -1.8620 H     1 <1>   0.1500 
 29 H       -4.3820    -0.7610     2.6640 H     1 <1>   0.1500 
 30 H       -4.4440     1.5940     2.0720 H     1 <1>   0.1500 
 31 H       -5.1830    -5.2350     2.5080 H     1 <1>   0.0800 
 32 H       -3.8370    -5.3970     1.4220 H     1 <1>   0.0800 
 33 H       -6.2760    -1.9910     1.5820 H     1 <1>   0.0800 
 34 H       -6.9780    -3.5730     1.6750 H     1 <1>   0.0800 
 35 H       -6.7470    -3.7940    -0.8210 H     1 <1>   0.0800 
 36 H       -6.1250    -2.1470    -0.8660 H     1 <1>   0.0800 
 37 H       -7.5690    -5.9880     1.5240 H     1 <1>   0.2700 
 38 H       -4.4200    -6.1630    -1.2270 H     1 <1>   0.1500 
 39 H       -8.3920    -2.3220    -1.2380 H     1 <1>   0.4000 
 40 H       -9.4700    -6.5960    -0.5680 H     1 <1>   0.0800 
 41 H       -8.9450    -8.1230     0.1210 H     1 <1>   0.0800 
 42 H       -8.8010    -7.8400    -1.5960 H     1 <1>   0.0800 
@<TRIPOS>BOND
  1   1   2  1   
  2   2   3  1   
  3   2   4  1   
  4   2   5  1   
  5   5   6  ar  
  6   5   7  ar  
  7   6   8  1   
  8   6   9  ar  
  9   7  10  ar  
 10   7  28  1   
 11   8  11  2   
 12   8  12  am  
 13   9  13  ar  
 14   9  29  1   
 15  10  13  ar  
 16  10  14  1   
 17  12  15  1   
 18  12  16  1   
 19  13  30  1   
 20  14  17  1   
 21  14  18  1   
 22  14  19  1   
 23  15  20  1   
 24  15  31  1   
 25  15  32  1   
 26  16  21  1   
 27  16  33  1   
 28  16  34  1   
 29  20  22  1   
 30  20  23  2   
 31  21  24  1   
 32  21  35  1   
 33  21  36  1   
 34  22  25  1   
 35  22  37  1   
 36  23  26  1   
 37  23  38  1   
 38  24  39  1   
 39  25  26  2   
 40  25  27  1   
 41  27  40  1   
 42  27  41  1   
 43  27  42  1   
@<TRIPOS>SUBSTRUCTURE
  1 ****   6 GROUP 4 **** **** 0

# MOE 2024.06 (io_trps.svl 2023.06)
