@<TRIPOS>MOLECULE
NONAME
53 57 1 0 0 
SMALL
USER_CHARGES


@<TRIPOS>ATOM
  1 O       -1.2740     2.0940     3.6240 O.2   1 <1>  -0.5700 
  2 C       -2.1640     2.4650     2.8920 C.2   1 <1>   0.5690 
  3 N       -3.2720     1.6850     2.6770 N.am  1 <1>  -0.6600 
  4 C       -1.9920     3.8130     2.2130 C.3   1 <1>   0.0820 
  5 C       -4.4480     2.0040     1.8270 C.3   1 <1>   0.1400 
  6 C       -3.3020     0.2540     3.0320 C.3   1 <1>   0.1400 
  7 C       -1.8710     3.6590     0.7090 C.2   1 <1>   0.1080 
  8 C       -4.9160     0.6580     1.2520 C.3   1 <1>  -0.0800 
  9 C       -3.9700    -0.4190     1.8330 C.3   1 <1>  -0.0800 
 10 N       -2.5740     4.3610    -0.1170 N.2   1 <1>  -0.7070 
 11 C       -1.0430     2.7180     0.0640 C.ar  1 <1>   0.0000 
 12 C       -5.1030     0.6210    -0.2890 C.3   1 <1>   0.4240 
 13 C       -2.9320    -0.9090     0.8070 C.3   1 <1>  -0.1600 
 14 N       -2.2550     3.8780    -1.3410 N.pl3 1 <1>   0.3000 
 15 C       -1.3340     2.8770    -1.2740 C.ar  1 <1>  -0.1520 
 16 C       -0.1030     1.7500     0.4510 C.ar  1 <1>  -0.1500 
 17 O       -4.0780     1.3070    -0.9160 O.3   1 <1>  -0.6800 
 18 C       -6.4330     1.3030    -0.6720 C.ar  1 <1>  -0.1440 
 19 C       -4.9680    -0.8320    -0.7810 C.3   1 <1>  -0.1600 
 20 C       -3.5880    -1.4590    -0.4750 C.3   1 <1>  -0.1600 
 21 C       -0.7350     2.0770    -2.2540 C.ar  1 <1>  -0.1500 
 22 C        0.4930     0.9640    -0.5060 C.ar  1 <1>  -0.1500 
 23 C       -7.6220     0.5850    -0.7750 C.ar  1 <1>  -0.1500 
 24 C       -6.4840     2.6770    -0.8960 C.ar  1 <1>  -0.1500 
 25 C        0.1750     1.1250    -1.8610 C.ar  1 <1>  -0.1500 
 26 C       -8.8120     1.2140    -1.1000 C.ar  1 <1>  -0.1500 
 27 C       -7.6720     3.3090    -1.2190 C.ar  1 <1>  -0.1500 
 28 C       -8.8390     2.5770    -1.3220 C.ar  1 <1>  -0.1500 
 29 H       -2.8340     4.4340     2.4490 H     1 <1>   0.0800 
 30 H       -1.1070     4.2910     2.5860 H     1 <1>   0.0800 
 31 H       -5.2230     2.4310     2.4390 H     1 <1>   0.0800 
 32 H       -4.2030     2.7100     1.0580 H     1 <1>   0.0800 
 33 H       -2.3130    -0.1320     3.2130 H     1 <1>   0.0800 
 34 H       -3.9010     0.1290     3.9170 H     1 <1>   0.0800 
 35 H       -5.8850     0.4670     1.6800 H     1 <1>   0.0800 
 36 H       -4.5350    -1.2700     2.1720 H     1 <1>   0.0800 
 37 H       -2.2820    -0.0910     0.5500 H     1 <1>   0.0800 
 38 H       -2.3130    -1.6720     1.2460 H     1 <1>   0.0800 
 39 H       -2.7060     4.2070    -2.2010 H     1 <1>   0.2700 
 40 H        0.1390     1.6340     1.4920 H     1 <1>   0.1500 
 41 H       -3.2280     0.9680    -0.5790 H     1 <1>   0.4000 
 42 H       -5.7100    -1.4290    -0.2860 H     1 <1>   0.0800 
 43 H       -5.1710    -0.8770    -1.8360 H     1 <1>   0.0800 
 44 H       -3.7100    -2.5260    -0.3870 H     1 <1>   0.0800 
 45 H       -2.9230    -1.2820    -1.3030 H     1 <1>   0.0800 
 46 H       -0.9890     2.2120    -3.2910 H     1 <1>   0.1500 
 47 H        1.2140     0.2170    -0.2220 H     1 <1>   0.1500 
 48 H       -7.6470    -0.4750    -0.6040 H     1 <1>   0.1500 
 49 H       -5.5890     3.2720    -0.8200 H     1 <1>   0.1500 
 50 H        0.6550     0.4940    -2.5900 H     1 <1>   0.1500 
 51 H       -9.7190     0.6400    -1.1790 H     1 <1>   0.1500 
 52 H       -7.6840     4.3710    -1.3890 H     1 <1>   0.1500 
 53 H       -9.7630     3.0660    -1.5750 H     1 <1>   0.1500 
@<TRIPOS>BOND
  1   1   2  2   
  2   2   3  am  
  3   2   4  1   
  4   3   5  1   
  5   3   6  1   
  6   4   7  1   
  7   4  29  1   
  8   4  30  1   
  9   5   8  1   
 10   5  31  1   
 11   5  32  1   
 12   6   9  1   
 13   6  33  1   
 14   6  34  1   
 15   7  10  2   
 16   7  11  1   
 17   8   9  1   
 18   8  12  1   
 19   8  35  1   
 20   9  13  1   
 21   9  36  1   
 22  10  14  1   
 23  11  15  ar  
 24  11  16  ar  
 25  12  17  1   
 26  12  18  1   
 27  12  19  1   
 28  13  20  1   
 29  13  37  1   
 30  13  38  1   
 31  14  15  1   
 32  14  39  1   
 33  15  21  ar  
 34  16  22  ar  
 35  16  40  1   
 36  17  41  1   
 37  18  23  ar  
 38  18  24  ar  
 39  19  20  1   
 40  19  42  1   
 41  19  43  1   
 42  20  44  1   
 43  20  45  1   
 44  21  25  ar  
 45  21  46  1   
 46  22  25  ar  
 47  22  47  1   
 48  23  26  ar  
 49  23  48  1   
 50  24  27  ar  
 51  24  49  1   
 52  25  50  1   
 53  26  28  ar  
 54  26  51  1   
 55  27  28  ar  
 56  27  52  1   
 57  28  53  1   
@<TRIPOS>SUBSTRUCTURE
  1 ****  17 GROUP 4 **** **** 0

# MOE 2024.06 (io_trps.svl 2023.06)
