@<TRIPOS>MOLECULE
NONAME
36 39 1 0 0 
SMALL
USER_CHARGES


@<TRIPOS>ATOM
  1 O       -0.5430     0.0990    -0.1290 O.2   1 <1>  -0.5700 
  2 C       -1.5550     0.7610     0.0060 C.2   1 <1>   0.5440 
  3 N       -2.7220     0.1440     0.3600 N.am  1 <1>  -0.6600 
  4 C       -1.4780     2.1820    -0.2070 C.ar  1 <1>   0.0860 
  5 C       -3.9790     0.8000     0.8250 C.3   1 <1>   0.2350 
  6 C       -2.8770    -1.3370     0.4420 C.3   1 <1>   0.2350 
  7 C       -0.5580     2.9610     0.4630 C.ar  1 <1>   0.1600 
  8 C       -2.2810     2.8570    -1.1050 C.ar  1 <1>   0.1600 
  9 C       -5.0600    -0.2490     0.6520 C.3   1 <1>  -0.2420 
 10 C       -4.3780    -1.5770     0.4250 C.3   1 <1>  -0.2420 
 11 N       -0.4460     4.2620     0.2860 N.ar  1 <1>  -0.6200 
 12 N       -2.1960     4.1550    -1.3140 N.ar  1 <1>  -0.6200 
 13 C       -6.3100     0.1450     1.4440 C.2   1 <1>   0.9470 
 14 C       -5.2340    -0.9730    -0.6600 C.3   1 <1>  -0.2000 
 15 C       -4.7080    -2.9820     0.9350 C.2   1 <1>   0.9470 
 16 C       -1.2800     4.7910    -0.5980 C.ar  1 <1>   0.5880 
 17 O       -7.3900     0.2760     0.8530 O.co2 1 <1>  -0.9000 
 18 O       -6.1780     0.5040     2.6220 O.co2 1 <1>  -0.9000 
 19 O       -4.2520    -3.3470     2.0270 O.co2 1 <1>  -0.9000 
 20 O       -5.2850    -3.7800     0.1840 O.co2 1 <1>  -0.9000 
 21 C       -1.1630     6.2930    -0.8210 C.3   1 <1>  -0.0680 
 22 C       -1.3290     7.2580     0.3190 C.3   1 <1>  -0.2000 
 23 C       -2.3660     7.1920    -0.7580 C.3   1 <1>  -0.2000 
 24 H       -3.8800     1.0560     1.8670 H     1 <1>   0.0800 
 25 H       -4.2220     1.6780     0.2580 H     1 <1>   0.0800 
 26 H       -2.3980    -1.8260    -0.3880 H     1 <1>   0.0800 
 27 H       -2.4530    -1.6900     1.3660 H     1 <1>   0.0800 
 28 H        0.1050     2.4850     1.1650 H     1 <1>   0.1500 
 29 H       -3.0130     2.3000    -1.6670 H     1 <1>   0.1500 
 30 H       -4.7700    -0.5910    -1.5490 H     1 <1>   0.1000 
 31 H       -6.1870    -1.4350    -0.8570 H     1 <1>   0.1000 
 32 H       -0.4130     6.5200    -1.5560 H     1 <1>   0.1000 
 33 H       -1.5640     6.8620     1.2920 H     1 <1>   0.1000 
 34 H       -0.6730     8.1090     0.3660 H     1 <1>   0.1000 
 35 H       -2.4380     7.9980    -1.4670 H     1 <1>   0.1000 
 36 H       -3.3220     6.7500    -0.5350 H     1 <1>   0.1000 
@<TRIPOS>BOND
  1   1   2  2   
  2   2   3  am  
  3   2   4  1   
  4   3   5  1   
  5   3   6  1   
  6   4   7  ar  
  7   4   8  ar  
  8   5   9  1   
  9   5  24  1   
 10   5  25  1   
 11   6  10  1   
 12   6  26  1   
 13   6  27  1   
 14   7  11  ar  
 15   7  28  1   
 16   8  12  ar  
 17   8  29  1   
 18   9  10  1   
 19   9  13  1   
 20   9  14  1   
 21  10  14  1   
 22  10  15  1   
 23  11  16  ar  
 24  12  16  ar  
 25  13  17  ar  
 26  13  18  ar  
 27  14  30  1   
 28  14  31  1   
 29  15  19  ar  
 30  15  20  ar  
 31  16  21  1   
 32  21  22  1   
 33  21  23  1   
 34  21  32  1   
 35  22  23  1   
 36  22  33  1   
 37  22  34  1   
 38  23  35  1   
 39  23  36  1   
@<TRIPOS>SUBSTRUCTURE
  1 ****   5 GROUP 4 **** **** 0

# MOE 2024.06 (io_trps.svl 2023.06)
