@<TRIPOS>MOLECULE
NONAME
48 51 1 0 0 
SMALL
USER_CHARGES


@<TRIPOS>ATOM
  1 S        0.1250     0.4380    -0.0150 S.3   1 <1>  -0.1120 
  2 C        0.8380    -1.2180    -0.0690 C.2   1 <1>   0.2420 
  3 C        1.4440     1.6210     0.3170 C.2   1 <1>   0.1960 
  4 N        2.0890    -1.5070     0.0310 N.2   1 <1>  -0.3380 
  5 N        0.0640    -2.2910    -0.2310 N.pl3 1 <1>   0.0480 
  6 O        1.0990     2.8920     0.2730 O.3   1 <1>  -0.2800 
  7 C        2.7520     1.4680     0.6160 C.2   1 <1>  -0.1500 
  8 N        2.1680    -2.8390    -0.0640 N.2   1 <1>  -0.3380 
  9 C        0.9650    -3.2790    -0.2190 C.2   1 <1>   0.0360 
 10 C       -1.4000    -2.3740    -0.3850 C.3   1 <1>   0.0160 
 11 C        2.1860     3.5950     0.5380 C.2   1 <1>  -0.0400 
 12 C        3.2390     2.7740     0.7630 C.2   1 <1>  -0.1500 
 13 C        2.0710     5.1110     0.5500 C.3   1 <1>   0.2900 
 14 N        3.3900     5.7660     0.3600 N.3   1 <1>  -0.8100 
 15 C        3.3710     7.1680     0.8300 C.3   1 <1>   0.1100 
 16 C        3.8590     5.5860    -1.0210 C.3   1 <1>   0.1100 
 17 C        4.7800     7.7680     1.0760 C.3   1 <1>   0.4230 
 18 C        5.2750     6.1270    -1.2730 C.3   1 <1>  -0.0800 
 19 N        5.4100     8.4030    -0.1340 N.4   1 <1>  -0.9590 
 20 C        5.7810     6.7290     1.6430 C.3   1 <1>   0.1200 
 21 C        6.3490     5.5290    -0.3280 C.3   1 <1>   0.1200 
 22 C        5.2540     7.6570    -1.4180 C.3   1 <1>   0.3430 
 23 C        5.1150     9.8580    -0.2730 C.3   1 <1>   0.2630 
 24 O        6.7600     6.4060     0.6850 O.3   1 <1>  -0.5600 
 25 H        3.3340     0.5730     0.7320 H     1 <1>   0.1500 
 26 H        0.7020    -4.3160    -0.3260 H     1 <1>   0.1500 
 27 H       -1.6960    -3.4020    -0.4930 H     1 <1>   0.0800 
 28 H       -1.6990    -1.8220    -1.2580 H     1 <1>   0.0800 
 29 H       -1.8740    -1.9550     0.4840 H     1 <1>   0.0800 
 30 H        4.2520     3.0350     1.0090 H     1 <1>   0.1500 
 31 H        1.6440     5.3940     1.4960 H     1 <1>   0.0800 
 32 H        1.3930     5.4220    -0.2270 H     1 <1>   0.0800 
 33 H        2.8060     7.7890     0.1560 H     1 <1>   0.0800 
 34 H        2.8680     7.1880     1.7820 H     1 <1>   0.0800 
 35 H        3.8670     4.5320    -1.2480 H     1 <1>   0.0800 
 36 H        3.1630     6.0480    -1.7020 H     1 <1>   0.0800 
 37 H        4.6590     8.5290     1.8280 H     1 <1>   0.0800 
 38 H        5.5170     5.7540    -2.2530 H     1 <1>   0.0800 
 39 H        6.4160     8.2660     0.0840 H     1 <1>   0.4500 
 40 H        5.3000     5.8290     1.9880 H     1 <1>   0.0800 
 41 H        6.2950     7.1610     2.4830 H     1 <1>   0.0800 
 42 H        7.2320     5.2920    -0.8980 H     1 <1>   0.0800 
 43 H        6.0000     4.6160     0.1270 H     1 <1>   0.0800 
 44 H        4.3280     7.9430    -1.8890 H     1 <1>   0.0800 
 45 H        6.0560     7.9460    -2.0780 H     1 <1>   0.0800 
 46 H        4.0690    10.0080    -0.4870 H     1 <1>   0.0800 
 47 H        5.6970    10.2810    -1.0760 H     1 <1>   0.0800 
 48 H        5.3610    10.3780     0.6380 H     1 <1>   0.0800 
@<TRIPOS>BOND
  1   1   2  1   
  2   1   3  1   
  3   2   4  2   
  4   2   5  1   
  5   3   6  1   
  6   3   7  2   
  7   4   8  1   
  8   5   9  1   
  9   5  10  1   
 10   6  11  1   
 11   7  12  1   
 12   7  25  1   
 13   8   9  2   
 14   9  26  1   
 15  10  27  1   
 16  10  28  1   
 17  10  29  1   
 18  11  12  2   
 19  11  13  1   
 20  12  30  1   
 21  13  14  1   
 22  13  31  1   
 23  13  32  1   
 24  14  15  1   
 25  14  16  1   
 26  15  17  1   
 27  15  33  1   
 28  15  34  1   
 29  16  18  1   
 30  16  35  1   
 31  16  36  1   
 32  17  19  1   
 33  17  20  1   
 34  17  37  1   
 35  18  21  1   
 36  18  22  1   
 37  18  38  1   
 38  19  22  1   
 39  19  23  1   
 40  19  39  1   
 41  20  24  1   
 42  20  40  1   
 43  20  41  1   
 44  21  24  1   
 45  21  42  1   
 46  21  43  1   
 47  22  44  1   
 48  22  45  1   
 49  23  46  1   
 50  23  47  1   
 51  23  48  1   
@<TRIPOS>SUBSTRUCTURE
  1 ****  12 GROUP 4 **** **** 0

# MOE 2024.06 (io_trps.svl 2023.06)
