@<TRIPOS>MOLECULE
NONAME
34 35 1 0 0 
SMALL
USER_CHARGES


@<TRIPOS>ATOM
  1 O       -0.8810     0.1760    -0.6970 O.co2 1 <1>  -0.9000 
  2 C       -1.1580     0.9840     0.1910 C.2   1 <1>   0.9060 
  3 O       -1.4180     0.6310     1.3500 O.co2 1 <1>  -0.9000 
  4 C       -1.2060     2.4520    -0.1540 C.3   1 <1>  -0.1860 
  5 C       -2.5310     3.1260     0.2320 C.3   1 <1>   0.2000 
  6 C       -0.0190     3.1830     0.4620 C.3   1 <1>   0.2090 
  7 O       -2.9050     2.7430     1.5060 O.3   1 <1>  -0.6800 
  8 C       -2.4470     4.6610     0.2340 C.3   1 <1>  -0.1600 
  9 N        0.0270     4.6070    -0.0220 N.pl3 1 <1>  -0.8380 
 10 C       -1.2420     5.1930    -0.5450 C.3   1 <1>   0.2090 
 11 C        1.2160     5.3030    -0.0690 C.ar  1 <1>   0.7200 
 12 N        2.2310     4.8250     0.6510 N.ar  1 <1>  -0.6200 
 13 N        1.2520     6.3980    -0.8300 N.ar  1 <1>  -0.6200 
 14 C        3.3540     5.4950     0.5950 C.ar  1 <1>   0.1600 
 15 C        2.3900     7.0450    -0.8650 C.ar  1 <1>   0.1600 
 16 C        3.4980     6.6350    -0.1620 C.ar  1 <1>  -0.1430 
 17 C        4.8110     7.4000    -0.2160 C.3   1 <1>  -0.0170 
 18 C        4.8600     8.4650     0.8810 C.3   1 <1>  -0.2400 
 19 H       -1.0940     2.5090    -1.2200 H     1 <1>   0.0800 
 20 H       -3.3010     2.7860    -0.4390 H     1 <1>   0.0800 
 21 H        0.8900     2.6730     0.1880 H     1 <1>   0.0800 
 22 H       -0.1020     3.1720     1.5360 H     1 <1>   0.0800 
 23 H       -2.4610     1.8560     1.6820 H     1 <1>   0.4000 
 24 H       -3.3480     5.0630    -0.1890 H     1 <1>   0.0800 
 25 H       -2.3620     5.0260     1.2430 H     1 <1>   0.0800 
 26 H       -1.2180     6.2660    -0.4570 H     1 <1>   0.0800 
 27 H       -1.3360     4.9430    -1.5880 H     1 <1>   0.0800 
 28 H        4.1820     5.1230     1.1720 H     1 <1>   0.1500 
 29 H        2.4390     7.9310    -1.4730 H     1 <1>   0.1500 
 30 H        5.6350     6.7170    -0.0930 H     1 <1>   0.0800 
 31 H        4.9190     7.8690    -1.1790 H     1 <1>   0.0800 
 32 H        4.7720     8.0070     1.8510 H     1 <1>   0.0800 
 33 H        4.0520     9.1650     0.7580 H     1 <1>   0.0800 
 34 H        5.7910     9.0020     0.8360 H     1 <1>   0.0800 
@<TRIPOS>BOND
  1   1   2  ar  
  2   2   3  ar  
  3   2   4  1   
  4   4   5  1   
  5   4   6  1   
  6   4  19  1   
  7   5   7  1   
  8   5   8  1   
  9   5  20  1   
 10   6   9  1   
 11   6  21  1   
 12   6  22  1   
 13   7  23  1   
 14   8  10  1   
 15   8  24  1   
 16   8  25  1   
 17   9  10  1   
 18   9  11  1   
 19  10  26  1   
 20  10  27  1   
 21  11  12  ar  
 22  11  13  ar  
 23  12  14  ar  
 24  13  15  ar  
 25  14  16  ar  
 26  14  28  1   
 27  15  16  ar  
 28  15  29  1   
 29  16  17  1   
 30  17  18  1   
 31  17  30  1   
 32  17  31  1   
 33  18  32  1   
 34  18  33  1   
 35  18  34  1   
@<TRIPOS>SUBSTRUCTURE
  1 ****   9 GROUP 4 **** **** 0

# MOE 2024.06 (io_trps.svl 2023.06)
