@<TRIPOS>MOLECULE
NONAME
40 41 1 0 0 
SMALL
USER_CHARGES


@<TRIPOS>ATOM
  1 O        0.3190    -0.4190     0.4690 O.3   1 <1>  -0.3570 
  2 C        0.1430    -1.7300     0.1010 C.2   1 <1>   0.0910 
  3 C        1.6270     0.0910     0.6400 C.3   1 <1>   0.0400 
  4 C        1.0130    -2.8020     0.5030 C.2   1 <1>   0.5410 
  5 C       -0.9370    -2.0040    -0.6820 C.2   1 <1>  -0.0500 
  6 O        1.9990    -2.6820     1.2290 O.2   1 <1>  -0.5700 
  7 C        0.6830    -4.1020     0.0390 C.2   1 <1>  -0.1360 
  8 N       -1.2210    -3.2900    -1.1040 N.pl3 1 <1>  -0.6000 
  9 C       -0.4110    -4.3430    -0.7350 C.2   1 <1>  -0.0380 
 10 C       -0.7630    -5.7570    -1.1860 C.3   1 <1>   0.4810 
 11 N       -1.5380    -6.4420    -0.1070 N.4   1 <1>  -0.9590 
 12 C       -1.6570    -7.9030    -0.4140 C.3   1 <1>   0.3430 
 13 C       -2.8740    -5.7960     0.1060 C.3   1 <1>   0.2630 
 14 C       -2.1570    -8.7200     0.7810 C.3   1 <1>  -0.0170 
 15 C       -2.2120   -10.1810     0.3830 C.ar  1 <1>   0.1670 
 16 N       -2.7240   -10.4270    -0.8120 N.ar  1 <1>  -0.6200 
 17 C       -1.7450   -11.1590     1.2490 C.ar  1 <1>  -0.1500 
 18 C       -2.7780   -11.7050    -1.1590 C.ar  1 <1>   0.1600 
 19 C       -1.8040   -12.4840     0.8710 C.ar  1 <1>  -0.1500 
 20 C       -2.3380   -12.7530    -0.3700 C.ar  1 <1>  -0.1500 
 21 H        1.5720     1.1650     0.6290 H     1 <1>   0.0800 
 22 H        2.2520    -0.2530    -0.1650 H     1 <1>   0.0800 
 23 H        2.0120    -0.2390     1.5880 H     1 <1>   0.0800 
 24 H       -1.5980    -1.2110    -0.9950 H     1 <1>   0.1500 
 25 H        1.3570    -4.8790     0.3480 H     1 <1>   0.1500 
 26 H       -2.0170    -3.4060    -1.7490 H     1 <1>   0.4000 
 27 H        0.1510    -6.2980    -1.3740 H     1 <1>   0.0800 
 28 H       -1.3300    -5.7250    -2.1020 H     1 <1>   0.0800 
 29 H       -0.9900    -6.3270     0.7570 H     1 <1>   0.4500 
 30 H       -0.6960    -8.2940    -0.7070 H     1 <1>   0.0800 
 31 H       -2.3320    -8.0480    -1.2430 H     1 <1>   0.0800 
 32 H       -3.4810    -5.8850    -0.7810 H     1 <1>   0.0800 
 33 H       -2.7530    -4.7500     0.3400 H     1 <1>   0.0800 
 34 H       -3.3940    -6.2650     0.9250 H     1 <1>   0.0800 
 35 H       -3.1510    -8.4200     1.0560 H     1 <1>   0.0800 
 36 H       -1.4990    -8.5940     1.6200 H     1 <1>   0.0800 
 37 H       -1.3410   -10.9020     2.2110 H     1 <1>   0.1500 
 38 H       -3.1970   -11.9340    -2.1260 H     1 <1>   0.1500 
 39 H       -1.4520   -13.2720     1.5150 H     1 <1>   0.1500 
 40 H       -2.4160   -13.7660    -0.7230 H     1 <1>   0.1500 
@<TRIPOS>BOND
  1   1   2  1   
  2   1   3  1   
  3   2   4  1   
  4   2   5  2   
  5   3  21  1   
  6   3  22  1   
  7   3  23  1   
  8   4   6  2   
  9   4   7  1   
 10   5   8  1   
 11   5  24  1   
 12   7   9  2   
 13   7  25  1   
 14   8   9  1   
 15   8  26  1   
 16   9  10  1   
 17  10  11  1   
 18  10  27  1   
 19  10  28  1   
 20  11  12  1   
 21  11  13  1   
 22  11  29  1   
 23  12  14  1   
 24  12  30  1   
 25  12  31  1   
 26  13  32  1   
 27  13  33  1   
 28  13  34  1   
 29  14  15  1   
 30  14  35  1   
 31  14  36  1   
 32  15  16  ar  
 33  15  17  ar  
 34  16  18  ar  
 35  17  19  ar  
 36  17  37  1   
 37  18  20  ar  
 38  18  38  1   
 39  19  20  ar  
 40  19  39  1   
 41  20  40  1   
@<TRIPOS>SUBSTRUCTURE
  1 ****  11 GROUP 4 **** **** 0

# MOE 2024.06 (io_trps.svl 2023.06)
