@<TRIPOS>MOLECULE
NONAME
50 53 1 0 0 
SMALL
USER_CHARGES


@<TRIPOS>ATOM
  1 O       -0.2530     0.7380    -1.6560 O.2   1 <1>  -0.5700 
  2 C       -0.1230     1.9060    -1.3430 C.2   1 <1>   0.5440 
  3 N       -1.2390     2.7180    -1.2950 N.am  1 <1>  -0.6600 
  4 C        1.1950     2.4030    -1.0190 C.ar  1 <1>   0.0860 
  5 C       -1.3120     3.9940    -0.5290 C.3   1 <1>   0.1400 
  6 C       -2.5450     2.2920    -1.8740 C.3   1 <1>   0.1400 
  7 C        1.7040     3.5390    -1.6410 C.ar  1 <1>   0.1600 
  8 C        2.0090     1.7780    -0.0890 C.ar  1 <1>  -0.1500 
  9 C       -2.3250     3.8380     0.6070 C.3   1 <1>  -0.1600 
 10 C       -3.5710     2.1310    -0.7510 C.3   1 <1>  -0.1600 
 11 N        2.8810     4.0910    -1.4000 N.ar  1 <1>  -0.6200 
 12 C        3.2480     2.3240     0.1790 C.ar  1 <1>  -0.1430 
 13 C       -3.7020     3.4070     0.0850 C.3   1 <1>   0.4180 
 14 C        3.6350     3.4770    -0.5000 C.ar  1 <1>   0.1670 
 15 C        4.1500     1.6350     1.1960 C.3   1 <1>  -0.0160 
 16 O       -4.2030     4.3970    -0.7830 O.3   1 <1>  -0.5600 
 17 C       -4.6740     3.1680     1.2370 C.2   1 <1>  -0.2880 
 18 C        4.9820     4.1360    -0.2330 C.3   1 <1>  -0.0170 
 19 C        5.2670     2.5520     1.7060 C.3   1 <1>  -0.1600 
 20 C       -4.8150     5.5150    -0.2030 C.3   1 <1>   0.1200 
 21 C       -5.7580     3.9120     1.4720 C.2   1 <1>  -0.2760 
 22 C        5.9660     3.2390     0.5300 C.3   1 <1>  -0.1600 
 23 C       -6.0680     5.1000     0.5810 C.3   1 <1>  -0.0220 
 24 C       -6.7510     3.6570     2.5910 C.3   1 <1>  -0.1020 
 25 H       -1.6220     4.7860    -1.1900 H     1 <1>   0.0800 
 26 H       -0.3560     4.2550    -0.1120 H     1 <1>   0.0800 
 27 H       -2.4420     1.3640    -2.4090 H     1 <1>   0.0800 
 28 H       -2.8810     3.0410    -2.5710 H     1 <1>   0.0800 
 29 H        1.0880     4.0180    -2.3820 H     1 <1>   0.1500 
 30 H        1.6670     0.8830     0.4020 H     1 <1>   0.1500 
 31 H       -2.4080     4.7550     1.1580 H     1 <1>   0.0800 
 32 H       -1.9600     3.0920     1.2890 H     1 <1>   0.0800 
 33 H       -3.2620     1.3150    -0.1230 H     1 <1>   0.0800 
 34 H       -4.5300     1.8790    -1.1650 H     1 <1>   0.0800 
 35 H        4.5890     0.7720     0.7260 H     1 <1>   0.0800 
 36 H        3.5640     1.2930     2.0310 H     1 <1>   0.0800 
 37 H       -4.4000     2.3230     1.8430 H     1 <1>   0.1500 
 38 H        4.8020     5.0310     0.3350 H     1 <1>   0.0800 
 39 H        5.4230     4.4280    -1.1690 H     1 <1>   0.0800 
 40 H        5.9780     1.9730     2.2700 H     1 <1>   0.0800 
 41 H        4.8480     3.2970     2.3600 H     1 <1>   0.0800 
 42 H       -5.0780     6.1930    -0.9940 H     1 <1>   0.0800 
 43 H       -4.1080     5.9970     0.4470 H     1 <1>   0.0800 
 44 H        6.7910     3.8320     0.8850 H     1 <1>   0.0800 
 45 H        6.3570     2.4910    -0.1400 H     1 <1>   0.0800 
 46 H       -6.8580     4.8450    -0.1040 H     1 <1>   0.0800 
 47 H       -6.3930     5.9360     1.1730 H     1 <1>   0.0800 
 48 H       -6.7920     4.5030     3.2530 H     1 <1>   0.0800 
 49 H       -6.4640     2.7920     3.1600 H     1 <1>   0.0800 
 50 H       -7.7320     3.4860     2.1830 H     1 <1>   0.0800 
@<TRIPOS>BOND
  1   1   2  2   
  2   2   3  am  
  3   2   4  1   
  4   3   5  1   
  5   3   6  1   
  6   4   7  ar  
  7   4   8  ar  
  8   5   9  1   
  9   5  25  1   
 10   5  26  1   
 11   6  10  1   
 12   6  27  1   
 13   6  28  1   
 14   7  11  ar  
 15   7  29  1   
 16   8  12  ar  
 17   8  30  1   
 18   9  13  1   
 19   9  31  1   
 20   9  32  1   
 21  10  13  1   
 22  10  33  1   
 23  10  34  1   
 24  11  14  ar  
 25  12  14  ar  
 26  12  15  1   
 27  13  16  1   
 28  13  17  1   
 29  14  18  1   
 30  15  19  1   
 31  15  35  1   
 32  15  36  1   
 33  16  20  1   
 34  17  21  2   
 35  17  37  1   
 36  18  22  1   
 37  18  38  1   
 38  18  39  1   
 39  19  22  1   
 40  19  40  1   
 41  19  41  1   
 42  20  23  1   
 43  20  42  1   
 44  20  43  1   
 45  21  23  1   
 46  21  24  1   
 47  22  44  1   
 48  22  45  1   
 49  23  46  1   
 50  23  47  1   
 51  24  48  1   
 52  24  49  1   
 53  24  50  1   
@<TRIPOS>SUBSTRUCTURE
  1 ****   5 GROUP 4 **** **** 0

# MOE 2024.06 (io_trps.svl 2023.06)
