@<TRIPOS>MOLECULE
NONAME
44 45 1 0 0 
SMALL
USER_CHARGES


@<TRIPOS>ATOM
  1 O        1.5030    -0.8670    -3.5790 O.2   1 <1>  -0.5700 
  2 C        2.3580    -1.3150    -2.8530 C.2   1 <1>   0.5690 
  3 N        3.2870    -0.5080    -2.2500 N.am  1 <1>  -0.6600 
  4 C        2.3490    -2.8210    -2.6330 C.3   1 <1>  -0.0990 
  5 C        3.1390     0.9870    -2.3190 C.3   1 <1>   0.3210 
  6 C        4.4330    -0.9830    -1.4190 C.3   1 <1>   0.0600 
  7 C        1.8300    -3.2020    -1.2360 C.3   1 <1>  -0.1600 
  8 C        2.9260     1.6290    -0.9470 C.2   1 <1>   0.3350 
  9 C        1.7720    -4.7260    -1.0500 C.3   1 <1>  -0.0990 
 10 N        1.7970     1.9860    -0.4750 N.2   1 <1>  -0.4100 
 11 N        3.9410     1.8760    -0.1220 N.2   1 <1>  -0.5650 
 12 C        1.3460    -5.1090     0.3620 C.2   1 <1>   0.4230 
 13 O        2.0130     2.4830     0.7050 O.3   1 <1>  -0.0190 
 14 C        3.3100     2.3860     0.8570 C.2   1 <1>   0.2980 
 15 O        2.2350    -5.2460     1.1630 O.2   1 <1>  -0.5700 
 16 C       -0.0530    -5.3060     0.6950 C.ar  1 <1>   0.0860 
 17 C        3.9330     2.8770     2.1510 C.3   1 <1>   0.0200 
 18 C       -0.4010    -5.9190     1.9020 C.ar  1 <1>  -0.1500 
 19 C       -1.1090    -4.9100    -0.1350 C.ar  1 <1>  -0.1500 
 20 C        3.5270     2.0060     3.3480 C.3   1 <1>  -0.2400 
 21 C       -1.7180    -6.1360     2.2610 C.ar  1 <1>  -0.1500 
 22 C       -2.4290    -5.1230     0.2180 C.ar  1 <1>  -0.1500 
 23 C       -2.7380    -5.7390     1.4160 C.ar  1 <1>  -0.1500 
 24 H        3.3330    -3.2160    -2.7960 H     1 <1>   0.0800 
 25 H        1.7060    -3.2590    -3.3760 H     1 <1>   0.0800 
 26 H        2.3060     1.2560    -2.9430 H     1 <1>   0.0800 
 27 H        4.0220     1.4070    -2.7630 H     1 <1>   0.0800 
 28 H        4.7130    -1.9880    -1.6720 H     1 <1>   0.0800 
 29 H        4.1640    -0.9460    -0.3770 H     1 <1>   0.0800 
 30 H        5.2870    -0.3470    -1.5750 H     1 <1>   0.0800 
 31 H        0.8510    -2.7760    -1.0950 H     1 <1>   0.0800 
 32 H        2.4750    -2.7830    -0.4820 H     1 <1>   0.0800 
 33 H        2.7520    -5.1380    -1.2210 H     1 <1>   0.0800 
 34 H        1.1120    -5.1720    -1.7710 H     1 <1>   0.0800 
 35 H        3.6280     3.8940     2.3190 H     1 <1>   0.0800 
 36 H        5.0040     2.8620     2.0480 H     1 <1>   0.0800 
 37 H        0.3830    -6.2320     2.5710 H     1 <1>   0.1500 
 38 H       -0.9110    -4.4210    -1.0700 H     1 <1>   0.1500 
 39 H        2.4590     2.0300     3.4830 H     1 <1>   0.0800 
 40 H        3.9970     2.3670     4.2450 H     1 <1>   0.0800 
 41 H        3.8310     0.9870     3.1830 H     1 <1>   0.0800 
 42 H       -1.9500    -6.6140     3.1970 H     1 <1>   0.1500 
 43 H       -3.2210    -4.8080    -0.4400 H     1 <1>   0.1500 
 44 H       -3.7650    -5.9070     1.6920 H     1 <1>   0.1500 
@<TRIPOS>BOND
  1   1   2  2   
  2   2   3  am  
  3   2   4  1   
  4   3   5  1   
  5   3   6  1   
  6   4   7  1   
  7   4  24  1   
  8   4  25  1   
  9   5   8  1   
 10   5  26  1   
 11   5  27  1   
 12   6  28  1   
 13   6  29  1   
 14   6  30  1   
 15   7   9  1   
 16   7  31  1   
 17   7  32  1   
 18   8  10  2   
 19   8  11  1   
 20   9  12  1   
 21   9  33  1   
 22   9  34  1   
 23  10  13  1   
 24  11  14  2   
 25  12  15  2   
 26  12  16  1   
 27  13  14  1   
 28  14  17  1   
 29  16  18  ar  
 30  16  19  ar  
 31  17  20  1   
 32  17  35  1   
 33  17  36  1   
 34  18  21  ar  
 35  18  37  1   
 36  19  22  ar  
 37  19  38  1   
 38  20  39  1   
 39  20  40  1   
 40  20  41  1   
 41  21  23  ar  
 42  21  42  1   
 43  22  23  ar  
 44  22  43  1   
 45  23  44  1   
@<TRIPOS>SUBSTRUCTURE
  1 ****   7 GROUP 4 **** **** 0

# MOE 2024.06 (io_trps.svl 2023.06)
