@<TRIPOS>MOLECULE
NONAME
44 45 1 0 0 
SMALL
USER_CHARGES


@<TRIPOS>ATOM
  1 CL      -1.7530    -0.4020    -1.9470 Cl    1 <1>  -0.1770 
  2 C       -2.4960     0.7140    -0.8270 C.ar  1 <1>   0.1770 
  3 C       -3.0720     0.2480     0.3520 C.ar  1 <1>   0.0860 
  4 C       -2.4890     2.0560    -1.1560 C.ar  1 <1>  -0.1500 
  5 C       -3.0950    -1.1540     0.6930 C.2   1 <1>   0.5440 
  6 C       -3.6350     1.1960     1.2060 C.ar  1 <1>  -0.1500 
  7 C       -3.0640     2.9740    -0.2950 C.ar  1 <1>  -0.1500 
  8 O       -2.3740    -1.5700     1.5770 O.2   1 <1>  -0.5700 
  9 N       -3.9470    -2.0320     0.0650 N.am  1 <1>  -0.6600 
 10 C       -3.6380     2.5460     0.8920 C.ar  1 <1>  -0.1430 
 11 C       -4.9420    -1.6760    -0.9760 C.3   1 <1>   0.1400 
 12 C       -3.9890    -3.4800     0.3730 C.3   1 <1>   0.1400 
 13 C       -4.2580     3.5610     1.8350 C.3   1 <1>  -0.0970 
 14 C       -5.4950    -3.0180    -1.4500 C.3   1 <1>   0.2000 
 15 C       -5.2730    -3.9850    -0.2900 C.3   1 <1>  -0.0800 
 16 O       -6.8440    -2.9430    -1.7540 O.3   1 <1>  -0.6800 
 17 C       -5.2150    -5.4490    -0.7560 C.3   1 <1>  -0.0550 
 18 S       -5.0900    -6.6160     0.5970 S.o2  1 <1>   1.3330 
 19 O       -6.2660    -6.4580     1.4220 O.2   1 <1>  -0.6500 
 20 O       -3.7770    -6.5120     1.1920 O.2   1 <1>  -0.6500 
 21 N       -5.1860    -8.1180    -0.1890 N.am  1 <1>  -0.8490 
 22 C       -3.9010    -8.5780    -0.7260 C.3   1 <1>   0.1160 
 23 C       -5.7680    -9.1560     0.6670 C.3   1 <1>   0.1160 
 24 H       -2.0360     2.3790    -2.0760 H     1 <1>   0.1500 
 25 H       -4.0700     0.8540     2.1290 H     1 <1>   0.1500 
 26 H       -3.0610     4.0210    -0.5480 H     1 <1>   0.1500 
 27 H       -5.7160    -1.0720    -0.5350 H     1 <1>   0.0800 
 28 H       -4.4740    -1.1510    -1.7900 H     1 <1>   0.0800 
 29 H       -3.1170    -3.9510    -0.0490 H     1 <1>   0.0800 
 30 H       -3.9980    -3.6460     1.4390 H     1 <1>   0.0800 
 31 H       -5.0810     4.0560     1.3530 H     1 <1>   0.0800 
 32 H       -3.5250     4.2980     2.1130 H     1 <1>   0.0800 
 33 H       -4.6190     3.0870     2.7300 H     1 <1>   0.0800 
 34 H       -4.9650    -3.3340    -2.3330 H     1 <1>   0.0800 
 35 H       -6.0680    -3.8690     0.4270 H     1 <1>   0.0800 
 36 H       -7.3640    -2.7250    -0.9560 H     1 <1>   0.4000 
 37 H       -4.3850    -5.5800    -1.4210 H     1 <1>   0.0800 
 38 H       -6.1110    -5.6640    -1.3060 H     1 <1>   0.0800 
 39 H       -4.0390    -9.4870    -1.2870 H     1 <1>   0.0800 
 40 H       -3.2020    -8.7630     0.0740 H     1 <1>   0.0800 
 41 H       -3.4840    -7.8340    -1.3820 H     1 <1>   0.0800 
 42 H       -5.8290   -10.0890     0.1350 H     1 <1>   0.0800 
 43 H       -6.7650    -8.8740     0.9640 H     1 <1>   0.0800 
 44 H       -5.1690    -9.2900     1.5530 H     1 <1>   0.0800 
@<TRIPOS>BOND
  1   1   2  1   
  2   2   3  ar  
  3   2   4  ar  
  4   3   5  1   
  5   3   6  ar  
  6   4   7  ar  
  7   4  24  1   
  8   5   8  2   
  9   5   9  am  
 10   6  10  ar  
 11   6  25  1   
 12   7  10  ar  
 13   7  26  1   
 14   9  11  1   
 15   9  12  1   
 16  10  13  1   
 17  11  14  1   
 18  11  27  1   
 19  11  28  1   
 20  12  15  1   
 21  12  29  1   
 22  12  30  1   
 23  13  31  1   
 24  13  32  1   
 25  13  33  1   
 26  14  15  1   
 27  14  16  1   
 28  14  34  1   
 29  15  17  1   
 30  15  35  1   
 31  16  36  1   
 32  17  18  1   
 33  17  37  1   
 34  17  38  1   
 35  18  19  2   
 36  18  20  2   
 37  18  21  am  
 38  21  22  1   
 39  21  23  1   
 40  22  39  1   
 41  22  40  1   
 42  22  41  1   
 43  23  42  1   
 44  23  43  1   
 45  23  44  1   
@<TRIPOS>SUBSTRUCTURE
  1 ****   9 GROUP 4 **** **** 0

# MOE 2024.06 (io_trps.svl 2023.06)
