@<TRIPOS>MOLECULE
Untitled Document
45 48 1 0 0 
SMALL
USER_CHARGES


@<TRIPOS>ATOM
  1 F       -0.5730    -0.2430     0.8450 F     1 <1>  -0.1900 
  2 C       -1.5340    -0.9180     0.2770 C.ar  1 <1>   0.1900 
  3 C       -1.4440    -2.2910     0.2060 C.ar  1 <1>  -0.1440 
  4 C       -2.6220    -0.2380    -0.2420 C.ar  1 <1>  -0.1500 
  5 C       -2.4680    -3.0140    -0.3830 C.ar  1 <1>   0.0410 
  6 C       -0.3370    -3.2170     0.6950 C.3   1 <1>   0.5780 
  7 C       -3.6420    -0.9650    -0.8420 C.ar  1 <1>  -0.1500 
  8 C       -2.1360    -4.4030    -0.2850 C.2   1 <1>   0.3090 
  9 C       -3.5700    -2.3500    -0.9130 C.ar  1 <1>  -0.1500 
 10 N       -0.9270    -4.5300     0.3330 N.pl3 1 <1>  -0.7640 
 11 C        0.9810    -2.9450    -0.0450 C.3   1 <1>  -0.1600 
 12 C       -2.5690    -5.6630    -0.5410 C.2   1 <1>   0.2000 
 13 C       -0.6460    -5.8100     0.4880 C.cat 1 <1>   0.6500 
 14 C        2.0650    -4.0160     0.1380 C.3   1 <1>   0.2000 
 15 N       -1.6220    -6.5330    -0.0510 N.pl3 1 <1>  -0.7000 
 16 O        2.0480    -4.4470     1.4500 O.3   1 <1>  -0.6800 
 17 C        3.4940    -3.5600    -0.2450 C.3   1 <1>  -0.0800 
 18 C        4.4440    -4.7750    -0.3340 C.3   1 <1>  -0.1600 
 19 C        4.0910    -2.4790     0.6890 C.3   1 <1>  -0.1600 
 20 C        5.8570    -4.3610    -0.7720 C.3   1 <1>  -0.1600 
 21 C        5.5070    -2.0730     0.2520 C.3   1 <1>  -0.1600 
 22 C        6.4260    -3.2920     0.1630 C.3   1 <1>   0.2000 
 23 O        7.6430    -2.8850    -0.3320 O.3   1 <1>  -0.6800 
 24 H       -2.6690     0.8350    -0.1770 H     1 <1>   0.1500 
 25 H       -0.2140    -3.1420     1.7630 H     1 <1>   0.0800 
 26 H       -4.4950    -0.4470    -1.2510 H     1 <1>   0.1500 
 27 H       -4.3700    -2.9030    -1.3750 H     1 <1>   0.1500 
 28 H        1.3490    -1.9980     0.2990 H     1 <1>   0.0800 
 29 H        0.7820    -2.8320    -1.0960 H     1 <1>   0.0800 
 30 H       -3.4830    -5.9750    -1.0210 H     1 <1>   0.1500 
 31 H        0.2360    -6.2040     0.9780 H     1 <1>   0.1500 
 32 H        1.8100    -4.8650    -0.4740 H     1 <1>   0.0800 
 33 H       -1.6710    -7.5570    -0.0780 H     1 <1>   0.4500 
 34 H        2.9710    -4.5680     1.7590 H     1 <1>   0.4000 
 35 H        3.4330    -3.1360    -1.2340 H     1 <1>   0.0800 
 36 H        4.5120    -5.2650     0.6210 H     1 <1>   0.0800 
 37 H        4.0600    -5.4890    -1.0420 H     1 <1>   0.0800 
 38 H        3.4770    -1.5960     0.6900 H     1 <1>   0.0800 
 39 H        4.1370    -2.8430     1.7010 H     1 <1>   0.0800 
 40 H        5.8160    -3.9790    -1.7780 H     1 <1>   0.0800 
 41 H        6.5020    -5.2220    -0.7600 H     1 <1>   0.0800 
 42 H        5.9140    -1.3750     0.9640 H     1 <1>   0.0800 
 43 H        5.4510    -1.5890    -0.7070 H     1 <1>   0.0800 
 44 H        6.5940    -3.7060     1.1430 H     1 <1>   0.0800 
 45 H        7.5300    -2.4950    -1.2190 H     1 <1>   0.4000 
@<TRIPOS>BOND
  1   1   2  1   
  2   2   3  ar  
  3   2   4  ar  
  4   3   5  ar  
  5   3   6  1   
  6   4   7  ar  
  7   4  24  1   
  8   5   8  1   
  9   5   9  ar  
 10   6  10  1   
 11   6  11  1   
 12   6  25  1   
 13   7   9  ar  
 14   7  26  1   
 15   8  10  1   
 16   8  12  2   
 17   9  27  1   
 18  10  13  ar  
 19  11  14  1   
 20  11  28  1   
 21  11  29  1   
 22  12  15  1   
 23  12  30  1   
 24  13  15  ar  
 25  13  31  1   
 26  14  16  1   
 27  14  17  1   
 28  14  32  1   
 29  15  33  1   
 30  16  34  1   
 31  17  18  1   
 32  17  19  1   
 33  17  35  1   
 34  18  20  1   
 35  18  36  1   
 36  18  37  1   
 37  19  21  1   
 38  19  38  1   
 39  19  39  1   
 40  20  22  1   
 41  20  40  1   
 42  20  41  1   
 43  21  22  1   
 44  21  42  1   
 45  21  43  1   
 46  22  23  1   
 47  22  44  1   
 48  23  45  1   
@<TRIPOS>SUBSTRUCTURE
  1 ****  11 GROUP 4 **** **** 0

# MOE 2024.06 (io_trps.svl 2023.06)
