@<TRIPOS>MOLECULE
NONAME
34 35 1 0 0 
SMALL
USER_CHARGES


@<TRIPOS>ATOM
  1 O        0.0530    -0.0680    -0.2140 O.2   1 <1>  -0.5700 
  2 C        1.1120    -0.6560    -0.0810 C.2   1 <1>   0.7150 
  3 N        2.2700     0.0510     0.0940 N.am  1 <1>  -0.4930 
  4 C        1.1830    -2.0980    -0.1040 C.2   1 <1>   0.0550 
  5 C        2.4970     1.4490     0.1570 C.2   1 <1>   0.0630 
  6 O        2.3600    -2.6970     0.0460 O.3   1 <1>  -0.2800 
  7 C        0.2340    -3.0500    -0.2570 C.2   1 <1>   0.0460 
  8 C        3.6910     2.0570     0.3380 C.2   1 <1>  -0.3320 
  9 C        1.5800     2.4950     0.0510 C.2   1 <1>   0.1390 
 10 C        2.0320    -3.9710    -0.0280 C.2   1 <1>   0.2980 
 11 N        0.7970    -4.2510    -0.2050 N.2   1 <1>  -0.5650 
 12 C       -1.2650    -2.9470    -0.4620 C.3   1 <1>  -0.0590 
 13 N        3.4490     3.3940     0.3320 N.pl3 1 <1>   0.3140 
 14 C        5.0710     1.4400     0.5210 C.3   1 <1>  -0.0600 
 15 N        2.1430     3.6600     0.1560 N.2   1 <1>  -0.7070 
 16 C        3.1340    -4.9940     0.1020 C.3   1 <1>  -0.0600 
 17 C        4.4270     4.4930     0.4960 C.3   1 <1>   0.0960 
 18 C        5.0340     4.9020    -0.8530 C.3   1 <1>  -0.2400 
 19 H        3.0990    -0.5300     0.1950 H     1 <1>   0.3700 
 20 H        0.5220     2.3610    -0.1000 H     1 <1>   0.1500 
 21 H       -1.5920    -1.9250    -0.4850 H     1 <1>   0.0800 
 22 H       -1.7720    -3.4540     0.3380 H     1 <1>   0.0800 
 23 H       -1.5320    -3.4150    -1.3910 H     1 <1>   0.0800 
 24 H        5.0190     0.3670     0.4820 H     1 <1>   0.0800 
 25 H        5.4810     1.7240     1.4740 H     1 <1>   0.0800 
 26 H        5.7330     1.7740    -0.2580 H     1 <1>   0.0800 
 27 H        3.8560    -4.8510    -0.6800 H     1 <1>   0.0800 
 28 H        2.7240    -5.9850     0.0240 H     1 <1>   0.0800 
 29 H        3.6150    -4.8890     1.0560 H     1 <1>   0.0800 
 30 H        5.1960     4.1770     1.1750 H     1 <1>   0.0800 
 31 H        3.9120     5.3310     0.9310 H     1 <1>   0.0800 
 32 H        5.5580     4.0760    -1.2980 H     1 <1>   0.0800 
 33 H        5.7240     5.7140    -0.7110 H     1 <1>   0.0800 
 34 H        4.2550     5.2280    -1.5200 H     1 <1>   0.0800 
@<TRIPOS>BOND
  1   1   2  2   
  2   2   3  am  
  3   2   4  1   
  4   3   5  1   
  5   3  19  1   
  6   4   6  1   
  7   4   7  2   
  8   5   8  2   
  9   5   9  1   
 10   6  10  1   
 11   7  11  1   
 12   7  12  1   
 13   8  13  1   
 14   8  14  1   
 15   9  15  2   
 16   9  20  1   
 17  10  11  2   
 18  10  16  1   
 19  12  21  1   
 20  12  22  1   
 21  12  23  1   
 22  13  15  1   
 23  13  17  1   
 24  14  24  1   
 25  14  25  1   
 26  14  26  1   
 27  16  27  1   
 28  16  28  1   
 29  16  29  1   
 30  17  18  1   
 31  17  30  1   
 32  17  31  1   
 33  18  32  1   
 34  18  33  1   
 35  18  34  1   
@<TRIPOS>SUBSTRUCTURE
  1 ****   3 GROUP 4 **** **** 0

# MOE 2024.06 (io_trps.svl 2023.06)
