@<TRIPOS>MOLECULE
NONAME
51 54 1 0 0 
SMALL
USER_CHARGES


@<TRIPOS>ATOM
  1 O       -0.6420     0.4840     1.3200 O.2   1 <1>  -0.5700 
  2 C       -1.5750     1.0410     0.7720 C.2   1 <1>   0.5440 
  3 N       -2.7050     0.3120     0.4860 N.am  1 <1>  -0.6600 
  4 C       -1.4930     2.4450     0.4180 C.ar  1 <1>   0.0860 
  5 C       -3.7890     0.7480    -0.4300 C.3   1 <1>   0.1400 
  6 C       -2.8660    -1.1190     0.8170 C.3   1 <1>   0.1400 
  7 C       -0.5780     2.9350    -0.5260 C.ar  1 <1>  -0.1440 
  8 C       -2.3660     3.3520     1.0200 C.ar  1 <1>  -0.1500 
  9 C       -4.6830    -0.4840    -0.6360 C.3   1 <1>   0.2000 
 10 C       -3.7710    -1.6670    -0.2870 C.3   1 <1>  -0.0800 
 11 C       -0.5500     4.2850    -0.8440 C.ar  1 <1>  -0.1500 
 12 C        0.4040     1.9950    -1.2130 C.3   1 <1>  -0.0960 
 13 C       -2.3460     4.6930     0.6950 C.ar  1 <1>   0.0820 
 14 O       -5.7510    -0.4570     0.2690 O.3   1 <1>  -0.5600 
 15 C       -4.5140    -2.9560     0.1090 C.3   1 <1>   0.0200 
 16 C       -1.4240     5.1680    -0.2370 C.ar  1 <1>   0.0820 
 17 O       -3.2370     5.5270     1.2890 O.3   1 <1>  -0.3630 
 18 C       -6.8570     0.2850    -0.1390 C.3   1 <1>   0.0400 
 19 C       -3.5920    -4.1530     0.2760 C.2   1 <1>  -0.0400 
 20 O       -1.3640     6.4810    -0.5560 O.3   1 <1>  -0.3630 
 21 C       -3.3960     6.8120     0.7160 C.3   1 <1>   0.1200 
 22 O       -4.1000    -5.2840     0.6860 O.3   1 <1>  -0.0190 
 23 C       -2.2760    -4.3440     0.0850 C.2   1 <1>  -0.1500 
 24 C       -2.0340     7.3850     0.3010 C.3   1 <1>   0.1200 
 25 N       -3.1990    -6.2190     0.7820 N.2   1 <1>  -0.4100 
 26 C       -2.0890    -5.6800     0.4270 C.2   1 <1>   0.1080 
 27 C       -0.7630    -6.4060     0.3900 C.3   1 <1>  -0.0590 
 28 H       -4.3390     1.5700    -0.0090 H     1 <1>   0.0800 
 29 H       -3.3520     1.0460    -1.3670 H     1 <1>   0.0800 
 30 H       -1.9160    -1.6220     0.8510 H     1 <1>   0.0800 
 31 H       -3.3480    -1.1980     1.7770 H     1 <1>   0.0800 
 32 H       -3.0700     3.0000     1.7520 H     1 <1>   0.1500 
 33 H       -5.0680    -0.5570    -1.6390 H     1 <1>   0.0800 
 34 H       -3.1560    -1.8700    -1.1460 H     1 <1>   0.0800 
 35 H        0.1510     4.6700    -1.5620 H     1 <1>   0.1500 
 36 H        0.9640     2.5060    -1.9760 H     1 <1>   0.0800 
 37 H       -0.1220     1.1750    -1.6690 H     1 <1>   0.0800 
 38 H        1.0970     1.6000    -0.4910 H     1 <1>   0.0800 
 39 H       -5.2420    -3.1940    -0.6470 H     1 <1>   0.0800 
 40 H       -5.0440    -2.8020     1.0330 H     1 <1>   0.0800 
 41 H       -7.5960     0.2350     0.6420 H     1 <1>   0.0800 
 42 H       -7.2580    -0.1400    -1.0420 H     1 <1>   0.0800 
 43 H       -6.5700     1.3100    -0.2960 H     1 <1>   0.0800 
 44 H       -4.0380     6.7180    -0.1420 H     1 <1>   0.0800 
 45 H       -3.8710     7.4430     1.4450 H     1 <1>   0.0800 
 46 H       -1.5130    -3.6670    -0.2490 H     1 <1>   0.1500 
 47 H       -1.4160     7.5450     1.1670 H     1 <1>   0.0800 
 48 H       -2.1540     8.3150    -0.2250 H     1 <1>   0.0800 
 49 H       -0.0590    -5.9110     1.0320 H     1 <1>   0.0800 
 50 H       -0.3830    -6.4190    -0.6140 H     1 <1>   0.0800 
 51 H       -0.8910    -7.4190     0.7280 H     1 <1>   0.0800 
@<TRIPOS>BOND
  1   1   2  2   
  2   2   3  am  
  3   2   4  1   
  4   3   5  1   
  5   3   6  1   
  6   4   7  ar  
  7   4   8  ar  
  8   5   9  1   
  9   5  28  1   
 10   5  29  1   
 11   6  10  1   
 12   6  30  1   
 13   6  31  1   
 14   7  11  ar  
 15   7  12  1   
 16   8  13  ar  
 17   8  32  1   
 18   9  10  1   
 19   9  14  1   
 20   9  33  1   
 21  10  15  1   
 22  10  34  1   
 23  11  16  ar  
 24  11  35  1   
 25  12  36  1   
 26  12  37  1   
 27  12  38  1   
 28  13  16  ar  
 29  13  17  1   
 30  14  18  1   
 31  15  19  1   
 32  15  39  1   
 33  15  40  1   
 34  16  20  1   
 35  17  21  1   
 36  18  41  1   
 37  18  42  1   
 38  18  43  1   
 39  19  22  1   
 40  19  23  2   
 41  20  24  1   
 42  21  24  1   
 43  21  44  1   
 44  21  45  1   
 45  22  25  1   
 46  23  26  1   
 47  23  46  1   
 48  24  47  1   
 49  24  48  1   
 50  25  26  2   
 51  26  27  1   
 52  27  49  1   
 53  27  50  1   
 54  27  51  1   
@<TRIPOS>SUBSTRUCTURE
  1 ****   3 GROUP 4 **** **** 0

# MOE 2024.06 (io_trps.svl 2023.06)
