@<TRIPOS>MOLECULE
NONAME
58 61 1 0 0 
SMALL
USER_CHARGES


@<TRIPOS>ATOM
  1 F       -0.2330    -1.6430    -3.2800 F     1 <1>  -0.1900 
  2 C       -1.0260    -2.4340    -2.5970 C.ar  1 <1>   0.1900 
  3 C       -2.3000    -2.6920    -3.0370 C.ar  1 <1>   0.1600 
  4 C       -0.5950    -3.0180    -1.4330 C.ar  1 <1>   0.1600 
  5 N       -3.1050    -3.4850    -2.3620 N.ar  1 <1>  -0.6200 
  6 N       -1.3830    -3.8130    -0.7410 N.ar  1 <1>  -0.6200 
  7 C       -2.6070    -4.0070    -1.2370 C.ar  1 <1>   0.7200 
  8 N       -3.4290    -4.8360    -0.5270 N.pl3 1 <1>  -0.8380 
  9 C       -3.0280    -5.8830     0.4110 C.3   1 <1>   0.2890 
 10 C       -4.7180    -5.3640    -0.9330 C.3   1 <1>   0.2890 
 11 C       -3.1000    -7.1370    -0.5000 C.3   1 <1>   0.0610 
 12 C       -4.2280    -5.7710     1.3740 C.3   1 <1>  -0.1600 
 13 C       -4.3390    -6.7840    -1.3810 C.3   1 <1>  -0.1600 
 14 C       -5.4020    -5.4410     0.4330 C.3   1 <1>  -0.1600 
 15 C       -3.2570    -8.4510     0.2820 C.2   1 <1>   0.5690 
 16 C       -1.8470    -7.2690    -1.4060 C.3   1 <1>  -0.0220 
 17 O       -2.9160    -8.5340     1.4390 O.2   1 <1>  -0.5700 
 18 N       -3.7870    -9.5280    -0.3560 N.am  1 <1>  -0.7300 
 19 C       -0.5520    -7.4320    -0.6210 C.2   1 <1>  -0.2880 
 20 C       -4.0740   -10.8240     0.2780 C.3   1 <1>   0.3210 
 21 C        0.1720    -8.5400    -0.4190 C.2   1 <1>  -0.2760 
 22 C       -5.5620   -11.0680     0.1690 C.2   1 <1>  -0.1810 
 23 C        1.4530    -8.5060     0.3970 C.3   1 <1>  -0.1020 
 24 C       -0.1500    -9.9390    -0.9260 C.3   1 <1>  -0.1020 
 25 C       -6.2560   -11.9130    -0.6100 C.2   1 <1>  -0.0400 
 26 C       -6.5550   -10.4130     0.8970 C.2   1 <1>   0.1080 
 27 O       -7.5250   -11.7450    -0.3510 O.3   1 <1>  -0.0190 
 28 C       -5.8450   -12.9340    -1.6500 C.3   1 <1>  -0.0600 
 29 N       -7.7190   -10.8360     0.5600 N.2   1 <1>  -0.4100 
 30 C       -6.3250    -9.3440     1.9450 C.3   1 <1>  -0.0590 
 31 H       -2.6560    -2.2440    -3.9470 H     1 <1>   0.1500 
 32 H        0.4000    -2.8300    -1.0710 H     1 <1>   0.1500 
 33 H       -2.0770    -5.7190     0.8880 H     1 <1>   0.0800 
 34 H       -5.2410    -4.7730    -1.6670 H     1 <1>   0.0800 
 35 H       -4.4010    -6.6530     1.9590 H     1 <1>   0.0800 
 36 H       -4.0530    -4.9510     2.0480 H     1 <1>   0.0800 
 37 H       -5.1690    -7.4500    -1.2370 H     1 <1>   0.0800 
 38 H       -4.0940    -6.7660    -2.4280 H     1 <1>   0.0800 
 39 H       -5.8240    -4.4820     0.6800 H     1 <1>   0.0800 
 40 H       -6.1780    -6.1840     0.4540 H     1 <1>   0.0800 
 41 H       -1.9820    -8.1020    -2.0690 H     1 <1>   0.0800 
 42 H       -1.7430    -6.4050    -2.0360 H     1 <1>   0.0800 
 43 H       -4.1360    -9.4330    -1.3090 H     1 <1>   0.3700 
 44 H       -0.2410    -6.4870    -0.2050 H     1 <1>   0.1500 
 45 H       -3.5270   -11.5970    -0.2310 H     1 <1>   0.0800 
 46 H       -3.7720   -10.8210     1.3120 H     1 <1>   0.0800 
 47 H        1.3610    -9.1490     1.2540 H     1 <1>   0.0800 
 48 H        1.6590    -7.5100     0.7450 H     1 <1>   0.0800 
 49 H        2.2840    -8.8360    -0.2000 H     1 <1>   0.0800 
 50 H        0.6400   -10.2870    -1.5670 H     1 <1>   0.0800 
 51 H       -1.0690    -9.9710    -1.4760 H     1 <1>   0.0800 
 52 H       -0.2410   -10.6130    -0.0920 H     1 <1>   0.0800 
 53 H       -4.7770   -12.9560    -1.7620 H     1 <1>   0.0800 
 54 H       -6.2900   -12.6860    -2.5970 H     1 <1>   0.0800 
 55 H       -6.1850   -13.9100    -1.3530 H     1 <1>   0.0800 
 56 H       -5.5110    -9.6200     2.5900 H     1 <1>   0.0800 
 57 H       -7.2110    -9.2150     2.5390 H     1 <1>   0.0800 
 58 H       -6.0910    -8.4140     1.4640 H     1 <1>   0.0800 
@<TRIPOS>BOND
  1   1   2  1   
  2   2   3  ar  
  3   2   4  ar  
  4   3   5  ar  
  5   3  31  1   
  6   4   6  ar  
  7   4  32  1   
  8   5   7  ar  
  9   6   7  ar  
 10   7   8  1   
 11   8   9  1   
 12   8  10  1   
 13   9  11  1   
 14   9  12  1   
 15   9  33  1   
 16  10  13  1   
 17  10  14  1   
 18  10  34  1   
 19  11  13  1   
 20  11  15  1   
 21  11  16  1   
 22  12  14  1   
 23  12  35  1   
 24  12  36  1   
 25  13  37  1   
 26  13  38  1   
 27  14  39  1   
 28  14  40  1   
 29  15  17  2   
 30  15  18  am  
 31  16  19  1   
 32  16  41  1   
 33  16  42  1   
 34  18  20  1   
 35  18  43  1   
 36  19  21  2   
 37  19  44  1   
 38  20  22  1   
 39  20  45  1   
 40  20  46  1   
 41  21  23  1   
 42  21  24  1   
 43  22  25  2   
 44  22  26  1   
 45  23  47  1   
 46  23  48  1   
 47  23  49  1   
 48  24  50  1   
 49  24  51  1   
 50  24  52  1   
 51  25  27  1   
 52  25  28  1   
 53  26  29  2   
 54  26  30  1   
 55  27  29  1   
 56  28  53  1   
 57  28  54  1   
 58  28  55  1   
 59  30  56  1   
 60  30  57  1   
 61  30  58  1   
@<TRIPOS>SUBSTRUCTURE
  1 ****  11 GROUP 4 **** **** 0

# MOE 2024.06 (io_trps.svl 2023.06)
