@<TRIPOS>MOLECULE
NONAME
48 50 1 0 0 
SMALL
USER_CHARGES


@<TRIPOS>ATOM
  1 S        1.3150    -0.9080    -0.8590 S.3   1 <1>  -0.0800 
  2 C        0.5130    -1.6420     0.5150 C.2   1 <1>   0.1980 
  3 C        1.2790     0.6200    -0.0280 C.2   1 <1>  -0.1100 
  4 N        0.2550    -0.8360     1.4650 N.2   1 <1>  -0.5650 
  5 C        0.2050    -3.1210     0.4420 C.3   1 <1>   0.0200 
  6 C        0.6880     0.4460     1.1630 C.2   1 <1>   0.0770 
  7 C       -1.0470    -3.3530    -0.4000 C.3   1 <1>   0.1400 
  8 N       -1.4020    -4.7900    -0.3920 N.am  1 <1>  -0.7300 
  9 C       -1.2560    -5.6610    -1.4230 C.2   1 <1>   0.5690 
 10 O       -0.7670    -5.3360    -2.4780 O.2   1 <1>  -0.5700 
 11 C       -1.7260    -7.1050    -1.2180 C.3   1 <1>   0.1710 
 12 N       -2.7550    -7.2680    -0.1470 N.3   1 <1>  -0.8100 
 13 C       -2.9070    -8.6920     0.2250 C.3   1 <1>   0.1100 
 14 C       -4.0690    -6.7420    -0.5940 C.3   1 <1>   0.1100 
 15 C       -3.9650    -8.9070     1.3280 C.3   1 <1>   0.2090 
 16 C       -5.1480    -6.8640     0.4990 C.3   1 <1>   0.2090 
 17 N       -5.2720    -8.2670     0.9890 N.pl3 1 <1>  -0.8380 
 18 C       -6.3530    -9.0260     0.5390 C.ar  1 <1>   0.1000 
 19 C       -7.6340    -8.7090     0.9720 C.ar  1 <1>  -0.1500 
 20 C       -6.1980   -10.0910    -0.3430 C.ar  1 <1>  -0.1500 
 21 C       -8.7390    -9.4260     0.5440 C.ar  1 <1>  -0.1430 
 22 C       -7.2930   -10.8150    -0.7760 C.ar  1 <1>  -0.1500 
 23 C       -8.5630   -10.4830    -0.3350 C.ar  1 <1>  -0.1500 
 24 C      -10.1330    -9.0690     1.0260 C.3   1 <1>  -0.0970 
 25 H        1.7020     1.4760    -0.5200 H     1 <1>   0.1500 
 26 H        0.0420    -3.4850     1.4400 H     1 <1>   0.0800 
 27 H        1.0410    -3.6410     0.0110 H     1 <1>   0.0800 
 28 H        0.5240     1.2150     1.8990 H     1 <1>   0.1500 
 29 H       -0.8680    -3.0290    -1.4120 H     1 <1>   0.0800 
 30 H       -1.8680    -2.7820    -0.0020 H     1 <1>   0.0800 
 31 H       -1.8650    -5.1680     0.4420 H     1 <1>   0.3700 
 32 H       -0.8550    -7.6810    -0.9610 H     1 <1>   0.0800 
 33 H       -2.1050    -7.4810    -2.1520 H     1 <1>   0.0800 
 34 H       -1.9640    -9.0700     0.5810 H     1 <1>   0.0800 
 35 H       -3.1880    -9.2650    -0.6410 H     1 <1>   0.0800 
 36 H       -4.4040    -7.2810    -1.4640 H     1 <1>   0.0800 
 37 H       -3.9740    -5.7050    -0.8640 H     1 <1>   0.0800 
 38 H       -3.6030    -8.4810     2.2470 H     1 <1>   0.0800 
 39 H       -4.1110    -9.9600     1.4930 H     1 <1>   0.0800 
 40 H       -6.0920    -6.5340     0.1020 H     1 <1>   0.0800 
 41 H       -4.8930    -6.2250     1.3250 H     1 <1>   0.0800 
 42 H       -7.7480    -7.8920     1.6590 H     1 <1>   0.1500 
 43 H       -5.2210   -10.3500    -0.6950 H     1 <1>   0.1500 
 44 H       -7.1620   -11.6360    -1.4580 H     1 <1>   0.1500 
 45 H       -9.4110   -11.0490    -0.6760 H     1 <1>   0.1500 
 46 H      -10.0940    -8.2940     1.7700 H     1 <1>   0.0800 
 47 H      -10.6020    -9.9340     1.4580 H     1 <1>   0.0800 
 48 H      -10.7270    -8.7240     0.1990 H     1 <1>   0.0800 
@<TRIPOS>BOND
  1   1   2  1   
  2   1   3  1   
  3   2   4  2   
  4   2   5  1   
  5   3   6  2   
  6   3  25  1   
  7   4   6  1   
  8   5   7  1   
  9   5  26  1   
 10   5  27  1   
 11   6  28  1   
 12   7   8  1   
 13   7  29  1   
 14   7  30  1   
 15   8   9  am  
 16   8  31  1   
 17   9  10  2   
 18   9  11  1   
 19  11  12  1   
 20  11  32  1   
 21  11  33  1   
 22  12  13  1   
 23  12  14  1   
 24  13  15  1   
 25  13  34  1   
 26  13  35  1   
 27  14  16  1   
 28  14  36  1   
 29  14  37  1   
 30  15  17  1   
 31  15  38  1   
 32  15  39  1   
 33  16  17  1   
 34  16  40  1   
 35  16  41  1   
 36  17  18  1   
 37  18  19  ar  
 38  18  20  ar  
 39  19  21  ar  
 40  19  42  1   
 41  20  22  ar  
 42  20  43  1   
 43  21  23  ar  
 44  21  24  1   
 45  22  23  ar  
 46  22  44  1   
 47  23  45  1   
 48  24  46  1   
 49  24  47  1   
 50  24  48  1   
@<TRIPOS>SUBSTRUCTURE
  1 ****  14 GROUP 4 **** **** 0

# MOE 2024.06 (io_trps.svl 2023.06)
