@<TRIPOS>MOLECULE
NONAME
37 37 1 0 0 
SMALL
USER_CHARGES


@<TRIPOS>ATOM
  1 O        0.4860     0.3710    -0.7520 O.2   1 <1>  -0.5700 
  2 C        1.2400     1.0970    -0.1380 C.2   1 <1>   0.7800 
  3 O        0.8240     2.2410     0.4070 O.3   1 <1>  -0.4300 
  4 N        2.5570     0.7920     0.0250 N.am  1 <1>  -0.6600 
  5 C       -0.4600     2.8140     0.3180 C.3   1 <1>   0.2800 
  6 C        3.5660     1.7430     0.5710 C.3   1 <1>   0.2810 
  7 C        3.2080    -0.3760    -0.6090 C.3   1 <1>   0.1400 
  8 C       -0.7980     3.1200    -1.1460 C.3   1 <1>  -0.2400 
  9 C       -1.4980     1.9030     0.9830 C.3   1 <1>  -0.2400 
 10 C       -0.3650     4.1260     1.0980 C.3   1 <1>  -0.2400 
 11 C        3.7090     3.0220    -0.2780 C.2   1 <1>   0.6590 
 12 C        4.8580     0.9190     0.5920 C.3   1 <1>  -0.1600 
 13 C        4.7050    -0.0680    -0.5630 C.3   1 <1>   0.1660 
 14 O        4.1850     3.0090    -1.3880 O.2   1 <1>  -0.5700 
 15 O        3.2970     4.1520     0.2900 O.3   1 <1>  -0.4300 
 16 N        5.4970    -1.2650    -0.3130 N.2   1 <1>  -0.5640 
 17 C        3.3450     5.3870    -0.3930 C.3   1 <1>   0.0400 
 18 N        6.3610    -1.5840    -1.1590 N.1   1 <1>   0.6880 
 19 N        7.2090    -1.8860    -2.0010 N.1   1 <1>  -0.3700 
 20 H        3.2910     2.0260     1.5720 H     1 <1>   0.0800 
 21 H        2.9780    -1.2570    -0.0340 H     1 <1>   0.0800 
 22 H        2.8640    -0.4960    -1.6220 H     1 <1>   0.0800 
 23 H       -1.7120     3.6820    -1.2020 H     1 <1>   0.0800 
 24 H       -0.9380     2.2160    -1.7090 H     1 <1>   0.0800 
 25 H       -0.0130     3.6990    -1.5980 H     1 <1>   0.0800 
 26 H       -2.4460     2.4050     1.0350 H     1 <1>   0.0800 
 27 H       -1.1890     1.6510     1.9810 H     1 <1>   0.0800 
 28 H       -1.6400     1.0000     0.4180 H     1 <1>   0.0800 
 29 H       -1.3090     4.6400     1.0840 H     1 <1>   0.0800 
 30 H        0.3780     4.7670     0.6600 H     1 <1>   0.0800 
 31 H       -0.1000     3.9310     2.1220 H     1 <1>   0.0800 
 32 H        4.9090     0.3900     1.5270 H     1 <1>   0.0800 
 33 H        5.7320     1.5360     0.4830 H     1 <1>   0.0800 
 34 H        4.9930     0.4050    -1.4890 H     1 <1>   0.0800 
 35 H        2.9580     6.1520     0.2570 H     1 <1>   0.0800 
 36 H        2.7430     5.3150    -1.2820 H     1 <1>   0.0800 
 37 H        4.3670     5.6030    -0.6530 H     1 <1>   0.0800 
@<TRIPOS>BOND
  1   1   2  2   
  2   2   3  1   
  3   2   4  am  
  4   3   5  1   
  5   4   6  1   
  6   4   7  1   
  7   5   8  1   
  8   5   9  1   
  9   5  10  1   
 10   6  11  1   
 11   6  12  1   
 12   6  20  1   
 13   7  13  1   
 14   7  21  1   
 15   7  22  1   
 16   8  23  1   
 17   8  24  1   
 18   8  25  1   
 19   9  26  1   
 20   9  27  1   
 21   9  28  1   
 22  10  29  1   
 23  10  30  1   
 24  10  31  1   
 25  11  14  2   
 26  11  15  1   
 27  12  13  1   
 28  12  32  1   
 29  12  33  1   
 30  13  16  1   
 31  13  34  1   
 32  15  17  1   
 33  16  18  2   
 34  17  35  1   
 35  17  36  1   
 36  17  37  1   
 37  18  19  3   
@<TRIPOS>SUBSTRUCTURE
  1 ****   4 GROUP 4 **** **** 0

# MOE 2024.06 (io_trps.svl 2023.06)
