@<TRIPOS>MOLECULE
NONAME
53 55 1 0 0 
SMALL
USER_CHARGES


@<TRIPOS>ATOM
  1 S       -2.2920     0.8320     0.1200 S.3   1 <1>  -0.0800 
  2 C       -2.4720    -0.8370    -0.3960 C.2   1 <1>  -0.1400 
  3 C       -1.8790     0.3340     1.7520 C.2   1 <1>  -0.1400 
  4 C       -2.2240    -1.6760     0.6270 C.2   1 <1>  -0.1500 
  5 C       -2.8650    -1.0870    -1.8330 C.3   1 <1>   0.5230 
  6 C       -1.8880    -1.0090     1.8470 C.2   1 <1>  -0.1500 
  7 C       -1.5870     1.4470     2.7460 C.3   1 <1>   0.0200 
  8 N       -4.3180    -1.3680    -1.8540 N.4   1 <1>  -0.9590 
  9 C       -1.2440     0.9060     4.1370 C.3   1 <1>  -0.2400 
 10 C       -4.7680    -2.1370    -3.0500 C.3   1 <1>   0.3430 
 11 C       -5.1780    -0.2000    -1.5220 C.3   1 <1>   0.3430 
 12 C       -6.1150    -2.8510    -2.7940 C.3   1 <1>   0.1400 
 13 C       -6.1960    -0.5860    -0.4420 C.3   1 <1>  -0.1600 
 14 N       -6.5120    -2.8760    -1.3440 N.am  1 <1>  -0.6600 
 15 C       -7.2140    -1.6590    -0.8570 C.3   1 <1>   0.1400 
 16 C       -5.8860    -3.7190    -0.4550 C.2   1 <1>   0.5440 
 17 O       -4.6980    -3.9150    -0.6330 O.2   1 <1>  -0.5700 
 18 C       -6.5730    -4.2780     0.6950 C.ar  1 <1>   0.0860 
 19 C       -7.9290    -4.5730     0.6950 C.ar  1 <1>  -0.1500 
 20 C       -5.9150    -4.5570     1.8840 C.ar  1 <1>  -0.1500 
 21 C       -8.5360    -5.0850     1.8260 C.ar  1 <1>   0.1670 
 22 C       -6.6070    -5.0700     2.9650 C.ar  1 <1>   0.1670 
 23 N       -7.9000    -5.3300     2.9560 N.ar  1 <1>  -0.6200 
 24 C      -10.0160    -5.4050     1.8240 C.3   1 <1>  -0.0970 
 25 C       -5.8860    -5.3710     4.2620 C.3   1 <1>  -0.0970 
 26 H       -2.2630    -2.7530     0.5880 H     1 <1>   0.1500 
 27 H       -2.3240    -1.9470    -2.1930 H     1 <1>   0.0800 
 28 H       -2.6230    -0.2370    -2.4490 H     1 <1>   0.0800 
 29 H       -1.6670    -1.5750     2.7360 H     1 <1>   0.1500 
 30 H       -2.4470     2.0890     2.8160 H     1 <1>   0.0800 
 31 H       -0.7630     2.0340     2.3800 H     1 <1>   0.0800 
 32 H       -4.4550    -2.0560    -1.0840 H     1 <1>   0.4500 
 33 H       -2.0650     0.3310     4.5260 H     1 <1>   0.0800 
 34 H       -1.0470     1.7220     4.8090 H     1 <1>   0.0800 
 35 H       -0.3700     0.2820     4.0880 H     1 <1>   0.0800 
 36 H       -4.0360    -2.8960    -3.2730 H     1 <1>   0.0800 
 37 H       -4.8470    -1.4930    -3.9110 H     1 <1>   0.0800 
 38 H       -5.6880     0.1510    -2.4040 H     1 <1>   0.0800 
 39 H       -4.5710     0.6070    -1.1450 H     1 <1>   0.0800 
 40 H       -6.0390    -3.8640    -3.1510 H     1 <1>   0.0800 
 41 H       -6.8880    -2.3740    -3.3710 H     1 <1>   0.0800 
 42 H       -6.7430     0.3000    -0.1710 H     1 <1>   0.0800 
 43 H       -5.6730    -0.9030     0.4440 H     1 <1>   0.0800 
 44 H       -7.8620    -1.2790    -1.6290 H     1 <1>   0.0800 
 45 H       -7.8310    -1.9080    -0.0100 H     1 <1>   0.0800 
 46 H       -8.5080    -4.4050    -0.1940 H     1 <1>   0.1500 
 47 H       -4.8600    -4.3720     1.9580 H     1 <1>   0.1500 
 48 H      -10.4640    -5.1850     0.8730 H     1 <1>   0.0800 
 49 H      -10.5080    -4.8270     2.5850 H     1 <1>   0.0800 
 50 H      -10.1560    -6.4480     2.0410 H     1 <1>   0.0800 
 51 H       -4.8420    -5.1290     4.1950 H     1 <1>   0.0800 
 52 H       -5.9870    -6.4160     4.4930 H     1 <1>   0.0800 
 53 H       -6.3260    -4.7990     5.0580 H     1 <1>   0.0800 
@<TRIPOS>BOND
  1   1   2  1   
  2   1   3  1   
  3   2   4  2   
  4   2   5  1   
  5   3   6  2   
  6   3   7  1   
  7   4   6  1   
  8   4  26  1   
  9   5   8  1   
 10   5  27  1   
 11   5  28  1   
 12   6  29  1   
 13   7   9  1   
 14   7  30  1   
 15   7  31  1   
 16   8  10  1   
 17   8  11  1   
 18   8  32  1   
 19   9  33  1   
 20   9  34  1   
 21   9  35  1   
 22  10  12  1   
 23  10  36  1   
 24  10  37  1   
 25  11  13  1   
 26  11  38  1   
 27  11  39  1   
 28  12  14  1   
 29  12  40  1   
 30  12  41  1   
 31  13  15  1   
 32  13  42  1   
 33  13  43  1   
 34  14  15  1   
 35  14  16  am  
 36  15  44  1   
 37  15  45  1   
 38  16  17  2   
 39  16  18  1   
 40  18  19  ar  
 41  18  20  ar  
 42  19  21  ar  
 43  19  46  1   
 44  20  22  ar  
 45  20  47  1   
 46  21  23  ar  
 47  21  24  1   
 48  22  23  ar  
 49  22  25  1   
 50  24  48  1   
 51  24  49  1   
 52  24  50  1   
 53  25  51  1   
 54  25  52  1   
 55  25  53  1   
@<TRIPOS>SUBSTRUCTURE
  1 ****  16 GROUP 4 **** **** 0

# MOE 2024.06 (io_trps.svl 2023.06)
