@<TRIPOS>MOLECULE
NONAME
48 50 1 0 0 
SMALL
USER_CHARGES


@<TRIPOS>ATOM
  1 O       -0.9390     0.4650    -1.8210 O.co2 1 <1>  -0.9000 
  2 C       -1.4060     0.8060    -0.7280 C.2   1 <1>   0.9060 
  3 O       -2.1710     0.0590    -0.0980 O.co2 1 <1>  -0.9000 
  4 C       -1.0380     2.1620    -0.1150 C.3   1 <1>  -0.1060 
  5 C       -2.3490     2.8320     0.3420 C.3   1 <1>   0.2000 
  6 C       -0.4530     3.0670    -1.2260 C.3   1 <1>   0.1100 
  7 C       -0.0650     1.8930     1.0790 C.3   1 <1>  -0.0170 
  8 O       -2.8970     2.1170     1.3910 O.3   1 <1>  -0.6800 
  9 C       -2.2040     4.3030     0.7620 C.3   1 <1>  -0.1600 
 10 N       -0.4090     4.5290    -0.9340 N.3   1 <1>  -0.8100 
 11 C        1.4230     1.8630     0.7310 C.ar  1 <1>  -0.1440 
 12 C       -0.8440     4.9170     0.4150 C.3   1 <1>   0.1100 
 13 C        0.9340     5.0670    -1.2580 C.3   1 <1>   0.2900 
 14 C        1.9300     0.8830    -0.1080 C.ar  1 <1>  -0.1500 
 15 C        2.2860     2.8140     1.2560 C.ar  1 <1>  -0.1500 
 16 C        1.0380     6.5860    -1.1570 C.2   1 <1>   0.2980 
 17 C        3.2760     0.8600    -0.4290 C.ar  1 <1>  -0.1500 
 18 C        3.6330     2.7940     0.9360 C.ar  1 <1>  -0.1500 
 19 O        0.3480     7.3190    -1.9960 O.3   1 <1>  -0.0190 
 20 N        1.7500     7.2350    -0.3210 N.2   1 <1>  -0.5650 
 21 C        4.1300     1.8170     0.0920 C.ar  1 <1>  -0.1500 
 22 N        0.6500     8.5400    -1.6710 N.2   1 <1>  -0.4100 
 23 C        1.4740     8.4790    -0.7000 C.2   1 <1>   0.3350 
 24 C        2.0770     9.6920     0.0030 C.3   1 <1>   0.3010 
 25 O        3.4130     9.8910    -0.3760 O.3   1 <1>  -0.5600 
 26 C        4.0220    10.9820     0.2330 C.3   1 <1>   0.0400 
 27 H       -3.0530     2.7790    -0.4730 H     1 <1>   0.0800 
 28 H       -1.0720     2.9520    -2.1000 H     1 <1>   0.0800 
 29 H        0.5170     2.6980    -1.5110 H     1 <1>   0.0800 
 30 H       -0.2240     2.6180     1.8530 H     1 <1>   0.0800 
 31 H       -0.3180     0.9490     1.5290 H     1 <1>   0.0800 
 32 H       -2.8540     1.1610     1.0970 H     1 <1>   0.4000 
 33 H       -2.9640     4.8710     0.2580 H     1 <1>   0.0800 
 34 H       -2.3650     4.4090     1.8200 H     1 <1>   0.0800 
 35 H       -0.1030     4.6160     1.1330 H     1 <1>   0.0800 
 36 H       -0.9290     5.9880     0.4730 H     1 <1>   0.0800 
 37 H        1.6630     4.6280    -0.6020 H     1 <1>   0.0800 
 38 H        1.1880     4.7860    -2.2650 H     1 <1>   0.0800 
 39 H        1.2720     0.1350    -0.5230 H     1 <1>   0.1500 
 40 H        1.9120     3.5760     1.9150 H     1 <1>   0.1500 
 41 H        3.6510     0.0960    -1.0870 H     1 <1>   0.1500 
 42 H        4.2920     3.5390     1.3450 H     1 <1>   0.1500 
 43 H        5.1750     1.8000    -0.1590 H     1 <1>   0.1500 
 44 H        2.0390     9.5410     1.0660 H     1 <1>   0.0800 
 45 H        1.5150    10.5710    -0.2600 H     1 <1>   0.0800 
 46 H        5.0350    11.0400    -0.1260 H     1 <1>   0.0800 
 47 H        4.0240    10.8410     1.3000 H     1 <1>   0.0800 
 48 H        3.4920    11.8810    -0.0330 H     1 <1>   0.0800 
@<TRIPOS>BOND
  1   1   2  ar  
  2   2   3  ar  
  3   2   4  1   
  4   4   5  1   
  5   4   6  1   
  6   4   7  1   
  7   5   8  1   
  8   5   9  1   
  9   5  27  1   
 10   6  10  1   
 11   6  28  1   
 12   6  29  1   
 13   7  11  1   
 14   7  30  1   
 15   7  31  1   
 16   8  32  1   
 17   9  12  1   
 18   9  33  1   
 19   9  34  1   
 20  10  12  1   
 21  10  13  1   
 22  11  14  ar  
 23  11  15  ar  
 24  12  35  1   
 25  12  36  1   
 26  13  16  1   
 27  13  37  1   
 28  13  38  1   
 29  14  17  ar  
 30  14  39  1   
 31  15  18  ar  
 32  15  40  1   
 33  16  19  1   
 34  16  20  2   
 35  17  21  ar  
 36  17  41  1   
 37  18  21  ar  
 38  18  42  1   
 39  19  22  1   
 40  20  23  1   
 41  21  43  1   
 42  22  23  2   
 43  23  24  1   
 44  24  25  1   
 45  24  44  1   
 46  24  45  1   
 47  25  26  1   
 48  26  46  1   
 49  26  47  1   
 50  26  48  1   
@<TRIPOS>SUBSTRUCTURE
  1 ****  13 GROUP 4 **** **** 0

# MOE 2024.06 (io_trps.svl 2023.06)
