@<TRIPOS>MOLECULE
NONAME
46 47 1 0 0 
SMALL
USER_CHARGES


@<TRIPOS>ATOM
  1 S       -0.3410     0.0570     0.0620 S.o2  1 <1>   1.3330 
  2 O       -0.2550    -0.6220     1.3360 O.2   1 <1>  -0.6500 
  3 O       -1.0550     1.3100    -0.0290 O.2   1 <1>  -0.6500 
  4 N       -1.0250    -1.0250    -1.0530 N.am  1 <1>  -0.8490 
  5 C        1.3030     0.3150    -0.6070 C.3   1 <1>  -0.0550 
  6 C       -2.4780    -0.8690    -1.1610 C.3   1 <1>   0.1160 
  7 C       -0.6930    -2.4280    -0.7810 C.3   1 <1>   0.1160 
  8 C        2.1570     1.3090     0.2040 C.3   1 <1>  -0.0800 
  9 C        3.4350     1.6610    -0.5380 C.3   1 <1>   0.2200 
 10 C        2.7090     0.6780     1.4860 C.3   1 <1>   0.1200 
 11 N        3.9540     2.9520    -0.0330 N.am  1 <1>  -0.7300 
 12 C        4.3690     0.5330    -0.1130 C.3   1 <1>   0.1200 
 13 O        3.9500     0.1260     1.1580 O.3   1 <1>  -0.5600 
 14 C        4.1230     4.0820    -0.7810 C.2   1 <1>   0.5440 
 15 O        3.8160     4.0430    -1.9560 O.2   1 <1>  -0.5700 
 16 C        4.6720     5.2910    -0.1890 C.ar  1 <1>   0.0860 
 17 C        5.3080     6.2510    -0.9760 C.ar  1 <1>  -0.1500 
 18 C        4.5930     5.5430     1.1810 C.ar  1 <1>  -0.1500 
 19 C        5.8540     7.4040    -0.4360 C.ar  1 <1>   0.0820 
 20 C        5.1380     6.6890     1.7290 C.ar  1 <1>   0.0820 
 21 O        6.4490     8.2600    -1.3030 O.3   1 <1>  -0.3630 
 22 C        5.7710     7.6270     0.9340 C.ar  1 <1>  -0.1500 
 23 O        5.0430     6.8800     3.0530 O.3   1 <1>  -0.5330 
 24 C        7.0110     9.4790    -0.8710 C.3   1 <1>   0.0400 
 25 H        1.8130    -0.6260    -0.6730 H     1 <1>   0.0800 
 26 H        1.1920     0.6960    -1.6040 H     1 <1>   0.0800 
 27 H       -2.8760    -1.5590    -1.8850 H     1 <1>   0.0800 
 28 H       -2.7190     0.1300    -1.4830 H     1 <1>   0.0800 
 29 H       -2.9460    -1.0470    -0.2060 H     1 <1>   0.0800 
 30 H       -1.0710    -3.0570    -1.5690 H     1 <1>   0.0800 
 31 H       -1.1230    -2.7430     0.1560 H     1 <1>   0.0800 
 32 H        0.3750    -2.5550    -0.7290 H     1 <1>   0.0800 
 33 H        1.5720     2.1900     0.4120 H     1 <1>   0.0800 
 34 H        3.3080     1.6960    -1.6070 H     1 <1>   0.0800 
 35 H        2.0830    -0.0930     1.8980 H     1 <1>   0.0800 
 36 H        2.8780     1.4320     2.2360 H     1 <1>   0.0800 
 37 H        4.3090     2.9210     0.9240 H     1 <1>   0.3700 
 38 H        5.3990     0.8420    -0.0730 H     1 <1>   0.0800 
 39 H        4.2690    -0.3110    -0.7720 H     1 <1>   0.0800 
 40 H        5.3800     6.0960    -2.0390 H     1 <1>   0.1500 
 41 H        4.0980     4.8500     1.8360 H     1 <1>   0.1500 
 42 H        6.1860     8.5080     1.3810 H     1 <1>   0.1500 
 43 H        5.4430     7.7140     3.3560 H     1 <1>   0.4500 
 44 H        7.4070     9.9860    -1.7320 H     1 <1>   0.0800 
 45 H        7.8030     9.2720    -0.1730 H     1 <1>   0.0800 
 46 H        6.2410    10.0780    -0.4180 H     1 <1>   0.0800 
@<TRIPOS>BOND
  1   1   2  2   
  2   1   3  2   
  3   1   4  am  
  4   1   5  1   
  5   4   6  1   
  6   4   7  1   
  7   5   8  1   
  8   5  25  1   
  9   5  26  1   
 10   6  27  1   
 11   6  28  1   
 12   6  29  1   
 13   7  30  1   
 14   7  31  1   
 15   7  32  1   
 16   8   9  1   
 17   8  10  1   
 18   8  33  1   
 19   9  11  1   
 20   9  12  1   
 21   9  34  1   
 22  10  13  1   
 23  10  35  1   
 24  10  36  1   
 25  11  14  am  
 26  11  37  1   
 27  12  13  1   
 28  12  38  1   
 29  12  39  1   
 30  14  15  2   
 31  14  16  1   
 32  16  17  ar  
 33  16  18  ar  
 34  17  19  ar  
 35  17  40  1   
 36  18  20  ar  
 37  18  41  1   
 38  19  21  1   
 39  19  22  ar  
 40  20  22  ar  
 41  20  23  1   
 42  21  24  1   
 43  22  42  1   
 44  23  43  1   
 45  24  44  1   
 46  24  45  1   
 47  24  46  1   
@<TRIPOS>SUBSTRUCTURE
  1 ****  11 GROUP 4 **** **** 0

# MOE 2024.06 (io_trps.svl 2023.06)
