@<TRIPOS>MOLECULE
NONAME
47 48 1 0 0 
SMALL
USER_CHARGES


@<TRIPOS>ATOM
  1 O        0.6290     0.2500     1.0650 O.3   1 <1>  -0.0190 
  2 N        0.3320    -0.8790     0.5050 N.2   1 <1>  -0.4100 
  3 C       -0.2190     1.1890     0.7480 C.2   1 <1>  -0.0400 
  4 C       -0.7390    -0.6780    -0.1780 C.2   1 <1>   0.1080 
  5 C       -1.1470     0.6500    -0.0600 C.2   1 <1>  -0.1500 
  6 C       -0.0190     2.5880     1.2900 C.3   1 <1>   0.5230 
  7 C       -1.4430    -1.7560    -0.9950 C.3   1 <1>   0.1010 
  8 N        1.1840     3.1990     0.6460 N.4   1 <1>  -0.9590 
  9 C       -1.4440    -1.3990    -2.4870 C.3   1 <1>  -0.2400 
 10 C       -2.8760    -1.9770    -0.4940 C.3   1 <1>  -0.2400 
 11 C        2.4550     2.6660     1.2240 C.3   1 <1>   0.4860 
 12 C        1.1610     4.6880     0.6510 C.3   1 <1>   0.3430 
 13 C        3.5770     2.9480     0.2510 C.ar  1 <1>  -0.1430 
 14 C        0.1200     5.2090    -0.3400 C.3   1 <1>  -0.1600 
 15 C        3.7400     2.1320    -0.8600 C.ar  1 <1>   0.1600 
 16 C        4.4500     4.0030     0.4390 C.ar  1 <1>  -0.1500 
 17 C        0.1760     6.7390    -0.4260 C.3   1 <1>  -0.1600 
 18 N        4.6610     2.3050    -1.7890 N.ar  1 <1>  -0.6200 
 19 C        5.4250     4.1850    -0.5190 C.ar  1 <1>  -0.1500 
 20 C       -0.8590     7.2700    -1.4220 C.3   1 <1>  -0.2400 
 21 C        5.4840     3.3220    -1.6000 C.ar  1 <1>   0.1600 
 22 H       -2.0100     1.0850    -0.5310 H     1 <1>   0.1500 
 23 H        0.0950     2.5570     2.3610 H     1 <1>   0.0800 
 24 H       -0.8960     3.1670     1.0590 H     1 <1>   0.0800 
 25 H       -0.8980    -2.6770    -0.8700 H     1 <1>   0.0800 
 26 H        1.1760     2.8970    -0.3380 H     1 <1>   0.4500 
 27 H       -2.0010    -0.4970    -2.6660 H     1 <1>   0.0800 
 28 H       -1.8860    -2.1960    -3.0590 H     1 <1>   0.0800 
 29 H       -0.4340    -1.2570    -2.8290 H     1 <1>   0.0800 
 30 H       -3.4700    -1.0900    -0.6250 H     1 <1>   0.0800 
 31 H       -2.8620    -2.2330     0.5500 H     1 <1>   0.0800 
 32 H       -3.3390    -2.7830    -1.0350 H     1 <1>   0.0800 
 33 H        2.3930     1.6010     1.3740 H     1 <1>   0.0800 
 34 H        2.6610     3.1290     2.1750 H     1 <1>   0.0800 
 35 H        2.1250     5.0660     0.3510 H     1 <1>   0.0800 
 36 H        0.9490     5.0590     1.6420 H     1 <1>   0.0800 
 37 H       -0.8710     4.9220    -0.0380 H     1 <1>   0.0800 
 38 H        0.3190     4.8040    -1.3180 H     1 <1>   0.0800 
 39 H        3.0810     1.2900    -1.0030 H     1 <1>   0.1500 
 40 H        4.3930     4.6640     1.2890 H     1 <1>   0.1500 
 41 H        1.1570     7.0560    -0.7440 H     1 <1>   0.0800 
 42 H       -0.0170     7.1730     0.5410 H     1 <1>   0.0800 
 43 H        6.1380     4.9860    -0.4350 H     1 <1>   0.1500 
 44 H       -0.6760     6.8790    -2.4080 H     1 <1>   0.0800 
 45 H       -0.8040     8.3440    -1.4710 H     1 <1>   0.0800 
 46 H       -1.8550     6.9980    -1.1200 H     1 <1>   0.0800 
 47 H        6.2490     3.4750    -2.3440 H     1 <1>   0.1500 
@<TRIPOS>BOND
  1   1   2  1   
  2   1   3  1   
  3   2   4  2   
  4   3   5  2   
  5   3   6  1   
  6   4   5  1   
  7   4   7  1   
  8   5  22  1   
  9   6   8  1   
 10   6  23  1   
 11   6  24  1   
 12   7   9  1   
 13   7  10  1   
 14   7  25  1   
 15   8  11  1   
 16   8  12  1   
 17   8  26  1   
 18   9  27  1   
 19   9  28  1   
 20   9  29  1   
 21  10  30  1   
 22  10  31  1   
 23  10  32  1   
 24  11  13  1   
 25  11  33  1   
 26  11  34  1   
 27  12  14  1   
 28  12  35  1   
 29  12  36  1   
 30  13  15  ar  
 31  13  16  ar  
 32  14  17  1   
 33  14  37  1   
 34  14  38  1   
 35  15  18  ar  
 36  15  39  1   
 37  16  19  ar  
 38  16  40  1   
 39  17  20  1   
 40  17  41  1   
 41  17  42  1   
 42  18  21  ar  
 43  19  21  ar  
 44  19  43  1   
 45  20  44  1   
 46  20  45  1   
 47  20  46  1   
 48  21  47  1   
@<TRIPOS>SUBSTRUCTURE
  1 ****   8 GROUP 4 **** **** 0

# MOE 2024.06 (io_trps.svl 2023.06)
