@<TRIPOS>MOLECULE
NONAME
42 43 1 0 0 
SMALL
USER_CHARGES


@<TRIPOS>ATOM
  1 S       -1.0890    -0.5630     1.1680 S.3   1 <1>  -0.4600 
  2 C       -1.8200    -0.3410    -0.4950 C.3   1 <1>   0.1310 
  3 C        0.1470     0.7590     1.2640 C.3   1 <1>  -0.0100 
  4 C       -2.6760    -1.5370    -0.9070 C.2   1 <1>   0.5690 
  5 O       -2.2410    -2.2330    -1.7960 O.2   1 <1>  -0.5700 
  6 N       -3.9040    -1.7910    -0.3360 N.am  1 <1>  -0.6600 
  7 C       -4.6880    -3.0000    -0.7330 C.3   1 <1>   0.1400 
  8 C       -4.5380    -0.9340     0.7070 C.3   1 <1>   0.1400 
  9 C       -6.0560    -2.6370    -1.3280 C.3   1 <1>   0.1400 
 10 C       -5.5950    -0.0370     0.0540 C.3   1 <1>  -0.1600 
 11 N       -6.9960    -2.1380    -0.2730 N.am  1 <1>  -0.6600 
 12 C       -6.9960    -0.6610    -0.0380 C.3   1 <1>   0.1400 
 13 C       -7.8610    -2.9460     0.4250 C.2   1 <1>   0.5690 
 14 O       -8.6330    -2.5010     1.2400 O.2   1 <1>  -0.5700 
 15 C       -7.8780    -4.4480     0.1900 C.3   1 <1>  -0.0990 
 16 C       -8.7800    -5.1850     1.1900 C.3   1 <1>   0.0960 
 17 N       -8.7470    -6.6360     0.9320 N.pl3 1 <1>   0.0480 
 18 C       -9.5220    -7.3550     0.1190 C.2   1 <1>   0.0360 
 19 C       -7.9190    -7.5530     1.4310 C.2   1 <1>   0.0370 
 20 N       -9.1920    -8.6000     0.1200 N.2   1 <1>  -0.3380 
 21 N       -8.1640    -8.7270     0.9610 N.2   1 <1>  -0.3380 
 22 H       -1.0020    -0.2300    -1.1820 H     1 <1>   0.0800 
 23 H       -2.4030     0.5590    -0.4780 H     1 <1>   0.0800 
 24 H        0.6190     0.6950     2.2280 H     1 <1>   0.0800 
 25 H       -0.3590     1.7010     1.1470 H     1 <1>   0.0800 
 26 H        0.8640     0.6020     0.4770 H     1 <1>   0.0800 
 27 H       -4.8160    -3.6340     0.1260 H     1 <1>   0.0800 
 28 H       -4.1440    -3.5670    -1.4670 H     1 <1>   0.0800 
 29 H       -3.7990    -0.3180     1.1850 H     1 <1>   0.0800 
 30 H       -4.9800    -1.5500     1.4720 H     1 <1>   0.0800 
 31 H       -6.4700    -3.5060    -1.8040 H     1 <1>   0.0800 
 32 H       -5.9280    -1.8910    -2.0930 H     1 <1>   0.0800 
 33 H       -5.2640     0.2660    -0.9230 H     1 <1>   0.0800 
 34 H       -5.6860     0.8600     0.6400 H     1 <1>   0.0800 
 35 H       -7.5510    -0.1820    -0.8260 H     1 <1>   0.0800 
 36 H       -7.5100    -0.4490     0.8840 H     1 <1>   0.0800 
 37 H       -6.8760    -4.8240     0.2820 H     1 <1>   0.0800 
 38 H       -8.2350    -4.6290    -0.8070 H     1 <1>   0.0800 
 39 H       -9.7950    -4.8380     1.1010 H     1 <1>   0.0800 
 40 H       -8.4460    -5.0010     2.1960 H     1 <1>   0.0800 
 41 H      -10.3220    -6.9340    -0.4620 H     1 <1>   0.1500 
 42 H       -7.1420    -7.3270     2.1390 H     1 <1>   0.1500 
@<TRIPOS>BOND
  1   1   2  1   
  2   1   3  1   
  3   2   4  1   
  4   2  22  1   
  5   2  23  1   
  6   3  24  1   
  7   3  25  1   
  8   3  26  1   
  9   4   5  2   
 10   4   6  am  
 11   6   7  1   
 12   6   8  1   
 13   7   9  1   
 14   7  27  1   
 15   7  28  1   
 16   8  10  1   
 17   8  29  1   
 18   8  30  1   
 19   9  11  1   
 20   9  31  1   
 21   9  32  1   
 22  10  12  1   
 23  10  33  1   
 24  10  34  1   
 25  11  12  1   
 26  11  13  am  
 27  12  35  1   
 28  12  36  1   
 29  13  14  2   
 30  13  15  1   
 31  15  16  1   
 32  15  37  1   
 33  15  38  1   
 34  16  17  1   
 35  16  39  1   
 36  16  40  1   
 37  17  18  1   
 38  17  19  1   
 39  18  20  2   
 40  18  41  1   
 41  19  21  2   
 42  19  42  1   
 43  20  21  1   
@<TRIPOS>SUBSTRUCTURE
  1 ****   7 GROUP 4 **** **** 0

# MOE 2024.06 (io_trps.svl 2023.06)
