@<TRIPOS>MOLECULE
NONAME
52 54 1 0 0 
SMALL
USER_CHARGES


@<TRIPOS>ATOM
  1 S        0.3700    -0.1320    -0.9150 S.o2  1 <1>   1.3330 
  2 O       -0.2930    -1.3540    -1.2960 O.2   1 <1>  -0.6500 
  3 O        1.5740     0.3020    -1.5900 O.2   1 <1>  -0.6500 
  4 N        0.7180    -0.1950     0.7440 N.am  1 <1>  -0.8490 
  5 C       -0.7790     1.2430    -1.0290 C.3   1 <1>  -0.0550 
  6 C        1.9790    -0.9060     1.0000 C.3   1 <1>   0.1160 
  7 C       -0.3480    -0.8420     1.5240 C.3   1 <1>   0.1160 
  8 C       -0.2190     2.5550    -0.4380 C.3   1 <1>  -0.0800 
  9 C       -1.1640     3.7350    -0.6110 C.3   1 <1>   0.2000 
 10 C        1.0750     3.0390    -1.0950 C.3   1 <1>   0.3430 
 11 O       -2.1280     3.7190     0.3830 O.3   1 <1>  -0.6800 
 12 C       -0.2700     4.9770    -0.5390 C.3   1 <1>   0.3430 
 13 N        1.1130     4.5160    -0.9020 N.4   1 <1>  -0.9590 
 14 C        2.1380     4.9350     0.0920 C.3   1 <1>   0.4860 
 15 C        2.2670     6.4430     0.0170 C.ar  1 <1>  -0.1440 
 16 C        3.0240     7.0670    -0.9750 C.ar  1 <1>  -0.1440 
 17 C        1.5980     7.2120     0.9620 C.ar  1 <1>  -0.1500 
 18 C        3.0840     8.4530    -1.0150 C.ar  1 <1>  -0.1500 
 19 C        3.8090     6.2840    -2.0210 C.3   1 <1>  -0.0970 
 20 C        1.6570     8.5910     0.9110 C.ar  1 <1>   0.0820 
 21 C        2.4100     9.2160    -0.0800 C.ar  1 <1>   0.0820 
 22 O        0.9660     9.3070     1.8320 O.3   1 <1>  -0.3630 
 23 O        2.5030    10.5670    -0.1420 O.3   1 <1>  -0.3620 
 24 C        0.8080    10.6940     1.5840 C.3   1 <1>   0.1200 
 25 C        2.1020    11.2890     1.0080 C.3   1 <1>   0.1200 
 26 H       -1.0330     1.3930    -2.0610 H     1 <1>   0.0800 
 27 H       -1.6850     0.9880    -0.5120 H     1 <1>   0.0800 
 28 H        2.1890    -0.9290     2.0560 H     1 <1>   0.0800 
 29 H        2.7960    -0.4080     0.5060 H     1 <1>   0.0800 
 30 H        1.9210    -1.9170     0.6320 H     1 <1>   0.0800 
 31 H       -0.1090    -0.8140     2.5740 H     1 <1>   0.0800 
 32 H       -0.4660    -1.8710     1.2240 H     1 <1>   0.0800 
 33 H       -1.2850    -0.3330     1.3780 H     1 <1>   0.0800 
 34 H       -0.0090     2.4120     0.6090 H     1 <1>   0.0800 
 35 H       -1.6660     3.7060    -1.5640 H     1 <1>   0.0800 
 36 H        1.0460     2.8130    -2.1500 H     1 <1>   0.0800 
 37 H        1.9370     2.5510    -0.6660 H     1 <1>   0.0800 
 38 H       -1.7560     3.6260     1.2830 H     1 <1>   0.4000 
 39 H       -0.2810     5.3710     0.4630 H     1 <1>   0.0800 
 40 H       -0.6150     5.7350    -1.2230 H     1 <1>   0.0800 
 41 H        1.3830     4.9770    -1.7820 H     1 <1>   0.4500 
 42 H        1.8480     4.6340     1.0850 H     1 <1>   0.0800 
 43 H        3.0890     4.4820    -0.1380 H     1 <1>   0.0800 
 44 H        1.0210     6.7650     1.7510 H     1 <1>   0.1500 
 45 H        3.6590     8.9640    -1.7670 H     1 <1>   0.1500 
 46 H        4.4760     6.9370    -2.5590 H     1 <1>   0.0800 
 47 H        3.1460     5.8310    -2.7350 H     1 <1>   0.0800 
 48 H        4.4120     5.5240    -1.5570 H     1 <1>   0.0800 
 49 H       -0.0010    10.8190     0.8880 H     1 <1>   0.0800 
 50 H        0.5510    11.1690     2.5130 H     1 <1>   0.0800 
 51 H        2.8950    11.2330     1.7330 H     1 <1>   0.0800 
 52 H        1.9570    12.3150     0.7220 H     1 <1>   0.0800 
@<TRIPOS>BOND
  1   1   2  2   
  2   1   3  2   
  3   1   4  am  
  4   1   5  1   
  5   4   6  1   
  6   4   7  1   
  7   5   8  1   
  8   5  26  1   
  9   5  27  1   
 10   6  28  1   
 11   6  29  1   
 12   6  30  1   
 13   7  31  1   
 14   7  32  1   
 15   7  33  1   
 16   8   9  1   
 17   8  10  1   
 18   8  34  1   
 19   9  11  1   
 20   9  12  1   
 21   9  35  1   
 22  10  13  1   
 23  10  36  1   
 24  10  37  1   
 25  11  38  1   
 26  12  13  1   
 27  12  39  1   
 28  12  40  1   
 29  13  14  1   
 30  13  41  1   
 31  14  15  1   
 32  14  42  1   
 33  14  43  1   
 34  15  16  ar  
 35  15  17  ar  
 36  16  18  ar  
 37  16  19  1   
 38  17  20  ar  
 39  17  44  1   
 40  18  21  ar  
 41  18  45  1   
 42  19  46  1   
 43  19  47  1   
 44  19  48  1   
 45  20  21  ar  
 46  20  22  1   
 47  21  23  1   
 48  22  24  1   
 49  23  25  1   
 50  24  25  1   
 51  24  49  1   
 52  24  50  1   
 53  25  51  1   
 54  25  52  1   
@<TRIPOS>SUBSTRUCTURE
  1 ****  13 GROUP 4 **** **** 0

# MOE 2024.06 (io_trps.svl 2023.06)
