@<TRIPOS>MOLECULE
NONAME
58 60 1 0 0 
SMALL
USER_CHARGES


@<TRIPOS>ATOM
  1 O        0.5490    -2.0600    -2.3930 O.2   1 <1>  -0.5700 
  2 C        1.7300    -2.2950    -2.3570 C.2   1 <1>   0.5690 
  3 N        2.2880    -2.9050    -3.4310 N.am  1 <1>  -0.8000 
  4 C        2.5170    -1.9130    -1.0490 C.3   1 <1>   0.5640 
  5 N        2.0370    -2.7350     0.1550 N.4   1 <1>  -0.9590 
  6 C        2.3120    -0.4020    -0.7960 C.3   1 <1>  -0.1600 
  7 C        4.0410    -2.1170    -1.2400 C.3   1 <1>  -0.1600 
  8 C        2.1560    -4.2150    -0.0890 C.3   1 <1>   0.3430 
  9 C        0.5970    -2.4590     0.5140 C.3   1 <1>   0.3430 
 10 C        3.1240     0.1390     0.3740 C.3   1 <1>   0.3430 
 11 C        4.8830    -1.5830    -0.0800 C.3   1 <1>   0.3430 
 12 C        1.8640    -4.9820     1.2020 C.3   1 <1>  -0.1600 
 13 C        0.2430    -3.1590     1.8270 C.3   1 <1>  -0.1600 
 14 N        4.5700    -0.1530     0.1490 N.4   1 <1>  -0.9590 
 15 C        0.4600    -4.6730     1.7330 C.3   1 <1>  -0.1600 
 16 C        5.4540     0.4260     1.2000 C.3   1 <1>   0.5230 
 17 C        5.0320     1.8470     1.4800 C.2   1 <1>  -0.3320 
 18 N        5.0170     2.9140     0.6350 N.pl3 1 <1>   0.0480 
 19 C        4.5820     2.2910     2.6740 C.2   1 <1>   0.0770 
 20 C        4.5340     3.9210     1.4000 C.2   1 <1>   0.0360 
 21 C        5.3300     3.1130    -0.8070 C.3   1 <1>   0.0960 
 22 N        4.2590     3.5860     2.6150 N.2   1 <1>  -0.5650 
 23 C        6.6170     2.4370    -1.2900 C.3   1 <1>   0.1200 
 24 O        6.3960     1.0710    -1.5010 O.3   1 <1>  -0.5600 
 25 C        7.4730     0.4520    -2.1440 C.3   1 <1>   0.0400 
 26 H        1.6820    -3.1020    -4.2380 H     1 <1>   0.3700 
 27 H        3.2690    -3.1420    -3.5880 H     1 <1>   0.3700 
 28 H        2.5840    -2.5230     0.9910 H     1 <1>   0.4500 
 29 H        1.2730    -0.1650    -0.6550 H     1 <1>   0.0800 
 30 H        2.6040     0.1400    -1.6790 H     1 <1>   0.0800 
 31 H        4.3540    -1.5940    -2.1270 H     1 <1>   0.0800 
 32 H        4.2780    -3.1500    -1.4050 H     1 <1>   0.0800 
 33 H        3.1460    -4.4740    -0.4220 H     1 <1>   0.0800 
 34 H        1.4530    -4.5190    -0.8500 H     1 <1>   0.0800 
 35 H       -0.0560    -2.8160    -0.2690 H     1 <1>   0.0800 
 36 H        0.4220    -1.4040     0.6350 H     1 <1>   0.0800 
 37 H        2.7960    -0.3080     1.2990 H     1 <1>   0.0800 
 38 H        2.9670     1.2040     0.4510 H     1 <1>   0.0800 
 39 H        5.9310    -1.6900    -0.3190 H     1 <1>   0.0800 
 40 H        4.6850    -2.1510     0.8150 H     1 <1>   0.0800 
 41 H        2.6030    -4.7410     1.9470 H     1 <1>   0.0800 
 42 H        1.9390    -6.0390     1.0080 H     1 <1>   0.0800 
 43 H       -0.7920    -2.9680     2.0570 H     1 <1>   0.0800 
 44 H        0.8290    -2.7490     2.6300 H     1 <1>   0.0800 
 45 H        4.8970     0.3730    -0.6890 H     1 <1>   0.4500 
 46 H        0.3220    -5.1270     2.7020 H     1 <1>   0.0800 
 47 H       -0.2750    -5.0980     1.0690 H     1 <1>   0.0800 
 48 H        6.4820     0.4130     0.8710 H     1 <1>   0.0800 
 49 H        5.3800    -0.1500     2.1080 H     1 <1>   0.0800 
 50 H        4.4640     1.7480     3.6000 H     1 <1>   0.1500 
 51 H        4.3900     4.9180     1.0160 H     1 <1>   0.1500 
 52 H        5.4420     4.1710    -0.9670 H     1 <1>   0.0800 
 53 H        4.4980     2.7870    -1.4030 H     1 <1>   0.0800 
 54 H        7.4150     2.5710    -0.5780 H     1 <1>   0.0800 
 55 H        6.9080     2.8790    -2.2300 H     1 <1>   0.0800 
 56 H        7.2540    -0.5940    -2.2620 H     1 <1>   0.0800 
 57 H        8.3650     0.5700    -1.5500 H     1 <1>   0.0800 
 58 H        7.6150     0.8970    -3.1150 H     1 <1>   0.0800 
@<TRIPOS>BOND
  1   1   2  2   
  2   2   3  am  
  3   2   4  1   
  4   3  26  1   
  5   3  27  1   
  6   4   5  1   
  7   4   6  1   
  8   4   7  1   
  9   5   8  1   
 10   5   9  1   
 11   5  28  1   
 12   6  10  1   
 13   6  29  1   
 14   6  30  1   
 15   7  11  1   
 16   7  31  1   
 17   7  32  1   
 18   8  12  1   
 19   8  33  1   
 20   8  34  1   
 21   9  13  1   
 22   9  35  1   
 23   9  36  1   
 24  10  14  1   
 25  10  37  1   
 26  10  38  1   
 27  11  14  1   
 28  11  39  1   
 29  11  40  1   
 30  12  15  1   
 31  12  41  1   
 32  12  42  1   
 33  13  15  1   
 34  13  43  1   
 35  13  44  1   
 36  14  16  1   
 37  14  45  1   
 38  15  46  1   
 39  15  47  1   
 40  16  17  1   
 41  16  48  1   
 42  16  49  1   
 43  17  18  1   
 44  17  19  2   
 45  18  20  1   
 46  18  21  1   
 47  19  22  1   
 48  19  50  1   
 49  20  22  2   
 50  20  51  1   
 51  21  23  1   
 52  21  52  1   
 53  21  53  1   
 54  23  24  1   
 55  23  54  1   
 56  23  55  1   
 57  24  25  1   
 58  25  56  1   
 59  25  57  1   
 60  25  58  1   
@<TRIPOS>SUBSTRUCTURE
  1 ****  10 GROUP 4 **** **** 0

# MOE 2024.06 (io_trps.svl 2023.06)
