@<TRIPOS>MOLECULE
NONAME
42 44 1 0 0 
SMALL
USER_CHARGES


@<TRIPOS>ATOM
  1 O       -1.4670    -1.5640     0.1090 O.3   1 <1>  -0.5600 
  2 C       -1.5500    -0.6950     1.1940 C.3   1 <1>   0.1200 
  3 C       -1.1920    -1.0100    -1.1350 C.3   1 <1>   0.1200 
  4 C       -2.7430     0.2850     1.1190 C.3   1 <1>   0.4230 
  5 C       -2.4200    -0.2830    -1.7030 C.3   1 <1>  -0.0800 
  6 N       -2.4500     1.4600     0.2060 N.4   1 <1>  -0.9590 
  7 C       -4.0960    -0.4400     0.8560 C.3   1 <1>   0.1100 
  8 C       -3.7480    -1.0400    -1.4940 C.3   1 <1>   0.1100 
  9 C       -2.5190     1.1870    -1.2730 C.3   1 <1>   0.3430 
 10 C       -3.3870     2.5800     0.5160 C.3   1 <1>   0.2630 
 11 N       -4.6300    -0.3570    -0.5290 N.3   1 <1>  -0.8100 
 12 C       -6.0250    -0.8550    -0.6120 C.3   1 <1>   0.2530 
 13 C       -6.1950    -2.2760    -0.0820 C.ar  1 <1>  -0.1440 
 14 C       -5.9660    -3.3740    -0.9010 C.ar  1 <1>  -0.1500 
 15 C       -6.5990    -2.4860     1.2310 C.ar  1 <1>  -0.1500 
 16 C       -6.1230    -4.6570    -0.4010 C.ar  1 <1>   0.0820 
 17 C       -6.7540    -3.7700     1.7270 C.ar  1 <1>  -0.1500 
 18 O       -5.9000    -5.7220    -1.1850 O.3   1 <1>  -0.5330 
 19 C       -6.5130    -4.8590     0.9100 C.ar  1 <1>  -0.1500 
 20 H       -1.6720    -1.3180     2.0630 H     1 <1>   0.0800 
 21 H       -0.6160    -0.1710     1.2940 H     1 <1>   0.0800 
 22 H       -0.3310    -0.3680    -1.0600 H     1 <1>   0.0800 
 23 H       -0.9390    -1.8350    -1.7810 H     1 <1>   0.0800 
 24 H       -2.8200     0.6810     2.1170 H     1 <1>   0.0800 
 25 H       -2.2640    -0.2570    -2.7660 H     1 <1>   0.0800 
 26 H       -1.4920     1.7650     0.4140 H     1 <1>   0.4500 
 27 H       -4.8220    -0.0080     1.5210 H     1 <1>   0.0800 
 28 H       -3.9930    -1.4750     1.1410 H     1 <1>   0.0800 
 29 H       -3.5620    -2.0550    -1.1790 H     1 <1>   0.0800 
 30 H       -4.2550    -1.0880    -2.4440 H     1 <1>   0.0800 
 31 H       -3.4580     1.5580    -1.6510 H     1 <1>   0.0800 
 32 H       -1.7380     1.7440    -1.7640 H     1 <1>   0.0800 
 33 H       -4.4000     2.2820     0.2920 H     1 <1>   0.0800 
 34 H       -3.1460     3.4470    -0.0770 H     1 <1>   0.0800 
 35 H       -3.3270     2.8470     1.5580 H     1 <1>   0.0800 
 36 H       -6.6620    -0.1940    -0.0490 H     1 <1>   0.0800 
 37 H       -6.3610    -0.8120    -1.6340 H     1 <1>   0.0800 
 38 H       -5.6690    -3.2320    -1.9230 H     1 <1>   0.1500 
 39 H       -6.7990    -1.6500     1.8770 H     1 <1>   0.1500 
 40 H       -7.0660    -3.9240     2.7450 H     1 <1>   0.1500 
 41 H       -5.6490    -5.4880    -2.0950 H     1 <1>   0.4500 
 42 H       -6.6270    -5.8620     1.2790 H     1 <1>   0.1500 
@<TRIPOS>BOND
  1   1   2  1   
  2   1   3  1   
  3   2   4  1   
  4   2  20  1   
  5   2  21  1   
  6   3   5  1   
  7   3  22  1   
  8   3  23  1   
  9   4   6  1   
 10   4   7  1   
 11   4  24  1   
 12   5   8  1   
 13   5   9  1   
 14   5  25  1   
 15   6   9  1   
 16   6  10  1   
 17   6  26  1   
 18   7  11  1   
 19   7  27  1   
 20   7  28  1   
 21   8  11  1   
 22   8  29  1   
 23   8  30  1   
 24   9  31  1   
 25   9  32  1   
 26  10  33  1   
 27  10  34  1   
 28  10  35  1   
 29  11  12  1   
 30  12  13  1   
 31  12  36  1   
 32  12  37  1   
 33  13  14  ar  
 34  13  15  ar  
 35  14  16  ar  
 36  14  38  1   
 37  15  17  ar  
 38  15  39  1   
 39  16  18  1   
 40  16  19  ar  
 41  17  19  ar  
 42  17  40  1   
 43  18  41  1   
 44  19  42  1   
@<TRIPOS>SUBSTRUCTURE
  1 ****  11 GROUP 4 **** **** 0

# MOE 2024.06 (io_trps.svl 2023.06)
