@<TRIPOS>MOLECULE
NONAME
48 50 1 0 0 
SMALL
USER_CHARGES


@<TRIPOS>ATOM
  1 O       -2.3470     0.6030    -1.5980 O.2   1 <1>  -0.5700 
  2 C       -3.0330     1.2380    -0.8290 C.2   1 <1>   0.5690 
  3 N       -4.3000     0.8180    -0.5040 N.am  1 <1>  -0.6600 
  4 C       -2.4440     2.5100    -0.2250 C.3   1 <1>  -0.0190 
  5 C       -4.8510    -0.4250    -1.1110 C.3   1 <1>   0.3200 
  6 C       -5.1890     1.4620     0.5120 C.3   1 <1>   0.1400 
  7 C       -2.8650     3.7270    -1.0500 C.3   1 <1>   0.1200 
  8 C       -0.9100     2.4950    -0.1360 C.3   1 <1>  -0.0170 
  9 C       -4.3270    -1.6180    -0.3440 C.2   1 <1>  -0.3320 
 10 C       -4.9790     0.8380     1.8960 C.3   1 <1>   0.1200 
 11 O       -2.4620     4.9140    -0.3950 O.3   1 <1>  -0.3630 
 12 C       -0.4120     3.8620     0.3030 C.ar  1 <1>  -0.1440 
 13 N       -3.0220    -1.9370    -0.3280 N.pl3 1 <1>   0.0330 
 14 C       -4.9520    -2.5450     0.4140 C.2   1 <1>   0.0770 
 15 O       -5.6770     1.5810     2.8370 O.3   1 <1>  -0.6800 
 16 C       -1.2160     4.9890     0.1440 C.ar  1 <1>   0.0820 
 17 C        0.8480     3.9970     0.8660 C.ar  1 <1>  -0.1500 
 18 C       -2.9330    -3.0390     0.4450 C.2   1 <1>   0.0070 
 19 N       -4.0720    -3.4340     0.9110 N.2   1 <1>  -0.5650 
 20 C       -0.7630     6.2320     0.5520 C.ar  1 <1>  -0.1500 
 21 C        1.3060     5.2480     1.2750 C.ar  1 <1>   0.0820 
 22 C       -1.6200    -3.7340     0.7310 C.3   1 <1>  -0.0600 
 23 C        0.4940     6.3590     1.1150 C.ar  1 <1>  -0.1500 
 24 O        2.5250     5.4610     1.8350 O.3   1 <1>  -0.3620 
 25 C        3.4500     4.4090     1.9940 C.3   1 <1>   0.0400 
 26 H       -2.8170     2.6270     0.7740 H     1 <1>   0.0800 
 27 H       -4.5470    -0.4950    -2.1420 H     1 <1>   0.0800 
 28 H       -5.9270    -0.4110    -1.0850 H     1 <1>   0.0800 
 29 H       -6.2190     1.3370     0.2230 H     1 <1>   0.0800 
 30 H       -4.9940     2.5180     0.5570 H     1 <1>   0.0800 
 31 H       -3.9330     3.7680    -1.1700 H     1 <1>   0.0800 
 32 H       -2.4030     3.7100    -2.0230 H     1 <1>   0.0800 
 33 H       -0.4820     2.2730    -1.0990 H     1 <1>   0.0800 
 34 H       -0.5940     1.7380     0.5590 H     1 <1>   0.0800 
 35 H       -3.9390     0.8300     2.1730 H     1 <1>   0.0800 
 36 H       -5.3640    -0.1670     1.9190 H     1 <1>   0.0800 
 37 H       -2.2730    -1.4180    -0.8070 H     1 <1>   0.2700 
 38 H       -6.0040    -2.6250     0.6360 H     1 <1>   0.1500 
 39 H       -5.2040     2.4070     3.0600 H     1 <1>   0.4000 
 40 H        1.4600     3.1240     0.9800 H     1 <1>   0.1500 
 41 H       -1.3950     7.0920     0.4260 H     1 <1>   0.1500 
 42 H       -0.9470    -3.0610     1.2300 H     1 <1>   0.0800 
 43 H       -1.1740    -4.0710    -0.1870 H     1 <1>   0.0800 
 44 H       -1.7910    -4.5860     1.3650 H     1 <1>   0.0800 
 45 H        0.8530     7.3200     1.4340 H     1 <1>   0.1500 
 46 H        4.3430     4.8140     2.4340 H     1 <1>   0.0800 
 47 H        3.6740     3.9930     1.0280 H     1 <1>   0.0800 
 48 H        3.0250     3.6670     2.6460 H     1 <1>   0.0800 
@<TRIPOS>BOND
  1   1   2  2   
  2   2   3  am  
  3   2   4  1   
  4   3   5  1   
  5   3   6  1   
  6   4   7  1   
  7   4   8  1   
  8   4  26  1   
  9   5   9  1   
 10   5  27  1   
 11   5  28  1   
 12   6  10  1   
 13   6  29  1   
 14   6  30  1   
 15   7  11  1   
 16   7  31  1   
 17   7  32  1   
 18   8  12  1   
 19   8  33  1   
 20   8  34  1   
 21   9  13  1   
 22   9  14  2   
 23  10  15  1   
 24  10  35  1   
 25  10  36  1   
 26  11  16  1   
 27  12  16  ar  
 28  12  17  ar  
 29  13  18  1   
 30  13  37  1   
 31  14  19  1   
 32  14  38  1   
 33  15  39  1   
 34  16  20  ar  
 35  17  21  ar  
 36  17  40  1   
 37  18  19  2   
 38  18  22  1   
 39  20  23  ar  
 40  20  41  1   
 41  21  23  ar  
 42  21  24  1   
 43  22  42  1   
 44  22  43  1   
 45  22  44  1   
 46  23  45  1   
 47  24  25  1   
 48  25  46  1   
 49  25  47  1   
 50  25  48  1   
@<TRIPOS>SUBSTRUCTURE
  1 ****   4 GROUP 4 **** **** 0

# MOE 2024.06 (io_trps.svl 2023.06)
