@<TRIPOS>MOLECULE
NONAME
40 43 1 0 0 
SMALL
USER_CHARGES


@<TRIPOS>ATOM
  1 S       -0.5290     0.5940    -1.9970 S.3   1 <1>  -0.0800 
  2 C       -0.2890     1.8840    -0.8370 C.2   1 <1>  -0.1400 
  3 C        1.0500     0.9100    -2.7020 C.2   1 <1>  -0.1100 
  4 C        0.9010     2.4780    -0.9880 C.2   1 <1>  -0.1810 
  5 C       -1.3240     2.2550     0.1890 C.3   1 <1>   0.0200 
  6 C        1.6700     1.9220    -2.0650 C.2   1 <1>  -0.1500 
  7 C        1.3320     3.6240    -0.0700 C.3   1 <1>   0.4610 
  8 C       -0.9730     3.6630     0.6980 C.3   1 <1>   0.1200 
  9 O        0.4010     3.7740     0.9880 O.3   1 <1>  -0.5600 
 10 C        1.4270     4.9480    -0.8400 C.3   1 <1>  -0.1600 
 11 C        2.6760     3.3030     0.5900 C.3   1 <1>  -0.1600 
 12 C        1.9130     6.0920     0.0540 C.3   1 <1>   0.1400 
 13 C        3.1610     4.4530     1.4740 C.3   1 <1>   0.1400 
 14 N        3.2090     5.7110     0.6790 N.am  1 <1>  -0.6600 
 15 C        4.4100     6.2440     0.2700 C.2   1 <1>   0.7150 
 16 O        5.3780     5.5150     0.1640 O.2   1 <1>  -0.5700 
 17 C        4.5390     7.6460    -0.0240 C.2   1 <1>  -0.2370 
 18 N        3.8220     8.6150     0.6190 N.pl3 1 <1>   0.0330 
 19 C        5.3700     8.2780    -0.9120 C.2   1 <1>  -0.1500 
 20 C        4.1910     9.8200     0.1290 C.2   1 <1>  -0.3020 
 21 C        5.1540     9.6580    -0.8280 C.2   1 <1>   0.0190 
 22 C        5.8300    10.6620    -1.6010 C.1   1 <1>   0.5380 
 23 N        6.3620    11.4620    -2.2160 N.1   1 <1>  -0.5570 
 24 H        1.3500     0.2950    -3.5310 H     1 <1>   0.1500 
 25 H       -1.3080     1.5500     1.0000 H     1 <1>   0.0800 
 26 H       -2.3060     2.2600    -0.2490 H     1 <1>   0.0800 
 27 H        2.6470     2.3020    -2.3110 H     1 <1>   0.1500 
 28 H       -1.5180     3.8770     1.6000 H     1 <1>   0.0800 
 29 H       -1.2270     4.4010    -0.0410 H     1 <1>   0.0800 
 30 H        0.4760     5.1930    -1.2730 H     1 <1>   0.0800 
 31 H        2.1220     4.8320    -1.6520 H     1 <1>   0.0800 
 32 H        3.4210     3.1200    -0.1630 H     1 <1>   0.0800 
 33 H        2.5780     2.4070     1.1740 H     1 <1>   0.0800 
 34 H        1.1900     6.2850     0.8290 H     1 <1>   0.0800 
 35 H        2.0240     6.9810    -0.5420 H     1 <1>   0.0800 
 36 H        4.1360     4.2220     1.8700 H     1 <1>   0.0800 
 37 H        2.4880     4.5850     2.3040 H     1 <1>   0.0800 
 38 H        3.1370     8.4320     1.3630 H     1 <1>   0.2700 
 39 H        6.0800     7.8000    -1.5670 H     1 <1>   0.1500 
 40 H        3.7640    10.7450     0.4790 H     1 <1>   0.1500 
@<TRIPOS>BOND
  1   1   2  1   
  2   1   3  1   
  3   2   4  2   
  4   2   5  1   
  5   3   6  2   
  6   3  24  1   
  7   4   6  1   
  8   4   7  1   
  9   5   8  1   
 10   5  25  1   
 11   5  26  1   
 12   6  27  1   
 13   7   9  1   
 14   7  10  1   
 15   7  11  1   
 16   8   9  1   
 17   8  28  1   
 18   8  29  1   
 19  10  12  1   
 20  10  30  1   
 21  10  31  1   
 22  11  13  1   
 23  11  32  1   
 24  11  33  1   
 25  12  14  1   
 26  12  34  1   
 27  12  35  1   
 28  13  14  1   
 29  13  36  1   
 30  13  37  1   
 31  14  15  am  
 32  15  16  2   
 33  15  17  1   
 34  17  18  1   
 35  17  19  2   
 36  18  20  1   
 37  18  38  1   
 38  19  21  1   
 39  19  39  1   
 40  20  21  2   
 41  20  40  1   
 42  21  22  1   
 43  22  23  3   
@<TRIPOS>SUBSTRUCTURE
  1 ****  12 GROUP 4 **** **** 0

# MOE 2024.06 (io_trps.svl 2023.06)
