@<TRIPOS>MOLECULE
NONAME
45 48 1 0 0 
SMALL
USER_CHARGES


@<TRIPOS>ATOM
  1 O       -0.6320     0.5050     1.2370 O.2   1 <1>  -0.5700 
  2 C       -1.4820     1.0300     0.5380 C.2   1 <1>   0.7160 
  3 N       -2.5660     0.2500     0.1760 N.am  1 <1>  -0.6600 
  4 C       -1.3030     2.4200     0.1430 C.2   1 <1>   0.1410 
  5 C       -3.8000     0.7000    -0.5210 C.3   1 <1>   0.1400 
  6 C       -2.6490    -1.2000     0.4830 C.3   1 <1>   0.1400 
  7 N       -2.0240     3.0670    -0.8000 N.2   1 <1>  -0.2270 
  8 C       -0.3960     3.3030     0.6210 C.2   1 <1>  -0.3020 
  9 C       -4.8070    -0.4250    -0.2820 C.3   1 <1>   0.2000 
 10 C       -3.9340    -1.6820    -0.2020 C.3   1 <1>  -0.0800 
 11 N       -1.5960     4.2720    -0.8960 N.2   1 <1>  -0.4180 
 12 N       -0.5800     4.4520    -0.0310 N.pl3 1 <1>   0.5930 
 13 O       -5.4180    -0.2050     0.9440 O.3   1 <1>  -0.6800 
 14 C       -4.5960    -2.8880     0.4920 C.3   1 <1>   0.0200 
 15 C        0.1330     5.6760     0.1310 C.ar  1 <1>  -0.0230 
 16 C       -3.7530    -4.1510     0.4230 C.2   1 <1>  -0.0400 
 17 C       -0.4990     6.9000    -0.0780 C.ar  1 <1>  -0.1500 
 18 C        1.4760     5.6800     0.5040 C.ar  1 <1>  -0.1500 
 19 O       -4.1340    -5.1950     1.1110 O.3   1 <1>  -0.0190 
 20 C       -2.6250    -4.4820    -0.2270 C.2   1 <1>  -0.1500 
 21 C        0.1870     8.0910     0.0850 C.ar  1 <1>  -0.1500 
 22 C        2.1620     6.8710     0.6680 C.ar  1 <1>  -0.1500 
 23 N       -3.3230    -6.2010     0.9610 N.2   1 <1>  -0.4100 
 24 C       -2.4030    -5.8010     0.1600 C.2   1 <1>   0.1080 
 25 C        1.5180     8.0770     0.4600 C.ar  1 <1>  -0.1500 
 26 C       -1.2410    -6.6550    -0.2950 C.3   1 <1>  -0.0590 
 27 H       -4.1630     1.6400    -0.1400 H     1 <1>   0.0800 
 28 H       -3.5940     0.7930    -1.5730 H     1 <1>   0.0800 
 29 H       -1.7800    -1.7160     0.1120 H     1 <1>   0.0800 
 30 H       -2.7080    -1.3300     1.5510 H     1 <1>   0.0800 
 31 H        0.3490     3.1600     1.3800 H     1 <1>   0.1500 
 32 H       -5.5700    -0.4780    -1.0400 H     1 <1>   0.0800 
 33 H       -3.6840    -1.9630    -1.2090 H     1 <1>   0.0800 
 34 H       -4.7350     0.0170     1.6080 H     1 <1>   0.4000 
 35 H       -5.5460    -3.0890     0.0300 H     1 <1>   0.0800 
 36 H       -4.7810    -2.6610     1.5270 H     1 <1>   0.0800 
 37 H       -1.5350     6.9240    -0.3720 H     1 <1>   0.1500 
 38 H        1.9980     4.7530     0.6640 H     1 <1>   0.1500 
 39 H       -2.0080    -3.9100    -0.8930 H     1 <1>   0.1500 
 40 H       -0.3160     9.0280    -0.0800 H     1 <1>   0.1500 
 41 H        3.2000     6.8600     0.9560 H     1 <1>   0.1500 
 42 H        2.0520     9.0030     0.5870 H     1 <1>   0.1500 
 43 H       -1.2500    -6.7450    -1.3650 H     1 <1>   0.0800 
 44 H       -1.3170    -7.6370     0.1370 H     1 <1>   0.0800 
 45 H       -0.3160    -6.2090     0.0180 H     1 <1>   0.0800 
@<TRIPOS>BOND
  1   1   2  2   
  2   2   3  am  
  3   2   4  1   
  4   3   5  1   
  5   3   6  1   
  6   4   7  1   
  7   4   8  2   
  8   5   9  1   
  9   5  27  1   
 10   5  28  1   
 11   6  10  1   
 12   6  29  1   
 13   6  30  1   
 14   7  11  2   
 15   8  12  1   
 16   8  31  1   
 17   9  10  1   
 18   9  13  1   
 19   9  32  1   
 20  10  14  1   
 21  10  33  1   
 22  11  12  1   
 23  12  15  1   
 24  13  34  1   
 25  14  16  1   
 26  14  35  1   
 27  14  36  1   
 28  15  17  ar  
 29  15  18  ar  
 30  16  19  1   
 31  16  20  2   
 32  17  21  ar  
 33  17  37  1   
 34  18  22  ar  
 35  18  38  1   
 36  19  23  1   
 37  20  24  1   
 38  20  39  1   
 39  21  25  ar  
 40  21  40  1   
 41  22  25  ar  
 42  22  41  1   
 43  23  24  2   
 44  24  26  1   
 45  25  42  1   
 46  26  43  1   
 47  26  44  1   
 48  26  45  1   
@<TRIPOS>SUBSTRUCTURE
  1 ****   2 GROUP 4 **** **** 0

# MOE 2024.06 (io_trps.svl 2023.06)
