@<TRIPOS>MOLECULE
NONAME
60 63 1 0 0 
SMALL
USER_CHARGES


@<TRIPOS>ATOM
  1 CL       0.6290     0.5950    -2.9250 Cl    1 <1>  -0.1770 
  2 C        1.7140    -0.5630    -2.2010 C.ar  1 <1>   0.1770 
  3 C        1.5540    -1.9090    -2.5000 C.ar  1 <1>  -0.1500 
  4 C        2.7080    -0.1160    -1.3440 C.ar  1 <1>  -0.1500 
  5 C        2.4050    -2.8450    -1.9270 C.ar  1 <1>  -0.1440 
  6 C        3.5530    -1.0550    -0.7810 C.ar  1 <1>  -0.1440 
  7 C        3.3950    -2.3860    -1.0730 C.ar  1 <1>   0.0820 
  8 C        2.2990    -4.3290    -2.2000 C.3   1 <1>   0.4870 
  9 C        4.7090    -0.8970     0.1690 C.3   1 <1>   0.1440 
 10 O        4.2800    -3.1730    -0.4430 O.3   1 <1>  -0.3630 
 11 N        1.2410    -4.9220    -1.3380 N.4   1 <1>  -0.9590 
 12 C        5.1770    -2.3670     0.3170 C.3   1 <1>   0.1200 
 13 C        4.2290    -0.3180     1.5060 C.3   1 <1>  -0.2400 
 14 C        5.8000    -0.0130    -0.4480 C.3   1 <1>  -0.2400 
 15 C        0.9660    -6.3350    -1.7810 C.3   1 <1>   0.3430 
 16 C        1.6300    -4.8170     0.0990 C.3   1 <1>   0.3430 
 17 C        0.3140    -7.2650    -0.7280 C.3   1 <1>   0.0000 
 18 C        0.4940    -5.3010     0.9990 C.3   1 <1>  -0.1600 
 19 C       -0.3660    -6.3990     0.3620 C.3   1 <1>   0.2000 
 20 C       -0.8090    -8.0580    -1.4380 C.3   1 <1>   0.1200 
 21 C        1.3480    -8.3080    -0.1940 C.3   1 <1>  -0.0170 
 22 O       -0.8950    -7.1900     1.3620 O.3   1 <1>  -0.6800 
 23 O       -0.3320    -8.5870    -2.6310 O.3   1 <1>  -0.6800 
 24 C        2.6440    -7.7450     0.3760 C.ar  1 <1>  -0.1440 
 25 C        2.7810    -7.5320     1.7400 C.ar  1 <1>  -0.1500 
 26 C        3.7110    -7.4500    -0.4620 C.ar  1 <1>  -0.1500 
 27 C        3.9440    -6.9820     2.2510 C.ar  1 <1>  -0.1500 
 28 C        4.8730    -6.8980     0.0480 C.ar  1 <1>  -0.1500 
 29 C        4.9870    -6.6570     1.4040 C.ar  1 <1>  -0.1500 
 30 H        0.7700    -2.1960    -3.1790 H     1 <1>   0.1500 
 31 H        2.8110     0.9330    -1.1310 H     1 <1>   0.1500 
 32 H        3.2480    -4.8010    -1.9950 H     1 <1>   0.0800 
 33 H        2.0610    -4.4810    -3.2400 H     1 <1>   0.0800 
 34 H        0.3970    -4.3520    -1.4650 H     1 <1>   0.4500 
 35 H        5.1460    -2.7000     1.3390 H     1 <1>   0.0800 
 36 H        6.1660    -2.5110    -0.0810 H     1 <1>   0.0800 
 37 H        3.8450     0.6770     1.3660 H     1 <1>   0.0800 
 38 H        5.0410    -0.2740     2.2100 H     1 <1>   0.0800 
 39 H        3.4460    -0.9280     1.9200 H     1 <1>   0.0800 
 40 H        5.4330     0.9870    -0.5970 H     1 <1>   0.0800 
 41 H        6.1060    -0.4070    -1.4020 H     1 <1>   0.0800 
 42 H        6.6590     0.0310     0.1980 H     1 <1>   0.0800 
 43 H        0.3230    -6.2970    -2.6460 H     1 <1>   0.0800 
 44 H        1.8810    -6.7980    -2.1060 H     1 <1>   0.0800 
 45 H        2.5180    -5.3980     0.2770 H     1 <1>   0.0800 
 46 H        1.8650    -3.7960     0.3530 H     1 <1>   0.0800 
 47 H       -0.1390    -4.4620     1.2250 H     1 <1>   0.0800 
 48 H        0.9200    -5.6270     1.9290 H     1 <1>   0.0800 
 49 H       -1.2090    -5.9050    -0.0960 H     1 <1>   0.0800 
 50 H       -1.6480    -7.4240    -1.6760 H     1 <1>   0.0800 
 51 H       -1.1580    -8.8680    -0.8170 H     1 <1>   0.0800 
 52 H        0.8830    -8.9330     0.5480 H     1 <1>   0.0800 
 53 H        1.6230    -8.9730    -0.9950 H     1 <1>   0.0800 
 54 H       -0.1940    -7.5630     1.9300 H     1 <1>   0.4000 
 55 H       -0.9820    -9.2130    -3.0180 H     1 <1>   0.4000 
 56 H        1.9900    -7.7940     2.4190 H     1 <1>   0.1500 
 57 H        3.6560    -7.6570    -1.5160 H     1 <1>   0.1500 
 58 H        4.0420    -6.8150     3.3110 H     1 <1>   0.1500 
 59 H        5.6970    -6.6660    -0.6070 H     1 <1>   0.1500 
 60 H        5.8930    -6.2320     1.8030 H     1 <1>   0.1500 
@<TRIPOS>BOND
  1   1   2  1   
  2   2   3  ar  
  3   2   4  ar  
  4   3   5  ar  
  5   3  30  1   
  6   4   6  ar  
  7   4  31  1   
  8   5   7  ar  
  9   5   8  1   
 10   6   7  ar  
 11   6   9  1   
 12   7  10  1   
 13   8  11  1   
 14   8  32  1   
 15   8  33  1   
 16   9  12  1   
 17   9  13  1   
 18   9  14  1   
 19  10  12  1   
 20  11  15  1   
 21  11  16  1   
 22  11  34  1   
 23  12  35  1   
 24  12  36  1   
 25  13  37  1   
 26  13  38  1   
 27  13  39  1   
 28  14  40  1   
 29  14  41  1   
 30  14  42  1   
 31  15  17  1   
 32  15  43  1   
 33  15  44  1   
 34  16  18  1   
 35  16  45  1   
 36  16  46  1   
 37  17  19  1   
 38  17  20  1   
 39  17  21  1   
 40  18  19  1   
 41  18  47  1   
 42  18  48  1   
 43  19  22  1   
 44  19  49  1   
 45  20  23  1   
 46  20  50  1   
 47  20  51  1   
 48  21  24  1   
 49  21  52  1   
 50  21  53  1   
 51  22  54  1   
 52  23  55  1   
 53  24  25  ar  
 54  24  26  ar  
 55  25  27  ar  
 56  25  56  1   
 57  26  28  ar  
 58  26  57  1   
 59  27  29  ar  
 60  27  58  1   
 61  28  29  ar  
 62  28  59  1   
 63  29  60  1   
@<TRIPOS>SUBSTRUCTURE
  1 ****  16 GROUP 4 **** **** 0

# MOE 2024.06 (io_trps.svl 2023.06)
