@<TRIPOS>MOLECULE
NONAME
43 45 1 0 0 
SMALL
USER_CHARGES


@<TRIPOS>ATOM
  1 O        0.1810     0.2450     1.2240 O.3   1 <1>  -0.6800 
  2 C        0.9610    -0.0610     0.1170 C.3   1 <1>   0.2000 
  3 C        1.6100    -1.4230     0.3670 C.3   1 <1>  -0.0800 
  4 C        2.1520     0.9150     0.0830 C.3   1 <1>   0.3430 
  5 C        2.7260    -1.0290     1.3380 C.3   1 <1>   0.3430 
  6 C        2.1150    -2.0440    -0.9660 C.3   1 <1>  -0.0170 
  7 N        3.2940     0.1950     0.7350 N.4   1 <1>  -0.9590 
  8 C        3.4860    -2.7030    -0.8830 C.ar  1 <1>   0.1670 
  9 C        4.0860     1.0380     1.6580 C.3   1 <1>   0.4860 
 10 N        4.5330    -1.8860    -0.9220 N.ar  1 <1>  -0.6200 
 11 C        3.5910    -4.0890    -0.7810 C.ar  1 <1>   0.1600 
 12 C        4.6890     2.1700     0.8510 C.ar  1 <1>  -0.1440 
 13 C        5.6790    -2.5520    -0.8780 C.ar  1 <1>   0.1600 
 14 N        4.7350    -4.7450    -0.7090 N.ar  1 <1>  -0.6200 
 15 C        5.6620     1.9060    -0.1030 C.ar  1 <1>  -0.1500 
 16 C        4.2630     3.4740     1.0510 C.ar  1 <1>  -0.1500 
 17 C        5.7760    -3.9350    -0.7720 C.ar  1 <1>   0.1600 
 18 C        6.2000     2.9320    -0.8620 C.ar  1 <1>  -0.1440 
 19 C        4.8010     4.5010     0.2970 C.ar  1 <1>  -0.1500 
 20 C        5.7650     4.2300    -0.6570 C.ar  1 <1>  -0.1500 
 21 C        7.2620     2.6410    -1.9070 C.3   1 <1>  -0.0970 
 22 H       -0.6990    -0.1860     1.1770 H     1 <1>   0.4000 
 23 H        0.3460    -0.0040    -0.7670 H     1 <1>   0.0800 
 24 H        0.9330    -2.1110     0.8420 H     1 <1>   0.0800 
 25 H        1.8990     1.8200     0.6110 H     1 <1>   0.0800 
 26 H        2.4140     1.1580    -0.9330 H     1 <1>   0.0800 
 27 H        3.4690    -1.8040     1.4490 H     1 <1>   0.0800 
 28 H        2.2960    -0.7990     2.3000 H     1 <1>   0.0800 
 29 H        2.1760    -1.2930    -1.7350 H     1 <1>   0.0800 
 30 H        1.3910    -2.7630    -1.3100 H     1 <1>   0.0800 
 31 H        3.9310    -0.1350    -0.0160 H     1 <1>   0.4500 
 32 H        3.4540     1.4330     2.4370 H     1 <1>   0.0800 
 33 H        4.8740     0.4580     2.1100 H     1 <1>   0.0800 
 34 H        2.6950    -4.6850    -0.7570 H     1 <1>   0.1500 
 35 H        6.5910    -1.9830    -0.9280 H     1 <1>   0.1500 
 36 H        6.0110     0.9010    -0.2650 H     1 <1>   0.1500 
 37 H        3.5150     3.7070     1.7890 H     1 <1>   0.1500 
 38 H        6.7530    -4.3870    -0.7390 H     1 <1>   0.1500 
 39 H        4.4730     5.5160     0.4510 H     1 <1>   0.1500 
 40 H        6.1780     5.0380    -1.2370 H     1 <1>   0.1500 
 41 H        7.2050     3.3540    -2.7100 H     1 <1>   0.0800 
 42 H        7.1300     1.6580    -2.3210 H     1 <1>   0.0800 
 43 H        8.2390     2.7030    -1.4610 H     1 <1>   0.0800 
@<TRIPOS>BOND
  1   1   2  1   
  2   1  22  1   
  3   2   3  1   
  4   2   4  1   
  5   2  23  1   
  6   3   5  1   
  7   3   6  1   
  8   3  24  1   
  9   4   7  1   
 10   4  25  1   
 11   4  26  1   
 12   5   7  1   
 13   5  27  1   
 14   5  28  1   
 15   6   8  1   
 16   6  29  1   
 17   6  30  1   
 18   7   9  1   
 19   7  31  1   
 20   8  10  ar  
 21   8  11  ar  
 22   9  12  1   
 23   9  32  1   
 24   9  33  1   
 25  10  13  ar  
 26  11  14  ar  
 27  11  34  1   
 28  12  15  ar  
 29  12  16  ar  
 30  13  17  ar  
 31  13  35  1   
 32  14  17  ar  
 33  15  18  ar  
 34  15  36  1   
 35  16  19  ar  
 36  16  37  1   
 37  17  38  1   
 38  18  20  ar  
 39  18  21  1   
 40  19  20  ar  
 41  19  39  1   
 42  20  40  1   
 43  21  41  1   
 44  21  42  1   
 45  21  43  1   
@<TRIPOS>SUBSTRUCTURE
  1 ****   7 GROUP 4 **** **** 0

# MOE 2024.06 (io_trps.svl 2023.06)
