@<TRIPOS>MOLECULE
NONAME
45 47 1 0 0 
SMALL
USER_CHARGES


@<TRIPOS>ATOM
  1 O       -2.5550     0.9820     2.6050 O.2   1 <1>  -0.5700 
  2 C       -2.5820     1.4080     1.4740 C.2   1 <1>   0.5690 
  3 N       -3.1410     0.6770     0.4580 N.am  1 <1>  -0.6600 
  4 C       -1.9950     2.7810     1.2290 C.3   1 <1>   0.1570 
  5 C       -3.1430     1.0350    -0.9880 C.3   1 <1>   0.1400 
  6 C       -3.6190    -0.7160     0.6430 C.3   1 <1>   0.1400 
  7 N       -0.7700     2.6800     0.4220 N.pl3 1 <1>   0.3140 
  8 C       -3.9030    -0.1040    -1.6700 C.3   1 <1>   0.2000 
  9 C       -3.6530    -1.3160    -0.7700 C.3   1 <1>  -0.0800 
 10 N       -0.7230     3.1940    -0.8240 N.2   1 <1>  -0.7070 
 11 C        0.4160     2.1230     0.7640 C.2   1 <1>  -0.3320 
 12 O       -5.2570     0.1880    -1.6360 O.3   1 <1>  -0.6800 
 13 C       -2.3170    -1.9980    -1.1240 C.3   1 <1>   0.0200 
 14 C        0.4800     2.9580    -1.2390 C.2   1 <1>   0.1080 
 15 C        1.2410     2.2880    -0.2900 C.2   1 <1>  -0.1500 
 16 C        0.7190     1.4530     2.0950 C.3   1 <1>  -0.0600 
 17 C       -2.0390    -3.1810    -0.2170 C.2   1 <1>  -0.0400 
 18 C        0.9640     3.3840    -2.6050 C.3   1 <1>  -0.0590 
 19 O       -2.8320    -4.2180    -0.2270 O.3   1 <1>  -0.0190 
 20 C       -1.0700    -3.4090     0.6820 C.2   1 <1>  -0.1500 
 21 N       -2.4480    -5.1290     0.6200 N.2   1 <1>  -0.4100 
 22 C       -1.3880    -4.6690     1.1820 C.2   1 <1>   0.1080 
 23 C       -0.6000    -5.4040     2.2440 C.3   1 <1>  -0.0590 
 24 H       -1.7520     3.2440     2.1650 H     1 <1>   0.0800 
 25 H       -2.7060     3.3930     0.7110 H     1 <1>   0.0800 
 26 H       -3.6010     1.9920    -1.1710 H     1 <1>   0.0800 
 27 H       -2.1290     1.0490    -1.3500 H     1 <1>   0.0800 
 28 H       -2.9740    -1.2600     1.3120 H     1 <1>   0.0800 
 29 H       -4.6100    -0.6920     1.0620 H     1 <1>   0.0800 
 30 H       -3.6150    -0.2520    -2.6970 H     1 <1>   0.0800 
 31 H       -4.4450    -2.0400    -0.8640 H     1 <1>   0.0800 
 32 H       -5.5090     0.4350    -0.7250 H     1 <1>   0.4000 
 33 H       -1.5050    -1.2970    -1.0370 H     1 <1>   0.0800 
 34 H       -2.3480    -2.3480    -2.1410 H     1 <1>   0.0800 
 35 H        2.2660     1.9830    -0.4000 H     1 <1>   0.1500 
 36 H        1.7570     1.1730     2.1410 H     1 <1>   0.0800 
 37 H        0.1230     0.5660     2.2140 H     1 <1>   0.0800 
 38 H        0.5110     2.1240     2.9100 H     1 <1>   0.0800 
 39 H        1.9880     3.0930    -2.7490 H     1 <1>   0.0800 
 40 H        0.8850     4.4520    -2.6940 H     1 <1>   0.0800 
 41 H        0.3550     2.9250    -3.3610 H     1 <1>   0.0800 
 42 H       -0.2400    -2.7930     0.9730 H     1 <1>   0.1500 
 43 H       -0.4950    -4.7840     3.1150 H     1 <1>   0.0800 
 44 H        0.3730    -5.6560     1.8660 H     1 <1>   0.0800 
 45 H       -1.1120    -6.3080     2.5190 H     1 <1>   0.0800 
@<TRIPOS>BOND
  1   1   2  2   
  2   2   3  am  
  3   2   4  1   
  4   3   5  1   
  5   3   6  1   
  6   4   7  1   
  7   4  24  1   
  8   4  25  1   
  9   5   8  1   
 10   5  26  1   
 11   5  27  1   
 12   6   9  1   
 13   6  28  1   
 14   6  29  1   
 15   7  10  1   
 16   7  11  1   
 17   8   9  1   
 18   8  12  1   
 19   8  30  1   
 20   9  13  1   
 21   9  31  1   
 22  10  14  2   
 23  11  15  2   
 24  11  16  1   
 25  12  32  1   
 26  13  17  1   
 27  13  33  1   
 28  13  34  1   
 29  14  15  1   
 30  14  18  1   
 31  15  35  1   
 32  16  36  1   
 33  16  37  1   
 34  16  38  1   
 35  17  19  1   
 36  17  20  2   
 37  18  39  1   
 38  18  40  1   
 39  18  41  1   
 40  19  21  1   
 41  20  22  1   
 42  20  42  1   
 43  21  22  2   
 44  22  23  1   
 45  23  43  1   
 46  23  44  1   
 47  23  45  1   
@<TRIPOS>SUBSTRUCTURE
  1 ****   3 GROUP 4 **** **** 0

# MOE 2024.06 (io_trps.svl 2023.06)
