@<TRIPOS>MOLECULE
NONAME
40 42 1 0 0 
SMALL
USER_CHARGES


@<TRIPOS>ATOM
  1 O       -2.4490     1.0000    -1.7750 O.2   1 <1>  -0.5700 
  2 C       -2.0210     0.8240    -0.6610 C.2   1 <1>   0.6300 
  3 N       -1.8780    -0.4140    -0.1350 N.am  1 <1>  -0.7300 
  4 C       -1.6150     2.0230     0.1830 C.3   1 <1>  -0.0950 
  5 C       -2.2570    -1.6710    -0.8140 C.3   1 <1>   0.2200 
  6 C       -2.7020     2.9330     0.6860 C.3   1 <1>  -0.2000 
  7 C       -1.9610     2.0490     1.6490 C.3   1 <1>  -0.2000 
  8 C       -0.2860     2.5880    -0.3450 C.3   1 <1>   0.2150 
  9 C       -3.6050    -2.1310    -0.2870 C.3   1 <1>  -0.0800 
 10 C       -1.3420    -2.8000    -0.3530 C.3   1 <1>   0.1200 
 11 O        0.1500     3.6520     0.4290 O.3   1 <1>  -0.6800 
 12 C       -3.2150    -2.8880     0.9880 C.3   1 <1>   0.1200 
 13 C       -4.3320    -3.0310    -1.3030 C.3   1 <1>  -0.0170 
 14 O       -1.8720    -3.2570     0.8550 O.3   1 <1>  -0.5600 
 15 C       -5.6990    -3.4550    -0.7900 C.ar  1 <1>  -0.1440 
 16 C       -6.7640    -2.5780    -0.7600 C.ar  1 <1>  -0.1500 
 17 C       -5.9490    -4.7320    -0.3290 C.ar  1 <1>  -0.1500 
 18 C       -7.9910    -3.0060    -0.2800 C.ar  1 <1>   0.1600 
 19 C       -7.2140    -5.0590     0.1310 C.ar  1 <1>   0.1600 
 20 N       -8.2410    -4.2250     0.1690 N.ar  1 <1>  -0.6200 
 21 H       -1.5450    -0.5240     0.8250 H     1 <1>   0.3700 
 22 H       -2.2390    -1.5380    -1.8830 H     1 <1>   0.0800 
 23 H       -2.5400     3.9950     0.7370 H     1 <1>   0.1000 
 24 H       -3.7210     2.6910     0.4340 H     1 <1>   0.1000 
 25 H       -2.5020     1.2300     2.0900 H     1 <1>   0.1000 
 26 H       -1.2720     2.5010     2.3420 H     1 <1>   0.1000 
 27 H       -0.4040     2.9340    -1.3580 H     1 <1>   0.0800 
 28 H        0.4800     1.8320    -0.3210 H     1 <1>   0.0800 
 29 H       -4.2390    -1.2910    -0.0570 H     1 <1>   0.0800 
 30 H       -0.3260    -2.4780    -0.2050 H     1 <1>   0.0800 
 31 H       -1.3660    -3.6180    -1.0510 H     1 <1>   0.0800 
 32 H       -0.5570     4.3210     0.4910 H     1 <1>   0.4000 
 33 H       -3.8060    -3.7720     1.1530 H     1 <1>   0.0800 
 34 H       -3.2900    -2.2460     1.8480 H     1 <1>   0.0800 
 35 H       -3.7410    -3.9030    -1.5210 H     1 <1>   0.0800 
 36 H       -4.4660    -2.4910    -2.2250 H     1 <1>   0.0800 
 37 H       -6.6530    -1.5660    -1.1060 H     1 <1>   0.1500 
 38 H       -5.1730    -5.4760    -0.3210 H     1 <1>   0.1500 
 39 H       -8.8100    -2.3070    -0.2640 H     1 <1>   0.1500 
 40 H       -7.3900    -6.0590     0.4880 H     1 <1>   0.1500 
@<TRIPOS>BOND
  1   1   2  2   
  2   2   3  am  
  3   2   4  1   
  4   3   5  1   
  5   3  21  1   
  6   4   6  1   
  7   4   7  1   
  8   4   8  1   
  9   5   9  1   
 10   5  10  1   
 11   5  22  1   
 12   6   7  1   
 13   6  23  1   
 14   6  24  1   
 15   7  25  1   
 16   7  26  1   
 17   8  11  1   
 18   8  27  1   
 19   8  28  1   
 20   9  12  1   
 21   9  13  1   
 22   9  29  1   
 23  10  14  1   
 24  10  30  1   
 25  10  31  1   
 26  11  32  1   
 27  12  14  1   
 28  12  33  1   
 29  12  34  1   
 30  13  15  1   
 31  13  35  1   
 32  13  36  1   
 33  15  16  ar  
 34  15  17  ar  
 35  16  18  ar  
 36  16  37  1   
 37  17  19  ar  
 38  17  38  1   
 39  18  20  ar  
 40  18  39  1   
 41  19  20  ar  
 42  19  40  1   
@<TRIPOS>SUBSTRUCTURE
  1 ****   9 GROUP 4 **** **** 0

# MOE 2024.06 (io_trps.svl 2023.06)
