@<TRIPOS>MOLECULE
NONAME
43 44 1 0 0 
SMALL
USER_CHARGES


@<TRIPOS>ATOM
  1 CL      -3.7090    -3.9580     3.5600 Cl    1 <1>  -0.1770 
  2 C       -4.1410    -3.7650     1.8810 C.ar  1 <1>   0.1770 
  3 C       -5.2330    -2.9880     1.5450 C.ar  1 <1>  -0.1500 
  4 C       -3.3890    -4.4020     0.9120 C.ar  1 <1>  -0.1500 
  5 C       -5.5840    -2.8510     0.2120 C.ar  1 <1>  -0.1500 
  6 C       -3.7470    -4.2650    -0.4180 C.ar  1 <1>  -0.1500 
  7 C       -4.8470    -3.4950    -0.7730 C.ar  1 <1>  -0.1430 
  8 C       -5.2410    -3.3740    -2.2360 C.3   1 <1>   0.2140 
  9 S       -5.8180    -5.0010    -2.7960 S.3   1 <1>  -0.4600 
 10 C       -7.4060    -5.2360    -1.9240 C.3   1 <1>   0.2110 
 11 C       -7.6140    -6.7360    -1.6250 C.2   1 <1>   0.5690 
 12 C       -8.4890    -4.5980    -2.8060 C.3   1 <1>  -0.2400 
 13 O       -8.2890    -7.3930    -2.3910 O.2   1 <1>  -0.5700 
 14 N       -7.0910    -7.3230    -0.4970 N.am  1 <1>  -0.6600 
 15 C       -7.2010    -8.8000    -0.3060 C.3   1 <1>   0.3200 
 16 C       -6.5220    -6.5800     0.6660 C.3   1 <1>   0.1400 
 17 C       -8.5500    -9.1500     0.2950 C.2   1 <1>   0.0060 
 18 C       -7.6310    -6.2260     1.6660 C.3   1 <1>   0.1200 
 19 N       -8.7390    -9.6490     1.4760 N.2   1 <1>  -0.5650 
 20 N       -9.6910    -8.9450    -0.3950 N.pl3 1 <1>   0.0330 
 21 O       -7.1410    -5.3360     2.6100 O.3   1 <1>  -0.6800 
 22 C      -10.0780    -9.7770     1.5570 C.2   1 <1>   0.0770 
 23 C      -10.6770    -9.3500     0.4240 C.2   1 <1>  -0.3020 
 24 H       -5.8030    -2.5070     2.3190 H     1 <1>   0.1500 
 25 H       -2.5410    -4.9970     1.1970 H     1 <1>   0.1500 
 26 H       -6.4370    -2.2480    -0.0470 H     1 <1>   0.1500 
 27 H       -3.1720    -4.7660    -1.1800 H     1 <1>   0.1500 
 28 H       -4.3960    -3.1090    -2.8460 H     1 <1>   0.0800 
 29 H       -6.0400    -2.6710    -2.3900 H     1 <1>   0.0800 
 30 H       -7.3450    -4.6900    -1.0040 H     1 <1>   0.0800 
 31 H       -8.5130    -5.0810    -3.7680 H     1 <1>   0.0800 
 32 H       -8.2960    -3.5500    -2.9440 H     1 <1>   0.0800 
 33 H       -9.4520    -4.7140    -2.3420 H     1 <1>   0.0800 
 34 H       -6.4170    -9.1510     0.3410 H     1 <1>   0.0800 
 35 H       -7.0930    -9.2990    -1.2540 H     1 <1>   0.0800 
 36 H       -6.0420    -5.6820     0.3270 H     1 <1>   0.0800 
 37 H       -5.7760    -7.1840     1.1530 H     1 <1>   0.0800 
 38 H       -7.9910    -7.1030     2.1770 H     1 <1>   0.0800 
 39 H       -8.4500    -5.7430     1.1620 H     1 <1>   0.0800 
 40 H       -9.7390    -8.5350    -1.3390 H     1 <1>   0.2700 
 41 H       -6.5170    -5.7800     3.2180 H     1 <1>   0.4000 
 42 H      -10.5480   -10.1760     2.4420 H     1 <1>   0.1500 
 43 H      -11.7190    -9.3130     0.1620 H     1 <1>   0.1500 
@<TRIPOS>BOND
  1   1   2  1   
  2   2   3  ar  
  3   2   4  ar  
  4   3   5  ar  
  5   3  24  1   
  6   4   6  ar  
  7   4  25  1   
  8   5   7  ar  
  9   5  26  1   
 10   6   7  ar  
 11   6  27  1   
 12   7   8  1   
 13   8   9  1   
 14   8  28  1   
 15   8  29  1   
 16   9  10  1   
 17  10  11  1   
 18  10  12  1   
 19  10  30  1   
 20  11  13  2   
 21  11  14  am  
 22  12  31  1   
 23  12  32  1   
 24  12  33  1   
 25  14  15  1   
 26  14  16  1   
 27  15  17  1   
 28  15  34  1   
 29  15  35  1   
 30  16  18  1   
 31  16  36  1   
 32  16  37  1   
 33  17  19  2   
 34  17  20  1   
 35  18  21  1   
 36  18  38  1   
 37  18  39  1   
 38  19  22  1   
 39  20  23  1   
 40  20  40  1   
 41  21  41  1   
 42  22  23  2   
 43  22  42  1   
 44  23  43  1   
@<TRIPOS>SUBSTRUCTURE
  1 ****  16 GROUP 4 **** **** 0

# MOE 2024.06 (io_trps.svl 2023.06)
