@<TRIPOS>MOLECULE
NONAME
50 51 1 0 0 
SMALL
USER_CHARGES


@<TRIPOS>ATOM
  1 O        0.5480     3.1370    -2.3040 O.2   1 <1>  -0.5700 
  2 C       -0.1480     3.8900    -1.6720 C.2   1 <1>   0.5690 
  3 N       -0.9450     3.4280    -0.6850 N.am  1 <1>  -0.7300 
  4 C       -0.1320     5.3880    -1.9840 C.3   1 <1>   0.1810 
  5 C       -1.9290     4.2700     0.0330 C.3   1 <1>   0.3640 
  6 O       -1.2880     6.0750    -1.5330 O.3   1 <1>  -0.5600 
  7 C       -3.3310     3.8600    -0.4110 C.ar  1 <1>  -0.1440 
  8 C       -1.6880     5.7900    -0.1910 C.3   1 <1>   0.2610 
  9 C       -3.7090     3.9070    -1.7460 C.ar  1 <1>  -0.1500 
 10 C       -4.2550     3.4360     0.5350 C.ar  1 <1>  -0.1500 
 11 C       -0.7140     6.3900     0.8340 C.2   1 <1>   0.5690 
 12 C       -4.9860     3.5390    -2.1300 C.ar  1 <1>  -0.1500 
 13 C       -5.5340     3.0670     0.1520 C.ar  1 <1>  -0.1500 
 14 O       -0.6590     5.9210     1.9470 O.2   1 <1>  -0.5700 
 15 N        0.0370     7.4620     0.4500 N.am  1 <1>  -0.7300 
 16 C       -5.9000     3.1190    -1.1810 C.ar  1 <1>  -0.1500 
 17 C        1.0910     8.1940     1.1640 C.3   1 <1>   0.3000 
 18 C        1.5950     9.2600     0.1710 C.3   1 <1>  -0.1600 
 19 C        0.4840     8.8410     2.4120 C.3   1 <1>  -0.2400 
 20 C        2.2060     7.2130     1.5390 C.3   1 <1>  -0.2400 
 21 C        2.7340    10.1730     0.6720 C.3   1 <1>  -0.0990 
 22 C        3.1490    11.1550    -0.4030 C.2   1 <1>   0.5690 
 23 O        4.0010    10.8290    -1.1920 O.2   1 <1>  -0.5700 
 24 N        2.5360    12.3660    -0.4490 N.am  1 <1>  -0.7300 
 25 C        2.8280    13.4310    -1.4420 C.3   1 <1>   0.0600 
 26 H       -1.0260     2.4170    -0.5670 H     1 <1>   0.3700 
 27 H       -0.0680     5.5240    -3.0480 H     1 <1>   0.0800 
 28 H        0.7360     5.8310    -1.5310 H     1 <1>   0.0800 
 29 H       -1.8470     4.0510     1.0840 H     1 <1>   0.0800 
 30 H       -2.6240     6.2930    -0.0400 H     1 <1>   0.0800 
 31 H       -3.0090     4.2320    -2.4970 H     1 <1>   0.1500 
 32 H       -3.9900     3.3890     1.5770 H     1 <1>   0.1500 
 33 H       -5.2680     3.5790    -3.1680 H     1 <1>   0.1500 
 34 H       -6.2440     2.7400     0.8910 H     1 <1>   0.1500 
 35 H       -0.1130     7.7910    -0.5060 H     1 <1>   0.3700 
 36 H       -6.8930     2.8320    -1.4790 H     1 <1>   0.1500 
 37 H        1.9470     8.7630    -0.7170 H     1 <1>   0.0800 
 38 H        0.7680     9.8860    -0.1130 H     1 <1>   0.0800 
 39 H        1.2310     9.3790     2.9640 H     1 <1>   0.0800 
 40 H        0.0810     8.0910     3.0700 H     1 <1>   0.0800 
 41 H       -0.3020     9.5220     2.1410 H     1 <1>   0.0800 
 42 H        2.9890     7.7140     2.0770 H     1 <1>   0.0800 
 43 H        2.6290     6.7660     0.6570 H     1 <1>   0.0800 
 44 H        1.8300     6.4340     2.1780 H     1 <1>   0.0800 
 45 H        3.5990     9.5880     0.9270 H     1 <1>   0.0800 
 46 H        2.4320    10.7210     1.5430 H     1 <1>   0.0800 
 47 H        1.8230    12.5920     0.2470 H     1 <1>   0.3700 
 48 H        3.5880    13.1030    -2.1310 H     1 <1>   0.0800 
 49 H        3.1770    14.3140    -0.9370 H     1 <1>   0.0800 
 50 H        1.9370    13.6660    -1.9970 H     1 <1>   0.0800 
@<TRIPOS>BOND
  1   1   2  2   
  2   2   3  am  
  3   2   4  1   
  4   3   5  1   
  5   3  26  1   
  6   4   6  1   
  7   4  27  1   
  8   4  28  1   
  9   5   7  1   
 10   5   8  1   
 11   5  29  1   
 12   6   8  1   
 13   7   9  ar  
 14   7  10  ar  
 15   8  11  1   
 16   8  30  1   
 17   9  12  ar  
 18   9  31  1   
 19  10  13  ar  
 20  10  32  1   
 21  11  14  2   
 22  11  15  am  
 23  12  16  ar  
 24  12  33  1   
 25  13  16  ar  
 26  13  34  1   
 27  15  17  1   
 28  15  35  1   
 29  16  36  1   
 30  17  18  1   
 31  17  19  1   
 32  17  20  1   
 33  18  21  1   
 34  18  37  1   
 35  18  38  1   
 36  19  39  1   
 37  19  40  1   
 38  19  41  1   
 39  20  42  1   
 40  20  43  1   
 41  20  44  1   
 42  21  22  1   
 43  21  45  1   
 44  21  46  1   
 45  22  23  2   
 46  22  24  am  
 47  24  25  1   
 48  24  47  1   
 49  25  48  1   
 50  25  49  1   
 51  25  50  1   
@<TRIPOS>SUBSTRUCTURE
  1 ****  11 GROUP 4 **** **** 0

# MOE 2024.06 (io_trps.svl 2023.06)
