@<TRIPOS>MOLECULE
NONAME
43 46 1 0 0 
SMALL
USER_CHARGES


@<TRIPOS>ATOM
  1 O       -0.3660     0.2050    -0.2260 O.2   1 <1>  -0.5700 
  2 C       -1.3990     0.8410    -0.1080 C.2   1 <1>   0.7150 
  3 N       -2.5810     0.1310    -0.0320 N.am  1 <1>  -0.6600 
  4 C       -1.3170     2.2830    -0.0650 C.2   1 <1>   0.0550 
  5 C       -3.9590     0.6840    -0.0980 C.3   1 <1>   0.1400 
  6 C       -2.6170    -1.3530    -0.0060 C.3   1 <1>   0.1400 
  7 O       -2.3490     3.0580     0.1870 O.3   1 <1>  -0.0190 
  8 C       -0.2670     3.1160    -0.2440 C.2   1 <1>  -0.1500 
  9 C       -4.8600    -0.5300    -0.3200 C.3   1 <1>   0.2000 
 10 C       -4.0820    -1.7170     0.2400 C.3   1 <1>  -0.0800 
 11 N       -2.0550     4.3220     0.1800 N.2   1 <1>  -0.4100 
 12 C       -0.7960     4.3860    -0.0760 C.2   1 <1>   0.2030 
 13 O       -6.0720    -0.3970     0.3370 O.3   1 <1>  -0.6800 
 14 C       -4.4950    -3.0610    -0.3780 C.3   1 <1>   0.0210 
 15 C       -0.0120     5.6820    -0.1810 C.3   1 <1>  -0.0140 
 16 C       -3.6080    -4.1860     0.1190 C.2   1 <1>   0.1080 
 17 C        1.3390     5.8140     0.4580 C.3   1 <1>  -0.2000 
 18 C        0.1640     6.5440     1.0310 C.3   1 <1>  -0.2000 
 19 N       -3.4870    -4.4850     1.3750 N.2   1 <1>  -0.7070 
 20 C       -2.8280    -5.0020    -0.6940 C.2   1 <1>  -0.1500 
 21 N       -2.6190    -5.5140     1.3970 N.pl3 1 <1>   0.3000 
 22 C       -2.2040    -5.8440     0.1560 C.2   1 <1>  -0.3320 
 23 C       -1.2220    -6.9610    -0.1450 C.3   1 <1>  -0.0600 
 24 H       -4.1920     1.1670     0.8350 H     1 <1>   0.0800 
 25 H       -4.0530     1.3800    -0.9140 H     1 <1>   0.0800 
 26 H       -2.2790    -1.7280    -0.9570 H     1 <1>   0.0800 
 27 H       -1.9820    -1.7410     0.7730 H     1 <1>   0.0800 
 28 H        0.7530     2.8650    -0.4650 H     1 <1>   0.1500 
 29 H       -5.0560    -0.6480    -1.3730 H     1 <1>   0.0800 
 30 H       -4.2160    -1.7660     1.3070 H     1 <1>   0.0800 
 31 H       -5.9380    -0.4240     1.3050 H     1 <1>   0.4000 
 32 H       -4.4370    -3.0090    -1.4500 H     1 <1>   0.0800 
 33 H       -5.5130    -3.2810    -0.1080 H     1 <1>   0.0800 
 34 H       -0.1790     6.1820    -1.1190 H     1 <1>   0.1000 
 35 H        1.7430     4.9860     1.0130 H     1 <1>   0.1000 
 36 H        2.0980     6.3770    -0.0560 H     1 <1>   0.1000 
 37 H        0.1000     7.6110     0.9130 H     1 <1>   0.1000 
 38 H       -0.2610     6.2050     1.9610 H     1 <1>   0.1000 
 39 H       -2.7560    -4.9520    -1.7650 H     1 <1>   0.1500 
 40 H       -2.3300    -5.9670     2.2730 H     1 <1>   0.2700 
 41 H       -1.0520    -7.0270    -1.2050 H     1 <1>   0.0800 
 42 H       -1.6110    -7.9030     0.1980 H     1 <1>   0.0800 
 43 H       -0.2810    -6.7710     0.3410 H     1 <1>   0.0800 
@<TRIPOS>BOND
  1   1   2  2   
  2   2   3  am  
  3   2   4  1   
  4   3   5  1   
  5   3   6  1   
  6   4   7  1   
  7   4   8  2   
  8   5   9  1   
  9   5  24  1   
 10   5  25  1   
 11   6  10  1   
 12   6  26  1   
 13   6  27  1   
 14   7  11  1   
 15   8  12  1   
 16   8  28  1   
 17   9  10  1   
 18   9  13  1   
 19   9  29  1   
 20  10  14  1   
 21  10  30  1   
 22  11  12  2   
 23  12  15  1   
 24  13  31  1   
 25  14  16  1   
 26  14  32  1   
 27  14  33  1   
 28  15  17  1   
 29  15  18  1   
 30  15  34  1   
 31  16  19  2   
 32  16  20  1   
 33  17  18  1   
 34  17  35  1   
 35  17  36  1   
 36  18  37  1   
 37  18  38  1   
 38  19  21  1   
 39  20  22  2   
 40  20  39  1   
 41  21  22  1   
 42  21  40  1   
 43  22  23  1   
 44  23  41  1   
 45  23  42  1   
 46  23  43  1   
@<TRIPOS>SUBSTRUCTURE
  1 ****   3 GROUP 4 **** **** 0

# MOE 2024.06 (io_trps.svl 2023.06)
