@<TRIPOS>MOLECULE
NONAME
45 46 1 0 0 
SMALL
USER_CHARGES


@<TRIPOS>ATOM
  1 O        2.1080     0.0130    -2.3690 O.2   1 <1>  -0.5700 
  2 C        2.3020    -0.6390    -1.3710 C.2   1 <1>   0.5690 
  3 N        2.9960    -0.0930    -0.3140 N.am  1 <1>  -0.6600 
  4 C        1.7680    -2.0650    -1.3640 C.3   1 <1>   0.0810 
  5 C        3.5730    -0.8480     0.8450 C.3   1 <1>   0.1400 
  6 C        3.0590     1.3890    -0.1820 C.3   1 <1>   0.1400 
  7 C        0.6230    -2.2360    -0.3820 C.2   1 <1>  -0.0400 
  8 C        5.1180    -0.8200     0.8840 C.3   1 <1>   0.3430 
  9 C        4.3300     1.9340    -0.8370 C.3   1 <1>  -0.1600 
 10 O        0.8530    -2.2380     0.9030 O.3   1 <1>  -0.0190 
 11 C       -0.6960    -2.4010    -0.5610 C.2   1 <1>  -0.1500 
 12 N        5.7280     0.5360     0.6690 N.4   1 <1>  -0.9590 
 13 C        5.5420     1.0120    -0.7360 C.3   1 <1>   0.3430 
 14 N       -0.2350    -2.3910     1.5950 N.2   1 <1>  -0.4100 
 15 C       -1.1890    -2.4920     0.7380 C.2   1 <1>   0.1080 
 16 C        7.1590     0.5630     1.0550 C.3   1 <1>   0.5430 
 17 C       -2.6440    -2.6830     1.1020 C.3   1 <1>  -0.0590 
 18 C        7.5390     1.9910     1.2030 C.1   1 <1>  -0.2000 
 19 C        7.8050     3.1450     1.3020 C.1   1 <1>  -0.2000 
 20 C        8.1350     4.5940     1.4200 C.3   1 <1>   0.0400 
 21 C        7.0380     5.4460     0.7780 C.3   1 <1>  -0.2400 
 22 H        2.5550    -2.7580    -1.1410 H     1 <1>   0.0800 
 23 H        1.4070    -2.2950    -2.3500 H     1 <1>   0.0800 
 24 H        3.2720    -1.8780     0.8130 H     1 <1>   0.0800 
 25 H        3.1810    -0.4400     1.7610 H     1 <1>   0.0800 
 26 H        3.0290     1.6590     0.8600 H     1 <1>   0.0800 
 27 H        2.1940     1.8360    -0.6480 H     1 <1>   0.0800 
 28 H        5.4870    -1.4970     0.1310 H     1 <1>   0.0800 
 29 H        5.4300    -1.2070     1.8410 H     1 <1>   0.0800 
 30 H        4.5640     2.8970    -0.4190 H     1 <1>   0.0800 
 31 H        4.1230     2.0930    -1.8810 H     1 <1>   0.0800 
 32 H       -1.2710    -2.4520    -1.4680 H     1 <1>   0.1500 
 33 H        5.2690     1.2220     1.2800 H     1 <1>   0.4500 
 34 H        6.4130     1.5530    -1.0720 H     1 <1>   0.0800 
 35 H        5.4000     0.1680    -1.3930 H     1 <1>   0.0800 
 36 H        7.7680     0.0870     0.3030 H     1 <1>   0.0800 
 37 H        7.3060     0.0600     1.9970 H     1 <1>   0.0800 
 38 H       -3.2290    -1.8730     0.7070 H     1 <1>   0.0800 
 39 H       -2.7560    -2.7040     2.1710 H     1 <1>   0.0800 
 40 H       -3.0030    -3.6110     0.6970 H     1 <1>   0.0800 
 41 H        9.0760     4.7860     0.9330 H     1 <1>   0.0800 
 42 H        8.2360     4.8550     2.4590 H     1 <1>   0.0800 
 43 H        6.9390     5.2060    -0.2660 H     1 <1>   0.0800 
 44 H        7.2870     6.4890     0.8660 H     1 <1>   0.0800 
 45 H        6.0960     5.2770     1.2680 H     1 <1>   0.0800 
@<TRIPOS>BOND
  1   1   2  2   
  2   2   3  am  
  3   2   4  1   
  4   3   5  1   
  5   3   6  1   
  6   4   7  1   
  7   4  22  1   
  8   4  23  1   
  9   5   8  1   
 10   5  24  1   
 11   5  25  1   
 12   6   9  1   
 13   6  26  1   
 14   6  27  1   
 15   7  10  1   
 16   7  11  2   
 17   8  12  1   
 18   8  28  1   
 19   8  29  1   
 20   9  13  1   
 21   9  30  1   
 22   9  31  1   
 23  10  14  1   
 24  11  15  1   
 25  11  32  1   
 26  12  13  1   
 27  12  16  1   
 28  12  33  1   
 29  13  34  1   
 30  13  35  1   
 31  14  15  2   
 32  15  17  1   
 33  16  18  1   
 34  16  36  1   
 35  16  37  1   
 36  17  38  1   
 37  17  39  1   
 38  17  40  1   
 39  18  19  3   
 40  19  20  1   
 41  20  21  1   
 42  20  41  1   
 43  20  42  1   
 44  21  43  1   
 45  21  44  1   
 46  21  45  1   
@<TRIPOS>SUBSTRUCTURE
  1 ****   3 GROUP 4 **** **** 0

# MOE 2024.06 (io_trps.svl 2023.06)
