@<TRIPOS>MOLECULE
NONAME
55 58 1 0 0 
SMALL
USER_CHARGES


@<TRIPOS>ATOM
  1 CL       0.8280     0.9690     2.8140 Cl    1 <1>  -0.1770 
  2 C        2.1740     1.0250     1.7030 C.ar  1 <1>   0.1770 
  3 C        2.6640     2.2500     1.2980 C.ar  1 <1>  -0.1500 
  4 C        2.7210    -0.1610     1.2510 C.ar  1 <1>  -0.1500 
  5 C        3.7420     2.3180     0.4180 C.ar  1 <1>   0.1000 
  6 C        3.7830    -0.1100     0.3660 C.ar  1 <1>  -0.1500 
  7 N        4.2790     3.5360    -0.0210 N.pl3 1 <1>  -0.8380 
  8 C        4.2790     1.1160    -0.0440 C.ar  1 <1>  -0.1500 
  9 C        5.7510     3.6900    -0.1490 C.3   1 <1>   0.2090 
 10 C        3.6700     4.8450     0.3190 C.3   1 <1>   0.2090 
 11 C        6.0520     5.1480     0.1930 C.3   1 <1>  -0.0800 
 12 C        4.7280     5.8720    -0.0530 C.3   1 <1>  -0.1600 
 13 C        7.2280     5.6980    -0.6190 C.3   1 <1>   0.2090 
 14 N        7.4760     7.1120    -0.2570 N.pl3 1 <1>  -0.8690 
 15 C        8.5080     7.8270    -0.8170 C.ar  1 <1>   0.4100 
 16 N        9.4210     7.1540    -1.5050 N.ar  1 <1>  -0.6200 
 17 C        8.5470     9.2030    -0.6440 C.ar  1 <1>  -0.1500 
 18 C       10.3880     7.8760    -2.0410 C.ar  1 <1>   0.1600 
 19 C        9.5640     9.9610    -1.1900 C.ar  1 <1>   0.0860 
 20 C       10.5040     9.2460    -1.9210 C.ar  1 <1>  -0.1500 
 21 C        9.6300    11.3980    -1.0180 C.2   1 <1>   0.5440 
 22 O        8.6590    12.0650    -1.3190 O.2   1 <1>  -0.5700 
 23 N       10.7540    12.0250    -0.5180 N.am  1 <1>  -0.6600 
 24 C       10.8920    13.5090    -0.5340 C.3   1 <1>   0.1400 
 25 C       11.8210    11.3220     0.2510 C.3   1 <1>   0.1400 
 26 C       10.9040    14.0430     0.9020 C.3   1 <1>  -0.1600 
 27 C       11.8450    11.8420     1.6930 C.3   1 <1>  -0.1600 
 28 C       11.9950    13.3690     1.7460 C.3   1 <1>  -0.1600 
 29 H        2.1970     3.1350     1.6770 H     1 <1>   0.1500 
 30 H        2.3190    -1.1010     1.5840 H     1 <1>   0.1500 
 31 H        4.2210    -1.0200    -0.0050 H     1 <1>   0.1500 
 32 H        5.0930     1.1430    -0.7430 H     1 <1>   0.1500 
 33 H        6.0300     3.4690    -1.1650 H     1 <1>   0.0800 
 34 H        6.2690     3.0220     0.5190 H     1 <1>   0.0800 
 35 H        3.4780     4.8930     1.3770 H     1 <1>   0.0800 
 36 H        2.7560     4.9960    -0.2300 H     1 <1>   0.0800 
 37 H        6.2990     5.1930     1.2400 H     1 <1>   0.0800 
 38 H        4.6320     6.7670     0.5340 H     1 <1>   0.0800 
 39 H        4.6200     6.1150    -1.0960 H     1 <1>   0.0800 
 40 H        7.0180     5.6340    -1.6740 H     1 <1>   0.0800 
 41 H        8.1150     5.1200    -0.4150 H     1 <1>   0.0800 
 42 H        6.6220     7.6440    -0.0890 H     1 <1>   0.4000 
 43 H        7.7770     9.6880    -0.0760 H     1 <1>   0.1500 
 44 H       11.1290     7.3420    -2.6100 H     1 <1>   0.1500 
 45 H       11.3170     9.7660    -2.3920 H     1 <1>   0.1500 
 46 H       10.0840    13.9620    -1.0820 H     1 <1>   0.0800 
 47 H       11.8120    13.7680    -1.0280 H     1 <1>   0.0800 
 48 H       12.7710    11.5070    -0.2200 H     1 <1>   0.0800 
 49 H       11.6530    10.2600     0.2670 H     1 <1>   0.0800 
 50 H        9.9380    13.8650     1.3420 H     1 <1>   0.0800 
 51 H       11.0650    15.1060     0.8840 H     1 <1>   0.0800 
 52 H       12.6590    11.3810     2.2240 H     1 <1>   0.0800 
 53 H       10.9310    11.5510     2.1810 H     1 <1>   0.0800 
 54 H       11.9250    13.7060     2.7660 H     1 <1>   0.0800 
 55 H       12.9630    13.6470     1.3680 H     1 <1>   0.0800 
@<TRIPOS>BOND
  1   1   2  1   
  2   2   3  ar  
  3   2   4  ar  
  4   3   5  ar  
  5   3  29  1   
  6   4   6  ar  
  7   4  30  1   
  8   5   7  1   
  9   5   8  ar  
 10   6   8  ar  
 11   6  31  1   
 12   7   9  1   
 13   7  10  1   
 14   8  32  1   
 15   9  11  1   
 16   9  33  1   
 17   9  34  1   
 18  10  12  1   
 19  10  35  1   
 20  10  36  1   
 21  11  12  1   
 22  11  13  1   
 23  11  37  1   
 24  12  38  1   
 25  12  39  1   
 26  13  14  1   
 27  13  40  1   
 28  13  41  1   
 29  14  15  1   
 30  14  42  1   
 31  15  16  ar  
 32  15  17  ar  
 33  16  18  ar  
 34  17  19  ar  
 35  17  43  1   
 36  18  20  ar  
 37  18  44  1   
 38  19  20  ar  
 39  19  21  1   
 40  20  45  1   
 41  21  22  2   
 42  21  23  am  
 43  23  24  1   
 44  23  25  1   
 45  24  26  1   
 46  24  46  1   
 47  24  47  1   
 48  25  27  1   
 49  25  48  1   
 50  25  49  1   
 51  26  28  1   
 52  26  50  1   
 53  26  51  1   
 54  27  28  1   
 55  27  52  1   
 56  27  53  1   
 57  28  54  1   
 58  28  55  1   
@<TRIPOS>SUBSTRUCTURE
  1 ****  14 GROUP 4 **** **** 0

# MOE 2024.06 (io_trps.svl 2023.06)
