@<TRIPOS>MOLECULE
NONAME
43 46 1 0 0 
SMALL
USER_CHARGES


@<TRIPOS>ATOM
  1 S       -0.4390     0.1790    -2.2620 S.3   1 <1>  -0.0800 
  2 C       -1.3770     1.0770    -1.0790 C.2   1 <1>  -0.1400 
  3 C       -1.7760    -0.9330    -2.5270 C.2   1 <1>  -0.1100 
  4 C       -2.6000     0.5460    -0.9430 C.2   1 <1>  -0.1810 
  5 C       -0.8280     2.2920    -0.3370 C.3   1 <1>   0.4600 
  6 C       -2.8340    -0.6050    -1.7590 C.2   1 <1>  -0.1500 
  7 C       -3.5840     1.1750     0.0170 C.3   1 <1>   0.0210 
  8 O       -1.7680     2.6700     0.6540 O.3   1 <1>  -0.5600 
  9 C        0.4640     1.9410     0.4070 C.3   1 <1>  -0.1600 
 10 C       -0.5940     3.4730    -1.2880 C.3   1 <1>  -0.1600 
 11 C       -3.1360     2.6170     0.3250 C.3   1 <1>   0.1200 
 12 C        1.0490     3.1560     1.1260 C.3   1 <1>   0.2090 
 13 C       -0.0120     4.6740    -0.5460 C.3   1 <1>   0.2090 
 14 N        1.2410     4.2580     0.1410 N.pl3 1 <1>  -0.8380 
 15 C        2.4390     4.9260    -0.0180 C.ar  1 <1>   0.7200 
 16 N        3.3680     4.7460     0.9210 N.ar  1 <1>  -0.6200 
 17 N        2.5680     5.6950    -1.0990 N.ar  1 <1>  -0.6200 
 18 C        4.4990     5.3860     0.7540 C.ar  1 <1>   0.1600 
 19 C        3.7100     6.3210    -1.2380 C.ar  1 <1>   0.1600 
 20 C        4.7340     6.2030    -0.3270 C.ar  1 <1>  -0.1430 
 21 C        6.0540     6.9360    -0.5050 C.3   1 <1>  -0.0170 
 22 C        5.9990     8.3120     0.1630 C.3   1 <1>  -0.2400 
 23 H       -1.6250    -1.7250    -3.2380 H     1 <1>   0.1500 
 24 H       -3.7750    -1.1270    -1.7330 H     1 <1>   0.1500 
 25 H       -3.6220     0.6020     0.9260 H     1 <1>   0.0800 
 26 H       -4.5660     1.1920    -0.4180 H     1 <1>   0.0800 
 27 H        1.1960     1.5800    -0.2900 H     1 <1>   0.0800 
 28 H        0.2660     1.1570     1.1130 H     1 <1>   0.0800 
 29 H       -1.5080     3.7460    -1.7780 H     1 <1>   0.0800 
 30 H        0.1040     3.1800    -2.0510 H     1 <1>   0.0800 
 31 H       -3.6890     3.0060     1.1610 H     1 <1>   0.0800 
 32 H       -3.3070     3.2520    -0.5260 H     1 <1>   0.0800 
 33 H        1.9790     2.8740     1.5870 H     1 <1>   0.0800 
 34 H        0.3790     3.4880     1.9000 H     1 <1>   0.0800 
 35 H       -0.7130     5.0270     0.1910 H     1 <1>   0.0800 
 36 H        0.1640     5.4760    -1.2420 H     1 <1>   0.0800 
 37 H        5.2590     5.2560     1.5040 H     1 <1>   0.1500 
 38 H        3.8330     6.9470    -2.1040 H     1 <1>   0.1500 
 39 H        6.2670     7.0530    -1.5540 H     1 <1>   0.0800 
 40 H        6.8530     6.3580    -0.0730 H     1 <1>   0.0800 
 41 H        5.2170     8.9080    -0.2730 H     1 <1>   0.0800 
 42 H        6.9360     8.8250     0.0330 H     1 <1>   0.0800 
 43 H        5.8060     8.2090     1.2160 H     1 <1>   0.0800 
@<TRIPOS>BOND
  1   1   2  1   
  2   1   3  1   
  3   2   4  2   
  4   2   5  1   
  5   3   6  2   
  6   3  23  1   
  7   4   6  1   
  8   4   7  1   
  9   5   8  1   
 10   5   9  1   
 11   5  10  1   
 12   6  24  1   
 13   7  11  1   
 14   7  25  1   
 15   7  26  1   
 16   8  11  1   
 17   9  12  1   
 18   9  27  1   
 19   9  28  1   
 20  10  13  1   
 21  10  29  1   
 22  10  30  1   
 23  11  31  1   
 24  11  32  1   
 25  12  14  1   
 26  12  33  1   
 27  12  34  1   
 28  13  14  1   
 29  13  35  1   
 30  13  36  1   
 31  14  15  1   
 32  15  16  ar  
 33  15  17  ar  
 34  16  18  ar  
 35  17  19  ar  
 36  18  20  ar  
 37  18  37  1   
 38  19  20  ar  
 39  19  38  1   
 40  20  21  1   
 41  21  22  1   
 42  21  39  1   
 43  21  40  1   
 44  22  41  1   
 45  22  42  1   
 46  22  43  1   
@<TRIPOS>SUBSTRUCTURE
  1 ****  14 GROUP 4 **** **** 0

# MOE 2024.06 (io_trps.svl 2023.06)
