@<TRIPOS>MOLECULE
NONAME
50 51 1 0 0 
SMALL
USER_CHARGES


@<TRIPOS>ATOM
  1 S        0.5540    -0.3360    -0.9960 S.o2  1 <1>   1.3330 
  2 O        1.8680    -0.9150    -0.8180 O.2   1 <1>  -0.6500 
  3 O       -0.0940    -0.4260    -2.2840 O.2   1 <1>  -0.6500 
  4 N       -0.4910    -1.0680     0.1280 N.am  1 <1>  -0.8490 
  5 C        0.5850     1.3850    -0.4720 C.3   1 <1>  -0.0550 
  6 C       -1.9110    -0.9120    -0.2080 C.3   1 <1>   0.1160 
  7 C       -0.1850    -2.4880     0.3280 C.3   1 <1>   0.1160 
  8 C        1.5090     1.7560     0.7100 C.3   1 <1>  -0.0800 
  9 C        2.9990     1.6370     0.3770 C.3   1 <1>   0.2200 
 10 C        1.3540     0.9430     2.0000 C.3   1 <1>   0.1200 
 11 N        3.6250     2.9750     0.4480 N.am  1 <1>  -0.7300 
 12 C        3.5320     0.7290     1.4830 C.3   1 <1>   0.1200 
 13 O        2.6340     0.8740     2.5360 O.3   1 <1>  -0.5600 
 14 C        3.5560     3.9170    -0.5360 C.2   1 <1>   0.5440 
 15 O        2.9470     3.6520    -1.5550 O.2   1 <1>  -0.5700 
 16 C        4.1860     5.2080    -0.3400 C.ar  1 <1>   0.0860 
 17 C        5.4350     5.4890    -0.9070 C.ar  1 <1>  -0.1440 
 18 C        3.5690     6.1990     0.4330 C.ar  1 <1>  -0.1440 
 19 C        6.0440     6.7140    -0.6920 C.ar  1 <1>  -0.1500 
 20 C        6.1420     4.4520    -1.7710 C.3   1 <1>  -0.0970 
 21 C        4.1930     7.4180     0.6390 C.ar  1 <1>  -0.1500 
 22 C        2.1980     5.9600     1.0550 C.3   1 <1>  -0.0970 
 23 C        5.4310     7.6820     0.0820 C.ar  1 <1>  -0.1440 
 24 C        6.1060     9.0230     0.3110 C.3   1 <1>  -0.0970 
 25 H        0.8940     1.9800    -1.3110 H     1 <1>   0.0800 
 26 H       -0.4140     1.6900    -0.2330 H     1 <1>   0.0800 
 27 H       -2.5240    -1.3080     0.5840 H     1 <1>   0.0800 
 28 H       -2.1420    -1.4350    -1.1220 H     1 <1>   0.0800 
 29 H       -2.1530     0.1280    -0.3370 H     1 <1>   0.0800 
 30 H       -0.8590    -2.9190     1.0480 H     1 <1>   0.0800 
 31 H        0.8200    -2.6010     0.7000 H     1 <1>   0.0800 
 32 H       -0.2700    -3.0240    -0.6040 H     1 <1>   0.0800 
 33 H        1.2890     2.7790     0.9630 H     1 <1>   0.0800 
 34 H        3.1870     1.2070    -0.5930 H     1 <1>   0.0800 
 35 H        1.0320    -0.0660     1.8260 H     1 <1>   0.0800 
 36 H        0.7000     1.4170     2.7120 H     1 <1>   0.0800 
 37 H        4.0240     3.2260     1.3540 H     1 <1>   0.3700 
 38 H        4.5220     0.9950     1.8080 H     1 <1>   0.0800 
 39 H        3.5100    -0.3010     1.1700 H     1 <1>   0.0800 
 40 H        7.0030     6.9210    -1.1330 H     1 <1>   0.1500 
 41 H        7.0830     4.8240    -2.1350 H     1 <1>   0.0800 
 42 H        5.5270     4.2020    -2.6180 H     1 <1>   0.0800 
 43 H        6.3260     3.5590    -1.2020 H     1 <1>   0.0800 
 44 H        3.7130     8.1740     1.2340 H     1 <1>   0.1500 
 45 H        1.8090     6.8620     1.4920 H     1 <1>   0.0800 
 46 H        2.2660     5.2120     1.8240 H     1 <1>   0.0800 
 47 H        1.5050     5.6270     0.3030 H     1 <1>   0.0800 
 48 H        7.1750     8.9160     0.2830 H     1 <1>   0.0800 
 49 H        5.8310     9.4230     1.2700 H     1 <1>   0.0800 
 50 H        5.8050     9.7150    -0.4540 H     1 <1>   0.0800 
@<TRIPOS>BOND
  1   1   2  2   
  2   1   3  2   
  3   1   4  am  
  4   1   5  1   
  5   4   6  1   
  6   4   7  1   
  7   5   8  1   
  8   5  25  1   
  9   5  26  1   
 10   6  27  1   
 11   6  28  1   
 12   6  29  1   
 13   7  30  1   
 14   7  31  1   
 15   7  32  1   
 16   8   9  1   
 17   8  10  1   
 18   8  33  1   
 19   9  11  1   
 20   9  12  1   
 21   9  34  1   
 22  10  13  1   
 23  10  35  1   
 24  10  36  1   
 25  11  14  am  
 26  11  37  1   
 27  12  13  1   
 28  12  38  1   
 29  12  39  1   
 30  14  15  2   
 31  14  16  1   
 32  16  17  ar  
 33  16  18  ar  
 34  17  19  ar  
 35  17  20  1   
 36  18  21  ar  
 37  18  22  1   
 38  19  23  ar  
 39  19  40  1   
 40  20  41  1   
 41  20  42  1   
 42  20  43  1   
 43  21  23  ar  
 44  21  44  1   
 45  22  45  1   
 46  22  46  1   
 47  22  47  1   
 48  23  24  1   
 49  24  48  1   
 50  24  49  1   
 51  24  50  1   
@<TRIPOS>SUBSTRUCTURE
  1 ****  11 GROUP 4 **** **** 0

# MOE 2024.06 (io_trps.svl 2023.06)
