@<TRIPOS>MOLECULE
NONAME
58 60 1 0 0 
SMALL
USER_CHARGES


@<TRIPOS>ATOM
  1 F       -0.6610     0.2020     0.7720 F     1 <1>  -0.1900 
  2 C       -1.9200     0.5380     0.6630 C.ar  1 <1>   0.1900 
  3 C       -2.3330     1.6300    -0.1090 C.ar  1 <1>   0.0830 
  4 C       -2.8270    -0.2470     1.3480 C.ar  1 <1>  -0.1500 
  5 O       -1.5390     2.4770    -0.8250 O.3   1 <1>  -0.3630 
  6 C       -3.6910     1.8990    -0.1680 C.ar  1 <1>  -0.1500 
  7 C       -4.1760     0.0480     1.2690 C.ar  1 <1>  -0.1500 
  8 C       -0.1310     2.4010    -0.8190 C.3   1 <1>   0.0400 
  9 C       -4.6370     1.1230     0.5050 C.ar  1 <1>   0.0530 
 10 C       -6.0430     1.4240     0.4100 C.2   1 <1>   0.0870 
 11 O       -6.4630     2.6520     0.2430 O.3   1 <1>  -0.0190 
 12 C       -7.1480     0.6370     0.4500 C.2   1 <1>  -0.0860 
 13 N       -7.7680     2.7390     0.1820 N.2   1 <1>  -0.4100 
 14 C       -8.2060     1.5360     0.3130 C.2   1 <1>   0.3720 
 15 C       -7.2970    -0.7710     0.5340 C.2   1 <1>   0.7160 
 16 N       -9.5680     1.1840     0.3280 N.pl3 1 <1>  -0.8210 
 17 O       -7.6770    -1.3140     1.5540 O.2   1 <1>  -0.5700 
 18 N       -7.0780    -1.5320    -0.5780 N.am  1 <1>  -0.7300 
 19 C      -10.4150     2.0970    -0.4970 C.3   1 <1>   0.1290 
 20 C      -10.0770     1.1240     1.7280 C.3   1 <1>   0.1290 
 21 C       -7.3810    -2.9840    -0.7490 C.3   1 <1>   0.1400 
 22 C       -8.7750    -3.3990    -0.2180 C.3   1 <1>   0.1900 
 23 N       -9.1860    -4.7270    -0.7590 N.3   1 <1>  -0.8100 
 24 C       -9.8230    -2.3130    -0.5810 C.3   1 <1>   0.3430 
 25 C      -10.5570    -5.0910    -0.3390 C.3   1 <1>   0.1100 
 26 C       -8.2570    -5.8100    -0.3850 C.3   1 <1>   0.0300 
 27 N      -11.2130    -2.6760    -0.1450 N.4   1 <1>  -0.9590 
 28 C      -11.5920    -4.0110    -0.7130 C.3   1 <1>   0.3430 
 29 C      -12.1700    -1.5990    -0.5260 C.3   1 <1>   0.2630 
 30 H       -2.4780    -1.0760     1.9380 H     1 <1>   0.1500 
 31 H       -4.0180     2.7370    -0.7570 H     1 <1>   0.1500 
 32 H       -4.8750    -0.5590     1.8180 H     1 <1>   0.1500 
 33 H        0.2500     3.2030    -1.4250 H     1 <1>   0.0800 
 34 H        0.1720     1.4560    -1.2350 H     1 <1>   0.0800 
 35 H        0.2220     2.5090     0.1920 H     1 <1>   0.0800 
 36 H       -6.6140    -1.0790    -1.3710 H     1 <1>   0.3700 
 37 H       -9.9970     2.1910    -1.4860 H     1 <1>   0.0800 
 38 H      -10.4540     3.0770    -0.0500 H     1 <1>   0.0800 
 39 H      -11.4140     1.7090    -0.5790 H     1 <1>   0.0800 
 40 H       -9.5150     0.4030     2.2970 H     1 <1>   0.0800 
 41 H      -11.1140     0.8420     1.7390 H     1 <1>   0.0800 
 42 H       -9.9710     2.0880     2.1990 H     1 <1>   0.0800 
 43 H       -6.6210    -3.5510    -0.2400 H     1 <1>   0.0800 
 44 H       -7.3310    -3.2170    -1.7990 H     1 <1>   0.0800 
 45 H       -8.7140    -3.4680     0.8550 H     1 <1>   0.0800 
 46 H       -9.8020    -2.1690    -1.6480 H     1 <1>   0.0800 
 47 H       -9.5440    -1.3810    -0.1200 H     1 <1>   0.0800 
 48 H      -10.5830    -5.2580     0.7240 H     1 <1>   0.0800 
 49 H      -10.8390    -6.0120    -0.8220 H     1 <1>   0.0800 
 50 H       -7.2860    -5.6450    -0.8170 H     1 <1>   0.0800 
 51 H       -8.6200    -6.7540    -0.7580 H     1 <1>   0.0800 
 52 H       -8.1590    -5.8760     0.6860 H     1 <1>   0.0800 
 53 H      -11.1810    -2.7610     0.8800 H     1 <1>   0.4500 
 54 H      -12.5610    -4.3050    -0.3450 H     1 <1>   0.0800 
 55 H      -11.6460    -3.9480    -1.7870 H     1 <1>   0.0800 
 56 H      -12.2140    -1.5020    -1.5980 H     1 <1>   0.0800 
 57 H      -11.8510    -0.6570    -0.1080 H     1 <1>   0.0800 
 58 H      -13.1570    -1.8260    -0.1560 H     1 <1>   0.0800 
@<TRIPOS>BOND
  1   1   2  1   
  2   2   3  ar  
  3   2   4  ar  
  4   3   5  1   
  5   3   6  ar  
  6   4   7  ar  
  7   4  30  1   
  8   5   8  1   
  9   6   9  ar  
 10   6  31  1   
 11   7   9  ar  
 12   7  32  1   
 13   8  33  1   
 14   8  34  1   
 15   8  35  1   
 16   9  10  1   
 17  10  11  1   
 18  10  12  2   
 19  11  13  1   
 20  12  14  1   
 21  12  15  1   
 22  13  14  2   
 23  14  16  1   
 24  15  17  2   
 25  15  18  am  
 26  16  19  1   
 27  16  20  1   
 28  18  21  1   
 29  18  36  1   
 30  19  37  1   
 31  19  38  1   
 32  19  39  1   
 33  20  40  1   
 34  20  41  1   
 35  20  42  1   
 36  21  22  1   
 37  21  43  1   
 38  21  44  1   
 39  22  23  1   
 40  22  24  1   
 41  22  45  1   
 42  23  25  1   
 43  23  26  1   
 44  24  27  1   
 45  24  46  1   
 46  24  47  1   
 47  25  28  1   
 48  25  48  1   
 49  25  49  1   
 50  26  50  1   
 51  26  51  1   
 52  26  52  1   
 53  27  28  1   
 54  27  29  1   
 55  27  53  1   
 56  28  54  1   
 57  28  55  1   
 58  29  56  1   
 59  29  57  1   
 60  29  58  1   
@<TRIPOS>SUBSTRUCTURE
  1 ****  15 GROUP 4 **** **** 0

# MOE 2024.06 (io_trps.svl 2023.06)
