@<TRIPOS>MOLECULE
NONAME
41 44 1 0 0 
SMALL
USER_CHARGES


@<TRIPOS>ATOM
  1 O       -0.7010     0.0850    -0.4490 O.2   1 <1>  -0.5700 
  2 C       -1.5380     0.7330     0.1520 C.2   1 <1>   0.7160 
  3 N       -2.6700     0.0910     0.6000 N.am  1 <1>  -0.6600 
  4 C       -1.3420     2.1470     0.3570 C.2   1 <1>  -0.0860 
  5 C       -2.7230    -1.4000     0.7220 C.3   1 <1>   0.1400 
  6 C       -4.0300     0.7070     0.5000 C.3   1 <1>   0.1400 
  7 C       -1.8460     2.9120     1.4140 C.2   1 <1>   0.1390 
  8 C       -0.6420     3.0580    -0.3750 C.2   1 <1>  -0.3020 
  9 C       -3.6400    -2.0100    -0.3530 C.3   1 <1>   0.3440 
 10 C       -4.8900    -0.0190    -0.5620 C.3   1 <1>   0.2950 
 11 N       -1.5170     4.1630     1.3390 N.2   1 <1>  -0.7070 
 12 N       -0.7620     4.2500     0.2290 N.pl3 1 <1>   0.3000 
 13 O       -4.9020    -1.3940    -0.3110 O.3   1 <1>  -0.5600 
 14 C       -3.7930    -3.5120    -0.1330 C.ar  1 <1>  -0.1440 
 15 C       -6.3590     0.4360    -0.6180 C.3   1 <1>  -0.1950 
 16 C       -4.7960    -4.0290     0.6770 C.ar  1 <1>  -0.1500 
 17 C       -2.9030    -4.3860    -0.7430 C.ar  1 <1>  -0.1500 
 18 C       -6.8110     1.8300    -0.3000 C.3   1 <1>  -0.2000 
 19 C       -7.2030     0.6850     0.5940 C.3   1 <1>  -0.2000 
 20 C       -4.9060    -5.3950     0.8750 C.ar  1 <1>  -0.1500 
 21 C       -3.0120    -5.7510    -0.5460 C.ar  1 <1>  -0.1500 
 22 C       -4.0140    -6.2570     0.2640 C.ar  1 <1>  -0.1500 
 23 H       -1.7390    -1.8250     0.6310 H     1 <1>   0.0800 
 24 H       -3.1020    -1.6630     1.6940 H     1 <1>   0.0800 
 25 H       -4.5110     0.6460     1.4590 H     1 <1>   0.0800 
 26 H       -3.9530     1.7430     0.2280 H     1 <1>   0.0800 
 27 H       -2.4440     2.5070     2.2130 H     1 <1>   0.1500 
 28 H       -0.0770     2.8990    -1.2760 H     1 <1>   0.1500 
 29 H       -3.2180    -1.8370    -1.3280 H     1 <1>   0.0800 
 30 H       -4.4500     0.1380    -1.5320 H     1 <1>   0.0800 
 31 H       -0.3430     5.1370    -0.0780 H     1 <1>   0.2700 
 32 H       -6.8550    -0.0380    -1.4480 H     1 <1>   0.1000 
 33 H       -5.4970    -3.3670     1.1540 H     1 <1>   0.1500 
 34 H       -2.1180    -4.0070    -1.3740 H     1 <1>   0.1500 
 35 H       -6.1270     2.5620     0.0940 H     1 <1>   0.1000 
 36 H       -7.5680     2.2780    -0.9200 H     1 <1>   0.1000 
 37 H       -8.2220     0.3390     0.5800 H     1 <1>   0.1000 
 38 H       -6.7650     0.6110     1.5730 H     1 <1>   0.1000 
 39 H       -5.6880    -5.7840     1.5030 H     1 <1>   0.1500 
 40 H       -2.3180    -6.4210    -1.0230 H     1 <1>   0.1500 
 41 H       -4.1000    -7.3190     0.4170 H     1 <1>   0.1500 
@<TRIPOS>BOND
  1   1   2  2   
  2   2   3  am  
  3   2   4  1   
  4   3   5  1   
  5   3   6  1   
  6   4   7  1   
  7   4   8  2   
  8   5   9  1   
  9   5  23  1   
 10   5  24  1   
 11   6  10  1   
 12   6  25  1   
 13   6  26  1   
 14   7  11  2   
 15   7  27  1   
 16   8  12  1   
 17   8  28  1   
 18   9  13  1   
 19   9  14  1   
 20   9  29  1   
 21  10  13  1   
 22  10  15  1   
 23  10  30  1   
 24  11  12  1   
 25  12  31  1   
 26  14  16  ar  
 27  14  17  ar  
 28  15  18  1   
 29  15  19  1   
 30  15  32  1   
 31  16  20  ar  
 32  16  33  1   
 33  17  21  ar  
 34  17  34  1   
 35  18  19  1   
 36  18  35  1   
 37  18  36  1   
 38  19  37  1   
 39  19  38  1   
 40  20  22  ar  
 41  20  39  1   
 42  21  22  ar  
 43  21  40  1   
 44  22  41  1   
@<TRIPOS>SUBSTRUCTURE
  1 ****   3 GROUP 4 **** **** 0

# MOE 2024.06 (io_trps.svl 2023.06)
