@<TRIPOS>MOLECULE
NONAME
56 59 1 0 0 
SMALL
USER_CHARGES


@<TRIPOS>ATOM
  1 O        1.6520     0.0710    -1.7660 O.2   1 <1>  -0.5700 
  2 C        2.4130    -0.6920    -1.2180 C.2   1 <1>   0.6300 
  3 N        3.7680    -0.4700    -1.1860 N.am  1 <1>  -0.6600 
  4 C        1.8180    -1.9350    -0.5670 C.3   1 <1>  -0.1000 
  5 C        4.7450    -1.4280    -0.5790 C.3   1 <1>   0.1400 
  6 C        4.3430     0.7330    -1.8600 C.3   1 <1>   0.1400 
  7 C        0.4240    -1.9200    -0.0080 C.3   1 <1>  -0.0680 
  8 C        1.5970    -2.0160     0.9170 C.3   1 <1>  -0.2000 
  9 C        5.0510    -1.0690     0.8820 C.3   1 <1>   0.1400 
 10 C        5.4960     1.3930    -1.0920 C.3   1 <1>  -0.1600 
 11 C       -0.4760    -3.1180    -0.2460 C.ar  1 <1>  -0.0320 
 12 N        5.9130     0.1470     1.0040 N.am  1 <1>  -0.6600 
 13 C        5.3300     1.3940     0.4320 C.3   1 <1>   0.1400 
 14 C       -0.8140    -3.4780    -1.5400 C.ar  1 <1>  -0.1500 
 15 C       -0.9690    -3.8570     0.8170 C.ar  1 <1>  -0.1500 
 16 C        7.1730     0.0620     1.5530 C.2   1 <1>   0.5690 
 17 C       -1.6300    -4.5720    -1.7720 C.ar  1 <1>  -0.1500 
 18 C       -1.7850    -4.9520     0.5890 C.ar  1 <1>  -0.1500 
 19 O        7.6190    -0.9970     1.9340 O.2   1 <1>  -0.5700 
 20 C        8.0730     1.2830     1.7250 C.3   1 <1>   0.0820 
 21 C       -2.1150    -5.3100    -0.7070 C.ar  1 <1>  -0.1500 
 22 C        8.5050     1.9250     0.4090 C.2   1 <1>  -0.1810 
 23 C        9.1050     1.2660    -0.6650 C.2   1 <1>   0.1080 
 24 C        8.4050     3.2140     0.0080 C.2   1 <1>  -0.3320 
 25 N        9.3450     2.0630    -1.6560 N.2   1 <1>  -0.7070 
 26 C        9.4550    -0.2050    -0.7260 C.3   1 <1>  -0.0590 
 27 N        8.9200     3.2670    -1.2380 N.pl3 1 <1>   0.3000 
 28 C        7.8550     4.4410     0.7170 C.3   1 <1>  -0.0600 
 29 H        2.0990    -2.8290    -1.0930 H     1 <1>   0.1000 
 30 H        4.3450    -2.4250    -0.6130 H     1 <1>   0.0800 
 31 H        5.6590    -1.4360    -1.1470 H     1 <1>   0.0800 
 32 H        4.6820     0.4560    -2.8430 H     1 <1>   0.0800 
 33 H        3.5670     1.4700    -1.9860 H     1 <1>   0.0800 
 34 H       -0.1140    -0.9870    -0.0410 H     1 <1>   0.1000 
 35 H        1.7950    -2.9500     1.4140 H     1 <1>   0.1000 
 36 H        1.8080    -1.1620     1.5340 H     1 <1>   0.1000 
 37 H        5.5390    -1.9130     1.3370 H     1 <1>   0.0800 
 38 H        4.1340    -0.9080     1.4180 H     1 <1>   0.0800 
 39 H        6.4250     0.9230    -1.3610 H     1 <1>   0.0800 
 40 H        5.5650     2.4110    -1.4280 H     1 <1>   0.0800 
 41 H        4.2880     1.4690     0.6960 H     1 <1>   0.0800 
 42 H        5.8260     2.2540     0.8410 H     1 <1>   0.0800 
 43 H       -0.4410    -2.9010    -2.3690 H     1 <1>   0.1500 
 44 H       -0.7180    -3.5790     1.8250 H     1 <1>   0.1500 
 45 H       -1.8890    -4.8460    -2.7800 H     1 <1>   0.1500 
 46 H       -2.1650    -5.5230     1.4180 H     1 <1>   0.1500 
 47 H        7.5630     1.9940     2.3420 H     1 <1>   0.0800 
 48 H        8.9580     0.9830     2.2560 H     1 <1>   0.0800 
 49 H       -2.7500    -6.1600    -0.8860 H     1 <1>   0.1500 
 50 H        9.8720    -0.5280     0.2100 H     1 <1>   0.0800 
 51 H       10.1770    -0.3750    -1.5030 H     1 <1>   0.0800 
 52 H        8.5730    -0.7790    -0.9370 H     1 <1>   0.0800 
 53 H        9.0020     4.1040    -1.8260 H     1 <1>   0.2700 
 54 H        7.5200     4.1970     1.7080 H     1 <1>   0.0800 
 55 H        7.0250     4.8460     0.1660 H     1 <1>   0.0800 
 56 H        8.6200     5.1930     0.7960 H     1 <1>   0.0800 
@<TRIPOS>BOND
  1   1   2  2   
  2   2   3  am  
  3   2   4  1   
  4   3   5  1   
  5   3   6  1   
  6   4   7  1   
  7   4   8  1   
  8   4  29  1   
  9   5   9  1   
 10   5  30  1   
 11   5  31  1   
 12   6  10  1   
 13   6  32  1   
 14   6  33  1   
 15   7   8  1   
 16   7  11  1   
 17   7  34  1   
 18   8  35  1   
 19   8  36  1   
 20   9  12  1   
 21   9  37  1   
 22   9  38  1   
 23  10  13  1   
 24  10  39  1   
 25  10  40  1   
 26  11  14  ar  
 27  11  15  ar  
 28  12  13  1   
 29  12  16  am  
 30  13  41  1   
 31  13  42  1   
 32  14  17  ar  
 33  14  43  1   
 34  15  18  ar  
 35  15  44  1   
 36  16  19  2   
 37  16  20  1   
 38  17  21  ar  
 39  17  45  1   
 40  18  21  ar  
 41  18  46  1   
 42  20  22  1   
 43  20  47  1   
 44  20  48  1   
 45  21  49  1   
 46  22  23  1   
 47  22  24  2   
 48  23  25  2   
 49  23  26  1   
 50  24  27  1   
 51  24  28  1   
 52  25  27  1   
 53  26  50  1   
 54  26  51  1   
 55  26  52  1   
 56  27  53  1   
 57  28  54  1   
 58  28  55  1   
 59  28  56  1   
@<TRIPOS>SUBSTRUCTURE
  1 ****   5 GROUP 4 **** **** 0

# MOE 2024.06 (io_trps.svl 2023.06)
