@<TRIPOS>MOLECULE
NONAME
40 42 1 0 0 
SMALL
USER_CHARGES


@<TRIPOS>ATOM
  1 O       -2.5570     0.7270    -1.8940 O.2   1 <1>  -0.5700 
  2 C       -2.3000     0.6600    -0.7170 C.2   1 <1>   0.6300 
  3 N       -2.1490    -0.5260    -0.0840 N.am  1 <1>  -0.7300 
  4 C       -2.1350     1.9410     0.0860 C.3   1 <1>  -0.0950 
  5 C       -2.2740    -1.8570    -0.7190 C.3   1 <1>   0.2200 
  6 C       -2.6840     2.0170     1.4870 C.3   1 <1>  -0.2000 
  7 C       -3.3680     2.7550     0.3710 C.3   1 <1>  -0.2000 
  8 C       -0.8080     2.6140    -0.2990 C.3   1 <1>   0.2150 
  9 C       -3.6030    -2.5140    -0.3700 C.3   1 <1>  -0.0800 
 10 C       -1.3040    -2.8160    -0.0420 C.3   1 <1>   0.1200 
 11 O       -0.5970     3.7670     0.4410 O.3   1 <1>  -0.6800 
 12 C       -3.3200    -3.1700     0.9870 C.3   1 <1>   0.1200 
 13 C       -4.8370    -1.5930    -0.3830 C.3   1 <1>  -0.0170 
 14 O       -1.9310    -3.1790     1.1500 O.3   1 <1>  -0.5600 
 15 C       -6.1080    -2.3860    -0.1210 C.ar  1 <1>  -0.1440 
 16 C       -6.7390    -3.0930    -1.1240 C.ar  1 <1>  -0.1500 
 17 C       -6.6940    -2.4430     1.1270 C.ar  1 <1>  -0.1500 
 18 C       -7.8900    -3.8090    -0.8370 C.ar  1 <1>   0.1600 
 19 C       -7.8470    -3.1900     1.3080 C.ar  1 <1>   0.1600 
 20 N       -8.4580    -3.8760     0.3570 N.ar  1 <1>  -0.6200 
 21 H       -1.9510    -0.5520     0.9190 H     1 <1>   0.3700 
 22 H       -2.1090    -1.7890    -1.7810 H     1 <1>   0.0800 
 23 H       -3.1940     1.1710     1.9140 H     1 <1>   0.1000 
 24 H       -2.1460     2.5820     2.2300 H     1 <1>   0.1000 
 25 H       -3.3210     3.8290     0.3630 H     1 <1>   0.1000 
 26 H       -4.3120     2.3880     0.0060 H     1 <1>   0.1000 
 27 H       -0.8140     2.8810    -1.3430 H     1 <1>   0.0800 
 28 H        0.0190     1.9500    -0.1130 H     1 <1>   0.0800 
 29 H       -3.7710    -3.3060    -1.0790 H     1 <1>   0.0800 
 30 H       -0.3490    -2.3670     0.1700 H     1 <1>   0.0800 
 31 H       -1.1710    -3.7060    -0.6310 H     1 <1>   0.0800 
 32 H       -1.3710     4.3540     0.3570 H     1 <1>   0.4000 
 33 H       -3.6840    -4.1830     1.0230 H     1 <1>   0.0800 
 34 H       -3.7390    -2.6040     1.8000 H     1 <1>   0.0800 
 35 H       -4.9100    -1.1090    -1.3430 H     1 <1>   0.0800 
 36 H       -4.7400    -0.8210     0.3590 H     1 <1>   0.0800 
 37 H       -6.3490    -3.0950    -2.1250 H     1 <1>   0.1500 
 38 H       -6.2680    -1.9160     1.9610 H     1 <1>   0.1500 
 39 H       -8.3690    -4.3540    -1.6320 H     1 <1>   0.1500 
 40 H       -8.2900    -3.2230     2.2890 H     1 <1>   0.1500 
@<TRIPOS>BOND
  1   1   2  2   
  2   2   3  am  
  3   2   4  1   
  4   3   5  1   
  5   3  21  1   
  6   4   6  1   
  7   4   7  1   
  8   4   8  1   
  9   5   9  1   
 10   5  10  1   
 11   5  22  1   
 12   6   7  1   
 13   6  23  1   
 14   6  24  1   
 15   7  25  1   
 16   7  26  1   
 17   8  11  1   
 18   8  27  1   
 19   8  28  1   
 20   9  12  1   
 21   9  13  1   
 22   9  29  1   
 23  10  14  1   
 24  10  30  1   
 25  10  31  1   
 26  11  32  1   
 27  12  14  1   
 28  12  33  1   
 29  12  34  1   
 30  13  15  1   
 31  13  35  1   
 32  13  36  1   
 33  15  16  ar  
 34  15  17  ar  
 35  16  18  ar  
 36  16  37  1   
 37  17  19  ar  
 38  17  38  1   
 39  18  20  ar  
 40  18  39  1   
 41  19  20  ar  
 42  19  40  1   
@<TRIPOS>SUBSTRUCTURE
  1 ****  13 GROUP 4 **** **** 0

# MOE 2024.06 (io_trps.svl 2023.06)
