@<TRIPOS>MOLECULE
NONAME
50 54 1 0 0 
SMALL
USER_CHARGES


@<TRIPOS>ATOM
  1 O       -2.3520     0.9910    -1.2990 O.2   1 <1>  -0.5700 
  2 C       -1.8120     0.6040    -0.2750 C.2   1 <1>   0.7160 
  3 N       -1.8390    -0.7310     0.0030 N.am  1 <1>  -0.7300 
  4 C       -1.1620     1.5130     0.6590 C.2   1 <1>   0.2030 
  5 C       -2.4870    -1.7890    -0.8010 C.3   1 <1>   0.2200 
  6 N       -0.5670     1.1480     1.7860 N.2   1 <1>  -0.7070 
  7 C       -1.0710     2.9040     0.5070 C.2   1 <1>  -0.1810 
  8 C       -3.7990    -2.2350    -0.1720 C.3   1 <1>  -0.0800 
  9 C       -1.6710    -3.0720    -0.6980 C.3   1 <1>   0.1200 
 10 N       -0.1010     2.2840     2.3350 N.pl3 1 <1>   0.3000 
 11 C       -0.3920     3.3510     1.5710 C.2   1 <1>  -0.3320 
 12 C       -1.5890     3.8270    -0.5870 C.3   1 <1>   0.3010 
 13 C       -3.3530    -3.2830     0.8520 C.3   1 <1>   0.1200 
 14 C       -4.6780    -1.1160     0.4210 C.3   1 <1>  -0.0160 
 15 O       -2.0540    -3.6650     0.5050 O.3   1 <1>  -0.5600 
 16 C       -0.0780     4.8190     1.7730 C.3   1 <1>   0.0200 
 17 O       -1.5360     5.1620    -0.1400 O.3   1 <1>  -0.5600 
 18 C       -6.0100    -1.6710     0.9140 C.ar  1 <1>  -0.1440 
 19 C       -0.3190     5.5600     0.4410 C.3   1 <1>   0.1200 
 20 C       -7.0730    -1.9870     0.0340 C.ar  1 <1>   0.0000 
 21 C       -6.2100    -1.8880     2.2460 C.ar  1 <1>  -0.1500 
 22 C       -8.2550    -2.5260     0.5980 C.ar  1 <1>   0.3100 
 23 C       -7.0330    -1.7980    -1.3670 C.ar  1 <1>  -0.1500 
 24 C       -7.4230    -2.4170     2.7010 C.ar  1 <1>   0.1600 
 25 N       -8.4140    -2.7340     1.9300 N.ar  1 <1>  -0.6200 
 26 C       -9.3200    -2.8630    -0.2520 C.ar  1 <1>  -0.1500 
 27 C       -8.0910    -2.1350    -2.1670 C.ar  1 <1>  -0.1500 
 28 C       -9.2490    -2.6770    -1.6050 C.ar  1 <1>  -0.1500 
 29 H       -1.3930    -1.0270     0.8770 H     1 <1>   0.3700 
 30 H       -2.6060    -1.4680    -1.8220 H     1 <1>   0.0800 
 31 H       -4.3630    -2.7510    -0.9270 H     1 <1>   0.0800 
 32 H       -0.6100    -2.8920    -0.6950 H     1 <1>   0.0800 
 33 H       -1.9270    -3.7500    -1.4940 H     1 <1>   0.0800 
 34 H        0.4080     2.3010     3.2270 H     1 <1>   0.2700 
 35 H       -2.6140     3.6010    -0.8220 H     1 <1>   0.0800 
 36 H       -0.9920     3.7360    -1.4770 H     1 <1>   0.0800 
 37 H       -3.9900    -4.1510     0.8400 H     1 <1>   0.0800 
 38 H       -3.3140    -2.8750     1.8470 H     1 <1>   0.0800 
 39 H       -4.8480    -0.3480    -0.3130 H     1 <1>   0.0800 
 40 H       -4.1660    -0.6480     1.2440 H     1 <1>   0.0800 
 41 H        0.9450     4.9530     2.0770 H     1 <1>   0.0800 
 42 H       -0.7190     5.2290     2.5330 H     1 <1>   0.0800 
 43 H        0.4710     5.3460    -0.2590 H     1 <1>   0.0800 
 44 H       -0.3620     6.6220     0.6050 H     1 <1>   0.0800 
 45 H       -5.4500    -1.6640     2.9740 H     1 <1>   0.1500 
 46 H       -6.1550    -1.3770    -1.8190 H     1 <1>   0.1500 
 47 H       -7.5370    -2.5720     3.7610 H     1 <1>   0.1500 
 48 H      -10.2020    -3.2750     0.2030 H     1 <1>   0.1500 
 49 H       -8.0480    -1.9880    -3.2330 H     1 <1>   0.1500 
 50 H      -10.0740    -2.9390    -2.2440 H     1 <1>   0.1500 
@<TRIPOS>BOND
  1   1   2  2   
  2   2   3  am  
  3   2   4  1   
  4   3   5  1   
  5   3  29  1   
  6   4   6  2   
  7   4   7  1   
  8   5   8  1   
  9   5   9  1   
 10   5  30  1   
 11   6  10  1   
 12   7  11  2   
 13   7  12  1   
 14   8  13  1   
 15   8  14  1   
 16   8  31  1   
 17   9  15  1   
 18   9  32  1   
 19   9  33  1   
 20  10  11  1   
 21  10  34  1   
 22  11  16  1   
 23  12  17  1   
 24  12  35  1   
 25  12  36  1   
 26  13  15  1   
 27  13  37  1   
 28  13  38  1   
 29  14  18  1   
 30  14  39  1   
 31  14  40  1   
 32  16  19  1   
 33  16  41  1   
 34  16  42  1   
 35  17  19  1   
 36  18  20  ar  
 37  18  21  ar  
 38  19  43  1   
 39  19  44  1   
 40  20  22  ar  
 41  20  23  ar  
 42  21  24  ar  
 43  21  45  1   
 44  22  25  ar  
 45  22  26  ar  
 46  23  27  ar  
 47  23  46  1   
 48  24  25  ar  
 49  24  47  1   
 50  26  28  ar  
 51  26  48  1   
 52  27  28  ar  
 53  27  49  1   
 54  28  50  1   
@<TRIPOS>SUBSTRUCTURE
  1 ****  14 GROUP 4 **** **** 0

# MOE 2024.06 (io_trps.svl 2023.06)
