@<TRIPOS>MOLECULE
NONAME
43 45 1 0 0 
SMALL
USER_CHARGES


@<TRIPOS>ATOM
  1 CL      -2.1250    -1.9330    -1.7670 Cl    1 <1>  -0.1770 
  2 C       -2.4730    -0.3780    -1.0470 C.ar  1 <1>   0.1770 
  3 C       -3.1560    -0.3050     0.1650 C.ar  1 <1>   0.0860 
  4 C       -2.0580     0.7500    -1.7270 C.ar  1 <1>  -0.1500 
  5 C       -3.4150     0.9680     0.6880 C.ar  1 <1>  -0.1440 
  6 C       -3.5780    -1.5150     0.8330 C.2   1 <1>   0.5440 
  7 C       -2.3240     1.9990    -1.1970 C.ar  1 <1>  -0.1500 
  8 C       -3.0000     2.1020     0.0070 C.ar  1 <1>  -0.1500 
  9 C       -4.1500     1.1180     2.0140 C.3   1 <1>  -0.0960 
 10 O       -2.9310    -1.9540     1.7640 O.2   1 <1>  -0.5700 
 11 N       -4.7160    -2.1790     0.4440 N.am  1 <1>  -0.6600 
 12 C       -5.5910    -1.7870    -0.6910 C.3   1 <1>   0.1400 
 13 C       -5.0360    -3.5570     0.8950 C.3   1 <1>   0.1400 
 14 C       -6.6480    -2.8910    -0.7660 C.3   1 <1>   0.2000 
 15 C       -5.9470    -4.1280    -0.1990 C.3   1 <1>  -0.0800 
 16 O       -7.6910    -2.5530     0.0820 O.3   1 <1>  -0.6800 
 17 C       -5.1310    -4.8440    -1.2920 C.3   1 <1>   0.0210 
 18 C       -4.4210    -6.0660    -0.7460 C.2   1 <1>   0.1080 
 19 N       -5.0450    -7.1550    -0.4180 N.2   1 <1>  -0.7070 
 20 C       -3.0500    -6.1590    -0.5320 C.2   1 <1>  -0.1500 
 21 N       -4.0760    -7.9810     0.0190 N.pl3 1 <1>   0.3000 
 22 C       -2.8590    -7.4000    -0.0400 C.2   1 <1>  -0.3320 
 23 C       -1.5680    -8.0740     0.3880 C.3   1 <1>  -0.0600 
 24 H       -1.5310     0.6500    -2.6600 H     1 <1>   0.1500 
 25 H       -2.0050     2.8880    -1.7160 H     1 <1>   0.1500 
 26 H       -3.1980     3.0810     0.4110 H     1 <1>   0.1500 
 27 H       -4.2670     2.1530     2.2810 H     1 <1>   0.0800 
 28 H       -3.5970     0.6280     2.7970 H     1 <1>   0.0800 
 29 H       -5.1250     0.6690     1.9500 H     1 <1>   0.0800 
 30 H       -6.0350    -0.8190    -0.5340 H     1 <1>   0.0800 
 31 H       -5.0120    -1.7770    -1.5970 H     1 <1>   0.0800 
 32 H       -4.1400    -4.1360     1.0370 H     1 <1>   0.0800 
 33 H       -5.5640    -3.5030     1.8320 H     1 <1>   0.0800 
 34 H       -7.0490    -3.0300    -1.7560 H     1 <1>   0.0800 
 35 H       -6.6550    -4.8290     0.2100 H     1 <1>   0.0800 
 36 H       -7.3270    -2.3700     0.9710 H     1 <1>   0.4000 
 37 H       -4.4020    -4.1790    -1.7190 H     1 <1>   0.0800 
 38 H       -5.7890    -5.1660    -2.0790 H     1 <1>   0.0800 
 39 H       -2.3250    -5.3870    -0.7230 H     1 <1>   0.1500 
 40 H       -4.2780    -8.9320     0.3500 H     1 <1>   0.2700 
 41 H       -0.7390    -7.4030     0.2490 H     1 <1>   0.0800 
 42 H       -1.3960    -8.9570    -0.2010 H     1 <1>   0.0800 
 43 H       -1.6170    -8.3460     1.4270 H     1 <1>   0.0800 
@<TRIPOS>BOND
  1   1   2  1   
  2   2   3  ar  
  3   2   4  ar  
  4   3   5  ar  
  5   3   6  1   
  6   4   7  ar  
  7   4  24  1   
  8   5   8  ar  
  9   5   9  1   
 10   6  10  2   
 11   6  11  am  
 12   7   8  ar  
 13   7  25  1   
 14   8  26  1   
 15   9  27  1   
 16   9  28  1   
 17   9  29  1   
 18  11  12  1   
 19  11  13  1   
 20  12  14  1   
 21  12  30  1   
 22  12  31  1   
 23  13  15  1   
 24  13  32  1   
 25  13  33  1   
 26  14  15  1   
 27  14  16  1   
 28  14  34  1   
 29  15  17  1   
 30  15  35  1   
 31  16  36  1   
 32  17  18  1   
 33  17  37  1   
 34  17  38  1   
 35  18  19  2   
 36  18  20  1   
 37  19  21  1   
 38  20  22  2   
 39  20  39  1   
 40  21  22  1   
 41  21  40  1   
 42  22  23  1   
 43  23  41  1   
 44  23  42  1   
 45  23  43  1   
@<TRIPOS>SUBSTRUCTURE
  1 ****  11 GROUP 4 **** **** 0

# MOE 2024.06 (io_trps.svl 2023.06)
