@<TRIPOS>MOLECULE
NONAME
56 58 1 0 0 
SMALL
USER_CHARGES


@<TRIPOS>ATOM
  1 O        0.3710     0.7200    -0.3520 O.2   1 <1>  -0.5700 
  2 C        0.1880     1.9110    -0.2760 C.2   1 <1>   0.5690 
  3 N       -0.9720     2.4500     0.2090 N.am  1 <1>  -0.6600 
  4 C        1.3000     2.8350    -0.7710 C.3   1 <1>   0.1810 
  5 C       -1.1700     3.9330     0.3140 C.3   1 <1>   0.3640 
  6 C       -2.0690     1.6010     0.7610 C.3   1 <1>   0.0600 
  7 O        1.2410     4.1300    -0.2170 O.3   1 <1>  -0.5600 
  8 C       -2.5180     4.3040    -0.3270 C.ar  1 <1>  -0.1430 
  9 C       -0.0260     4.7550    -0.3500 C.3   1 <1>   0.2610 
 10 C       -3.5480     4.9300     0.3780 C.ar  1 <1>  -0.1430 
 11 C       -2.7180     3.9910    -1.6680 C.ar  1 <1>  -0.1500 
 12 C        0.0570     6.1900     0.1960 C.2   1 <1>   0.5690 
 13 C       -4.7260     5.2550    -0.2780 C.ar  1 <1>  -0.1500 
 14 C       -3.4510     5.2730     1.8600 C.3   1 <1>  -0.0960 
 15 C       -3.8980     4.3150    -2.3110 C.ar  1 <1>  -0.1500 
 16 O       -0.3940     6.4390     1.2910 O.2   1 <1>  -0.5700 
 17 N        0.7140     7.1790    -0.5050 N.am  1 <1>  -0.6600 
 18 C       -4.9030     4.9540    -1.6150 C.ar  1 <1>  -0.1500 
 19 C        0.8180     8.5470     0.0770 C.3   1 <1>   0.1400 
 20 C        1.8360     6.8940    -1.4410 C.3   1 <1>   0.1400 
 21 C        2.1270     8.6460     0.8810 C.3   1 <1>   0.3430 
 22 C        3.1640     6.9730    -0.6620 C.3   1 <1>   0.3430 
 23 N        3.3540     8.2980     0.0560 N.4   1 <1>  -0.9590 
 24 C        4.6000     8.3180     0.8740 C.3   1 <1>   0.4230 
 25 C        4.7790     9.6940     1.5200 C.3   1 <1>  -0.2400 
 26 C        5.8130     8.0270    -0.0120 C.3   1 <1>  -0.2400 
 27 H        1.2430     2.9150    -1.8410 H     1 <1>   0.0800 
 28 H        2.2510     2.4090    -0.5070 H     1 <1>   0.0800 
 29 H       -1.1810     4.1660     1.3610 H     1 <1>   0.0800 
 30 H       -2.3250     1.9320     1.7520 H     1 <1>   0.0800 
 31 H       -1.7650     0.5690     0.8120 H     1 <1>   0.0800 
 32 H       -2.9390     1.6700     0.1310 H     1 <1>   0.0800 
 33 H       -0.2290     4.8290    -1.4020 H     1 <1>   0.0800 
 34 H       -1.9560     3.4780    -2.2270 H     1 <1>   0.1500 
 35 H       -5.5240     5.7460     0.2510 H     1 <1>   0.1500 
 36 H       -4.4140     5.5460     2.2530 H     1 <1>   0.0800 
 37 H       -2.7870     6.1030     2.0100 H     1 <1>   0.0800 
 38 H       -3.1000     4.4290     2.4240 H     1 <1>   0.0800 
 39 H       -4.0360     4.0680    -3.3500 H     1 <1>   0.1500 
 40 H       -5.8230     5.2130    -2.1090 H     1 <1>   0.1500 
 41 H        0.8030     9.2820    -0.7090 H     1 <1>   0.0800 
 42 H       -0.0200     8.7470     0.7230 H     1 <1>   0.0800 
 43 H        1.7360     5.9210    -1.8870 H     1 <1>   0.0800 
 44 H        1.8320     7.6150    -2.2410 H     1 <1>   0.0800 
 45 H        2.0530     7.9730     1.7210 H     1 <1>   0.0800 
 46 H        2.2140     9.6470     1.2680 H     1 <1>   0.0800 
 47 H        3.9750     6.8090    -1.3510 H     1 <1>   0.0800 
 48 H        3.1770     6.1690     0.0570 H     1 <1>   0.0800 
 49 H        3.4590     9.0260    -0.6590 H     1 <1>   0.4500 
 50 H        4.5410     7.5690     1.6490 H     1 <1>   0.0800 
 51 H        4.7540    10.4770     0.7840 H     1 <1>   0.0800 
 52 H        5.7340     9.7380     2.0150 H     1 <1>   0.0800 
 53 H        4.0370     9.8770     2.2750 H     1 <1>   0.0800 
 54 H        5.8570     8.7020    -0.8480 H     1 <1>   0.0800 
 55 H        5.8140     7.0110    -0.3620 H     1 <1>   0.0800 
 56 H        6.7160     8.1530     0.5600 H     1 <1>   0.0800 
@<TRIPOS>BOND
  1   1   2  2   
  2   2   3  am  
  3   2   4  1   
  4   3   5  1   
  5   3   6  1   
  6   4   7  1   
  7   4  27  1   
  8   4  28  1   
  9   5   8  1   
 10   5   9  1   
 11   5  29  1   
 12   6  30  1   
 13   6  31  1   
 14   6  32  1   
 15   7   9  1   
 16   8  10  ar  
 17   8  11  ar  
 18   9  12  1   
 19   9  33  1   
 20  10  13  ar  
 21  10  14  1   
 22  11  15  ar  
 23  11  34  1   
 24  12  16  2   
 25  12  17  am  
 26  13  18  ar  
 27  13  35  1   
 28  14  36  1   
 29  14  37  1   
 30  14  38  1   
 31  15  18  ar  
 32  15  39  1   
 33  17  19  1   
 34  17  20  1   
 35  18  40  1   
 36  19  21  1   
 37  19  41  1   
 38  19  42  1   
 39  20  22  1   
 40  20  43  1   
 41  20  44  1   
 42  21  23  1   
 43  21  45  1   
 44  21  46  1   
 45  22  23  1   
 46  22  47  1   
 47  22  48  1   
 48  23  24  1   
 49  23  49  1   
 50  24  25  1   
 51  24  26  1   
 52  24  50  1   
 53  25  51  1   
 54  25  52  1   
 55  25  53  1   
 56  26  54  1   
 57  26  55  1   
 58  26  56  1   
@<TRIPOS>SUBSTRUCTURE
  1 ****   9 GROUP 4 **** **** 0

# MOE 2024.06 (io_trps.svl 2023.06)
