@<TRIPOS>MOLECULE
NONAME
49 51 1 0 0 
SMALL
USER_CHARGES


@<TRIPOS>ATOM
  1 O       -0.0020     1.2320     0.0850 O.co2 1 <1>  -0.9000 
  2 C        0.9150     1.4100     0.8990 C.2   1 <1>   0.9470 
  3 O        0.7180     2.0380     1.9490 O.co2 1 <1>  -0.9000 
  4 C        2.3550     1.0640     0.5090 C.3   1 <1>  -0.2420 
  5 C        3.2050    -0.1710     0.6970 C.3   1 <1>  -0.2420 
  6 C        3.2520     2.2690     0.7100 C.3   1 <1>   0.2350 
  7 C        2.5800     0.1170    -0.6430 C.3   1 <1>  -0.2000 
  8 C        2.8980    -1.4970     1.3980 C.2   1 <1>   0.9470 
  9 C        4.6290     0.2770     0.9850 C.3   1 <1>   0.2350 
 10 N        4.6450     1.7390     0.6980 N.am  1 <1>  -0.6600 
 11 O        2.6100    -2.4920     0.7190 O.co2 1 <1>  -0.9000 
 12 O        3.0970    -1.5900     2.6170 O.co2 1 <1>  -0.9000 
 13 C        5.7700     2.4340     0.3770 C.2   1 <1>   0.5690 
 14 O        6.8550     1.9040     0.3030 O.2   1 <1>  -0.5700 
 15 C        5.6570     3.9280     0.0950 C.3   1 <1>  -0.0990 
 16 C        6.9950     4.6910     0.1280 C.3   1 <1>  -0.1600 
 17 C        6.7950     6.1880    -0.1320 C.3   1 <1>  -0.0160 
 18 C        8.1200     6.9290    -0.0680 C.ar  1 <1>  -0.1440 
 19 C        8.5690     7.4600     1.1290 C.ar  1 <1>  -0.1500 
 20 C        8.8950     7.0810    -1.2060 C.ar  1 <1>  -0.1500 
 21 C        9.7740     8.1380     1.1870 C.ar  1 <1>  -0.1500 
 22 C       10.1000     7.7590    -1.1470 C.ar  1 <1>  -0.1500 
 23 C       10.5530     8.2970     0.0500 C.ar  1 <1>  -0.1440 
 24 C       11.8790     9.0500     0.1330 C.3   1 <1>   0.0630 
 25 C       11.8560    10.2960    -0.7580 C.3   1 <1>  -0.2400 
 26 C       13.0510     8.1370    -0.2390 C.3   1 <1>  -0.2400 
 27 H        3.0560     2.7220     1.6670 H     1 <1>   0.0800 
 28 H        3.0900     2.9850    -0.0750 H     1 <1>   0.0800 
 29 H        3.2030     0.4150    -1.4650 H     1 <1>   0.1000 
 30 H        1.7570    -0.5070    -0.9530 H     1 <1>   0.1000 
 31 H        5.3320    -0.2510     0.3660 H     1 <1>   0.0800 
 32 H        4.8680     0.1170     2.0230 H     1 <1>   0.0800 
 33 H        5.2030     4.0440    -0.8720 H     1 <1>   0.0800 
 34 H        5.0010     4.3590     0.8290 H     1 <1>   0.0800 
 35 H        7.4580     4.5520     1.0900 H     1 <1>   0.0800 
 36 H        7.6580     4.2830    -0.6160 H     1 <1>   0.0800 
 37 H        6.1220     6.5990     0.6000 H     1 <1>   0.0800 
 38 H        6.3510     6.3330    -1.1020 H     1 <1>   0.0800 
 39 H        7.9820     7.3460     2.0230 H     1 <1>   0.1500 
 40 H        8.5650     6.6690    -2.1430 H     1 <1>   0.1500 
 41 H       10.1020     8.5420     2.1280 H     1 <1>   0.1500 
 42 H       10.6850     7.8660    -2.0420 H     1 <1>   0.1500 
 43 H       12.0270     9.3760     1.1480 H     1 <1>   0.0800 
 44 H       11.7590    10.0250    -1.7940 H     1 <1>   0.0800 
 45 H       12.7630    10.8600    -0.6340 H     1 <1>   0.0800 
 46 H       11.0230    10.9210    -0.4890 H     1 <1>   0.0800 
 47 H       12.9780     7.8170    -1.2620 H     1 <1>   0.0800 
 48 H       13.0480     7.2660     0.3920 H     1 <1>   0.0800 
 49 H       13.9840     8.6540    -0.1050 H     1 <1>   0.0800 
@<TRIPOS>BOND
  1   1   2  ar  
  2   2   3  ar  
  3   2   4  1   
  4   4   5  1   
  5   4   6  1   
  6   4   7  1   
  7   5   7  1   
  8   5   8  1   
  9   5   9  1   
 10   6  10  1   
 11   6  27  1   
 12   6  28  1   
 13   7  29  1   
 14   7  30  1   
 15   8  11  ar  
 16   8  12  ar  
 17   9  10  1   
 18   9  31  1   
 19   9  32  1   
 20  10  13  am  
 21  13  14  2   
 22  13  15  1   
 23  15  16  1   
 24  15  33  1   
 25  15  34  1   
 26  16  17  1   
 27  16  35  1   
 28  16  36  1   
 29  17  18  1   
 30  17  37  1   
 31  17  38  1   
 32  18  19  ar  
 33  18  20  ar  
 34  19  21  ar  
 35  19  39  1   
 36  20  22  ar  
 37  20  40  1   
 38  21  23  ar  
 39  21  41  1   
 40  22  23  ar  
 41  22  42  1   
 42  23  24  1   
 43  24  25  1   
 44  24  26  1   
 45  24  43  1   
 46  25  44  1   
 47  25  45  1   
 48  25  46  1   
 49  26  47  1   
 50  26  48  1   
 51  26  49  1   
@<TRIPOS>SUBSTRUCTURE
  1 ****  15 GROUP 4 **** **** 0

# MOE 2024.06 (io_trps.svl 2023.06)
