@<TRIPOS>MOLECULE
NONAME
37 38 1 0 0 
SMALL
USER_CHARGES


@<TRIPOS>ATOM
  1 O        3.8880    -1.4560     1.4060 O.2   1 <1>  -0.5700 
  2 C        2.8120    -1.2460     0.8930 C.2   1 <1>   0.5690 
  3 N        2.3930     0.0130     0.5630 N.am  1 <1>  -0.4930 
  4 C        1.9100    -2.4520     0.6090 C.3   1 <1>   0.2370 
  5 C        3.0480     1.2540     0.7570 C.2   1 <1>   0.0630 
  6 N        0.7490    -2.0540    -0.2320 N.pl3 1 <1>   0.0480 
  7 C        1.4370    -3.1500     1.8970 C.3   1 <1>  -0.2400 
  8 C        4.2560     1.5290     1.4000 C.2   1 <1>   0.1390 
  9 C        2.6050     2.4580     0.3410 C.2   1 <1>  -0.3020 
 10 C       -0.3930    -1.4250     0.1700 C.2   1 <1>  -0.3020 
 11 C        0.6910    -2.1410    -1.5890 C.2   1 <1>  -0.3020 
 12 N        4.5450     2.7970     1.3880 N.2   1 <1>  -0.7070 
 13 N        3.5190     3.3760     0.7300 N.pl3 1 <1>   0.3140 
 14 C       -1.1590    -1.1300    -0.9110 C.2   1 <1>  -0.1500 
 15 C       -0.4670    -1.5870    -2.0350 C.2   1 <1>  -0.1500 
 16 C        3.4620     4.8290     0.5070 C.3   1 <1>   0.1570 
 17 C        4.4050     5.2340    -0.6040 C.2   1 <1>   0.5690 
 18 O        4.0240     6.0520    -1.4060 O.2   1 <1>  -0.5700 
 19 N        5.6510     4.6890    -0.6630 N.am  1 <1>  -0.7300 
 20 C        6.6890     4.9830    -1.6800 C.3   1 <1>   0.0600 
 21 H        1.4870     0.0680     0.0860 H     1 <1>   0.3700 
 22 H        2.4920    -3.1560     0.0420 H     1 <1>   0.0800 
 23 H        0.9120    -2.4630     2.5340 H     1 <1>   0.0800 
 24 H        2.2890    -3.5230     2.4380 H     1 <1>   0.0800 
 25 H        0.7970    -3.9810     1.6570 H     1 <1>   0.0800 
 26 H        4.8800     0.7790     1.8570 H     1 <1>   0.1500 
 27 H        1.7120     2.7090    -0.2000 H     1 <1>   0.1500 
 28 H       -0.6110    -1.2190     1.2040 H     1 <1>   0.1500 
 29 H        1.4740    -2.5910    -2.1750 H     1 <1>   0.1500 
 30 H       -2.1190    -0.6420    -0.9320 H     1 <1>   0.1500 
 31 H       -0.8110    -1.5030    -3.0520 H     1 <1>   0.1500 
 32 H        3.7460     5.3280     1.4130 H     1 <1>   0.0800 
 33 H        2.4590     5.1080     0.2490 H     1 <1>   0.0800 
 34 H        5.8660     3.9390     0.0150 H     1 <1>   0.3700 
 35 H        6.3480     5.7550    -2.3500 H     1 <1>   0.0800 
 36 H        6.8990     4.0950    -2.2510 H     1 <1>   0.0800 
 37 H        7.5890     5.3150    -1.1950 H     1 <1>   0.0800 
@<TRIPOS>BOND
  1   1   2  2   
  2   2   3  am  
  3   2   4  1   
  4   3   5  1   
  5   3  21  1   
  6   4   6  1   
  7   4   7  1   
  8   4  22  1   
  9   5   8  1   
 10   5   9  2   
 11   6  10  1   
 12   6  11  1   
 13   7  23  1   
 14   7  24  1   
 15   7  25  1   
 16   8  12  2   
 17   8  26  1   
 18   9  13  1   
 19   9  27  1   
 20  10  14  2   
 21  10  28  1   
 22  11  15  2   
 23  11  29  1   
 24  12  13  1   
 25  13  16  1   
 26  14  15  1   
 27  14  30  1   
 28  15  31  1   
 29  16  17  1   
 30  16  32  1   
 31  16  33  1   
 32  17  18  2   
 33  17  19  am  
 34  19  20  1   
 35  19  34  1   
 36  20  35  1   
 37  20  36  1   
 38  20  37  1   
@<TRIPOS>SUBSTRUCTURE
  1 ****   5 GROUP 4 **** **** 0

# MOE 2024.06 (io_trps.svl 2023.06)
