@<TRIPOS>MOLECULE
NONAME
51 53 1 0 0 
SMALL
USER_CHARGES


@<TRIPOS>ATOM
  1 O        1.2960     0.5640    -0.8810 O.3   1 <1>  -0.6800 
  2 C        1.4450     0.1450     0.4270 C.3   1 <1>   0.2800 
  3 C        2.9590     0.0570     0.7500 C.3   1 <1>  -0.0800 
  4 C        0.8070    -1.2510     0.5460 C.3   1 <1>  -0.1600 
  5 C        0.6830     1.1480     1.3210 C.3   1 <1>  -0.1600 
  6 C        3.6580    -1.2570     0.3360 C.3   1 <1>  -0.0800 
  7 C        3.7890     1.1460     0.0840 C.3   1 <1>   0.3430 
  8 C        1.4450    -2.3300    -0.3540 C.3   1 <1>  -0.1600 
  9 C        1.1480     2.6140     1.2620 C.3   1 <1>  -0.2400 
 10 C        2.8960    -2.0250    -0.7580 C.3   1 <1>  -0.1600 
 11 C        5.0500    -0.8550    -0.1620 C.3   1 <1>   0.3430 
 12 N        5.1710     0.6060     0.0660 N.4   1 <1>  -0.9590 
 13 C        6.0360     1.3090    -0.9150 C.3   1 <1>   0.4860 
 14 C        6.1710     2.7490    -0.4670 C.ar  1 <1>  -0.1440 
 15 C        5.3910     3.7370    -1.0470 C.ar  1 <1>  -0.1500 
 16 C        7.0630     3.0890     0.5370 C.ar  1 <1>  -0.1500 
 17 C        5.4830     5.0540    -0.6250 C.ar  1 <1>  -0.1440 
 18 C        7.1600     4.4010     0.9600 C.ar  1 <1>  -0.1500 
 19 C        6.3740     5.3890     0.3890 C.ar  1 <1>  -0.1440 
 20 C        4.6060     6.1080    -1.2870 C.3   1 <1>  -0.0970 
 21 C        6.5120     6.8220     0.8850 C.3   1 <1>  -0.0970 
 22 H        0.3480     0.5440    -1.1180 H     1 <1>   0.4000 
 23 H        3.0760     0.1590     1.8140 H     1 <1>   0.0800 
 24 H        0.9130    -1.5710     1.5690 H     1 <1>   0.0800 
 25 H       -0.2500    -1.2000     0.3510 H     1 <1>   0.0800 
 26 H       -0.3610     1.1170     1.0570 H     1 <1>   0.0800 
 27 H        0.7450     0.8180     2.3440 H     1 <1>   0.0800 
 28 H        3.7560    -1.8990     1.1950 H     1 <1>   0.0800 
 29 H        3.7350     2.0820     0.6140 H     1 <1>   0.0800 
 30 H        3.4460     1.2940    -0.9270 H     1 <1>   0.0800 
 31 H        1.4040    -3.2750     0.1620 H     1 <1>   0.0800 
 32 H        0.8590    -2.4340    -1.2520 H     1 <1>   0.0800 
 33 H        1.1810     2.9690     0.2470 H     1 <1>   0.0800 
 34 H        2.1140     2.7350     1.7150 H     1 <1>   0.0800 
 35 H        0.4550     3.2310     1.8070 H     1 <1>   0.0800 
 36 H        2.8780    -1.4320    -1.6580 H     1 <1>   0.0800 
 37 H        3.3990    -2.9480    -0.9920 H     1 <1>   0.0800 
 38 H        5.1240    -1.0690    -1.2170 H     1 <1>   0.0800 
 39 H        5.8220    -1.3960     0.3610 H     1 <1>   0.0800 
 40 H        5.5660     0.7780     0.9980 H     1 <1>   0.4500 
 41 H        7.0110     0.8510    -0.9510 H     1 <1>   0.0800 
 42 H        5.5980     1.2670    -1.8990 H     1 <1>   0.0800 
 43 H        4.7030     3.4880    -1.8360 H     1 <1>   0.1500 
 44 H        7.6920     2.3480     0.9990 H     1 <1>   0.1500 
 45 H        7.8570     4.6530     1.7410 H     1 <1>   0.1500 
 46 H        3.9840     5.6760    -2.0500 H     1 <1>   0.0800 
 47 H        5.2200     6.8640    -1.7440 H     1 <1>   0.0800 
 48 H        3.9680     6.5710    -0.5560 H     1 <1>   0.0800 
 49 H        7.2420     6.8910     1.6720 H     1 <1>   0.0800 
 50 H        5.5710     7.1730     1.2690 H     1 <1>   0.0800 
 51 H        6.8240     7.4620     0.0810 H     1 <1>   0.0800 
@<TRIPOS>BOND
  1   1   2  1   
  2   1  22  1   
  3   2   3  1   
  4   2   4  1   
  5   2   5  1   
  6   3   6  1   
  7   3   7  1   
  8   3  23  1   
  9   4   8  1   
 10   4  24  1   
 11   4  25  1   
 12   5   9  1   
 13   5  26  1   
 14   5  27  1   
 15   6  10  1   
 16   6  11  1   
 17   6  28  1   
 18   7  12  1   
 19   7  29  1   
 20   7  30  1   
 21   8  10  1   
 22   8  31  1   
 23   8  32  1   
 24   9  33  1   
 25   9  34  1   
 26   9  35  1   
 27  10  36  1   
 28  10  37  1   
 29  11  12  1   
 30  11  38  1   
 31  11  39  1   
 32  12  13  1   
 33  12  40  1   
 34  13  14  1   
 35  13  41  1   
 36  13  42  1   
 37  14  15  ar  
 38  14  16  ar  
 39  15  17  ar  
 40  15  43  1   
 41  16  18  ar  
 42  16  44  1   
 43  17  19  ar  
 44  17  20  1   
 45  18  19  ar  
 46  18  45  1   
 47  19  21  1   
 48  20  46  1   
 49  20  47  1   
 50  20  48  1   
 51  21  49  1   
 52  21  50  1   
 53  21  51  1   
@<TRIPOS>SUBSTRUCTURE
  1 ****   7 GROUP 4 **** **** 0

# MOE 2024.06 (io_trps.svl 2023.06)
