@<TRIPOS>MOLECULE
NONAME
53 55 1 0 0 
SMALL
USER_CHARGES


@<TRIPOS>ATOM
  1 O       -0.8200     0.7150    -2.1760 O.co2 1 <1>  -0.9000 
  2 C       -1.2990     0.8070    -1.0410 C.2   1 <1>   0.9060 
  3 O       -2.0270    -0.0570    -0.5460 O.co2 1 <1>  -0.9000 
  4 C       -1.0050     2.0510    -0.2290 C.3   1 <1>  -0.1060 
  5 C       -2.3440     2.5660     0.3360 C.3   1 <1>   0.2000 
  6 C       -0.5390     3.0930    -1.2500 C.3   1 <1>   0.3430 
  7 C        0.0390     1.6820     0.8770 C.3   1 <1>  -0.0170 
  8 O       -2.7450     1.7450     1.3660 O.3   1 <1>  -0.6800 
  9 C       -2.3030     4.0180     0.8410 C.3   1 <1>  -0.1600 
 10 N       -0.4300     4.4920    -0.7160 N.4   1 <1>  -0.9590 
 11 C        1.4910     2.0590     0.5860 C.ar  1 <1>  -0.1430 
 12 C       -0.9280     4.6640     0.6810 C.3   1 <1>   0.3430 
 13 C        0.9630     4.9550    -0.8530 C.3   1 <1>   0.5230 
 14 C        2.1930     2.8570     1.4790 C.ar  1 <1>  -0.1500 
 15 C        2.1330     1.5940    -0.5520 C.ar  1 <1>  -0.1500 
 16 C        0.9890     6.4660    -0.7340 C.2   1 <1>  -0.3320 
 17 C        3.5050     3.2150     1.2200 C.ar  1 <1>  -0.1500 
 18 C        3.4410     1.9580    -0.8170 C.ar  1 <1>  -0.1500 
 19 N        2.1480     7.1430    -0.4910 N.pl3 1 <1>   0.0480 
 20 C       -0.0260     7.3660    -0.8440 C.2   1 <1>  -0.1500 
 21 C        4.1280     2.7720     0.0670 C.ar  1 <1>  -0.1500 
 22 C        1.8430     8.4570    -0.4430 C.2   1 <1>  -0.3020 
 23 C        3.5000     6.5770    -0.3090 C.3   1 <1>   0.0160 
 24 C        0.5010     8.6550    -0.6540 C.2   1 <1>  -0.0860 
 25 C       -0.2750     9.8660    -0.6900 C.2   1 <1>   0.5950 
 26 O       -1.4690     9.8730    -0.8570 O.2   1 <1>  -0.5700 
 27 C        0.4240    11.1940    -0.5070 C.3   1 <1>  -0.1790 
 28 H       -3.1030     2.4870    -0.4280 H     1 <1>   0.0800 
 29 H       -1.2530     3.0880    -2.0590 H     1 <1>   0.0800 
 30 H        0.3950     2.7740    -1.6800 H     1 <1>   0.0800 
 31 H       -0.2470     2.1340     1.8090 H     1 <1>   0.0800 
 32 H        0.0020     0.6200     1.0580 H     1 <1>   0.0800 
 33 H       -2.7330     0.8170     0.9970 H     1 <1>   0.4000 
 34 H       -3.0200     4.5980     0.2890 H     1 <1>   0.0800 
 35 H       -2.5880     4.0620     1.8780 H     1 <1>   0.0800 
 36 H       -0.9770     5.1050    -1.3280 H     1 <1>   0.4500 
 37 H       -0.2400     4.1980     1.3660 H     1 <1>   0.0800 
 38 H       -0.9830     5.7120     0.9310 H     1 <1>   0.0800 
 39 H        1.5750     4.5140    -0.0870 H     1 <1>   0.0800 
 40 H        1.3600     4.6650    -1.8120 H     1 <1>   0.0800 
 41 H        1.7270     3.1970     2.3880 H     1 <1>   0.1500 
 42 H        1.6160     0.9380    -1.2380 H     1 <1>   0.1500 
 43 H        4.0450     3.8260     1.9230 H     1 <1>   0.1500 
 44 H        3.9260     1.5920    -1.7060 H     1 <1>   0.1500 
 45 H       -1.0730     7.2040    -1.0430 H     1 <1>   0.1500 
 46 H        5.1510     3.0410    -0.1350 H     1 <1>   0.1500 
 47 H        2.5890     9.2110    -0.2600 H     1 <1>   0.1500 
 48 H        4.2250     7.3720    -0.3030 H     1 <1>   0.0800 
 49 H        3.7240     5.9040    -1.1160 H     1 <1>   0.0800 
 50 H        3.5440     6.0520     0.6270 H     1 <1>   0.0800 
 51 H        1.1780    11.3130    -1.2630 H     1 <1>   0.0800 
 52 H        0.8790    11.2330     0.4640 H     1 <1>   0.0800 
 53 H       -0.2860    11.9960    -0.5930 H     1 <1>   0.0800 
@<TRIPOS>BOND
  1   1   2  ar  
  2   2   3  ar  
  3   2   4  1   
  4   4   5  1   
  5   4   6  1   
  6   4   7  1   
  7   5   8  1   
  8   5   9  1   
  9   5  28  1   
 10   6  10  1   
 11   6  29  1   
 12   6  30  1   
 13   7  11  1   
 14   7  31  1   
 15   7  32  1   
 16   8  33  1   
 17   9  12  1   
 18   9  34  1   
 19   9  35  1   
 20  10  12  1   
 21  10  13  1   
 22  10  36  1   
 23  11  14  ar  
 24  11  15  ar  
 25  12  37  1   
 26  12  38  1   
 27  13  16  1   
 28  13  39  1   
 29  13  40  1   
 30  14  17  ar  
 31  14  41  1   
 32  15  18  ar  
 33  15  42  1   
 34  16  19  1   
 35  16  20  2   
 36  17  21  ar  
 37  17  43  1   
 38  18  21  ar  
 39  18  44  1   
 40  19  22  1   
 41  19  23  1   
 42  20  24  1   
 43  20  45  1   
 44  21  46  1   
 45  22  24  2   
 46  22  47  1   
 47  23  48  1   
 48  23  49  1   
 49  23  50  1   
 50  24  25  1   
 51  25  26  2   
 52  25  27  1   
 53  27  51  1   
 54  27  52  1   
 55  27  53  1   
@<TRIPOS>SUBSTRUCTURE
  1 ****  13 GROUP 4 **** **** 0

# MOE 2024.06 (io_trps.svl 2023.06)
