@<TRIPOS>MOLECULE
NONAME
60 62 1 0 0 
SMALL
USER_CHARGES


@<TRIPOS>ATOM
  1 O       -0.8720     0.6890    -1.4040 O.2   1 <1>  -0.5700 
  2 C       -1.8400     1.3440    -1.0990 C.2   1 <1>   0.5690 
  3 N       -3.0910     0.7800    -1.0990 N.am  1 <1>  -0.6600 
  4 C       -1.6360     2.7870    -0.6800 C.3   1 <1>  -0.0990 
  5 C       -3.2990    -0.5930    -1.6350 C.3   1 <1>   0.1400 
  6 C       -4.2770     1.3350    -0.3870 C.3   1 <1>   0.1400 
  7 C       -0.3040     3.3580    -1.1850 C.3   1 <1>   0.0960 
  8 C       -3.6290    -1.5530    -0.4710 C.3   1 <1>   0.4230 
  9 C       -4.6120     0.4020     0.7840 C.3   1 <1>  -0.1600 
 10 N       -0.1210     4.7350    -0.6840 N.pl3 1 <1>   0.3140 
 11 N       -3.6860    -3.0200    -0.8770 N.4   1 <1>  -0.9590 
 12 C       -4.8620    -1.0750     0.3540 C.3   1 <1>   0.0000 
 13 N       -0.9290     5.7140    -1.1120 N.2   1 <1>  -0.7070 
 14 C        0.7770     5.1960     0.2100 C.2   1 <1>  -0.3320 
 15 C       -4.3940    -3.9010     0.1090 C.3   1 <1>   0.3430 
 16 C       -4.1980    -3.2910    -2.2610 C.3   1 <1>   0.2630 
 17 C       -4.9910    -1.9510     1.6350 C.3   1 <1>  -0.1600 
 18 C       -6.1550    -1.1740    -0.5060 C.3   1 <1>   0.1200 
 19 C       -0.5350     6.7740    -0.4920 C.2   1 <1>   0.1080 
 20 C        0.5360     6.5350     0.3830 C.2   1 <1>  -0.0860 
 21 C        1.8490     4.3070     0.8330 C.3   1 <1>  -0.0600 
 22 C       -4.3060    -3.3270     1.5210 C.3   1 <1>  -0.1600 
 23 O       -7.2320    -0.5660     0.1170 O.3   1 <1>  -0.6800 
 24 C       -1.2100     8.1100    -0.7240 C.3   1 <1>  -0.0590 
 25 C        1.1450     7.5350     1.2250 C.2   1 <1>   0.5950 
 26 O        1.1910     8.7080     0.9500 O.2   1 <1>  -0.5700 
 27 C        1.7430     7.1400     2.5570 C.3   1 <1>  -0.1790 
 28 H       -2.4320     3.3860    -1.0840 H     1 <1>   0.0800 
 29 H       -1.6630     2.8380     0.3920 H     1 <1>   0.0800 
 30 H       -4.0970    -0.5590    -2.3540 H     1 <1>   0.0800 
 31 H       -2.4110    -0.9330    -2.1390 H     1 <1>   0.0800 
 32 H       -4.0820     2.3230    -0.0080 H     1 <1>   0.0800 
 33 H       -5.1100     1.4060    -1.0670 H     1 <1>   0.0800 
 34 H       -0.3000     3.3870    -2.2590 H     1 <1>   0.0800 
 35 H        0.5130     2.7460    -0.8570 H     1 <1>   0.0800 
 36 H       -2.7910    -1.4630     0.2020 H     1 <1>   0.0800 
 37 H       -3.7870     0.4480     1.4750 H     1 <1>   0.0800 
 38 H       -5.4680     0.7960     1.3050 H     1 <1>   0.0800 
 39 H       -2.7000    -3.3260    -0.8660 H     1 <1>   0.4500 
 40 H       -5.4350    -3.9860    -0.1600 H     1 <1>   0.0800 
 41 H       -3.9660    -4.8910     0.0900 H     1 <1>   0.0800 
 42 H       -5.2180    -2.9580    -2.3600 H     1 <1>   0.0800 
 43 H       -4.1610    -4.3480    -2.4720 H     1 <1>   0.0800 
 44 H       -3.5940    -2.7820    -2.9950 H     1 <1>   0.0800 
 45 H       -4.5590    -1.4480     2.4840 H     1 <1>   0.0800 
 46 H       -6.0300    -2.0980     1.8780 H     1 <1>   0.0800 
 47 H       -6.4290    -2.1960    -0.6940 H     1 <1>   0.0800 
 48 H       -6.0360    -0.6760    -1.4510 H     1 <1>   0.0800 
 49 H        2.5850     4.8840     1.3580 H     1 <1>   0.0800 
 50 H        2.3650     3.7560     0.0670 H     1 <1>   0.0800 
 51 H        1.4010     3.6100     1.5190 H     1 <1>   0.0800 
 52 H       -4.7710    -4.0100     2.2110 H     1 <1>   0.0800 
 53 H       -3.2700    -3.2510     1.8070 H     1 <1>   0.0800 
 54 H       -7.4880    -1.0190     0.9450 H     1 <1>   0.4000 
 55 H       -1.5230     8.5330     0.2130 H     1 <1>   0.0800 
 56 H       -2.0710     7.9840    -1.3550 H     1 <1>   0.0800 
 57 H       -0.5240     8.7830    -1.2030 H     1 <1>   0.0800 
 58 H        1.2810     6.2430     2.9240 H     1 <1>   0.0800 
 59 H        1.5760     7.9270     3.2690 H     1 <1>   0.0800 
 60 H        2.8000     6.9920     2.4470 H     1 <1>   0.0800 
@<TRIPOS>BOND
  1   1   2  2   
  2   2   3  am  
  3   2   4  1   
  4   3   5  1   
  5   3   6  1   
  6   4   7  1   
  7   4  28  1   
  8   4  29  1   
  9   5   8  1   
 10   5  30  1   
 11   5  31  1   
 12   6   9  1   
 13   6  32  1   
 14   6  33  1   
 15   7  10  1   
 16   7  34  1   
 17   7  35  1   
 18   8  11  1   
 19   8  12  1   
 20   8  36  1   
 21   9  12  1   
 22   9  37  1   
 23   9  38  1   
 24  10  13  1   
 25  10  14  1   
 26  11  15  1   
 27  11  16  1   
 28  11  39  1   
 29  12  17  1   
 30  12  18  1   
 31  13  19  2   
 32  14  20  2   
 33  14  21  1   
 34  15  22  1   
 35  15  40  1   
 36  15  41  1   
 37  16  42  1   
 38  16  43  1   
 39  16  44  1   
 40  17  22  1   
 41  17  45  1   
 42  17  46  1   
 43  18  23  1   
 44  18  47  1   
 45  18  48  1   
 46  19  20  1   
 47  19  24  1   
 48  20  25  1   
 49  21  49  1   
 50  21  50  1   
 51  21  51  1   
 52  22  52  1   
 53  22  53  1   
 54  23  54  1   
 55  24  55  1   
 56  24  56  1   
 57  24  57  1   
 58  25  26  2   
 59  25  27  1   
 60  27  58  1   
 61  27  59  1   
 62  27  60  1   
@<TRIPOS>SUBSTRUCTURE
  1 ****   4 GROUP 4 **** **** 0

# MOE 2024.06 (io_trps.svl 2023.06)
