@<TRIPOS>MOLECULE
NONAME
51 54 1 0 0 
SMALL
USER_CHARGES


@<TRIPOS>ATOM
  1 O        3.7030    -0.8010     1.6210 O.2   1 <1>  -0.5700 
  2 C        2.7250    -1.0800     0.9460 C.2   1 <1>   0.7160 
  3 N        2.1280    -0.0300     0.2860 N.am  1 <1>  -0.6600 
  4 C        2.3630    -2.4360     0.7040 C.2   1 <1>  -0.0860 
  5 C        2.2960     0.0550    -1.1950 C.3   1 <1>   0.1400 
  6 C        1.8310     1.2530     0.9820 C.3   1 <1>   0.1400 
  7 C        1.2740    -3.0020     0.0850 C.2   1 <1>  -0.0680 
  8 C        3.1490    -3.5510     1.0330 C.2   1 <1>   0.1390 
  9 C        3.7760     0.2900    -1.5760 C.3   1 <1>   0.3430 
 10 C        3.0580     2.1740     1.1040 C.3   1 <1>  -0.1600 
 11 N        1.4880    -4.3290     0.0500 N.pl3 1 <1>   0.6010 
 12 N        0.0520    -2.7170    -0.5020 N.pl3 1 <1>  -0.5530 
 13 N        2.6540    -4.6830     0.6380 N.2   1 <1>  -0.7070 
 14 N        4.5270     1.0480    -0.5200 N.4   1 <1>  -0.9590 
 15 C        3.8910     2.3510    -0.1680 C.3   1 <1>   0.3430 
 16 C        0.4090    -4.9170    -0.5770 C.2   1 <1>  -0.1810 
 17 C       -0.4620    -3.9410    -0.9050 C.2   1 <1>  -0.0500 
 18 C       -0.7570    -1.4870    -0.3470 C.3   1 <1>   0.1290 
 19 C        5.9860     1.1370    -0.8050 C.3   1 <1>   0.5240 
 20 C        6.6820     1.8090     0.3540 C.2   1 <1>  -0.1810 
 21 C        6.9480     1.3500     1.5880 C.2   1 <1>  -0.0400 
 22 C        7.2010     3.1050     0.3720 C.2   1 <1>   0.1080 
 23 O        7.5330     2.3080     2.2510 O.3   1 <1>  -0.0190 
 24 C        6.7080     0.0250     2.2850 C.3   1 <1>  -0.0600 
 25 N        7.6890     3.3750     1.5260 N.2   1 <1>  -0.4100 
 26 C        7.2250     4.0930    -0.7770 C.3   1 <1>  -0.0590 
 27 H        1.6920     0.8570    -1.5820 H     1 <1>   0.0800 
 28 H        1.9500    -0.8560    -1.6570 H     1 <1>   0.0800 
 29 H        1.4590     1.0360     1.9710 H     1 <1>   0.0800 
 30 H        1.0440     1.7640     0.4520 H     1 <1>   0.0800 
 31 H        4.0870    -3.4790     1.5600 H     1 <1>   0.1500 
 32 H        3.8220     0.8100    -2.5190 H     1 <1>   0.0800 
 33 H        4.2400    -0.6740    -1.7130 H     1 <1>   0.0800 
 34 H        3.6930     1.8260     1.8990 H     1 <1>   0.0800 
 35 H        2.7070     3.1440     1.4090 H     1 <1>   0.0800 
 36 H        4.4370     0.4860     0.3530 H     1 <1>   0.4500 
 37 H        4.6460     3.0940     0.0270 H     1 <1>   0.0800 
 38 H        3.2730     2.7040    -0.9770 H     1 <1>   0.0800 
 39 H        0.3770    -5.9790    -0.7140 H     1 <1>   0.1500 
 40 H       -1.4220    -4.0270    -1.3900 H     1 <1>   0.1500 
 41 H       -0.4600    -0.9670     0.5460 H     1 <1>   0.0800 
 42 H       -1.7980    -1.7470    -0.2660 H     1 <1>   0.0800 
 43 H       -0.6180    -0.8510    -1.2010 H     1 <1>   0.0800 
 44 H        6.1580     1.6980    -1.7080 H     1 <1>   0.0800 
 45 H        6.3940     0.1470    -0.9330 H     1 <1>   0.0800 
 46 H        6.3390    -0.7120     1.5970 H     1 <1>   0.0800 
 47 H        5.9950     0.1520     3.0790 H     1 <1>   0.0800 
 48 H        7.6300    -0.3330     2.7070 H     1 <1>   0.0800 
 49 H        6.2280     4.3280    -1.0980 H     1 <1>   0.0800 
 50 H        7.7840     3.6890    -1.6010 H     1 <1>   0.0800 
 51 H        7.7030     5.0040    -0.4610 H     1 <1>   0.0800 
@<TRIPOS>BOND
  1   1   2  2   
  2   2   3  am  
  3   2   4  1   
  4   3   5  1   
  5   3   6  1   
  6   4   7  2   
  7   4   8  1   
  8   5   9  1   
  9   5  27  1   
 10   5  28  1   
 11   6  10  1   
 12   6  29  1   
 13   6  30  1   
 14   7  11  1   
 15   7  12  1   
 16   8  13  2   
 17   8  31  1   
 18   9  14  1   
 19   9  32  1   
 20   9  33  1   
 21  10  15  1   
 22  10  34  1   
 23  10  35  1   
 24  11  13  1   
 25  11  16  1   
 26  12  17  1   
 27  12  18  1   
 28  14  15  1   
 29  14  19  1   
 30  14  36  1   
 31  15  37  1   
 32  15  38  1   
 33  16  17  2   
 34  16  39  1   
 35  17  40  1   
 36  18  41  1   
 37  18  42  1   
 38  18  43  1   
 39  19  20  1   
 40  19  44  1   
 41  19  45  1   
 42  20  21  2   
 43  20  22  1   
 44  21  23  1   
 45  21  24  1   
 46  22  25  2   
 47  22  26  1   
 48  23  25  1   
 49  24  46  1   
 50  24  47  1   
 51  24  48  1   
 52  26  49  1   
 53  26  50  1   
 54  26  51  1   
@<TRIPOS>SUBSTRUCTURE
  1 ****   2 GROUP 4 **** **** 0

# MOE 2024.06 (io_trps.svl 2023.06)
