@<TRIPOS>MOLECULE
NONAME
56 59 1 0 0 
SMALL
USER_CHARGES


@<TRIPOS>ATOM
  1 O        0.8930    -0.4530    -0.9440 O.3   1 <1>  -0.5600 
  2 C        1.9260    -1.0510    -0.1950 C.3   1 <1>   0.4240 
  3 C       -0.4200    -0.7510    -0.5840 C.3   1 <1>   0.1200 
  4 C        1.5880    -2.5080     0.1870 C.ar  1 <1>  -0.1440 
  5 C        3.1590    -1.0130    -1.1080 C.3   1 <1>  -0.1600 
  6 C        2.1700    -0.1880     1.0540 C.3   1 <1>  -0.1600 
  7 C       -0.6790    -2.2310    -0.8470 C.3   1 <1>  -0.0160 
  8 C        0.3570    -3.0690    -0.1240 C.ar  1 <1>  -0.1440 
  9 C        2.5150    -3.2930     0.8600 C.ar  1 <1>  -0.1500 
 10 C        3.5610     0.4220    -1.4460 C.3   1 <1>   0.2090 
 11 C        2.5920     1.2350     0.6890 C.3   1 <1>   0.2090 
 12 C        0.0690    -4.3790     0.2250 C.ar  1 <1>  -0.1500 
 13 C        2.2500    -4.6050     1.2110 C.ar  1 <1>   0.0820 
 14 N        3.8040     1.1720    -0.1790 N.pl3 1 <1>  -0.8380 
 15 C        1.0000    -5.1640     0.9000 C.ar  1 <1>   0.0820 
 16 O        3.2740    -5.2380     1.8520 O.3   1 <1>  -0.3630 
 17 C        4.9960     1.7410     0.1420 C.ar  1 <1>   0.1000 
 18 O        0.7090    -6.4460     1.2740 O.3   1 <1>  -0.3630 
 19 C        3.4630    -6.6320     1.7460 C.3   1 <1>   0.0400 
 20 C        6.2120     1.1220    -0.1720 C.ar  1 <1>  -0.1500 
 21 C        5.0690     2.9750     0.8000 C.ar  1 <1>  -0.1500 
 22 C       -0.5790    -7.0010     1.1210 C.3   1 <1>   0.0400 
 23 C        7.4100     1.7030     0.1530 C.ar  1 <1>   0.2180 
 24 C        6.2770     3.5410     1.1170 C.ar  1 <1>   0.2180 
 25 N        7.4260     2.8990     0.7900 N.ar  1 <1>  -0.1790 
 26 C        8.7380     1.0440    -0.1770 C.3   1 <1>  -0.0970 
 27 C        6.3750     4.8810     1.8270 C.3   1 <1>  -0.0970 
 28 H       -1.0730    -0.1420    -1.1840 H     1 <1>   0.0800 
 29 H       -0.5670    -0.5110     0.4540 H     1 <1>   0.0800 
 30 H        2.9440    -1.5550    -2.0100 H     1 <1>   0.0800 
 31 H        3.9920    -1.4930    -0.6310 H     1 <1>   0.0800 
 32 H        2.9530    -0.6250     1.6450 H     1 <1>   0.0800 
 33 H        1.2890    -0.1670     1.6660 H     1 <1>   0.0800 
 34 H       -0.6260    -2.4210    -1.9040 H     1 <1>   0.0800 
 35 H       -1.6670    -2.4830    -0.5060 H     1 <1>   0.0800 
 36 H        3.4770    -2.8950     1.1260 H     1 <1>   0.1500 
 37 H        2.7680     0.9040    -1.9950 H     1 <1>   0.0800 
 38 H        4.4380     0.4260    -2.0680 H     1 <1>   0.0800 
 39 H        2.7990     1.7820     1.5910 H     1 <1>   0.0800 
 40 H        1.7970     1.7340     0.1590 H     1 <1>   0.0800 
 41 H       -0.8930    -4.7700    -0.0400 H     1 <1>   0.1500 
 42 H        4.4750    -6.8550     2.0270 H     1 <1>   0.0800 
 43 H        3.2860    -6.9340     0.7290 H     1 <1>   0.0800 
 44 H        2.7820    -7.1250     2.4160 H     1 <1>   0.0800 
 45 H        6.1850     0.1670    -0.6640 H     1 <1>   0.1500 
 46 H        4.1510     3.4790     1.0400 H     1 <1>   0.1500 
 47 H       -0.5680    -7.9890     1.5450 H     1 <1>   0.0800 
 48 H       -0.8140    -7.0570     0.0730 H     1 <1>   0.0800 
 49 H       -1.2890    -6.3870     1.6470 H     1 <1>   0.0800 
 50 H        8.3230     3.3280     1.0290 H     1 <1>   0.4570 
 51 H        8.5790     0.1070    -0.6820 H     1 <1>   0.0800 
 52 H        9.2940     0.8470     0.7220 H     1 <1>   0.0800 
 53 H        9.3220     1.6760    -0.8230 H     1 <1>   0.0800 
 54 H        5.3940     5.2770     2.0230 H     1 <1>   0.0800 
 55 H        6.9050     5.5910     1.2170 H     1 <1>   0.0800 
 56 H        6.8860     4.7720     2.7670 H     1 <1>   0.0800 
@<TRIPOS>BOND
  1   1   2  1   
  2   1   3  1   
  3   2   4  1   
  4   2   5  1   
  5   2   6  1   
  6   3   7  1   
  7   3  28  1   
  8   3  29  1   
  9   4   8  ar  
 10   4   9  ar  
 11   5  10  1   
 12   5  30  1   
 13   5  31  1   
 14   6  11  1   
 15   6  32  1   
 16   6  33  1   
 17   7   8  1   
 18   7  34  1   
 19   7  35  1   
 20   8  12  ar  
 21   9  13  ar  
 22   9  36  1   
 23  10  14  1   
 24  10  37  1   
 25  10  38  1   
 26  11  14  1   
 27  11  39  1   
 28  11  40  1   
 29  12  15  ar  
 30  12  41  1   
 31  13  15  ar  
 32  13  16  1   
 33  14  17  1   
 34  15  18  1   
 35  16  19  1   
 36  17  20  ar  
 37  17  21  ar  
 38  18  22  1   
 39  19  42  1   
 40  19  43  1   
 41  19  44  1   
 42  20  23  ar  
 43  20  45  1   
 44  21  24  ar  
 45  21  46  1   
 46  22  47  1   
 47  22  48  1   
 48  22  49  1   
 49  23  25  ar  
 50  23  26  1   
 51  24  25  ar  
 52  24  27  1   
 53  25  50  1   
 54  26  51  1   
 55  26  52  1   
 56  26  53  1   
 57  27  54  1   
 58  27  55  1   
 59  27  56  1   
@<TRIPOS>SUBSTRUCTURE
  1 ****   2 GROUP 4 **** **** 0

# MOE 2024.06 (io_trps.svl 2023.06)
