@<TRIPOS>MOLECULE
NONAME
49 50 1 0 0 
SMALL
USER_CHARGES


@<TRIPOS>ATOM
  1 O        0.7720     0.0400     0.0250 O.3   1 <1>  -0.3630 
  2 C        0.3710    -1.2430    -0.1580 C.ar  1 <1>   0.0830 
  3 C        2.0980     0.4430    -0.2470 C.3   1 <1>   0.1200 
  4 C       -0.9340    -1.5420     0.1910 C.ar  1 <1>  -0.1500 
  5 C        1.1920    -2.2470    -0.6680 C.ar  1 <1>  -0.1500 
  6 C        2.2280     1.9390     0.0610 C.3   1 <1>   0.2000 
  7 C       -1.4330    -2.8240     0.0400 C.ar  1 <1>   0.0830 
  8 C        0.6980    -3.5310    -0.8200 C.ar  1 <1>  -0.1500 
  9 O        1.2460     2.6280    -0.6450 O.3   1 <1>  -0.6800 
 10 C        3.6140     2.5090    -0.3060 C.3   1 <1>   0.2090 
 11 O       -2.7240    -3.0240     0.4080 O.3   1 <1>  -0.3630 
 12 C       -0.6090    -3.8240    -0.4690 C.ar  1 <1>  -0.1500 
 13 N        3.5610     3.9960    -0.3210 N.pl3 1 <1>  -0.8690 
 14 C       -3.3310    -4.2910     0.2910 C.3   1 <1>   0.0400 
 15 C        4.4140     4.9920    -0.0780 C.ar  1 <1>   0.7710 
 16 N        3.9230     6.2090    -0.1290 N.ar  1 <1>  -0.6200 
 17 N        5.7010     4.7350     0.1970 N.ar  1 <1>  -0.1790 
 18 C        4.7420     7.2190     0.0940 C.ar  1 <1>   0.4100 
 19 C        6.5670     5.7390     0.4680 C.ar  1 <1>   0.2110 
 20 N        4.2040     8.4610    -0.0150 N.pl3 1 <1>  -0.8380 
 21 C        6.1060     7.0150     0.4320 C.ar  1 <1>  -0.1430 
 22 C        2.8240     8.7500     0.4710 C.3   1 <1>   0.1290 
 23 C        4.7360     9.4880    -0.9540 C.3   1 <1>   0.1290 
 24 C        7.0320     8.1770     0.7870 C.3   1 <1>  -0.0970 
 25 H        2.3060     0.2530    -1.2860 H     1 <1>   0.0800 
 26 H        2.7610    -0.1330     0.3750 H     1 <1>   0.0800 
 27 H       -1.5720    -0.7730     0.5840 H     1 <1>   0.1500 
 28 H        2.2080    -2.0540    -0.9510 H     1 <1>   0.1500 
 29 H        2.0450     2.0980     1.1110 H     1 <1>   0.0800 
 30 H        1.3320    -4.3060    -1.2140 H     1 <1>   0.1500 
 31 H        0.3960     2.1410    -0.5540 H     1 <1>   0.4000 
 32 H        3.8830     2.1580    -1.2890 H     1 <1>   0.0800 
 33 H        4.3450     2.1560     0.4000 H     1 <1>   0.0800 
 34 H       -0.9640    -4.8280    -0.5980 H     1 <1>   0.1500 
 35 H        2.6030     4.3050    -0.5600 H     1 <1>   0.4000 
 36 H       -4.3450    -4.2080     0.6370 H     1 <1>   0.0800 
 37 H       -2.7930    -4.9940     0.9010 H     1 <1>   0.0800 
 38 H       -3.3210    -4.5880    -0.7430 H     1 <1>   0.0800 
 39 H        5.9710     3.7600     0.1870 H     1 <1>   0.4570 
 40 H        7.5890     5.4950     0.7120 H     1 <1>   0.1500 
 41 H        2.5270     8.0260     1.2100 H     1 <1>   0.0800 
 42 H        2.1310     8.7080    -0.3520 H     1 <1>   0.0800 
 43 H        2.7880     9.7290     0.9170 H     1 <1>   0.0800 
 44 H        5.5410     9.0820    -1.5400 H     1 <1>   0.0800 
 45 H        5.0910    10.3400    -0.4000 H     1 <1>   0.0800 
 46 H        3.9590     9.8070    -1.6270 H     1 <1>   0.0800 
 47 H        6.5250     8.8650     1.4410 H     1 <1>   0.0800 
 48 H        7.3330     8.7030    -0.1010 H     1 <1>   0.0800 
 49 H        7.9180     7.8320     1.2900 H     1 <1>   0.0800 
@<TRIPOS>BOND
  1   1   2  1   
  2   1   3  1   
  3   2   4  ar  
  4   2   5  ar  
  5   3   6  1   
  6   3  25  1   
  7   3  26  1   
  8   4   7  ar  
  9   4  27  1   
 10   5   8  ar  
 11   5  28  1   
 12   6   9  1   
 13   6  10  1   
 14   6  29  1   
 15   7  11  1   
 16   7  12  ar  
 17   8  12  ar  
 18   8  30  1   
 19   9  31  1   
 20  10  13  1   
 21  10  32  1   
 22  10  33  1   
 23  11  14  1   
 24  12  34  1   
 25  13  15  1   
 26  13  35  1   
 27  14  36  1   
 28  14  37  1   
 29  14  38  1   
 30  15  16  ar  
 31  15  17  ar  
 32  16  18  ar  
 33  17  19  ar  
 34  17  39  1   
 35  18  20  1   
 36  18  21  ar  
 37  19  21  ar  
 38  19  40  1   
 39  20  22  1   
 40  20  23  1   
 41  21  24  1   
 42  22  41  1   
 43  22  42  1   
 44  22  43  1   
 45  23  44  1   
 46  23  45  1   
 47  23  46  1   
 48  24  47  1   
 49  24  48  1   
 50  24  49  1   
@<TRIPOS>SUBSTRUCTURE
  1 ****   6 GROUP 4 **** **** 0

# MOE 2024.06 (io_trps.svl 2023.06)
