@<TRIPOS>MOLECULE
NONAME
41 42 1 0 0 
SMALL
USER_CHARGES


@<TRIPOS>ATOM
  1 N       -0.6100    -0.6240    -0.6220 N.ar  1 <1>  -0.6200 
  2 C       -0.7960    -1.8870    -0.9330 C.ar  1 <1>   0.7710 
  3 C        0.4640    -0.3150     0.0830 C.ar  1 <1>   0.4100 
  4 N        0.0230    -2.8650    -0.5240 N.ar  1 <1>  -0.1790 
  5 N       -1.8720    -2.1530    -1.6860 N.pl3 1 <1>  -0.8690 
  6 N        0.6610     1.0070     0.3240 N.pl3 1 <1>  -0.8380 
  7 C        1.3570    -1.3090     0.5660 C.ar  1 <1>  -0.1430 
  8 C        1.1040    -2.6020     0.2390 C.ar  1 <1>   0.2110 
  9 C       -2.1990    -3.3290    -2.5450 C.3   1 <1>   0.2090 
 10 C       -0.4770     1.9160     0.6440 C.3   1 <1>   0.1290 
 11 C        1.9040     1.7210    -0.0800 C.3   1 <1>   0.1290 
 12 C        2.5410    -0.9650     1.4680 C.3   1 <1>  -0.0970 
 13 C       -2.8130    -4.4940    -1.7560 C.3   1 <1>   0.0200 
 14 C       -1.8230    -5.0700    -0.7510 C.2   1 <1>  -0.3320 
 15 N       -1.9150    -4.8940     0.6000 N.pl3 1 <1>   0.0480 
 16 C       -0.7260    -5.8220    -1.0380 C.2   1 <1>  -0.1500 
 17 C       -0.8340    -5.5090     1.1480 C.2   1 <1>  -0.3020 
 18 C       -2.9800    -4.2060     1.3570 C.3   1 <1>   0.0160 
 19 C       -0.0910    -6.0940     0.1750 C.2   1 <1>  -0.1500 
 20 H       -0.3040    -3.8240    -0.6960 H     1 <1>   0.4570 
 21 H       -2.4360    -1.3200    -1.8850 H     1 <1>   0.4000 
 22 H        1.7120    -3.4270     0.5730 H     1 <1>   0.1500 
 23 H       -1.3080    -3.6670    -3.0480 H     1 <1>   0.0800 
 24 H       -2.8970    -3.0170    -3.3040 H     1 <1>   0.0800 
 25 H       -1.3170     1.3500     1.0090 H     1 <1>   0.0800 
 26 H       -0.7770     2.4510    -0.2400 H     1 <1>   0.0800 
 27 H       -0.1830     2.6200     1.4030 H     1 <1>   0.0800 
 28 H        2.5590     1.0600    -0.6200 H     1 <1>   0.0800 
 29 H        2.4120     2.0920     0.7930 H     1 <1>   0.0800 
 30 H        1.6590     2.5490    -0.7220 H     1 <1>   0.0800 
 31 H        2.2370    -0.2580     2.2210 H     1 <1>   0.0800 
 32 H        3.3390    -0.5330     0.8920 H     1 <1>   0.0800 
 33 H        2.9190    -1.8390     1.9670 H     1 <1>   0.0800 
 34 H       -3.0770    -5.2700    -2.4520 H     1 <1>   0.0800 
 35 H       -3.7240    -4.1750    -1.2820 H     1 <1>   0.0800 
 36 H       -0.3830    -6.1700    -2.0010 H     1 <1>   0.1500 
 37 H       -0.6600    -5.5230     2.2120 H     1 <1>   0.1500 
 38 H       -3.1010    -3.2060     0.9850 H     1 <1>   0.0800 
 39 H       -2.7210    -4.1720     2.4000 H     1 <1>   0.0800 
 40 H       -3.9020    -4.7480     1.2410 H     1 <1>   0.0800 
 41 H        0.8080    -6.6800     0.2900 H     1 <1>   0.1500 
@<TRIPOS>BOND
  1   1   2  ar  
  2   1   3  ar  
  3   2   4  ar  
  4   2   5  1   
  5   3   6  1   
  6   3   7  ar  
  7   4   8  ar  
  8   4  20  1   
  9   5   9  1   
 10   5  21  1   
 11   6  10  1   
 12   6  11  1   
 13   7   8  ar  
 14   7  12  1   
 15   8  22  1   
 16   9  13  1   
 17   9  23  1   
 18   9  24  1   
 19  10  25  1   
 20  10  26  1   
 21  10  27  1   
 22  11  28  1   
 23  11  29  1   
 24  11  30  1   
 25  12  31  1   
 26  12  32  1   
 27  12  33  1   
 28  13  14  1   
 29  13  34  1   
 30  13  35  1   
 31  14  15  1   
 32  14  16  2   
 33  15  17  1   
 34  15  18  1   
 35  16  19  1   
 36  16  36  1   
 37  17  19  2   
 38  17  37  1   
 39  18  38  1   
 40  18  39  1   
 41  18  40  1   
 42  19  41  1   
@<TRIPOS>SUBSTRUCTURE
  1 ****   4 GROUP 4 **** **** 0

# MOE 2024.06 (io_trps.svl 2023.06)
