@<TRIPOS>MOLECULE
NONAME
47 50 1 0 0 
SMALL
USER_CHARGES


@<TRIPOS>ATOM
  1 O        4.0310    -1.4940    -2.0230 O.2   1 <1>  -0.5700 
  2 C        3.2120    -1.5160    -1.1210 C.2   1 <1>   0.5440 
  3 N        3.0680    -0.3520    -0.4090 N.am  1 <1>  -0.6600 
  4 C        2.5130    -2.7330    -0.7480 C.ar  1 <1>   0.0860 
  5 C        3.7420    -0.2960     0.9370 C.3   1 <1>   0.2200 
  6 C        2.8430     0.9230    -1.1600 C.3   1 <1>   0.1400 
  7 C        2.9470    -3.9830    -1.1920 C.ar  1 <1>  -0.1500 
  8 C        1.3920    -2.7100     0.0840 C.ar  1 <1>  -0.1500 
  9 C        3.1760     0.8020     1.8510 C.3   1 <1>   0.1200 
 10 C        5.2780    -0.1460     0.7770 C.3   1 <1>   0.3430 
 11 C        3.7930     2.0760    -0.7860 C.3   1 <1>  -0.0800 
 12 C        2.3140    -5.1500    -0.8080 C.ar  1 <1>  -0.1500 
 13 C        0.7570    -3.8740     0.4720 C.ar  1 <1>  -0.1500 
 14 O        3.8340     2.0120     1.6310 O.3   1 <1>  -0.5600 
 15 N        5.6790     0.3410    -0.5900 N.4   1 <1>  -0.9590 
 16 C        3.3980     2.7480     0.5380 C.3   1 <1>   0.1200 
 17 C        5.3040     1.7650    -0.8620 C.3   1 <1>   0.3430 
 18 C        1.2080    -5.1160     0.0370 C.ar  1 <1>  -0.0230 
 19 C        7.1190     0.0860    -0.8710 C.3   1 <1>   0.2630 
 20 N        0.5540    -6.3090     0.4540 N.pl3 1 <1>   0.5930 
 21 N       -0.0290    -6.4460     1.6730 N.2   1 <1>  -0.7070 
 22 C        0.4070    -7.4590    -0.2510 C.2   1 <1>  -0.3020 
 23 C       -0.5100    -7.6490     1.7000 C.2   1 <1>   0.1390 
 24 C       -0.2680    -8.3370     0.5190 C.2   1 <1>  -0.1500 
 25 H        3.5540    -1.2310     1.4370 H     1 <1>   0.0800 
 26 H        2.9370     0.7300    -2.2170 H     1 <1>   0.0800 
 27 H        1.8250     1.2350    -0.9950 H     1 <1>   0.0800 
 28 H        3.7980    -4.0390    -1.8490 H     1 <1>   0.1500 
 29 H        1.0060    -1.7690     0.4350 H     1 <1>   0.1500 
 30 H        3.3640     0.5370     2.8770 H     1 <1>   0.0800 
 31 H        2.1130     0.9240     1.7260 H     1 <1>   0.0800 
 32 H        5.7200    -1.1130     0.9460 H     1 <1>   0.0800 
 33 H        5.6580     0.5190     1.5360 H     1 <1>   0.0800 
 34 H        3.6190     2.8370    -1.5270 H     1 <1>   0.0800 
 35 H        2.6880    -6.0940    -1.1650 H     1 <1>   0.1500 
 36 H       -0.1020    -3.8250     1.1230 H     1 <1>   0.1500 
 37 H        5.1090    -0.2400    -1.2470 H     1 <1>   0.4500 
 38 H        2.3320     2.8910     0.6130 H     1 <1>   0.0800 
 39 H        3.8670     3.7160     0.6100 H     1 <1>   0.0800 
 40 H        5.8270     2.4110    -0.1760 H     1 <1>   0.0800 
 41 H        5.6390     2.0120    -1.8560 H     1 <1>   0.0800 
 42 H        7.7390     0.6580    -0.1990 H     1 <1>   0.0800 
 43 H        7.3550     0.3650    -1.8850 H     1 <1>   0.0800 
 44 H        7.3430    -0.9610    -0.7450 H     1 <1>   0.0800 
 45 H        0.7830    -7.5770    -1.2490 H     1 <1>   0.1500 
 46 H       -1.0360    -8.0600     2.5470 H     1 <1>   0.1500 
 47 H       -0.5690    -9.3470     0.3000 H     1 <1>   0.1500 
@<TRIPOS>BOND
  1   1   2  2   
  2   2   3  am  
  3   2   4  1   
  4   3   5  1   
  5   3   6  1   
  6   4   7  ar  
  7   4   8  ar  
  8   5   9  1   
  9   5  10  1   
 10   5  25  1   
 11   6  11  1   
 12   6  26  1   
 13   6  27  1   
 14   7  12  ar  
 15   7  28  1   
 16   8  13  ar  
 17   8  29  1   
 18   9  14  1   
 19   9  30  1   
 20   9  31  1   
 21  10  15  1   
 22  10  32  1   
 23  10  33  1   
 24  11  16  1   
 25  11  17  1   
 26  11  34  1   
 27  12  18  ar  
 28  12  35  1   
 29  13  18  ar  
 30  13  36  1   
 31  14  16  1   
 32  15  17  1   
 33  15  19  1   
 34  15  37  1   
 35  16  38  1   
 36  16  39  1   
 37  17  40  1   
 38  17  41  1   
 39  18  20  1   
 40  19  42  1   
 41  19  43  1   
 42  19  44  1   
 43  20  21  1   
 44  20  22  1   
 45  21  23  2   
 46  22  24  2   
 47  22  45  1   
 48  23  24  1   
 49  23  46  1   
 50  24  47  1   
@<TRIPOS>SUBSTRUCTURE
  1 ****   4 GROUP 4 **** **** 0

# MOE 2024.06 (io_trps.svl 2023.06)
