@<TRIPOS>MOLECULE
NONAME
54 56 1 0 0 
SMALL
USER_CHARGES


@<TRIPOS>ATOM
  1 S        0.0030     0.1150    -1.6720 S.o2  1 <1>   1.4470 
  2 O       -0.2850    -0.9430    -2.6190 O.2   1 <1>  -0.6500 
  3 O        0.4270     1.3890    -2.2170 O.2   1 <1>  -0.6500 
  4 N       -1.4490     0.3970    -0.8370 N.am  1 <1>  -0.8490 
  5 C        1.1430    -0.5330    -0.4160 C.ar  1 <1>  -0.0090 
  6 C       -2.5470     0.6470    -1.7750 C.3   1 <1>   0.1960 
  7 C       -1.3350     1.5080     0.1100 C.3   1 <1>   0.1960 
  8 C        1.9400     0.2970     0.3720 C.ar  1 <1>   0.0820 
  9 C        1.2300    -1.9040    -0.1920 C.ar  1 <1>  -0.1500 
 10 C       -3.8740     0.7400    -1.0190 C.3   1 <1>  -0.1600 
 11 C       -2.6180     1.6250     0.9340 C.3   1 <1>  -0.1600 
 12 O        1.8990     1.6360     0.2280 O.3   1 <1>  -0.3620 
 13 C        2.7810    -0.2260     1.3420 C.ar  1 <1>  -0.1500 
 14 C        2.0730    -2.4400     0.7690 C.ar  1 <1>  -0.1430 
 15 C       -3.8490     1.8500     0.0410 C.3   1 <1>   0.2800 
 16 C        2.9730     2.2180    -0.4770 C.3   1 <1>   0.0400 
 17 C        2.8480    -1.5910     1.5380 C.ar  1 <1>  -0.1500 
 18 C        2.1420    -3.9520     0.9900 C.3   1 <1>  -0.1230 
 19 O       -3.6970     3.0560    -0.6670 O.3   1 <1>  -0.5600 
 20 C       -5.1640     1.8650     0.8620 C.3   1 <1>  -0.1600 
 21 C        3.5470    -4.5200     1.0450 C.2   1 <1>   0.9060 
 22 C       -3.9630     4.2490     0.0140 C.3   1 <1>   0.1200 
 23 C       -6.1380     2.9560     0.4110 C.3   1 <1>   0.2800 
 24 O        4.0240    -5.0320     0.0260 O.co2 1 <1>  -0.9000 
 25 O        4.1590    -4.4930     2.1200 O.co2 1 <1>  -0.9000 
 26 C       -5.4370     4.3170     0.4490 C.3   1 <1>  -0.1600 
 27 O       -6.4700     2.7110    -0.8950 O.3   1 <1>  -0.6800 
 28 C       -7.4400     2.9490     1.2060 C.3   1 <1>  -0.2400 
 29 H       -2.6140    -0.1610    -2.4840 H     1 <1>   0.0800 
 30 H       -2.3640     1.5590    -2.3220 H     1 <1>   0.0800 
 31 H       -1.1430     2.4300    -0.4170 H     1 <1>   0.0800 
 32 H       -0.5190     1.3290     0.7870 H     1 <1>   0.0800 
 33 H        0.6270    -2.5680    -0.7870 H     1 <1>   0.1500 
 34 H       -4.0590    -0.2090    -0.5500 H     1 <1>   0.0800 
 35 H       -4.6710     0.9140    -1.7180 H     1 <1>   0.0800 
 36 H       -2.5160     2.4180     1.6500 H     1 <1>   0.0800 
 37 H       -2.7420     0.7120     1.4880 H     1 <1>   0.0800 
 38 H        3.3810     0.4300     1.9440 H     1 <1>   0.1500 
 39 H        2.7930     3.2750    -0.5510 H     1 <1>   0.0800 
 40 H        3.0180     1.7850    -1.4610 H     1 <1>   0.0800 
 41 H        3.8880     2.0330     0.0570 H     1 <1>   0.0800 
 42 H        3.5080    -2.0010     2.2870 H     1 <1>   0.1500 
 43 H        1.6220    -4.4670     0.2060 H     1 <1>   0.0800 
 44 H        1.6630    -4.1930     1.9190 H     1 <1>   0.0800 
 45 H       -4.9290     2.0400     1.8960 H     1 <1>   0.0800 
 46 H       -5.6460     0.9050     0.8260 H     1 <1>   0.0800 
 47 H       -3.7340     5.0630    -0.6530 H     1 <1>   0.0800 
 48 H       -3.3080     4.3140     0.8640 H     1 <1>   0.0800 
 49 H       -5.9710     5.0210    -0.1630 H     1 <1>   0.0800 
 50 H       -5.4600     4.7020     1.4520 H     1 <1>   0.0800 
 51 H       -5.6400     2.7960    -1.4100 H     1 <1>   0.4000 
 52 H       -7.2450     3.1300     2.2470 H     1 <1>   0.0800 
 53 H       -7.9280     1.9950     1.1120 H     1 <1>   0.0800 
 54 H       -8.1000     3.7160     0.8430 H     1 <1>   0.0800 
@<TRIPOS>BOND
  1   1   2  2   
  2   1   3  2   
  3   1   4  am  
  4   1   5  1   
  5   4   6  1   
  6   4   7  1   
  7   5   8  ar  
  8   5   9  ar  
  9   6  10  1   
 10   6  29  1   
 11   6  30  1   
 12   7  11  1   
 13   7  31  1   
 14   7  32  1   
 15   8  12  1   
 16   8  13  ar  
 17   9  14  ar  
 18   9  33  1   
 19  10  15  1   
 20  10  34  1   
 21  10  35  1   
 22  11  15  1   
 23  11  36  1   
 24  11  37  1   
 25  12  16  1   
 26  13  17  ar  
 27  13  38  1   
 28  14  17  ar  
 29  14  18  1   
 30  15  19  1   
 31  15  20  1   
 32  16  39  1   
 33  16  40  1   
 34  16  41  1   
 35  17  42  1   
 36  18  21  1   
 37  18  43  1   
 38  18  44  1   
 39  19  22  1   
 40  20  23  1   
 41  20  45  1   
 42  20  46  1   
 43  21  24  ar  
 44  21  25  ar  
 45  22  26  1   
 46  22  47  1   
 47  22  48  1   
 48  23  26  1   
 49  23  27  1   
 50  23  28  1   
 51  26  49  1   
 52  26  50  1   
 53  27  51  1   
 54  28  52  1   
 55  28  53  1   
 56  28  54  1   
@<TRIPOS>SUBSTRUCTURE
  1 ****   4 GROUP 4 **** **** 0

# MOE 2024.06 (io_trps.svl 2023.06)
