@<TRIPOS>MOLECULE
NONAME
53 56 1 0 0 
SMALL
USER_CHARGES


@<TRIPOS>ATOM
  1 O       -1.1740    -1.7730     2.0560 O.3   1 <1>  -0.3630 
  2 C       -0.8350    -2.6430     1.0650 C.ar  1 <1>   0.0830 
  3 C       -2.4270    -1.8360     2.7010 C.3   1 <1>   0.0400 
  4 C        0.4720    -2.5820     0.5350 C.ar  1 <1>   0.0830 
  5 C       -1.7060    -3.5860     0.5680 C.ar  1 <1>  -0.1500 
  6 O        1.3830    -1.6780     0.9730 O.3   1 <1>  -0.3630 
  7 C        0.8640    -3.4610    -0.4390 C.ar  1 <1>  -0.1500 
  8 C       -1.3310    -4.4880    -0.4380 C.ar  1 <1>   0.3100 
  9 C        1.1270    -0.3210     0.6890 C.3   1 <1>   0.0400 
 10 C       -0.0150    -4.4320    -0.9580 C.ar  1 <1>   0.0000 
 11 N       -2.2630    -5.3760    -0.8580 N.ar  1 <1>  -0.6200 
 12 C        0.3310    -5.3540    -1.9700 C.ar  1 <1>  -0.1430 
 13 C       -1.9090    -6.2080    -1.7970 C.ar  1 <1>   0.4100 
 14 C       -0.6290    -6.2300    -2.3730 C.ar  1 <1>  -0.1500 
 15 C        1.7200    -5.3760    -2.5920 C.3   1 <1>  -0.0970 
 16 N       -2.8470    -7.1180    -2.2300 N.pl3 1 <1>  -0.8380 
 17 C       -4.1050    -6.5560    -2.8000 C.3   1 <1>   0.2090 
 18 C       -3.2220    -8.1770    -1.2500 C.3   1 <1>   0.2090 
 19 C       -5.1750    -6.8360    -1.7470 C.3   1 <1>   0.2000 
 20 C       -4.7550    -8.1970    -1.1890 C.3   1 <1>  -0.0800 
 21 O       -5.0600    -5.8710    -0.7580 O.3   1 <1>  -0.6800 
 22 C       -5.3140    -8.5370     0.2040 C.3   1 <1>  -0.0170 
 23 C       -4.8530    -9.9150     0.6540 C.ar  1 <1>  -0.1430 
 24 C       -5.4540   -11.0700     0.1960 C.ar  1 <1>  -0.1500 
 25 C       -3.8080   -10.0820     1.5400 C.ar  1 <1>  -0.1500 
 26 C       -4.9890   -12.3010     0.6280 C.ar  1 <1>   0.1600 
 27 C       -3.4200   -11.3590     1.9090 C.ar  1 <1>   0.1600 
 28 N       -3.9840   -12.4730     1.4720 N.ar  1 <1>  -0.6200 
 29 H       -2.4480    -1.0780     3.4630 H     1 <1>   0.0800 
 30 H       -2.5400    -2.8070     3.1500 H     1 <1>   0.0800 
 31 H       -3.2030    -1.6510     1.9790 H     1 <1>   0.0800 
 32 H       -2.7110    -3.6740     0.9280 H     1 <1>   0.1500 
 33 H        1.8680    -3.3990    -0.8110 H     1 <1>   0.1500 
 34 H        2.0130     0.2430     0.9200 H     1 <1>   0.0800 
 35 H        0.3110     0.0220     1.2990 H     1 <1>   0.0800 
 36 H        0.8850    -0.2210    -0.3540 H     1 <1>   0.0800 
 37 H       -0.4530    -6.9630    -3.1360 H     1 <1>   0.1500 
 38 H        1.7920    -6.1470    -3.3390 H     1 <1>   0.0800 
 39 H        2.4600    -5.5680    -1.8350 H     1 <1>   0.0800 
 40 H        1.9300    -4.4310    -3.0590 H     1 <1>   0.0800 
 41 H       -4.0210    -5.5020    -3.0080 H     1 <1>   0.0800 
 42 H       -4.3360    -7.0780    -3.7120 H     1 <1>   0.0800 
 43 H       -2.8370    -9.1320    -1.5640 H     1 <1>   0.0800 
 44 H       -2.8120    -7.9400    -0.2820 H     1 <1>   0.0800 
 45 H       -6.1780    -6.8180    -2.1360 H     1 <1>   0.0800 
 46 H       -5.0890    -8.9490    -1.8810 H     1 <1>   0.0800 
 47 H       -4.0880    -5.6770    -0.6600 H     1 <1>   0.4000 
 48 H       -6.3890    -8.5100     0.1750 H     1 <1>   0.0800 
 49 H       -4.9950    -7.8030     0.9240 H     1 <1>   0.0800 
 50 H       -6.2770   -11.0250    -0.4930 H     1 <1>   0.1500 
 51 H       -3.2910    -9.2320     1.9460 H     1 <1>   0.1500 
 52 H       -5.4690   -13.1920     0.2600 H     1 <1>   0.1500 
 53 H       -2.6020   -11.4700     2.6000 H     1 <1>   0.1500 
@<TRIPOS>BOND
  1   1   2  1   
  2   1   3  1   
  3   2   4  ar  
  4   2   5  ar  
  5   3  29  1   
  6   3  30  1   
  7   3  31  1   
  8   4   6  1   
  9   4   7  ar  
 10   5   8  ar  
 11   5  32  1   
 12   6   9  1   
 13   7  10  ar  
 14   7  33  1   
 15   8  10  ar  
 16   8  11  ar  
 17   9  34  1   
 18   9  35  1   
 19   9  36  1   
 20  10  12  ar  
 21  11  13  ar  
 22  12  14  ar  
 23  12  15  1   
 24  13  14  ar  
 25  13  16  1   
 26  14  37  1   
 27  15  38  1   
 28  15  39  1   
 29  15  40  1   
 30  16  17  1   
 31  16  18  1   
 32  17  19  1   
 33  17  41  1   
 34  17  42  1   
 35  18  20  1   
 36  18  43  1   
 37  18  44  1   
 38  19  20  1   
 39  19  21  1   
 40  19  45  1   
 41  20  22  1   
 42  20  46  1   
 43  21  47  1   
 44  22  23  1   
 45  22  48  1   
 46  22  49  1   
 47  23  24  ar  
 48  23  25  ar  
 49  24  26  ar  
 50  24  50  1   
 51  25  27  ar  
 52  25  51  1   
 53  26  28  ar  
 54  26  52  1   
 55  27  28  ar  
 56  27  53  1   
@<TRIPOS>SUBSTRUCTURE
  1 ****  11 GROUP 4 **** **** 0

# MOE 2024.06 (io_trps.svl 2023.06)
