@<TRIPOS>MOLECULE
NONAME
49 53 1 0 0 
SMALL
USER_CHARGES


@<TRIPOS>ATOM
  1 S        1.8760    -1.8240    -0.0360 S.3   1 <1>  -0.0800 
  2 C        0.1410    -1.5200     0.1240 C.2   1 <1>   0.2930 
  3 C        2.1490    -0.1350    -0.2820 C.2   1 <1>  -0.1400 
  4 N       -0.1430    -0.2570     0.0070 N.2   1 <1>  -0.5650 
  5 C       -0.7130    -2.6800     0.3660 C.2   1 <1>   0.7150 
  6 C        0.9810     0.5050    -0.2160 C.2   1 <1>   0.0460 
  7 C        3.5240     0.4440    -0.5240 C.3   1 <1>   0.0200 
  8 O       -0.2280    -3.6860     0.8610 O.2   1 <1>  -0.5700 
  9 N       -2.0710    -2.7140     0.0680 N.am  1 <1>  -0.6600 
 10 C        0.8790     2.0080    -0.3820 C.3   1 <1>   0.0210 
 11 C        3.3660     1.8920    -1.0290 C.3   1 <1>  -0.1600 
 12 C       -2.7650    -1.7560    -0.8510 C.3   1 <1>   0.1400 
 13 C       -2.9690    -3.7860     0.5870 C.3   1 <1>   0.1400 
 14 C        2.2710     2.6670    -0.2610 C.3   1 <1>  -0.1600 
 15 C       -3.9470    -1.0690    -0.1410 C.3   1 <1>   0.1430 
 16 C       -4.1720    -3.1570     1.3040 C.3   1 <1>  -0.1600 
 17 C       -4.6160    -0.1310    -1.1300 C.ar  1 <1>   0.1670 
 18 C       -4.9100    -2.1430     0.4100 C.3   1 <1>  -0.1600 
 19 C       -3.4710    -0.0910     0.9670 C.3   1 <1>  -0.1600 
 20 N       -5.3840    -0.4950    -2.1300 N.ar  1 <1>  -0.6200 
 21 C       -4.3060     1.1720    -0.8690 C.ar  1 <1>  -0.1440 
 22 C       -3.3920     1.3040     0.3240 C.3   1 <1>  -0.0170 
 23 C       -5.8310     0.5160    -2.8600 C.ar  1 <1>   0.7200 
 24 C       -4.8370     2.1350    -1.6920 C.ar  1 <1>   0.1600 
 25 N       -5.6160     1.8140    -2.7010 N.ar  1 <1>  -0.6200 
 26 N       -6.6250     0.1850    -3.8800 N.pl3 1 <1>  -0.9000 
 27 H        4.0540    -0.1450    -1.2520 H     1 <1>   0.0800 
 28 H        4.0760     0.4290     0.4000 H     1 <1>   0.0800 
 29 H        0.2230     2.4090     0.3690 H     1 <1>   0.0800 
 30 H        0.4550     2.2150    -1.3480 H     1 <1>   0.0800 
 31 H        3.1010     1.8670    -2.0720 H     1 <1>   0.0800 
 32 H        4.3080     2.4050    -0.9420 H     1 <1>   0.0800 
 33 H       -3.1450    -2.3080    -1.6940 H     1 <1>   0.0800 
 34 H       -2.0920    -1.0180    -1.2440 H     1 <1>   0.0800 
 35 H       -2.4450    -4.4300     1.2730 H     1 <1>   0.0800 
 36 H       -3.3080    -4.3870    -0.2390 H     1 <1>   0.0800 
 37 H        2.5440     2.7060     0.7800 H     1 <1>   0.0800 
 38 H        2.2180     3.6790    -0.6230 H     1 <1>   0.0800 
 39 H       -3.8260    -2.6750     2.2020 H     1 <1>   0.0800 
 40 H       -4.8520    -3.9370     1.5970 H     1 <1>   0.0800 
 41 H       -5.3520    -2.6700    -0.4180 H     1 <1>   0.0800 
 42 H       -5.7110    -1.6770     0.9580 H     1 <1>   0.0800 
 43 H       -2.5340    -0.3810     1.4060 H     1 <1>   0.0800 
 44 H       -4.2080    -0.0530     1.7490 H     1 <1>   0.0800 
 45 H       -2.3890     1.5090    -0.0090 H     1 <1>   0.0800 
 46 H       -3.7200     2.0720     1.0010 H     1 <1>   0.0800 
 47 H       -4.6210     3.1760    -1.5220 H     1 <1>   0.1500 
 48 H       -7.2030     0.9400    -4.2350 H     1 <1>   0.4000 
 49 H       -7.0550    -0.7320    -3.8120 H     1 <1>   0.4000 
@<TRIPOS>BOND
  1   1   2  1   
  2   1   3  1   
  3   2   4  2   
  4   2   5  1   
  5   3   6  2   
  6   3   7  1   
  7   4   6  1   
  8   5   8  2   
  9   5   9  am  
 10   6  10  1   
 11   7  11  1   
 12   7  27  1   
 13   7  28  1   
 14   9  12  1   
 15   9  13  1   
 16  10  14  1   
 17  10  29  1   
 18  10  30  1   
 19  11  14  1   
 20  11  31  1   
 21  11  32  1   
 22  12  15  1   
 23  12  33  1   
 24  12  34  1   
 25  13  16  1   
 26  13  35  1   
 27  13  36  1   
 28  14  37  1   
 29  14  38  1   
 30  15  17  1   
 31  15  18  1   
 32  15  19  1   
 33  16  18  1   
 34  16  39  1   
 35  16  40  1   
 36  17  20  ar  
 37  17  21  ar  
 38  18  41  1   
 39  18  42  1   
 40  19  22  1   
 41  19  43  1   
 42  19  44  1   
 43  20  23  ar  
 44  21  22  1   
 45  21  24  ar  
 46  22  45  1   
 47  22  46  1   
 48  23  25  ar  
 49  23  26  1   
 50  24  25  ar  
 51  24  47  1   
 52  26  48  1   
 53  26  49  1   
@<TRIPOS>SUBSTRUCTURE
  1 ****  12 GROUP 4 **** **** 0

# MOE 2024.06 (io_trps.svl 2023.06)
