@<TRIPOS>MOLECULE
NONAME
33 34 1 0 0 
SMALL
USER_CHARGES


@<TRIPOS>ATOM
  1 I        0.0360    -0.3240     1.1700 I     1 <1>  -0.0270 
  2 C        2.1320    -0.2590     0.7570 C.2   1 <1>   0.3160 
  3 N        2.8830     0.6930     1.2020 N.2   1 <1>  -0.7070 
  4 C        2.7780    -1.2220     0.0000 C.2   1 <1>  -0.1500 
  5 N        4.0980     0.3550     0.7260 N.pl3 1 <1>   0.3140 
  6 C        4.0600    -0.7880    -0.0030 C.2   1 <1>  -0.3320 
  7 C        5.3080     1.1430     1.0070 C.3   1 <1>   0.0960 
  8 C        5.2970    -1.3770    -0.6600 C.3   1 <1>   0.3200 
  9 C        6.3900     0.8080    -0.0210 C.3   1 <1>   0.1400 
 10 N        6.5140    -0.6720    -0.1750 N.am  1 <1>  -0.6600 
 11 C        7.6670    -1.3360     0.1420 C.2   1 <1>   0.7800 
 12 O        8.6250    -0.7610     0.6190 O.2   1 <1>  -0.5700 
 13 O        7.7000    -2.6490    -0.0970 O.3   1 <1>  -0.4300 
 14 C        8.7650    -3.5410     0.1570 C.3   1 <1>   0.2800 
 15 C        9.0690    -3.5900     1.6590 C.3   1 <1>  -0.2400 
 16 C        8.2550    -4.9090    -0.2990 C.3   1 <1>  -0.2400 
 17 C        9.9910    -3.1550    -0.6780 C.3   1 <1>  -0.2400 
 18 H        2.3290    -2.0860    -0.4560 H     1 <1>   0.1500 
 19 H        5.6500     0.8990     1.9950 H     1 <1>   0.0800 
 20 H        5.0620     2.1880     0.9720 H     1 <1>   0.0800 
 21 H        5.2290    -1.2590    -1.7270 H     1 <1>   0.0800 
 22 H        5.3460    -2.4290    -0.4380 H     1 <1>   0.0800 
 23 H        7.3250     1.2420     0.2890 H     1 <1>   0.0800 
 24 H        6.1280     1.2390    -0.9720 H     1 <1>   0.0800 
 25 H        8.1720    -3.7920     2.2160 H     1 <1>   0.0800 
 26 H        9.4970    -2.6650     1.9990 H     1 <1>   0.0800 
 27 H        9.7800    -4.3700     1.8630 H     1 <1>   0.0800 
 28 H        7.3790    -5.1860     0.2600 H     1 <1>   0.0800 
 29 H        9.0080    -5.6590    -0.1410 H     1 <1>   0.0800 
 30 H        8.0130    -4.8870    -1.3460 H     1 <1>   0.0800 
 31 H       10.4180    -2.2300    -0.3370 H     1 <1>   0.0800 
 32 H        9.7240    -3.0600    -1.7150 H     1 <1>   0.0800 
 33 H       10.7480    -3.9130    -0.5890 H     1 <1>   0.0800 
@<TRIPOS>BOND
  1   1   2  1   
  2   2   3  2   
  3   2   4  1   
  4   3   5  1   
  5   4   6  2   
  6   4  18  1   
  7   5   6  1   
  8   5   7  1   
  9   6   8  1   
 10   7   9  1   
 11   7  19  1   
 12   7  20  1   
 13   8  10  1   
 14   8  21  1   
 15   8  22  1   
 16   9  10  1   
 17   9  23  1   
 18   9  24  1   
 19  10  11  am  
 20  11  12  2   
 21  11  13  1   
 22  13  14  1   
 23  14  15  1   
 24  14  16  1   
 25  14  17  1   
 26  15  25  1   
 27  15  26  1   
 28  15  27  1   
 29  16  28  1   
 30  16  29  1   
 31  16  30  1   
 32  17  31  1   
 33  17  32  1   
 34  17  33  1   
@<TRIPOS>SUBSTRUCTURE
  1 ****  10 GROUP 4 **** **** 0

# MOE 2024.06 (io_trps.svl 2023.06)
