@<TRIPOS>MOLECULE
NONAME
49 51 1 0 0 
SMALL
USER_CHARGES


@<TRIPOS>ATOM
  1 O        0.2280    -0.5470    -1.2420 O.2   1 <1>  -0.5700 
  2 C        1.1090     0.2030    -0.8880 C.2   1 <1>   0.5690 
  3 N        2.1980    -0.2420    -0.1800 N.am  1 <1>  -0.6600 
  4 C        0.9570     1.6760    -1.2290 C.3   1 <1>  -0.0990 
  5 C        3.3280     0.6270     0.2480 C.3   1 <1>   0.1400 
  6 C        2.3570    -1.6880     0.1220 C.3   1 <1>   0.1400 
  7 C        2.2600     2.4770    -1.0980 C.3   1 <1>  -0.1600 
  8 C        2.9530     2.1120     0.2160 C.3   1 <1>  -0.1600 
  9 C        1.6350    -2.0260     1.4240 C.3   1 <1>  -0.0990 
 10 C        1.3880    -3.5150     1.4960 C.2   1 <1>   0.5690 
 11 O        2.1710    -4.1900     2.1180 O.2   1 <1>  -0.5700 
 12 N        0.3170    -4.0700     0.8530 N.am  1 <1>  -0.6600 
 13 C       -0.6780    -3.3660    -0.0040 C.3   1 <1>   0.1400 
 14 C        0.0670    -5.5320     0.8340 C.3   1 <1>   0.1400 
 15 C       -1.7960    -4.3870    -0.2010 C.3   1 <1>   0.2000 
 16 C       -1.0580    -5.7320    -0.1900 C.3   1 <1>  -0.0800 
 17 O       -2.6420    -4.3180     0.8970 O.3   1 <1>  -0.6800 
 18 C       -1.9500    -6.9560     0.0920 C.3   1 <1>   0.0200 
 19 C       -1.2160    -8.2780    -0.0530 C.2   1 <1>  -0.0400 
 20 O       -1.8360    -9.3780     0.2830 O.3   1 <1>  -0.0190 
 21 C        0.0120    -8.6180    -0.4790 C.2   1 <1>  -0.1500 
 22 N       -1.0920   -10.4310     0.1090 N.2   1 <1>  -0.4100 
 23 C        0.0280   -10.0040    -0.3500 C.2   1 <1>   0.1080 
 24 C        1.2000   -10.8940    -0.6980 C.3   1 <1>  -0.0590 
 25 H        0.5790     1.7630    -2.2310 H     1 <1>   0.0800 
 26 H        0.2190     2.0850    -0.5640 H     1 <1>   0.0800 
 27 H        3.6310     0.3590     1.2460 H     1 <1>   0.0800 
 28 H        4.1590     0.4540    -0.4140 H     1 <1>   0.0800 
 29 H        1.9380    -2.2610    -0.6880 H     1 <1>   0.0800 
 30 H        3.3990    -1.9470     0.1960 H     1 <1>   0.0800 
 31 H        2.9100     2.2420    -1.9240 H     1 <1>   0.0800 
 32 H        2.0450     3.5310    -1.1280 H     1 <1>   0.0800 
 33 H        2.3040     2.3310     1.0470 H     1 <1>   0.0800 
 34 H        3.8450     2.7020     0.3350 H     1 <1>   0.0800 
 35 H        0.6990    -1.5060     1.4840 H     1 <1>   0.0800 
 36 H        2.2400    -1.7270     2.2600 H     1 <1>   0.0800 
 37 H       -1.0450    -2.4590     0.4450 H     1 <1>   0.0800 
 38 H       -0.2260    -3.1350    -0.9540 H     1 <1>   0.0800 
 39 H        0.9610    -6.0640     0.5590 H     1 <1>   0.0800 
 40 H       -0.2430    -5.8460     1.8170 H     1 <1>   0.0800 
 41 H       -2.3730    -4.2180    -1.0930 H     1 <1>   0.0800 
 42 H       -0.6040    -5.8560    -1.1570 H     1 <1>   0.0800 
 43 H       -2.0980    -4.2670     1.7080 H     1 <1>   0.4000 
 44 H       -2.7820    -6.9530    -0.5900 H     1 <1>   0.0800 
 45 H       -2.3490    -6.8980     1.0900 H     1 <1>   0.0800 
 46 H        0.8180    -8.0100    -0.8430 H     1 <1>   0.1500 
 47 H        1.4500   -10.7810    -1.7360 H     1 <1>   0.0800 
 48 H        0.9480   -11.9220    -0.5110 H     1 <1>   0.0800 
 49 H        2.0500   -10.6300    -0.0960 H     1 <1>   0.0800 
@<TRIPOS>BOND
  1   1   2  2   
  2   2   3  am  
  3   2   4  1   
  4   3   5  1   
  5   3   6  1   
  6   4   7  1   
  7   4  25  1   
  8   4  26  1   
  9   5   8  1   
 10   5  27  1   
 11   5  28  1   
 12   6   9  1   
 13   6  29  1   
 14   6  30  1   
 15   7   8  1   
 16   7  31  1   
 17   7  32  1   
 18   8  33  1   
 19   8  34  1   
 20   9  10  1   
 21   9  35  1   
 22   9  36  1   
 23  10  11  2   
 24  10  12  am  
 25  12  13  1   
 26  12  14  1   
 27  13  15  1   
 28  13  37  1   
 29  13  38  1   
 30  14  16  1   
 31  14  39  1   
 32  14  40  1   
 33  15  16  1   
 34  15  17  1   
 35  15  41  1   
 36  16  18  1   
 37  16  42  1   
 38  17  43  1   
 39  18  19  1   
 40  18  44  1   
 41  18  45  1   
 42  19  20  1   
 43  19  21  2   
 44  20  22  1   
 45  21  23  1   
 46  21  46  1   
 47  22  23  2   
 48  23  24  1   
 49  24  47  1   
 50  24  48  1   
 51  24  49  1   
@<TRIPOS>SUBSTRUCTURE
  1 ****  12 GROUP 4 **** **** 0

# MOE 2024.06 (io_trps.svl 2023.06)
