@<TRIPOS>MOLECULE
NONAME
45 47 1 0 0 
SMALL
USER_CHARGES


@<TRIPOS>ATOM
  1 O        0.3570    -0.0670     2.3820 O.2   1 <1>  -0.5700 
  2 C        0.7000    -0.6970     1.4100 C.2   1 <1>   0.5690 
  3 N        1.3900    -0.1830     0.3490 N.am  1 <1>  -0.5470 
  4 C        0.3460    -2.1820     1.3260 C.3   1 <1>   0.1710 
  5 C        1.9000     1.0880     0.0490 C.ar  1 <1>   0.1170 
  6 N        0.2980    -2.7120    -0.0740 N.3   1 <1>  -0.8100 
  7 C        1.8530     2.1610     0.9350 C.ar  1 <1>  -0.1500 
  8 C        2.4860     1.2870    -1.1960 C.ar  1 <1>  -0.1500 
  9 C       -0.9120    -2.2640    -0.7930 C.3   1 <1>   0.1100 
 10 C        0.2070    -4.1770    -0.0750 C.3   1 <1>   0.1100 
 11 C        2.3730     3.3940     0.5850 C.ar  1 <1>  -0.1500 
 12 C        3.0080     2.5180    -1.5500 C.ar  1 <1>  -0.1500 
 13 C       -1.9930    -3.3330    -0.5870 C.3   1 <1>   0.2000 
 14 C       -1.2780    -4.5110     0.0730 C.3   1 <1>  -0.0800 
 15 C        2.9520     3.5750    -0.6590 C.ar  1 <1>  -0.1500 
 16 O       -2.9880    -2.8660     0.2560 O.3   1 <1>  -0.6800 
 17 C       -1.6580    -5.8710    -0.5340 C.3   1 <1>   0.0210 
 18 C       -0.8040    -6.9950     0.0270 C.2   1 <1>   0.1080 
 19 N       -0.5730    -7.1490     1.2940 N.2   1 <1>  -0.7070 
 20 C       -0.1770    -7.9700    -0.7420 C.2   1 <1>  -0.1500 
 21 N        0.2120    -8.2400     1.3680 N.pl3 1 <1>   0.3000 
 22 C        0.4680    -8.7540     0.1460 C.2   1 <1>  -0.3320 
 23 C        1.3240    -9.9830    -0.0990 C.3   1 <1>  -0.0600 
 24 H        1.5060    -0.8950    -0.3780 H     1 <1>   0.3700 
 25 H       -0.5940    -2.3400     1.8220 H     1 <1>   0.0800 
 26 H        1.1000    -2.7130     1.8790 H     1 <1>   0.0800 
 27 H        1.4100     2.0420     1.9060 H     1 <1>   0.1500 
 28 H        2.5350     0.4730    -1.8950 H     1 <1>   0.1500 
 29 H       -1.2410    -1.2880    -0.4780 H     1 <1>   0.0800 
 30 H       -0.6770    -2.2200    -1.8420 H     1 <1>   0.0800 
 31 H        0.5700    -4.5420    -1.0220 H     1 <1>   0.0800 
 32 H        0.7970    -4.6250     0.7080 H     1 <1>   0.0800 
 33 H        2.3280     4.2130     1.2820 H     1 <1>   0.1500 
 34 H        3.4580     2.6560    -2.5180 H     1 <1>   0.1500 
 35 H       -2.4500    -3.5920    -1.5270 H     1 <1>   0.0800 
 36 H       -1.4980    -4.5390     1.1260 H     1 <1>   0.0800 
 37 H        3.3570     4.5350    -0.9320 H     1 <1>   0.1500 
 38 H       -2.6090    -2.6370     1.1250 H     1 <1>   0.4000 
 39 H       -1.5420    -5.8420    -1.6020 H     1 <1>   0.0800 
 40 H       -2.6890    -6.0810    -0.3140 H     1 <1>   0.0800 
 41 H       -0.2160    -8.0580    -1.8130 H     1 <1>   0.1500 
 42 H        0.5530    -8.6080     2.2640 H     1 <1>   0.2700 
 43 H        1.3770   -10.1920    -1.1530 H     1 <1>   0.0800 
 44 H        0.8990   -10.8370     0.3980 H     1 <1>   0.0800 
 45 H        2.3220    -9.8220     0.2680 H     1 <1>   0.0800 
@<TRIPOS>BOND
  1   1   2  2   
  2   2   3  am  
  3   2   4  1   
  4   3   5  1   
  5   3  24  1   
  6   4   6  1   
  7   4  25  1   
  8   4  26  1   
  9   5   7  ar  
 10   5   8  ar  
 11   6   9  1   
 12   6  10  1   
 13   7  11  ar  
 14   7  27  1   
 15   8  12  ar  
 16   8  28  1   
 17   9  13  1   
 18   9  29  1   
 19   9  30  1   
 20  10  14  1   
 21  10  31  1   
 22  10  32  1   
 23  11  15  ar  
 24  11  33  1   
 25  12  15  ar  
 26  12  34  1   
 27  13  14  1   
 28  13  16  1   
 29  13  35  1   
 30  14  17  1   
 31  14  36  1   
 32  15  37  1   
 33  16  38  1   
 34  17  18  1   
 35  17  39  1   
 36  17  40  1   
 37  18  19  2   
 38  18  20  1   
 39  19  21  1   
 40  20  22  2   
 41  20  41  1   
 42  21  22  1   
 43  21  42  1   
 44  22  23  1   
 45  23  43  1   
 46  23  44  1   
 47  23  45  1   
@<TRIPOS>SUBSTRUCTURE
  1 ****   6 GROUP 4 **** **** 0

# MOE 2024.06 (io_trps.svl 2023.06)
