@<TRIPOS>MOLECULE
NONAME
42 44 1 0 0 
SMALL
USER_CHARGES


@<TRIPOS>ATOM
  1 CL      -0.8120    -0.7500    -0.7620 Cl    1 <1>  -0.1770 
  2 C       -2.0240     0.2990    -0.0540 C.ar  1 <1>   0.1770 
  3 C       -1.8660     1.6780    -0.1360 C.ar  1 <1>   0.0820 
  4 C       -3.1280    -0.2630     0.5650 C.ar  1 <1>  -0.1440 
  5 O       -0.7940     2.2280    -0.7360 O.3   1 <1>  -0.5320 
  6 C       -2.8280     2.5150     0.4060 C.ar  1 <1>  -0.1500 
  7 C       -4.0770     0.5950     1.0990 C.ar  1 <1>   0.1770 
  8 C       -3.2940    -1.7640     0.6690 C.3   1 <1>   0.4870 
  9 C       -3.9400     1.9710     1.0270 C.ar  1 <1>  -0.1500 
 10 CL      -5.4970    -0.0730     1.8700 Cl    1 <1>  -0.1770 
 11 N       -3.6580    -2.3430    -0.6590 N.4   1 <1>  -0.9590 
 12 C       -4.9290    -1.7790    -1.2310 C.3   1 <1>   0.3430 
 13 C       -3.8840    -3.8120    -0.5550 C.3   1 <1>   0.3430 
 14 C       -6.0400    -2.8000    -0.9460 C.3   1 <1>   0.2000 
 15 C       -5.3680    -3.9700    -0.2270 C.3   1 <1>  -0.0800 
 16 O       -7.0310    -2.2600    -0.1420 O.3   1 <1>  -0.6800 
 17 C       -5.9300    -5.3410    -0.6330 C.3   1 <1>  -0.0170 
 18 C       -5.0820    -6.4500    -0.0340 C.ar  1 <1>  -0.1430 
 19 C       -4.2050    -7.1970    -0.7960 C.ar  1 <1>  -0.1500 
 20 C       -5.1420    -6.7620     1.3090 C.ar  1 <1>  -0.1500 
 21 C       -3.4350    -8.1760    -0.1890 C.ar  1 <1>   0.1600 
 22 C       -4.3280    -7.7600     1.8170 C.ar  1 <1>   0.1600 
 23 N       -3.4680    -8.4630     1.1000 N.ar  1 <1>  -0.6200 
 24 H       -0.1360     1.5780    -1.0540 H     1 <1>   0.4500 
 25 H       -2.7000     3.5830     0.3400 H     1 <1>   0.1500 
 26 H       -4.0530    -2.0020     1.3960 H     1 <1>   0.0800 
 27 H       -2.3660    -2.1970     1.0110 H     1 <1>   0.0800 
 28 H       -4.6950     2.6110     1.4530 H     1 <1>   0.1500 
 29 H       -2.8710    -2.1490    -1.2970 H     1 <1>   0.4500 
 30 H       -5.1740    -0.8180    -0.8090 H     1 <1>   0.0800 
 31 H       -4.8250    -1.6720    -2.2990 H     1 <1>   0.0800 
 32 H       -3.6810    -4.2770    -1.5070 H     1 <1>   0.0800 
 33 H       -3.2600    -4.2720     0.1960 H     1 <1>   0.0800 
 34 H       -6.5000    -3.1020    -1.8720 H     1 <1>   0.0800 
 35 H       -5.4760    -3.8580     0.8380 H     1 <1>   0.0800 
 36 H       -6.7190    -1.9830     0.7430 H     1 <1>   0.4000 
 37 H       -5.9480    -5.4400    -1.7060 H     1 <1>   0.0800 
 38 H       -6.9450    -5.4360    -0.2830 H     1 <1>   0.0800 
 39 H       -4.1100    -7.0410    -1.8560 H     1 <1>   0.1500 
 40 H       -5.8150    -6.2450     1.9700 H     1 <1>   0.1500 
 41 H       -2.7560    -8.7530    -0.7950 H     1 <1>   0.1500 
 42 H       -4.3870    -7.9940     2.8680 H     1 <1>   0.1500 
@<TRIPOS>BOND
  1   1   2  1   
  2   2   3  ar  
  3   2   4  ar  
  4   3   5  1   
  5   3   6  ar  
  6   4   7  ar  
  7   4   8  1   
  8   5  24  1   
  9   6   9  ar  
 10   6  25  1   
 11   7   9  ar  
 12   7  10  1   
 13   8  11  1   
 14   8  26  1   
 15   8  27  1   
 16   9  28  1   
 17  11  12  1   
 18  11  13  1   
 19  11  29  1   
 20  12  14  1   
 21  12  30  1   
 22  12  31  1   
 23  13  15  1   
 24  13  32  1   
 25  13  33  1   
 26  14  15  1   
 27  14  16  1   
 28  14  34  1   
 29  15  17  1   
 30  15  35  1   
 31  16  36  1   
 32  17  18  1   
 33  17  37  1   
 34  17  38  1   
 35  18  19  ar  
 36  18  20  ar  
 37  19  21  ar  
 38  19  39  1   
 39  20  22  ar  
 40  20  40  1   
 41  21  23  ar  
 42  21  41  1   
 43  22  23  ar  
 44  22  42  1   
@<TRIPOS>SUBSTRUCTURE
  1 ****  11 GROUP 4 **** **** 0

# MOE 2024.06 (io_trps.svl 2023.06)
