@<TRIPOS>MOLECULE
NONAME
43 45 1 0 0 
SMALL
USER_CHARGES


@<TRIPOS>ATOM
  1 F       -0.5030     0.0780     2.2490 F     1 <1>  -0.1900 
  2 C       -1.2390     0.6990     1.3660 C.ar  1 <1>   0.1900 
  3 C       -1.5620     2.0210     1.5820 C.ar  1 <1>  -0.1500 
  4 C       -1.6590     0.0070     0.2470 C.ar  1 <1>  -0.1500 
  5 C       -2.3370     2.7120     0.6510 C.ar  1 <1>   0.0860 
  6 C       -2.4410     0.6750    -0.6760 C.ar  1 <1>  -0.1500 
  7 C       -2.7940     2.0040    -0.4780 C.ar  1 <1>   0.0830 
  8 C       -2.6030     4.1130     0.8860 C.2   1 <1>   0.5440 
  9 O       -3.5740     2.5510    -1.4390 O.3   1 <1>  -0.3630 
 10 O       -3.4450     4.4170     1.7090 O.2   1 <1>  -0.5700 
 11 N       -1.9110     5.1100     0.2230 N.am  1 <1>  -0.6600 
 12 C       -4.7080     3.3220    -1.0930 C.3   1 <1>   0.0400 
 13 C       -0.9530     4.8180    -0.8870 C.3   1 <1>   0.1400 
 14 C       -2.0820     6.5480     0.5870 C.3   1 <1>   0.1400 
 15 C        0.4610     4.5410    -0.3530 C.3   1 <1>   0.1400 
 16 C       -0.7510     7.2990     0.7440 C.3   1 <1>  -0.1600 
 17 N        1.1190     5.7700     0.1940 N.am  1 <1>  -0.6600 
 18 C        0.3950     6.4500     1.3070 C.3   1 <1>   0.1400 
 19 C        2.3780     6.1600    -0.2440 C.2   1 <1>   0.7160 
 20 O        3.0460     5.3390    -0.8500 O.2   1 <1>  -0.5700 
 21 C        2.9550     7.4790    -0.0200 C.2   1 <1>   0.1410 
 22 N        2.2530     8.6150     0.2130 N.2   1 <1>  -0.2270 
 23 C        4.2670     7.8200    -0.0330 C.2   1 <1>  -0.3020 
 24 N        3.0710     9.5960     0.3490 N.2   1 <1>  -0.4180 
 25 N        4.3080     9.1260     0.1970 N.pl3 1 <1>   0.3000 
 26 H       -1.2140     2.5210     2.4680 H     1 <1>   0.1500 
 27 H       -1.3810    -1.0230     0.1100 H     1 <1>   0.1500 
 28 H       -2.7910     0.1660    -1.5570 H     1 <1>   0.1500 
 29 H       -5.4280     3.2330    -1.8860 H     1 <1>   0.0800 
 30 H       -4.4150     4.3510    -0.9870 H     1 <1>   0.0800 
 31 H       -5.1270     2.9510    -0.1740 H     1 <1>   0.0800 
 32 H       -0.9220     5.6450    -1.5750 H     1 <1>   0.0800 
 33 H       -1.2900     3.9620    -1.4400 H     1 <1>   0.0800 
 34 H       -2.6140     6.6190     1.5210 H     1 <1>   0.0800 
 35 H       -2.6850     7.0320    -0.1610 H     1 <1>   0.0800 
 36 H        1.0430     4.1440    -1.1670 H     1 <1>   0.0800 
 37 H        0.4230     3.7860     0.4110 H     1 <1>   0.0800 
 38 H       -0.9240     8.1230     1.4120 H     1 <1>   0.0800 
 39 H       -0.4590     7.7270    -0.1980 H     1 <1>   0.0800 
 40 H        0.0140     5.7180     1.9990 H     1 <1>   0.0800 
 41 H        1.0740     7.0780     1.8550 H     1 <1>   0.0800 
 42 H        5.1290     7.2000    -0.1970 H     1 <1>   0.1500 
 43 H        5.1380     9.7270     0.2530 H     1 <1>   0.2700 
@<TRIPOS>BOND
  1   1   2  1   
  2   2   3  ar  
  3   2   4  ar  
  4   3   5  ar  
  5   3  26  1   
  6   4   6  ar  
  7   4  27  1   
  8   5   7  ar  
  9   5   8  1   
 10   6   7  ar  
 11   6  28  1   
 12   7   9  1   
 13   8  10  2   
 14   8  11  am  
 15   9  12  1   
 16  11  13  1   
 17  11  14  1   
 18  12  29  1   
 19  12  30  1   
 20  12  31  1   
 21  13  15  1   
 22  13  32  1   
 23  13  33  1   
 24  14  16  1   
 25  14  34  1   
 26  14  35  1   
 27  15  17  1   
 28  15  36  1   
 29  15  37  1   
 30  16  18  1   
 31  16  38  1   
 32  16  39  1   
 33  17  18  1   
 34  17  19  am  
 35  18  40  1   
 36  18  41  1   
 37  19  20  2   
 38  19  21  1   
 39  21  22  1   
 40  21  23  2   
 41  22  24  2   
 42  23  25  1   
 43  23  42  1   
 44  24  25  1   
 45  25  43  1   
@<TRIPOS>SUBSTRUCTURE
  1 ****  15 GROUP 4 **** **** 0

# MOE 2024.06 (io_trps.svl 2023.06)
