@<TRIPOS>MOLECULE
NONAME
52 54 1 0 0 
SMALL
USER_CHARGES


@<TRIPOS>ATOM
  1 O       -0.6280     1.0210    -0.4730 O.2   1 <1>  -0.5700 
  2 C       -0.6620     2.2260    -0.5550 C.2   1 <1>   0.5690 
  3 N       -1.1590     3.0450     0.4280 N.am  1 <1>  -0.6600 
  4 C       -0.1220     2.8580    -1.8340 C.3   1 <1>   0.1810 
  5 C       -1.1780     4.5370     0.2450 C.3   1 <1>   0.3640 
  6 C       -1.6270     2.5750     1.7630 C.3   1 <1>   0.2200 
  7 O        0.4400     4.1220    -1.5930 O.3   1 <1>  -0.5600 
  8 C       -2.6280     5.0270     0.2680 C.ar  1 <1>  -0.1440 
  9 C       -0.4730     5.0580    -1.0390 C.3   1 <1>   0.2610 
 10 C       -0.4660     1.9570     2.5400 C.3   1 <1>  -0.2400 
 11 C       -2.8080     1.6120     1.6350 C.3   1 <1>  -0.2400 
 12 C       -2.9870     6.0950     1.0780 C.ar  1 <1>  -0.1500 
 13 C       -3.6010     4.4220    -0.5170 C.ar  1 <1>  -0.1500 
 14 C        0.2490     6.3780    -0.7360 C.2   1 <1>   0.5690 
 15 C       -4.2940     6.5490     1.1050 C.ar  1 <1>  -0.1500 
 16 C       -4.9090     4.8750    -0.4910 C.ar  1 <1>  -0.1500 
 17 O       -0.3480     7.2910    -0.2120 O.2   1 <1>  -0.5700 
 18 N        1.5680     6.5010    -1.0490 N.am  1 <1>  -0.7300 
 19 C       -5.2560     5.9390     0.3200 C.ar  1 <1>  -0.1500 
 20 C        2.3690     7.7370    -0.8980 C.3   1 <1>   0.1400 
 21 C        2.7960     7.9220     0.5600 C.3   1 <1>   0.0200 
 22 C        3.0680     9.3870     0.8390 C.2   1 <1>   0.0060 
 23 N        4.2450     9.9090     0.8830 N.2   1 <1>  -0.3380 
 24 N        2.1140    10.2990     1.0600 N.pl3 1 <1>   0.0480 
 25 N        4.0860    11.2090     1.1410 N.2   1 <1>  -0.3380 
 26 C        2.8190    11.4170     1.2420 C.2   1 <1>   0.0360 
 27 C        0.6470    10.1350     1.0880 C.3   1 <1>   0.0160 
 28 H       -0.9120     2.9570    -2.5570 H     1 <1>   0.0800 
 29 H        0.6480     2.2290    -2.2420 H     1 <1>   0.0800 
 30 H       -0.6640     4.9620     1.0900 H     1 <1>   0.0800 
 31 H       -1.9750     3.4260     2.3260 H     1 <1>   0.0800 
 32 H       -1.2130     5.2610    -1.7920 H     1 <1>   0.0800 
 33 H       -0.1240     1.0550     2.0650 H     1 <1>   0.0800 
 34 H       -0.7860     1.7090     3.5360 H     1 <1>   0.0800 
 35 H        0.3500     2.6530     2.6080 H     1 <1>   0.0800 
 36 H       -2.5140     0.6950     1.1580 H     1 <1>   0.0800 
 37 H       -3.6000     2.0680     1.0710 H     1 <1>   0.0800 
 38 H       -3.1860     1.3720     2.6110 H     1 <1>   0.0800 
 39 H       -2.2510     6.5870     1.6890 H     1 <1>   0.1500 
 40 H       -3.3510     3.5870    -1.1480 H     1 <1>   0.1500 
 41 H       -4.5640     7.3780     1.7360 H     1 <1>   0.1500 
 42 H       -5.6560     4.3980    -1.1010 H     1 <1>   0.1500 
 43 H        2.0260     5.6860    -1.4740 H     1 <1>   0.3700 
 44 H       -6.2730     6.2920     0.3410 H     1 <1>   0.1500 
 45 H        3.2360     7.7020    -1.5360 H     1 <1>   0.0800 
 46 H        1.7640     8.5730    -1.2070 H     1 <1>   0.0800 
 47 H        3.6870     7.3490     0.7480 H     1 <1>   0.0800 
 48 H        2.0270     7.5790     1.2280 H     1 <1>   0.0800 
 49 H        2.3710    12.3710     1.4460 H     1 <1>   0.1500 
 50 H        0.1880    11.0290     1.4690 H     1 <1>   0.0800 
 51 H        0.3890     9.3050     1.7210 H     1 <1>   0.0800 
 52 H        0.2880     9.9450     0.0930 H     1 <1>   0.0800 
@<TRIPOS>BOND
  1   1   2  2   
  2   2   3  am  
  3   2   4  1   
  4   3   5  1   
  5   3   6  1   
  6   4   7  1   
  7   4  28  1   
  8   4  29  1   
  9   5   8  1   
 10   5   9  1   
 11   5  30  1   
 12   6  10  1   
 13   6  11  1   
 14   6  31  1   
 15   7   9  1   
 16   8  12  ar  
 17   8  13  ar  
 18   9  14  1   
 19   9  32  1   
 20  10  33  1   
 21  10  34  1   
 22  10  35  1   
 23  11  36  1   
 24  11  37  1   
 25  11  38  1   
 26  12  15  ar  
 27  12  39  1   
 28  13  16  ar  
 29  13  40  1   
 30  14  17  2   
 31  14  18  am  
 32  15  19  ar  
 33  15  41  1   
 34  16  19  ar  
 35  16  42  1   
 36  18  20  1   
 37  18  43  1   
 38  19  44  1   
 39  20  21  1   
 40  20  45  1   
 41  20  46  1   
 42  21  22  1   
 43  21  47  1   
 44  21  48  1   
 45  22  23  2   
 46  22  24  1   
 47  23  25  1   
 48  24  26  1   
 49  24  27  1   
 50  25  26  2   
 51  26  49  1   
 52  27  50  1   
 53  27  51  1   
 54  27  52  1   
@<TRIPOS>SUBSTRUCTURE
  1 ****  14 GROUP 4 **** **** 0

# MOE 2024.06 (io_trps.svl 2023.06)
