@<TRIPOS>MOLECULE
NONAME
53 55 1 0 0 
SMALL
USER_CHARGES


@<TRIPOS>ATOM
  1 O       -0.3610    -0.9790    -1.3300 O.2   1 <1>  -0.5700 
  2 C        0.5710    -1.4800    -0.7330 C.2   1 <1>   0.7800 
  3 O        1.4770    -0.7150    -0.1160 O.3   1 <1>  -0.4300 
  4 N        0.7490    -2.8420    -0.6710 N.am  1 <1>  -0.6600 
  5 C        1.5030     0.6940    -0.0410 C.3   1 <1>   0.2800 
  6 C       -0.2090    -3.7660    -1.3410 C.3   1 <1>   0.1400 
  7 C        1.9240    -3.4670     0.0000 C.3   1 <1>   0.1400 
  8 C        2.7470     1.0250     0.7840 C.3   1 <1>  -0.2400 
  9 C        1.6520     1.2980    -1.4430 C.3   1 <1>  -0.2400 
 10 C        0.2590     1.2110     0.6910 C.3   1 <1>  -0.2400 
 11 C       -0.6350    -4.8770    -0.3790 C.3   1 <1>  -0.1600 
 12 C        1.4660    -4.5730     0.9540 C.3   1 <1>  -0.1600 
 13 C        0.5510    -5.5980     0.2760 C.3   1 <1>   0.4600 
 14 O        1.2710    -6.1890    -0.7500 O.3   1 <1>  -0.6800 
 15 C        0.0950    -6.6760     1.2830 C.2   1 <1>   0.0060 
 16 N       -1.0810    -6.6600     1.8420 N.2   1 <1>  -0.5650 
 17 N        0.8630    -7.7250     1.7020 N.pl3 1 <1>   0.0480 
 18 C       -1.0890    -7.7360     2.6440 C.2   1 <1>   0.0770 
 19 C        0.0840    -8.3950     2.5740 C.2   1 <1>  -0.3020 
 20 C        2.2590    -8.1150     1.3800 C.3   1 <1>   0.2390 
 21 C        2.3090    -9.4700     0.6870 C.ar  1 <1>  -0.1440 
 22 C        1.6650    -9.6580    -0.5270 C.ar  1 <1>  -0.1500 
 23 C        3.0020   -10.5280     1.2580 C.ar  1 <1>  -0.1500 
 24 C        1.7130   -10.8850    -1.1630 C.ar  1 <1>  -0.1500 
 25 C        3.0510   -11.7560     0.6220 C.ar  1 <1>  -0.1500 
 26 C        2.4070   -11.9360    -0.5890 C.ar  1 <1>  -0.1500 
 27 H        0.2560    -4.1820    -2.2170 H     1 <1>   0.0800 
 28 H       -1.0870    -3.2310    -1.6640 H     1 <1>   0.0800 
 29 H        2.4820    -2.7360     0.5600 H     1 <1>   0.0800 
 30 H        2.5810    -3.8710    -0.7510 H     1 <1>   0.0800 
 31 H        3.6290     0.6480     0.2980 H     1 <1>   0.0800 
 32 H        2.6720     0.5890     1.7640 H     1 <1>   0.0800 
 33 H        2.8500     2.0900     0.8940 H     1 <1>   0.0800 
 34 H        2.4910     0.8610    -1.9520 H     1 <1>   0.0800 
 35 H        1.8130     2.3580    -1.3690 H     1 <1>   0.0800 
 36 H        0.7640     1.1460    -2.0280 H     1 <1>   0.0800 
 37 H        0.1490     0.7120     1.6370 H     1 <1>   0.0800 
 38 H       -0.6280     1.0580     0.1060 H     1 <1>   0.0800 
 39 H        0.3510     2.2660     0.8700 H     1 <1>   0.0800 
 40 H       -1.2540    -5.5940    -0.8880 H     1 <1>   0.0800 
 41 H       -1.2420    -4.4320     0.3910 H     1 <1>   0.0800 
 42 H        0.9270    -4.1210     1.7680 H     1 <1>   0.0800 
 43 H        2.3210    -5.0660     1.3760 H     1 <1>   0.0800 
 44 H        1.4060    -5.5250    -1.4480 H     1 <1>   0.4000 
 45 H       -1.9530    -7.9850     3.2370 H     1 <1>   0.1500 
 46 H        0.3980    -9.2890     3.0800 H     1 <1>   0.1500 
 47 H        2.8100    -8.1550     2.3010 H     1 <1>   0.0800 
 48 H        2.7220    -7.3760     0.7580 H     1 <1>   0.0800 
 49 H        1.1190    -8.8480    -0.9800 H     1 <1>   0.1500 
 50 H        3.5080   -10.4050     2.2000 H     1 <1>   0.1500 
 51 H        1.2090   -11.0220    -2.1040 H     1 <1>   0.1500 
 52 H        3.5900   -12.5730     1.0690 H     1 <1>   0.1500 
 53 H        2.4440   -12.8900    -1.0840 H     1 <1>   0.1500 
@<TRIPOS>BOND
  1   1   2  2   
  2   2   3  1   
  3   2   4  am  
  4   3   5  1   
  5   4   6  1   
  6   4   7  1   
  7   5   8  1   
  8   5   9  1   
  9   5  10  1   
 10   6  11  1   
 11   6  27  1   
 12   6  28  1   
 13   7  12  1   
 14   7  29  1   
 15   7  30  1   
 16   8  31  1   
 17   8  32  1   
 18   8  33  1   
 19   9  34  1   
 20   9  35  1   
 21   9  36  1   
 22  10  37  1   
 23  10  38  1   
 24  10  39  1   
 25  11  13  1   
 26  11  40  1   
 27  11  41  1   
 28  12  13  1   
 29  12  42  1   
 30  12  43  1   
 31  13  14  1   
 32  13  15  1   
 33  14  44  1   
 34  15  16  2   
 35  15  17  1   
 36  16  18  1   
 37  17  19  1   
 38  17  20  1   
 39  18  19  2   
 40  18  45  1   
 41  19  46  1   
 42  20  21  1   
 43  20  47  1   
 44  20  48  1   
 45  21  22  ar  
 46  21  23  ar  
 47  22  24  ar  
 48  22  49  1   
 49  23  25  ar  
 50  23  50  1   
 51  24  26  ar  
 52  24  51  1   
 53  25  26  ar  
 54  25  52  1   
 55  26  53  1   
@<TRIPOS>SUBSTRUCTURE
  1 ****  13 GROUP 4 **** **** 0

# MOE 2024.06 (io_trps.svl 2023.06)
