@<TRIPOS>MOLECULE
NONAME
46 49 1 0 0 
SMALL
USER_CHARGES


@<TRIPOS>ATOM
  1 S       -0.2340    -0.6160    -2.2320 S.3   1 <1>  -0.0800 
  2 C       -0.4300    -1.3420    -0.6360 C.2   1 <1>   0.4620 
  3 C        1.4380    -0.2920    -1.8720 C.2   1 <1>  -0.1100 
  4 N        0.6530    -1.3270     0.0580 N.2   1 <1>  -0.5650 
  5 N       -1.6550    -1.8530    -0.2530 N.pl3 1 <1>  -0.8220 
  6 C        1.6930    -0.7390    -0.6350 C.2   1 <1>   0.0770 
  7 C       -2.8820    -1.8600    -1.0920 C.3   1 <1>   0.2090 
  8 C       -1.8360    -2.4820     1.0830 C.3   1 <1>   0.2090 
  9 C       -3.3160    -3.3090    -1.3120 C.3   1 <1>  -0.1600 
 10 C       -2.2670    -3.9350     0.8910 C.3   1 <1>  -0.1600 
 11 C       -3.5270    -4.0480     0.0210 C.3   1 <1>   0.4240 
 12 O       -4.5370    -3.3780     0.7400 O.3   1 <1>  -0.5600 
 13 C       -3.8870    -5.5310    -0.2170 C.ar  1 <1>  -0.1430 
 14 C       -5.8610    -3.6900     0.4380 C.3   1 <1>   0.1200 
 15 C       -5.1170    -6.0480     0.1710 C.ar  1 <1>  -0.1430 
 16 C       -2.9820    -6.3850    -0.8350 C.ar  1 <1>  -0.1500 
 17 C       -6.1280    -5.1370     0.8380 C.3   1 <1>  -0.0170 
 18 C       -5.4250    -7.3810    -0.0510 C.ar  1 <1>  -0.1500 
 19 C       -3.2710    -7.7210    -1.0590 C.ar  1 <1>   0.0820 
 20 C       -4.5180    -8.2340    -0.6720 C.ar  1 <1>   0.0820 
 21 O       -2.2740    -8.4290    -1.6620 O.3   1 <1>  -0.3630 
 22 O       -4.8270    -9.5400    -0.9260 O.3   1 <1>  -0.3630 
 23 C       -2.0550    -9.7860    -1.3470 C.3   1 <1>   0.0400 
 24 C       -6.1210   -10.0610    -0.7150 C.3   1 <1>   0.0400 
 25 H        2.0350     0.1940    -2.6210 H     1 <1>   0.1500 
 26 H        2.6460    -0.6770    -0.1380 H     1 <1>   0.1500 
 27 H       -2.7170    -1.3860    -2.0410 H     1 <1>   0.0800 
 28 H       -3.6590    -1.3170    -0.5800 H     1 <1>   0.0800 
 29 H       -2.5890    -1.9400     1.6300 H     1 <1>   0.0800 
 30 H       -0.9220    -2.4470     1.6510 H     1 <1>   0.0800 
 31 H       -2.5470    -3.8020    -1.8780 H     1 <1>   0.0800 
 32 H       -4.2110    -3.3410    -1.9010 H     1 <1>   0.0800 
 33 H       -2.4550    -4.3900     1.8460 H     1 <1>   0.0800 
 34 H       -1.4510    -4.4620     0.4350 H     1 <1>   0.0800 
 35 H       -6.0310    -3.5400    -0.6140 H     1 <1>   0.0800 
 36 H       -6.4930    -3.0220     0.9960 H     1 <1>   0.0800 
 37 H       -2.0230    -6.0230    -1.1550 H     1 <1>   0.1500 
 38 H       -7.1260    -5.4060     0.5420 H     1 <1>   0.0800 
 39 H       -6.0530    -5.2320     1.9060 H     1 <1>   0.0800 
 40 H       -6.3850    -7.7360     0.2690 H     1 <1>   0.1500 
 41 H       -1.0440   -10.0320    -1.6140 H     1 <1>   0.0800 
 42 H       -2.7390   -10.3890    -1.9160 H     1 <1>   0.0800 
 43 H       -2.2050    -9.9310    -0.2920 H     1 <1>   0.0800 
 44 H       -6.1290   -11.0810    -1.0540 H     1 <1>   0.0800 
 45 H       -6.8270    -9.4820    -1.2840 H     1 <1>   0.0800 
 46 H       -6.3460   -10.0250     0.3360 H     1 <1>   0.0800 
@<TRIPOS>BOND
  1   1   2  1   
  2   1   3  1   
  3   2   4  2   
  4   2   5  1   
  5   3   6  2   
  6   3  25  1   
  7   4   6  1   
  8   5   7  1   
  9   5   8  1   
 10   6  26  1   
 11   7   9  1   
 12   7  27  1   
 13   7  28  1   
 14   8  10  1   
 15   8  29  1   
 16   8  30  1   
 17   9  11  1   
 18   9  31  1   
 19   9  32  1   
 20  10  11  1   
 21  10  33  1   
 22  10  34  1   
 23  11  12  1   
 24  11  13  1   
 25  12  14  1   
 26  13  15  ar  
 27  13  16  ar  
 28  14  17  1   
 29  14  35  1   
 30  14  36  1   
 31  15  17  1   
 32  15  18  ar  
 33  16  19  ar  
 34  16  37  1   
 35  17  38  1   
 36  17  39  1   
 37  18  20  ar  
 38  18  40  1   
 39  19  20  ar  
 40  19  21  1   
 41  20  22  1   
 42  21  23  1   
 43  22  24  1   
 44  23  41  1   
 45  23  42  1   
 46  23  43  1   
 47  24  44  1   
 48  24  45  1   
 49  24  46  1   
@<TRIPOS>SUBSTRUCTURE
  1 ****  11 GROUP 4 **** **** 0

# MOE 2024.06 (io_trps.svl 2023.06)
