@<TRIPOS>MOLECULE
NONAME
58 60 1 0 0 
SMALL
USER_CHARGES


@<TRIPOS>ATOM
  1 O       -0.2960     0.6050     1.1340 O.2   1 <1>  -0.5700 
  2 C       -0.2070     1.8040     1.0630 C.2   1 <1>   0.5690 
  3 N       -1.2340     2.5410     0.5820 N.am  1 <1>  -0.7300 
  4 C        1.0900     2.5050     1.4910 C.3   1 <1>   0.1810 
  5 C       -1.2190     4.0230     0.5560 C.3   1 <1>   0.3640 
  6 O        0.9330     3.8920     1.7050 O.3   1 <1>  -0.5600 
  7 C       -1.8470     4.5260    -0.7380 C.ar  1 <1>  -0.1440 
  8 C        0.2210     4.5710     0.6830 C.3   1 <1>   0.2610 
  9 C       -1.5750     3.9200    -1.9580 C.ar  1 <1>   0.1600 
 10 C       -2.6800     5.6270    -0.7180 C.ar  1 <1>  -0.1500 
 11 C        0.1730     6.0910     0.9250 C.2   1 <1>   0.5690 
 12 N       -2.0490     4.3210    -3.1260 N.ar  1 <1>  -0.6200 
 13 C       -3.1890     6.0540    -1.9260 C.ar  1 <1>  -0.1500 
 14 O       -0.5810     6.4830     1.7900 O.2   1 <1>  -0.5700 
 15 N        0.9050     6.9810     0.1610 N.am  1 <1>  -0.6600 
 16 C       -2.8460     5.3760    -3.0830 C.ar  1 <1>   0.1600 
 17 C        0.7310     8.4570     0.3660 C.3   1 <1>   0.2200 
 18 C        1.7650     6.5660    -0.9910 C.3   1 <1>   0.1400 
 19 C       -0.0750     9.0470    -0.8060 C.3   1 <1>  -0.1600 
 20 C        2.0840     9.1350     0.6330 C.3   1 <1>  -0.1600 
 21 C        3.0900     5.9770    -0.4920 C.3   1 <1>  -0.1600 
 22 C       -0.7030    10.4060    -0.4580 C.3   1 <1>  -0.1600 
 23 C        1.9950    10.6450     0.9080 C.3   1 <1>  -0.1600 
 24 C        3.9490     5.4860    -1.6630 C.3   1 <1>  -0.1600 
 25 C        0.2060    11.6230    -0.6940 C.3   1 <1>  -0.1600 
 26 C        1.6970    11.4550    -0.3620 C.3   1 <1>  -0.1600 
 27 C        5.2690     4.8940    -1.1640 C.3   1 <1>  -0.2400 
 28 H       -2.1140     2.0700     0.3650 H     1 <1>   0.3700 
 29 H        1.8390     2.3620     0.7340 H     1 <1>   0.0800 
 30 H        1.4400     2.0720     2.4100 H     1 <1>   0.0800 
 31 H       -1.8020     4.3730     1.3910 H     1 <1>   0.0800 
 32 H        0.7300     4.3650    -0.2350 H     1 <1>   0.0800 
 33 H       -0.9290     3.0580    -1.9810 H     1 <1>   0.1500 
 34 H       -2.9210     6.1440     0.1980 H     1 <1>   0.1500 
 35 H       -3.8430     6.9050    -1.9730 H     1 <1>   0.1500 
 36 H       -3.2490     5.7190    -4.0210 H     1 <1>   0.1500 
 37 H        0.1450     8.6100     1.2570 H     1 <1>   0.0800 
 38 H        1.2380     5.8520    -1.5990 H     1 <1>   0.0800 
 39 H        1.9730     7.4120    -1.6220 H     1 <1>   0.0800 
 40 H        0.5290     9.1350    -1.6900 H     1 <1>   0.0800 
 41 H       -0.8810     8.3670    -1.0190 H     1 <1>   0.0800 
 42 H        2.5150     8.6650     1.4990 H     1 <1>   0.0800 
 43 H        2.7530     8.9800    -0.1930 H     1 <1>   0.0800 
 44 H        3.6310     6.7310     0.0520 H     1 <1>   0.0800 
 45 H        2.9050     5.1570     0.1770 H     1 <1>   0.0800 
 46 H       -1.5880    10.5380    -1.0560 H     1 <1>   0.0800 
 47 H       -1.0270    10.3970     0.5690 H     1 <1>   0.0800 
 48 H        1.2680    10.8540     1.6740 H     1 <1>   0.0800 
 49 H        2.9530    10.9620     1.2840 H     1 <1>   0.0800 
 50 H        3.4130     4.7350    -2.2190 H     1 <1>   0.0800 
 51 H        4.1600     6.3070    -2.3280 H     1 <1>   0.0800 
 52 H        0.1310    11.9120    -1.7280 H     1 <1>   0.0800 
 53 H       -0.1850    12.4410    -0.1140 H     1 <1>   0.0800 
 54 H        2.1170    12.4400    -0.2460 H     1 <1>   0.0800 
 55 H        2.2010    11.0050    -1.2010 H     1 <1>   0.0800 
 56 H        5.0860     4.0560    -0.5130 H     1 <1>   0.0800 
 57 H        5.8340     5.6340    -0.6240 H     1 <1>   0.0800 
 58 H        5.8600     4.5560    -1.9970 H     1 <1>   0.0800 
@<TRIPOS>BOND
  1   1   2  2   
  2   2   3  am  
  3   2   4  1   
  4   3   5  1   
  5   3  28  1   
  6   4   6  1   
  7   4  29  1   
  8   4  30  1   
  9   5   7  1   
 10   5   8  1   
 11   5  31  1   
 12   6   8  1   
 13   7   9  ar  
 14   7  10  ar  
 15   8  11  1   
 16   8  32  1   
 17   9  12  ar  
 18   9  33  1   
 19  10  13  ar  
 20  10  34  1   
 21  11  14  2   
 22  11  15  am  
 23  12  16  ar  
 24  13  16  ar  
 25  13  35  1   
 26  15  17  1   
 27  15  18  1   
 28  16  36  1   
 29  17  19  1   
 30  17  20  1   
 31  17  37  1   
 32  18  21  1   
 33  18  38  1   
 34  18  39  1   
 35  19  22  1   
 36  19  40  1   
 37  19  41  1   
 38  20  23  1   
 39  20  42  1   
 40  20  43  1   
 41  21  24  1   
 42  21  44  1   
 43  21  45  1   
 44  22  25  1   
 45  22  46  1   
 46  22  47  1   
 47  23  26  1   
 48  23  48  1   
 49  23  49  1   
 50  24  27  1   
 51  24  50  1   
 52  24  51  1   
 53  25  26  1   
 54  25  52  1   
 55  25  53  1   
 56  26  54  1   
 57  26  55  1   
 58  27  56  1   
 59  27  57  1   
 60  27  58  1   
@<TRIPOS>SUBSTRUCTURE
  1 ****  11 GROUP 4 **** **** 0

# MOE 2024.06 (io_trps.svl 2023.06)
