@<TRIPOS>MOLECULE
NONAME
48 50 1 0 0 
SMALL
USER_CHARGES


@<TRIPOS>ATOM
  1 O       -0.0670    -0.0340    -0.5900 O.3   1 <1>  -0.2800 
  2 C        0.9000    -0.9320    -0.5970 C.2   1 <1>  -0.0400 
  3 C        0.4530     1.1160    -0.2150 C.2   1 <1>  -0.0400 
  4 C        2.0680    -0.3670    -0.2240 C.2   1 <1>  -0.1500 
  5 C        0.5790    -2.3610    -0.9910 C.3   1 <1>   0.5230 
  6 C        1.7750     0.9780     0.0290 C.2   1 <1>  -0.1810 
  7 C       -0.4690     2.3160    -0.1340 C.3   1 <1>  -0.0600 
  8 N       -0.3520    -2.9460     0.0120 N.4   1 <1>  -0.9590 
  9 C        2.8050     1.9990     0.4770 C.3   1 <1>  -0.0590 
 10 C       -1.7350    -2.4340    -0.1480 C.3   1 <1>   0.3430 
 11 C       -0.4480    -4.4250    -0.0260 C.3   1 <1>   0.3430 
 12 C       -2.6020    -3.4300     0.6110 C.3   1 <1>  -0.0800 
 13 C       -1.8610    -4.7770     0.4520 C.3   1 <1>  -0.0800 
 14 C       -4.0890    -3.4250     0.1730 C.3   1 <1>   0.2800 
 15 C       -2.5440    -5.7290    -0.5450 C.3   1 <1>  -0.1600 
 16 O       -4.1460    -3.2280    -1.1920 O.3   1 <1>  -0.6800 
 17 C       -4.7220    -4.7950     0.4760 C.3   1 <1>  -0.1600 
 18 C       -4.9230    -2.3060     0.8360 C.3   1 <1>  -0.1600 
 19 C       -4.0140    -5.9950    -0.1850 C.3   1 <1>  -0.1600 
 20 C       -4.4690    -0.8590     0.5710 C.3   1 <1>  -0.2400 
 21 H        3.0440    -0.8100    -0.1250 H     1 <1>   0.1500 
 22 H        1.4940    -2.9270    -1.0170 H     1 <1>   0.0800 
 23 H        0.1340    -2.3780    -1.9730 H     1 <1>   0.0800 
 24 H        0.0700     3.1920     0.1740 H     1 <1>   0.0800 
 25 H       -1.2540     2.1250     0.5730 H     1 <1>   0.0800 
 26 H       -0.9060     2.5010    -1.0990 H     1 <1>   0.0800 
 27 H       -0.0250    -2.6390     0.9370 H     1 <1>   0.4500 
 28 H        3.2430     1.6930     1.4100 H     1 <1>   0.0800 
 29 H        2.3550     2.9650     0.6100 H     1 <1>   0.0800 
 30 H        3.5820     2.0820    -0.2610 H     1 <1>   0.0800 
 31 H       -1.8350    -1.4330     0.2390 H     1 <1>   0.0800 
 32 H       -2.0060    -2.4370    -1.1910 H     1 <1>   0.0800 
 33 H       -0.3200    -4.7740    -1.0380 H     1 <1>   0.0800 
 34 H        0.3010    -4.8810     0.6020 H     1 <1>   0.0800 
 35 H       -2.5650    -3.1680     1.6540 H     1 <1>   0.0800 
 36 H       -1.8030    -5.2700     1.4070 H     1 <1>   0.0800 
 37 H       -2.5110    -5.2920    -1.5290 H     1 <1>   0.0800 
 38 H       -2.0150    -6.6660    -0.5930 H     1 <1>   0.0800 
 39 H       -5.0750    -3.2930    -1.4880 H     1 <1>   0.4000 
 40 H       -4.6890    -4.9400     1.5420 H     1 <1>   0.0800 
 41 H       -5.7630    -4.7970     0.2010 H     1 <1>   0.0800 
 42 H       -5.9440    -2.4010     0.5070 H     1 <1>   0.0800 
 43 H       -4.9320    -2.4640     1.9000 H     1 <1>   0.0800 
 44 H       -4.0750    -6.8400     0.4800 H     1 <1>   0.0800 
 45 H       -4.5390    -6.2640    -1.0870 H     1 <1>   0.0800 
 46 H       -4.3590    -0.6740    -0.4830 H     1 <1>   0.0800 
 47 H       -3.5420    -0.6440     1.0700 H     1 <1>   0.0800 
 48 H       -5.2080    -0.1760     0.9520 H     1 <1>   0.0800 
@<TRIPOS>BOND
  1   1   2  1   
  2   1   3  1   
  3   2   4  2   
  4   2   5  1   
  5   3   6  2   
  6   3   7  1   
  7   4   6  1   
  8   4  21  1   
  9   5   8  1   
 10   5  22  1   
 11   5  23  1   
 12   6   9  1   
 13   7  24  1   
 14   7  25  1   
 15   7  26  1   
 16   8  10  1   
 17   8  11  1   
 18   8  27  1   
 19   9  28  1   
 20   9  29  1   
 21   9  30  1   
 22  10  12  1   
 23  10  31  1   
 24  10  32  1   
 25  11  13  1   
 26  11  33  1   
 27  11  34  1   
 28  12  13  1   
 29  12  14  1   
 30  12  35  1   
 31  13  15  1   
 32  13  36  1   
 33  14  16  1   
 34  14  17  1   
 35  14  18  1   
 36  15  19  1   
 37  15  37  1   
 38  15  38  1   
 39  16  39  1   
 40  17  19  1   
 41  17  40  1   
 42  17  41  1   
 43  18  20  1   
 44  18  42  1   
 45  18  43  1   
 46  19  44  1   
 47  19  45  1   
 48  20  46  1   
 49  20  47  1   
 50  20  48  1   
@<TRIPOS>SUBSTRUCTURE
  1 ****  10 GROUP 4 **** **** 0

# MOE 2024.06 (io_trps.svl 2023.06)
