@<TRIPOS>MOLECULE
NONAME
53 56 1 0 0 
SMALL
USER_CHARGES


@<TRIPOS>ATOM
  1 O       -0.2290     1.1730    -1.8090 O.2   1 <1>  -0.5700 
  2 C       -0.3290     2.3690    -1.6690 C.2   1 <1>   0.5690 
  3 N       -1.0240     2.9580    -0.6380 N.am  1 <1>  -0.6600 
  4 C        0.3670     3.2470    -2.7130 C.3   1 <1>   0.1810 
  5 C       -1.0770     4.4560    -0.5160 C.3   1 <1>   0.3640 
  6 C       -1.5780     2.2100     0.5300 C.3   1 <1>   0.2200 
  7 O        0.6680     4.5320    -2.2280 O.3   1 <1>  -0.5600 
  8 C       -2.5140     4.9320    -0.3040 C.ar  1 <1>  -0.1440 
  9 C       -0.4660     5.2060    -1.7240 C.3   1 <1>   0.2610 
 10 C       -0.4500     1.5360     1.3110 C.3   1 <1>  -0.2400 
 11 C       -2.6500     1.2100     0.0960 C.3   1 <1>  -0.2400 
 12 C       -2.8030     5.8240     0.7190 C.ar  1 <1>  -0.1500 
 13 C       -3.5430     4.4930    -1.1270 C.ar  1 <1>  -0.1500 
 14 C       -0.1320     6.6490    -1.3360 C.2   1 <1>   0.5690 
 15 C       -4.0990     6.2670     0.9190 C.ar  1 <1>  -0.1500 
 16 C       -4.8390     4.9350    -0.9280 C.ar  1 <1>  -0.1500 
 17 O       -0.6960     7.5450    -1.9210 O.2   1 <1>  -0.5700 
 18 N        0.7590     6.9200    -0.3350 N.am  1 <1>  -0.5100 
 19 C       -5.1170     5.8230     0.0950 C.ar  1 <1>  -0.1500 
 20 C        1.4330     8.2230    -0.0460 C.3   1 <1>   0.2250 
 21 C        1.9610     6.1700     0.1510 C.3   1 <1>   0.2250 
 22 C        2.7850     7.4660    -0.0550 C.3   1 <1>   0.1080 
 23 C        3.7320     7.8110     1.0920 C.ar  1 <1>  -0.1080 
 24 C        3.8680     9.1000     1.5720 C.ar  1 <1>  -0.1500 
 25 C        4.5200     6.8530     1.7010 C.ar  1 <1>  -0.1500 
 26 C        4.7430     9.3560     2.6150 C.ar  1 <1>   0.1600 
 27 C        5.3650     7.2150     2.7370 C.ar  1 <1>   0.1600 
 28 N        5.4910     8.4430     3.2110 N.ar  1 <1>  -0.6200 
 29 H       -0.2600     3.3430    -3.5800 H     1 <1>   0.0800 
 30 H        1.2920     2.7840    -3.0040 H     1 <1>   0.0800 
 31 H       -0.5070     4.7130     0.3580 H     1 <1>   0.0800 
 32 H       -2.0520     2.9090     1.1990 H     1 <1>   0.0800 
 33 H       -1.1920     5.2480    -2.5160 H     1 <1>   0.0800 
 34 H        0.0140     0.7630     0.7250 H     1 <1>   0.0800 
 35 H       -0.8450     1.0860     2.2030 H     1 <1>   0.0800 
 36 H        0.2910     2.2600     1.5950 H     1 <1>   0.0800 
 37 H       -2.2300     0.4180    -0.4960 H     1 <1>   0.0800 
 38 H       -3.4170     1.7070    -0.4690 H     1 <1>   0.0800 
 39 H       -3.1050     0.7690     0.9640 H     1 <1>   0.0800 
 40 H       -2.0230     6.1860     1.3680 H     1 <1>   0.1500 
 41 H       -3.3410     3.8000    -1.9260 H     1 <1>   0.1500 
 42 H       -4.3150     6.9600     1.7130 H     1 <1>   0.1500 
 43 H       -5.6300     4.5890    -1.5700 H     1 <1>   0.1500 
 44 H       -6.1250     6.1680     0.2500 H     1 <1>   0.1500 
 45 H        1.3260     8.9320    -0.8480 H     1 <1>   0.0000 
 46 H        1.1410     8.5980     0.9190 H     1 <1>   0.0000 
 47 H        1.8420     5.8820     1.1810 H     1 <1>   0.0000 
 48 H        2.2550     5.3680    -0.5010 H     1 <1>   0.0000 
 49 H        3.2640     7.4970    -1.0180 H     1 <1>   0.0000 
 50 H        3.3070     9.9130     1.1490 H     1 <1>   0.1500 
 51 H        4.4920     5.8280     1.3810 H     1 <1>   0.1500 
 52 H        4.8330    10.3660     2.9770 H     1 <1>   0.1500 
 53 H        5.9700     6.4540     3.2010 H     1 <1>   0.1500 
@<TRIPOS>BOND
  1   1   2  2   
  2   2   3  am  
  3   2   4  1   
  4   3   5  1   
  5   3   6  1   
  6   4   7  1   
  7   4  29  1   
  8   4  30  1   
  9   5   8  1   
 10   5   9  1   
 11   5  31  1   
 12   6  10  1   
 13   6  11  1   
 14   6  32  1   
 15   7   9  1   
 16   8  12  ar  
 17   8  13  ar  
 18   9  14  1   
 19   9  33  1   
 20  10  34  1   
 21  10  35  1   
 22  10  36  1   
 23  11  37  1   
 24  11  38  1   
 25  11  39  1   
 26  12  15  ar  
 27  12  40  1   
 28  13  16  ar  
 29  13  41  1   
 30  14  17  2   
 31  14  18  am  
 32  15  19  ar  
 33  15  42  1   
 34  16  19  ar  
 35  16  43  1   
 36  18  20  1   
 37  18  21  1   
 38  19  44  1   
 39  20  22  1   
 40  20  45  1   
 41  20  46  1   
 42  21  22  1   
 43  21  47  1   
 44  21  48  1   
 45  22  23  1   
 46  22  49  1   
 47  23  24  ar  
 48  23  25  ar  
 49  24  26  ar  
 50  24  50  1   
 51  25  27  ar  
 52  25  51  1   
 53  26  28  ar  
 54  26  52  1   
 55  27  28  ar  
 56  27  53  1   
@<TRIPOS>SUBSTRUCTURE
  1 ****  18 GROUP 4 **** **** 0

# MOE 2024.06 (io_trps.svl 2023.06)
