@<TRIPOS>MOLECULE
NONAME
45 46 1 0 0 
SMALL
USER_CHARGES


@<TRIPOS>ATOM
  1 S        1.4490     1.5690     0.8240 S.o2  1 <1>   1.3330 
  2 O        0.9840     2.5960     1.7270 O.2   1 <1>  -0.6500 
  3 O        0.4970     0.6590     0.2270 O.2   1 <1>  -0.6500 
  4 N        2.5900     0.6360     1.6690 N.am  1 <1>  -0.8490 
  5 C        2.3870     2.3320    -0.5000 C.3   1 <1>  -0.0550 
  6 C        3.4790     1.4380     2.5190 C.3   1 <1>   0.1160 
  7 C        1.9480    -0.4060     2.4750 C.3   1 <1>   0.1160 
  8 C        2.9130     1.3520    -1.5720 C.3   1 <1>  -0.0800 
  9 C        3.5470     2.0200    -2.7870 C.3   1 <1>   0.2200 
 10 C        4.0180     0.4040    -1.0870 C.3   1 <1>   0.1200 
 11 N        4.3790     3.1690    -2.3650 N.am  1 <1>  -0.7300 
 12 C        4.4590     0.9060    -3.2780 C.3   1 <1>   0.1200 
 13 O        4.9590     0.3150    -2.1180 O.3   1 <1>  -0.5600 
 14 C        4.0290     4.4750    -2.4640 C.2   1 <1>   0.5690 
 15 O        3.0320     4.8230    -3.0480 O.2   1 <1>  -0.5700 
 16 C        4.8980     5.5140    -1.7790 C.3   1 <1>   0.0440 
 17 C        5.1820     5.1140    -0.3350 C.ar  1 <1>  -0.1440 
 18 C        4.1980     5.2800     0.6300 C.ar  1 <1>  -0.1500 
 19 C        6.4050     4.5610     0.0210 C.ar  1 <1>  -0.1500 
 20 C        4.4270     4.8830     1.9350 C.ar  1 <1>  -0.1500 
 21 C        6.6390     4.1650     1.3270 C.ar  1 <1>  -0.1500 
 22 C        5.6440     4.3230     2.2780 C.ar  1 <1>   0.0820 
 23 O        5.8500     3.9260     3.5420 O.3   1 <1>  -0.5330 
 24 H        1.7530     3.0470    -0.9890 H     1 <1>   0.0800 
 25 H        3.2070     2.8740    -0.0750 H     1 <1>   0.0800 
 26 H        4.2050     0.8050     3.0000 H     1 <1>   0.0800 
 27 H        2.9150     1.9600     3.2760 H     1 <1>   0.0800 
 28 H        4.0080     2.1590     1.9240 H     1 <1>   0.0800 
 29 H        2.6910    -0.9950     2.9840 H     1 <1>   0.0800 
 30 H        1.3750    -1.0620     1.8410 H     1 <1>   0.0800 
 31 H        1.2860     0.0380     3.2000 H     1 <1>   0.0800 
 32 H        2.0920     0.7480    -1.9170 H     1 <1>   0.0800 
 33 H        2.8250     2.3210    -3.5280 H     1 <1>   0.0800 
 34 H        3.6340    -0.5800    -0.8750 H     1 <1>   0.0800 
 35 H        4.5270     0.7880    -0.2210 H     1 <1>   0.0800 
 36 H        5.1960     2.9010    -1.8090 H     1 <1>   0.3700 
 37 H        5.2720     1.2670    -3.8830 H     1 <1>   0.0800 
 38 H        3.9000     0.1610    -3.8160 H     1 <1>   0.0800 
 39 H        5.8130     5.6190    -2.3320 H     1 <1>   0.0800 
 40 H        4.3920     6.4620    -1.7980 H     1 <1>   0.0800 
 41 H        3.2470     5.7120     0.3690 H     1 <1>   0.1500 
 42 H        7.1810     4.4350    -0.7150 H     1 <1>   0.1500 
 43 H        3.6660     5.0050     2.6860 H     1 <1>   0.1500 
 44 H        7.5880     3.7370     1.5930 H     1 <1>   0.1500 
 45 H        6.7690     3.6530     3.7140 H     1 <1>   0.4500 
@<TRIPOS>BOND
  1   1   2  2   
  2   1   3  2   
  3   1   4  am  
  4   1   5  1   
  5   4   6  1   
  6   4   7  1   
  7   5   8  1   
  8   5  24  1   
  9   5  25  1   
 10   6  26  1   
 11   6  27  1   
 12   6  28  1   
 13   7  29  1   
 14   7  30  1   
 15   7  31  1   
 16   8   9  1   
 17   8  10  1   
 18   8  32  1   
 19   9  11  1   
 20   9  12  1   
 21   9  33  1   
 22  10  13  1   
 23  10  34  1   
 24  10  35  1   
 25  11  14  am  
 26  11  36  1   
 27  12  13  1   
 28  12  37  1   
 29  12  38  1   
 30  14  15  2   
 31  14  16  1   
 32  16  17  1   
 33  16  39  1   
 34  16  40  1   
 35  17  18  ar  
 36  17  19  ar  
 37  18  20  ar  
 38  18  41  1   
 39  19  21  ar  
 40  19  42  1   
 41  20  22  ar  
 42  20  43  1   
 43  21  22  ar  
 44  21  44  1   
 45  22  23  1   
 46  23  45  1   
@<TRIPOS>SUBSTRUCTURE
  1 ****   5 GROUP 4 **** **** 0

# MOE 2024.06 (io_trps.svl 2023.06)
