@<TRIPOS>MOLECULE
NONAME
51 54 1 0 0 
SMALL
USER_CHARGES


@<TRIPOS>ATOM
  1 S        0.9250     0.2660     2.0130 S.3   1 <1>  -0.0800 
  2 C        0.4050    -1.0240     0.9320 C.2   1 <1>   0.3250 
  3 C       -0.6350     0.2770     2.7710 C.2   1 <1>  -0.1100 
  4 N       -0.8150    -1.3810     1.1540 N.2   1 <1>  -0.5650 
  5 C        1.3260    -1.5490    -0.0530 C.ar  1 <1>   0.0530 
  6 C       -1.3980    -0.6550     2.1820 C.2   1 <1>   0.0460 
  7 C        1.0720    -2.7760    -0.6650 C.ar  1 <1>  -0.1500 
  8 C        2.4840    -0.8760    -0.4480 C.ar  1 <1>  -0.1500 
  9 C       -2.8470    -0.9830     2.5110 C.3   1 <1>   0.5240 
 10 C        1.9200    -3.3060    -1.6180 C.ar  1 <1>  -0.1500 
 11 C        3.3370    -1.4020    -1.4010 C.ar  1 <1>  -0.1500 
 12 N       -3.5690    -1.1200     1.2200 N.4   1 <1>  -0.9590 
 13 C        3.0710    -2.6270    -2.0020 C.ar  1 <1>  -0.1430 
 14 C       -4.7680    -2.0040     1.3070 C.3   1 <1>   0.3430 
 15 C       -3.8720     0.1960     0.5970 C.3   1 <1>   0.3430 
 16 C        4.0130    -3.2110    -3.0670 C.3   1 <1>   1.1630 
 17 C       -5.3270    -2.3060    -0.0910 C.3   1 <1>   0.0000 
 18 C       -4.4080    -0.0190    -0.8180 C.3   1 <1>  -0.1600 
 19 F        3.6740    -2.8270    -4.2910 F     1 <1>  -0.3400 
 20 F        5.2770    -2.8390    -2.8970 F     1 <1>  -0.3400 
 21 F        4.0170    -4.5380    -3.0800 F     1 <1>  -0.3400 
 22 C       -6.5650    -3.2060     0.0450 C.3   1 <1>   0.2000 
 23 C       -5.6160    -0.9720    -0.8370 C.3   1 <1>  -0.1600 
 24 C       -4.4080    -3.2080    -0.9370 C.3   1 <1>  -0.1600 
 25 O       -7.6780    -2.4920     0.4410 O.3   1 <1>  -0.6800 
 26 C       -6.7580    -3.8430    -1.3250 C.3   1 <1>  -0.1600 
 27 C       -5.3410    -3.9410    -1.9140 C.3   1 <1>  -0.1600 
 28 H       -0.7970     0.9810     3.5690 H     1 <1>   0.1500 
 29 H        0.1910    -3.3280    -0.3860 H     1 <1>   0.1500 
 30 H        2.7310     0.0770    -0.0160 H     1 <1>   0.1500 
 31 H       -3.2890    -0.2170     3.1260 H     1 <1>   0.0800 
 32 H       -2.8710    -1.9200     3.0420 H     1 <1>   0.0800 
 33 H        1.6780    -4.2580    -2.0630 H     1 <1>   0.1500 
 34 H        4.2180    -0.8440    -1.6760 H     1 <1>   0.1500 
 35 H       -2.8660    -1.5750     0.6110 H     1 <1>   0.4500 
 36 H       -4.5090    -2.9310     1.7910 H     1 <1>   0.0800 
 37 H       -5.5370    -1.5200     1.8890 H     1 <1>   0.0800 
 38 H       -4.6110     0.7170     1.1850 H     1 <1>   0.0800 
 39 H       -2.9800     0.8010     0.5530 H     1 <1>   0.0800 
 40 H       -4.7050     0.9320    -1.2250 H     1 <1>   0.0800 
 41 H       -3.6190    -0.3940    -1.4450 H     1 <1>   0.0800 
 42 H       -6.3890    -3.9810     0.7730 H     1 <1>   0.0800 
 43 H       -5.9100    -1.1580    -1.8550 H     1 <1>   0.0800 
 44 H       -6.4390    -0.4650    -0.3620 H     1 <1>   0.0800 
 45 H       -3.6380    -2.6720    -1.4620 H     1 <1>   0.0800 
 46 H       -3.9360    -3.9410    -0.3050 H     1 <1>   0.0800 
 47 H       -8.4850    -3.0340     0.3280 H     1 <1>   0.4000 
 48 H       -7.2130    -4.8140    -1.2430 H     1 <1>   0.0800 
 49 H       -7.3630    -3.2110    -1.9530 H     1 <1>   0.0800 
 50 H       -5.0380    -4.9690    -2.0290 H     1 <1>   0.0800 
 51 H       -5.3170    -3.4680    -2.8810 H     1 <1>   0.0800 
@<TRIPOS>BOND
  1   1   2  1   
  2   1   3  1   
  3   2   4  2   
  4   2   5  1   
  5   3   6  2   
  6   3  28  1   
  7   4   6  1   
  8   5   7  ar  
  9   5   8  ar  
 10   6   9  1   
 11   7  10  ar  
 12   7  29  1   
 13   8  11  ar  
 14   8  30  1   
 15   9  12  1   
 16   9  31  1   
 17   9  32  1   
 18  10  13  ar  
 19  10  33  1   
 20  11  13  ar  
 21  11  34  1   
 22  12  14  1   
 23  12  15  1   
 24  12  35  1   
 25  13  16  1   
 26  14  17  1   
 27  14  36  1   
 28  14  37  1   
 29  15  18  1   
 30  15  38  1   
 31  15  39  1   
 32  16  19  1   
 33  16  20  1   
 34  16  21  1   
 35  17  22  1   
 36  17  23  1   
 37  17  24  1   
 38  18  23  1   
 39  18  40  1   
 40  18  41  1   
 41  22  25  1   
 42  22  26  1   
 43  22  42  1   
 44  23  43  1   
 45  23  44  1   
 46  24  27  1   
 47  24  45  1   
 48  24  46  1   
 49  25  47  1   
 50  26  27  1   
 51  26  48  1   
 52  26  49  1   
 53  27  50  1   
 54  27  51  1   
@<TRIPOS>SUBSTRUCTURE
  1 ****   4 GROUP 4 **** **** 0

# MOE 2024.06 (io_trps.svl 2023.06)
