@<TRIPOS>MOLECULE
NONAME
48 49 1 0 0 
SMALL
USER_CHARGES


@<TRIPOS>ATOM
  1 O        2.4470     0.6180     2.4820 O.co2 1 <1>  -0.9000 
  2 C        2.3460    -0.0930     1.4740 C.2   1 <1>   0.9060 
  3 O        2.4070    -1.3290     1.5420 O.co2 1 <1>  -0.9000 
  4 C        2.2170     0.5450     0.0800 C.3   1 <1>  -0.1060 
  5 C        3.5270     0.1000    -0.6240 C.3   1 <1>   0.2000 
  6 C        2.1680     2.1040     0.1620 C.3   1 <1>  -0.1600 
  7 C        0.8900     0.0390    -0.5770 C.3   1 <1>  -0.1600 
  8 O        3.3810    -1.1590    -1.1820 O.3   1 <1>  -0.6800 
  9 C        4.0520     1.1160    -1.6470 C.3   1 <1>   0.1400 
 10 C        3.5640     2.7210     0.2730 C.3   1 <1>   0.1400 
 11 C        0.6760     0.3560    -2.0700 C.3   1 <1>  -0.1600 
 12 N        4.3580     2.4240    -0.9670 N.am  1 <1>  -0.6600 
 13 C       -0.6730    -0.1850    -2.5520 C.3   1 <1>  -0.2400 
 14 C        5.3530     3.2320    -1.4470 C.2   1 <1>   0.5690 
 15 O        5.8980     3.0100    -2.5040 O.2   1 <1>  -0.5700 
 16 C        5.7960     4.4510    -0.6470 C.3   1 <1>  -0.0990 
 17 C        7.1870     4.9700    -1.0380 C.3   1 <1>  -0.0170 
 18 C        7.5810     6.1440    -0.1550 C.ar  1 <1>  -0.1430 
 19 C        8.1250     5.9170     1.1010 C.ar  1 <1>  -0.1500 
 20 C        7.3960     7.4470    -0.5940 C.ar  1 <1>  -0.1500 
 21 C        8.4820     6.9810     1.9110 C.ar  1 <1>  -0.1500 
 22 C        7.7520     8.5150     0.2120 C.ar  1 <1>  -0.1500 
 23 C        8.2950     8.2760     1.4640 C.ar  1 <1>   0.0830 
 24 O        8.6460     9.3010     2.2560 O.3   1 <1>  -0.5330 
 25 H        4.3040    -0.0030     0.1160 H     1 <1>   0.0800 
 26 H        1.5770     2.4050     1.0090 H     1 <1>   0.0800 
 27 H        1.7020     2.5330    -0.7020 H     1 <1>   0.0800 
 28 H        0.8370    -1.0300    -0.4600 H     1 <1>   0.0800 
 29 H        0.0670     0.4420    -0.0120 H     1 <1>   0.0800 
 30 H        3.0250    -1.7240    -0.4500 H     1 <1>   0.4000 
 31 H        3.3170     1.2830    -2.4120 H     1 <1>   0.0800 
 32 H        4.9460     0.7260    -2.1010 H     1 <1>   0.0800 
 33 H        4.0690     2.3150     1.1340 H     1 <1>   0.0800 
 34 H        3.4630     3.7830     0.4060 H     1 <1>   0.0800 
 35 H        0.7040     1.4150    -2.2500 H     1 <1>   0.0800 
 36 H        1.4560    -0.1020    -2.6530 H     1 <1>   0.0800 
 37 H       -1.4770     0.2680    -2.0000 H     1 <1>   0.0800 
 38 H       -0.7150    -1.2520    -2.4150 H     1 <1>   0.0800 
 39 H       -0.8050     0.0320    -3.5970 H     1 <1>   0.0800 
 40 H        5.0730     5.2310    -0.7910 H     1 <1>   0.0800 
 41 H        5.8160     4.1930     0.3950 H     1 <1>   0.0800 
 42 H        7.1860     5.2720    -2.0710 H     1 <1>   0.0800 
 43 H        7.9090     4.1800    -0.9320 H     1 <1>   0.0800 
 44 H        8.2720     4.9100     1.4530 H     1 <1>   0.1500 
 45 H        6.9750     7.6330    -1.5670 H     1 <1>   0.1500 
 46 H        8.9040     6.8130     2.8850 H     1 <1>   0.1500 
 47 H        7.6060     9.5200    -0.1380 H     1 <1>   0.1500 
 48 H        8.4880    10.1700     1.8480 H     1 <1>   0.4500 
@<TRIPOS>BOND
  1   1   2  ar  
  2   2   3  ar  
  3   2   4  1   
  4   4   5  1   
  5   4   6  1   
  6   4   7  1   
  7   5   8  1   
  8   5   9  1   
  9   5  25  1   
 10   6  10  1   
 11   6  26  1   
 12   6  27  1   
 13   7  11  1   
 14   7  28  1   
 15   7  29  1   
 16   8  30  1   
 17   9  12  1   
 18   9  31  1   
 19   9  32  1   
 20  10  12  1   
 21  10  33  1   
 22  10  34  1   
 23  11  13  1   
 24  11  35  1   
 25  11  36  1   
 26  12  14  am  
 27  13  37  1   
 28  13  38  1   
 29  13  39  1   
 30  14  15  2   
 31  14  16  1   
 32  16  17  1   
 33  16  40  1   
 34  16  41  1   
 35  17  18  1   
 36  17  42  1   
 37  17  43  1   
 38  18  19  ar  
 39  18  20  ar  
 40  19  21  ar  
 41  19  44  1   
 42  20  22  ar  
 43  20  45  1   
 44  21  23  ar  
 45  21  46  1   
 46  22  23  ar  
 47  22  47  1   
 48  23  24  1   
 49  24  48  1   
@<TRIPOS>SUBSTRUCTURE
  1 ****  12 GROUP 4 **** **** 0

# MOE 2024.06 (io_trps.svl 2023.06)
