@<TRIPOS>MOLECULE
NONAME
49 51 1 0 0 
SMALL
USER_CHARGES


@<TRIPOS>ATOM
  1 O       -2.1070     0.4440     0.9610 O.co2 1 <1>  -0.9000 
  2 C       -2.8030     1.4390     0.7370 C.2   1 <1>   0.9790 
  3 O       -4.0430     1.3240     0.7690 O.co2 1 <1>  -0.9000 
  4 C       -2.2000     2.7200     0.3940 C.ar  1 <1>  -0.1790 
  5 C       -2.6620     3.5400    -0.6480 C.ar  1 <1>  -0.1440 
  6 C       -1.1010     3.1690     1.1260 C.ar  1 <1>  -0.1500 
  7 C       -2.0460     4.7540    -0.9170 C.ar  1 <1>  -0.1500 
  8 C       -3.8390     3.1120    -1.5140 C.3   1 <1>   0.4870 
  9 C       -0.4920     4.3790     0.8590 C.ar  1 <1>  -0.1500 
 10 C       -0.9650     5.1770    -0.1650 C.ar  1 <1>  -0.1500 
 11 N       -5.1010     3.2060    -0.7450 N.4   1 <1>  -0.9590 
 12 C       -6.2720     2.7210    -1.5050 C.3   1 <1>   0.3430 
 13 C       -5.3080     4.5040    -0.0610 C.3   1 <1>   0.3430 
 14 C       -7.4800     2.6340    -0.5810 C.3   1 <1>  -0.1600 
 15 C       -6.5240     4.4170     0.8550 C.3   1 <1>  -0.1600 
 16 C       -7.7800     3.9940     0.0760 C.3   1 <1>   0.2800 
 17 O       -7.9560     4.9070    -0.9870 O.3   1 <1>  -0.5600 
 18 C       -9.0400     3.9810     0.9990 C.3   1 <1>   0.2000 
 19 C       -8.6380     6.0960    -0.7010 C.3   1 <1>   0.1200 
 20 O       -9.2280     2.7530     1.6370 O.3   1 <1>  -0.6800 
 21 C      -10.3300     4.4260     0.2620 C.3   1 <1>   0.2800 
 22 C      -10.1150     5.8060    -0.3840 C.3   1 <1>  -0.1600 
 23 O      -11.3290     4.5490     1.2100 O.3   1 <1>  -0.6800 
 24 C      -10.8650     3.4200    -0.7680 C.3   1 <1>  -0.2400 
 25 H       -0.7250     2.5410     1.9180 H     1 <1>   0.1500 
 26 H       -2.3950     5.3830    -1.7170 H     1 <1>   0.1500 
 27 H       -3.6860     2.0920    -1.8260 H     1 <1>   0.0800 
 28 H       -3.8940     3.7360    -2.3890 H     1 <1>   0.0800 
 29 H        0.3530     4.6940     1.4460 H     1 <1>   0.1500 
 30 H       -0.4880     6.1190    -0.3750 H     1 <1>   0.1500 
 31 H       -4.9320     2.4940     0.0150 H     1 <1>   0.4500 
 32 H       -6.4890     3.4000    -2.3140 H     1 <1>   0.0800 
 33 H       -6.0640     1.7450    -1.9120 H     1 <1>   0.0800 
 34 H       -4.4380     4.7520     0.5260 H     1 <1>   0.0800 
 35 H       -5.4640     5.2780    -0.7940 H     1 <1>   0.0800 
 36 H       -7.2770     1.8940     0.1740 H     1 <1>   0.0800 
 37 H       -8.3260     2.2880    -1.1390 H     1 <1>   0.0800 
 38 H       -6.6760     5.3650     1.3350 H     1 <1>   0.0800 
 39 H       -6.3240     3.6990     1.6330 H     1 <1>   0.0800 
 40 H       -8.8720     4.6940     1.7870 H     1 <1>   0.0800 
 41 H       -8.1570     6.5810     0.1300 H     1 <1>   0.0800 
 42 H       -8.5610     6.7390    -1.5610 H     1 <1>   0.0800 
 43 H      -10.0980     2.7880     2.0890 H     1 <1>   0.4000 
 44 H      -10.6800     5.8830    -1.2960 H     1 <1>   0.0800 
 45 H      -10.4620     6.5860     0.2710 H     1 <1>   0.0800 
 46 H      -12.1750     4.7530     0.7680 H     1 <1>   0.4000 
 47 H      -10.2070     3.3720    -1.6160 H     1 <1>   0.0800 
 48 H      -11.8320     3.7190    -1.1290 H     1 <1>   0.0800 
 49 H      -10.9400     2.4370    -0.3400 H     1 <1>   0.0800 
@<TRIPOS>BOND
  1   1   2  ar  
  2   2   3  ar  
  3   2   4  1   
  4   4   5  ar  
  5   4   6  ar  
  6   5   7  ar  
  7   5   8  1   
  8   6   9  ar  
  9   6  25  1   
 10   7  10  ar  
 11   7  26  1   
 12   8  11  1   
 13   8  27  1   
 14   8  28  1   
 15   9  10  ar  
 16   9  29  1   
 17  10  30  1   
 18  11  12  1   
 19  11  13  1   
 20  11  31  1   
 21  12  14  1   
 22  12  32  1   
 23  12  33  1   
 24  13  15  1   
 25  13  34  1   
 26  13  35  1   
 27  14  16  1   
 28  14  36  1   
 29  14  37  1   
 30  15  16  1   
 31  15  38  1   
 32  15  39  1   
 33  16  17  1   
 34  16  18  1   
 35  17  19  1   
 36  18  20  1   
 37  18  21  1   
 38  18  40  1   
 39  19  22  1   
 40  19  41  1   
 41  19  42  1   
 42  20  43  1   
 43  21  22  1   
 44  21  23  1   
 45  21  24  1   
 46  22  44  1   
 47  22  45  1   
 48  23  46  1   
 49  24  47  1   
 50  24  48  1   
 51  24  49  1   
@<TRIPOS>SUBSTRUCTURE
  1 ****  13 GROUP 4 **** **** 0

# MOE 2024.06 (io_trps.svl 2023.06)
