@<TRIPOS>MOLECULE
NONAME
51 53 1 0 0 
SMALL
USER_CHARGES


@<TRIPOS>ATOM
  1 S       -0.2750     0.0540     0.1140 S.o2  1 <1>   1.3330 
  2 O       -0.2980    -0.6070     1.3990 O.2   1 <1>  -0.6500 
  3 O       -0.9440     1.3250    -0.0450 O.2   1 <1>  -0.6500 
  4 N       -0.9040    -1.0270    -1.0340 N.am  1 <1>  -0.8490 
  5 C        1.4210     0.2590    -0.4350 C.3   1 <1>  -0.0550 
  6 C       -0.6310    -2.4340    -0.7210 C.3   1 <1>   0.1160 
  7 C       -2.3410    -0.8340    -1.2500 C.3   1 <1>   0.1160 
  8 C        2.2200     1.2800     0.3990 C.3   1 <1>  -0.0800 
  9 C        3.5600     1.5860    -0.2480 C.3   1 <1>   0.2200 
 10 C        2.6460     0.7090     1.7560 C.3   1 <1>   0.1200 
 11 N        4.0370     2.9040     0.2270 N.am  1 <1>  -0.7300 
 12 C        4.4450     0.4850     0.3250 C.3   1 <1>   0.1200 
 13 O        3.9320     0.1860     1.5900 O.3   1 <1>  -0.5600 
 14 C        4.3230     3.9760    -0.5700 C.2   1 <1>   0.5440 
 15 O        4.1950     3.8450    -1.7730 O.2   1 <1>  -0.5700 
 16 C        4.7860     5.2260     0.0030 C.ar  1 <1>   0.0860 
 17 C        5.5800     6.0960    -0.7280 C.ar  1 <1>  -0.1500 
 18 C        4.4440     5.5980     1.3240 C.ar  1 <1>  -0.1500 
 19 C        6.0430     7.2900    -0.1730 C.ar  1 <1>   0.0000 
 20 C        4.8890     6.7690     1.8890 C.ar  1 <1>  -0.1500 
 21 C        5.6980     7.6180     1.1310 C.ar  1 <1>  -0.1520 
 22 C        6.8500     8.3470    -0.6530 C.2   1 <1>  -0.1810 
 23 N        6.2710     8.8220     1.4360 N.pl3 1 <1>   0.0330 
 24 C        6.9710     9.2590     0.3440 C.2   1 <1>  -0.3320 
 25 C        7.4300     8.3630    -2.0540 C.3   1 <1>  -0.0590 
 26 C        7.7200    10.5800     0.3800 C.3   1 <1>  -0.0600 
 27 H        1.9200    -0.6890    -0.4200 H     1 <1>   0.0800 
 28 H        1.3950     0.5990    -1.4530 H     1 <1>   0.0800 
 29 H       -0.9690    -3.0640    -1.5260 H     1 <1>   0.0800 
 30 H       -1.1370    -2.7230     0.1870 H     1 <1>   0.0800 
 31 H        0.4260    -2.5880    -0.5900 H     1 <1>   0.0800 
 32 H       -2.7030    -1.5240    -1.9930 H     1 <1>   0.0800 
 33 H       -2.5310     0.1670    -1.6020 H     1 <1>   0.0800 
 34 H       -2.8820    -0.9850    -0.3300 H     1 <1>   0.0800 
 35 H        1.6310     2.1750     0.5130 H     1 <1>   0.0800 
 36 H        3.5280     1.5580    -1.3240 H     1 <1>   0.0800 
 37 H        2.0010    -0.0710     2.1210 H     1 <1>   0.0800 
 38 H        2.7080     1.4900     2.4940 H     1 <1>   0.0800 
 39 H        4.2940     2.9290     1.2150 H     1 <1>   0.3700 
 40 H        5.4740     0.7850     0.4110 H     1 <1>   0.0800 
 41 H        4.3750    -0.4070    -0.2730 H     1 <1>   0.0800 
 42 H        5.8520     5.8560    -1.7400 H     1 <1>   0.1500 
 43 H        3.8100     4.9480     1.8990 H     1 <1>   0.1500 
 44 H        4.6230     7.0420     2.8950 H     1 <1>   0.1500 
 45 H        6.1830     9.3110     2.3310 H     1 <1>   0.2700 
 46 H        8.0630     7.5060    -2.1940 H     1 <1>   0.0800 
 47 H        8.0100     9.2500    -2.2240 H     1 <1>   0.0800 
 48 H        6.6340     8.3290    -2.7750 H     1 <1>   0.0800 
 49 H        8.2130    10.7690    -0.5540 H     1 <1>   0.0800 
 50 H        8.4630    10.5600     1.1580 H     1 <1>   0.0800 
 51 H        7.0350    11.3860     0.5710 H     1 <1>   0.0800 
@<TRIPOS>BOND
  1   1   2  2   
  2   1   3  2   
  3   1   4  am  
  4   1   5  1   
  5   4   6  1   
  6   4   7  1   
  7   5   8  1   
  8   5  27  1   
  9   5  28  1   
 10   6  29  1   
 11   6  30  1   
 12   6  31  1   
 13   7  32  1   
 14   7  33  1   
 15   7  34  1   
 16   8   9  1   
 17   8  10  1   
 18   8  35  1   
 19   9  11  1   
 20   9  12  1   
 21   9  36  1   
 22  10  13  1   
 23  10  37  1   
 24  10  38  1   
 25  11  14  am  
 26  11  39  1   
 27  12  13  1   
 28  12  40  1   
 29  12  41  1   
 30  14  15  2   
 31  14  16  1   
 32  16  17  ar  
 33  16  18  ar  
 34  17  19  ar  
 35  17  42  1   
 36  18  20  ar  
 37  18  43  1   
 38  19  21  ar  
 39  19  22  1   
 40  20  21  ar  
 41  20  44  1   
 42  21  23  1   
 43  22  24  2   
 44  22  25  1   
 45  23  24  1   
 46  23  45  1   
 47  24  26  1   
 48  25  46  1   
 49  25  47  1   
 50  25  48  1   
 51  26  49  1   
 52  26  50  1   
 53  26  51  1   
@<TRIPOS>SUBSTRUCTURE
  1 ****  11 GROUP 4 **** **** 0

# MOE 2024.06 (io_trps.svl 2023.06)
