@<TRIPOS>MOLECULE
NONAME
50 52 1 0 0 
SMALL
USER_CHARGES


@<TRIPOS>ATOM
  1 O        0.6460     1.4170     0.8530 O.2   1 <1>  -0.5700 
  2 C        0.1860     2.5390     0.8480 C.2   1 <1>   0.5690 
  3 N       -1.0850     2.8040     1.2890 N.am  1 <1>  -0.6600 
  4 C        1.1180     3.6340     0.3260 C.3   1 <1>  -0.0190 
  5 C       -2.0000     1.6820     1.6580 C.3   1 <1>   0.1400 
  6 C       -1.6700     4.1790     1.4230 C.3   1 <1>   0.1400 
  7 C        1.7460     3.1360    -0.9850 C.3   1 <1>   0.3430 
  8 C        2.1830     4.0060     1.3900 C.3   1 <1>  -0.1600 
  9 C       -3.3050     1.7510     0.8520 C.3   1 <1>  -0.1600 
 10 C       -3.1890     4.1510     1.6350 C.3   1 <1>  -0.1600 
 11 N        2.8550     2.1880    -0.6690 N.4   1 <1>  -0.9590 
 12 C        3.5920     4.1110     0.7820 C.3   1 <1>  -0.1600 
 13 C       -3.8530     3.1770     0.6540 C.3   1 <1>   0.4180 
 14 C        4.0100     2.8350     0.0300 C.3   1 <1>   0.3430 
 15 C        3.2750     1.3860    -1.8520 C.3   1 <1>   0.2630 
 16 O       -3.5010     3.5570    -0.6580 O.3   1 <1>  -0.5600 
 17 C       -5.3710     3.1840     0.8240 C.2   1 <1>  -0.2880 
 18 C       -4.2400     4.5870    -1.2560 C.3   1 <1>   0.1200 
 19 C       -6.2300     3.6170    -0.1020 C.2   1 <1>  -0.2760 
 20 C       -5.7110     4.1810    -1.4100 C.3   1 <1>  -0.0220 
 21 C       -7.7410     3.5870     0.0430 C.3   1 <1>  -0.1020 
 22 H        0.5580     4.5120     0.0730 H     1 <1>   0.0800 
 23 H       -2.2200     1.7550     2.7090 H     1 <1>   0.0800 
 24 H       -1.5340     0.7260     1.4930 H     1 <1>   0.0800 
 25 H       -1.4860     4.7310     0.5190 H     1 <1>   0.0800 
 26 H       -1.1980     4.6930     2.2430 H     1 <1>   0.0800 
 27 H        2.1330     3.9710    -1.5470 H     1 <1>   0.0800 
 28 H        0.9890     2.6440    -1.5750 H     1 <1>   0.0800 
 29 H        2.2030     3.2540     2.1630 H     1 <1>   0.0800 
 30 H        1.9150     4.9360     1.8630 H     1 <1>   0.0800 
 31 H       -4.0290     1.1540     1.3750 H     1 <1>   0.0800 
 32 H       -3.1600     1.2870    -0.1070 H     1 <1>   0.0800 
 33 H       -3.5960     5.1370     1.5120 H     1 <1>   0.0800 
 34 H       -3.4070     3.8500     2.6430 H     1 <1>   0.0800 
 35 H        2.4060     1.5380     0.0140 H     1 <1>   0.4500 
 36 H        4.3100     4.3090     1.5600 H     1 <1>   0.0800 
 37 H        3.6300     4.9450     0.1040 H     1 <1>   0.0800 
 38 H        4.7780     3.0900    -0.6830 H     1 <1>   0.0800 
 39 H        4.4310     2.1320     0.7300 H     1 <1>   0.0800 
 40 H        3.7070     2.0250    -2.6050 H     1 <1>   0.0800 
 41 H        2.4250     0.8750    -2.2750 H     1 <1>   0.0800 
 42 H        4.0060     0.6480    -1.5610 H     1 <1>   0.0800 
 43 H       -5.6870     2.7910     1.7730 H     1 <1>   0.1500 
 44 H       -3.8060     4.7870    -2.2200 H     1 <1>   0.0800 
 45 H       -4.1560     5.4690    -0.6470 H     1 <1>   0.0800 
 46 H       -5.8070     3.4460    -2.1890 H     1 <1>   0.0800 
 47 H       -6.2770     5.0490    -1.6940 H     1 <1>   0.0800 
 48 H       -8.1750     2.9930    -0.7410 H     1 <1>   0.0800 
 49 H       -8.1410     4.5840    -0.0130 H     1 <1>   0.0800 
 50 H       -8.0210     3.1600     0.9890 H     1 <1>   0.0800 
@<TRIPOS>BOND
  1   1   2  2   
  2   2   3  am  
  3   2   4  1   
  4   3   5  1   
  5   3   6  1   
  6   4   7  1   
  7   4   8  1   
  8   4  22  1   
  9   5   9  1   
 10   5  23  1   
 11   5  24  1   
 12   6  10  1   
 13   6  25  1   
 14   6  26  1   
 15   7  11  1   
 16   7  27  1   
 17   7  28  1   
 18   8  12  1   
 19   8  29  1   
 20   8  30  1   
 21   9  13  1   
 22   9  31  1   
 23   9  32  1   
 24  10  13  1   
 25  10  33  1   
 26  10  34  1   
 27  11  14  1   
 28  11  15  1   
 29  11  35  1   
 30  12  14  1   
 31  12  36  1   
 32  12  37  1   
 33  13  16  1   
 34  13  17  1   
 35  14  38  1   
 36  14  39  1   
 37  15  40  1   
 38  15  41  1   
 39  15  42  1   
 40  16  18  1   
 41  17  19  2   
 42  17  43  1   
 43  18  20  1   
 44  18  44  1   
 45  18  45  1   
 46  19  20  1   
 47  19  21  1   
 48  20  46  1   
 49  20  47  1   
 50  21  48  1   
 51  21  49  1   
 52  21  50  1   
@<TRIPOS>SUBSTRUCTURE
  1 ****   3 GROUP 4 **** **** 0

# MOE 2024.06 (io_trps.svl 2023.06)
