@<TRIPOS>MOLECULE
NONAME
46 48 1 0 0 
SMALL
USER_CHARGES


@<TRIPOS>ATOM
  1 O        1.9070    -0.7550     2.9380 O.2   1 <1>  -0.5700 
  2 C        1.5310    -1.1280     1.8510 C.2   1 <1>   0.5690 
  3 N        1.5720    -0.3600     0.7290 N.am  1 <1>  -0.4930 
  4 C        0.9720    -2.5430     1.6960 C.3   1 <1>   0.1710 
  5 C        2.0340     0.9660     0.5510 C.2   1 <1>   0.0630 
  6 N        0.0340    -2.6790     0.5400 N.3   1 <1>  -0.8100 
  7 C        2.5550     1.8500     1.4970 C.2   1 <1>   0.1390 
  8 C        2.0590     1.6550    -0.6070 C.2   1 <1>  -0.3020 
  9 C       -0.0920    -4.0870     0.1200 C.3   1 <1>   0.2530 
 10 C       -1.2900    -2.1060     0.8830 C.3   1 <1>   0.1100 
 11 N        2.8800     2.9970     0.9750 N.2   1 <1>  -0.7070 
 12 N        2.5720     2.8760    -0.3330 N.pl3 1 <1>   0.3140 
 13 C       -0.5170    -4.1760    -1.3360 C.ar  1 <1>  -0.1430 
 14 C       -2.2270    -1.9390    -0.3230 C.3   1 <1>   0.1200 
 15 C        2.7780     3.9800    -1.2840 C.3   1 <1>   0.1570 
 16 C       -1.7790    -3.7520    -1.7340 C.ar  1 <1>   0.0820 
 17 C        0.3400    -4.7110    -2.2860 C.ar  1 <1>  -0.1500 
 18 O       -2.6280    -3.1860    -0.8530 O.3   1 <1>  -0.3630 
 19 C        4.2430     4.1080    -1.6390 C.2   1 <1>   0.5690 
 20 C       -2.1910    -3.8930    -3.0490 C.ar  1 <1>  -0.1500 
 21 C       -0.0630    -4.8390    -3.6050 C.ar  1 <1>  -0.1500 
 22 O        4.5360     4.2900    -2.7960 O.2   1 <1>  -0.5700 
 23 N        5.1830     4.0370    -0.6570 N.am  1 <1>  -0.7300 
 24 C       -1.3310    -4.4350    -3.9870 C.ar  1 <1>  -0.1500 
 25 C        6.6500     4.1480    -0.8400 C.3   1 <1>   0.0600 
 26 H        1.1650    -0.8270    -0.0890 H     1 <1>   0.3700 
 27 H        0.4820    -2.8330     2.6090 H     1 <1>   0.0800 
 28 H        1.8190    -3.1900     1.5550 H     1 <1>   0.0800 
 29 H        2.6750     1.6110     2.5410 H     1 <1>   0.1500 
 30 H        1.7510     1.3510    -1.5900 H     1 <1>   0.1500 
 31 H       -0.8050    -4.6030     0.7400 H     1 <1>   0.0800 
 32 H        0.8560    -4.5860     0.2240 H     1 <1>   0.0800 
 33 H       -1.1460    -1.1270     1.3070 H     1 <1>   0.0800 
 34 H       -1.7790    -2.7100     1.6290 H     1 <1>   0.0800 
 35 H       -1.7520    -1.3650    -1.1000 H     1 <1>   0.0800 
 36 H       -3.1210    -1.4290    -0.0150 H     1 <1>   0.0800 
 37 H        2.4410     4.8920    -0.8310 H     1 <1>   0.0800 
 38 H        2.2060     3.7930    -2.1720 H     1 <1>   0.0800 
 39 H        1.3260    -5.0370    -2.0050 H     1 <1>   0.1500 
 40 H       -3.1770    -3.5730    -3.3290 H     1 <1>   0.1500 
 41 H        0.6090    -5.2560    -4.3350 H     1 <1>   0.1500 
 42 H        4.8520     3.7900     0.2900 H     1 <1>   0.3700 
 43 H       -1.6470    -4.5410    -5.0100 H     1 <1>   0.1500 
 44 H        6.8830     4.3740    -1.8670 H     1 <1>   0.0800 
 45 H        7.1200     3.2170    -0.5730 H     1 <1>   0.0800 
 46 H        7.0360     4.9330    -0.2140 H     1 <1>   0.0800 
@<TRIPOS>BOND
  1   1   2  2   
  2   2   3  am  
  3   2   4  1   
  4   3   5  1   
  5   3  26  1   
  6   4   6  1   
  7   4  27  1   
  8   4  28  1   
  9   5   7  1   
 10   5   8  2   
 11   6   9  1   
 12   6  10  1   
 13   7  11  2   
 14   7  29  1   
 15   8  12  1   
 16   8  30  1   
 17   9  13  1   
 18   9  31  1   
 19   9  32  1   
 20  10  14  1   
 21  10  33  1   
 22  10  34  1   
 23  11  12  1   
 24  12  15  1   
 25  13  16  ar  
 26  13  17  ar  
 27  14  18  1   
 28  14  35  1   
 29  14  36  1   
 30  15  19  1   
 31  15  37  1   
 32  15  38  1   
 33  16  18  1   
 34  16  20  ar  
 35  17  21  ar  
 36  17  39  1   
 37  19  22  2   
 38  19  23  am  
 39  20  24  ar  
 40  20  40  1   
 41  21  24  ar  
 42  21  41  1   
 43  23  25  1   
 44  23  42  1   
 45  24  43  1   
 46  25  44  1   
 47  25  45  1   
 48  25  46  1   
@<TRIPOS>SUBSTRUCTURE
  1 ****   3 GROUP 4 **** **** 0

# MOE 2024.06 (io_trps.svl 2023.06)
