@<TRIPOS>MOLECULE
NONAME
45 47 1 0 0 
SMALL
USER_CHARGES


@<TRIPOS>ATOM
  1 S       -1.8050     0.4480    -0.4180 S.3   1 <1>  -0.4600 
  2 C       -0.9790    -1.1790    -0.5660 C.3   1 <1>   0.1310 
  3 C       -1.0210     1.4350    -1.7180 C.3   1 <1>  -0.0100 
  4 C       -1.3110    -2.1090     0.5990 C.2   1 <1>   0.5690 
  5 O       -0.4040    -2.3710     1.3560 O.2   1 <1>  -0.5700 
  6 N       -2.5630    -2.6580     0.7530 N.am  1 <1>  -0.6600 
  7 C       -2.8720    -3.5890     1.8730 C.3   1 <1>   0.1400 
  8 C       -3.7410    -2.3740    -0.1140 C.3   1 <1>   0.1400 
  9 C       -3.3750    -4.9190     1.3050 C.3   1 <1>  -0.1600 
 10 C       -4.2480    -3.6840    -0.7200 C.3   1 <1>  -0.1600 
 11 C       -4.5780    -4.7310     0.3630 C.3   1 <1>   0.4240 
 12 O       -5.5670    -4.1590     1.1930 O.3   1 <1>  -0.5600 
 13 C       -5.0520    -6.0850    -0.2410 C.ar  1 <1>  -0.1430 
 14 C       -6.8930    -4.2600     0.7930 C.3   1 <1>   0.1200 
 15 C       -4.2210    -6.8730    -1.0510 C.ar  1 <1>   0.0820 
 16 C       -6.3420    -6.5470     0.0170 C.ar  1 <1>  -0.1430 
 17 C       -7.2940    -5.7250     0.8620 C.3   1 <1>  -0.0170 
 18 O       -2.9670    -6.4340    -1.3360 O.3   1 <1>  -0.3630 
 19 C       -4.6830    -8.0870    -1.5590 C.ar  1 <1>  -0.1500 
 20 C       -6.7880    -7.7560    -0.4900 C.ar  1 <1>  -0.1500 
 21 C       -1.9980    -7.2470    -1.9600 C.3   1 <1>   0.0400 
 22 C       -5.9590    -8.5270    -1.2770 C.ar  1 <1>  -0.1500 
 23 H        0.0780    -0.9910    -0.5860 H     1 <1>   0.0800 
 24 H       -1.2840    -1.6170    -1.4970 H     1 <1>   0.0800 
 25 H       -1.4620     2.4160    -1.6940 H     1 <1>   0.0800 
 26 H       -1.2070     0.9550    -2.6620 H     1 <1>   0.0800 
 27 H        0.0330     1.4850    -1.5080 H     1 <1>   0.0800 
 28 H       -3.6260    -3.1460     2.5020 H     1 <1>   0.0800 
 29 H       -1.9990    -3.7640     2.4780 H     1 <1>   0.0800 
 30 H       -3.4930    -1.6900    -0.9040 H     1 <1>   0.0800 
 31 H       -4.5120    -1.9200     0.4850 H     1 <1>   0.0800 
 32 H       -3.6590    -5.5740     2.1080 H     1 <1>   0.0800 
 33 H       -2.5550    -5.3810     0.7950 H     1 <1>   0.0800 
 34 H       -3.4840    -4.0550    -1.3740 H     1 <1>   0.0800 
 35 H       -5.1120    -3.4990    -1.3280 H     1 <1>   0.0800 
 36 H       -6.9980    -3.8720    -0.2050 H     1 <1>   0.0800 
 37 H       -7.4880    -3.6720     1.4680 H     1 <1>   0.0800 
 38 H       -8.3020    -5.8320     0.5030 H     1 <1>   0.0800 
 39 H       -7.2580    -6.0600     1.8830 H     1 <1>   0.0800 
 40 H       -4.0660    -8.7050    -2.1810 H     1 <1>   0.1500 
 41 H       -7.7840    -8.1020    -0.2750 H     1 <1>   0.1500 
 42 H       -1.0710    -6.7030    -1.9800 H     1 <1>   0.0800 
 43 H       -2.3160    -7.4640    -2.9640 H     1 <1>   0.0800 
 44 H       -1.8790    -8.1490    -1.3860 H     1 <1>   0.0800 
 45 H       -6.3080    -9.4660    -1.6710 H     1 <1>   0.1500 
@<TRIPOS>BOND
  1   1   2  1   
  2   1   3  1   
  3   2   4  1   
  4   2  23  1   
  5   2  24  1   
  6   3  25  1   
  7   3  26  1   
  8   3  27  1   
  9   4   5  2   
 10   4   6  am  
 11   6   7  1   
 12   6   8  1   
 13   7   9  1   
 14   7  28  1   
 15   7  29  1   
 16   8  10  1   
 17   8  30  1   
 18   8  31  1   
 19   9  11  1   
 20   9  32  1   
 21   9  33  1   
 22  10  11  1   
 23  10  34  1   
 24  10  35  1   
 25  11  12  1   
 26  11  13  1   
 27  12  14  1   
 28  13  15  ar  
 29  13  16  ar  
 30  14  17  1   
 31  14  36  1   
 32  14  37  1   
 33  15  18  1   
 34  15  19  ar  
 35  16  17  1   
 36  16  20  ar  
 37  17  38  1   
 38  17  39  1   
 39  18  21  1   
 40  19  22  ar  
 41  19  40  1   
 42  20  22  ar  
 43  20  41  1   
 44  21  42  1   
 45  21  43  1   
 46  21  44  1   
 47  22  45  1   
@<TRIPOS>SUBSTRUCTURE
  1 ****  11 GROUP 4 **** **** 0

# MOE 2024.06 (io_trps.svl 2023.06)
