@<TRIPOS>MOLECULE
NONAME
50 51 1 0 0 
SMALL
USER_CHARGES


@<TRIPOS>ATOM
  1 O       -0.4900     1.5140    -1.7510 O.2   1 <1>  -0.5700 
  2 C       -0.6300     2.6700    -1.4270 C.2   1 <1>   0.5690 
  3 N       -1.3410     3.0730    -0.3240 N.am  1 <1>  -0.6600 
  4 C        0.0180     3.7320    -2.3100 C.3   1 <1>   0.1810 
  5 C       -1.4920     4.5350    -0.0080 C.3   1 <1>   0.3640 
  6 C       -1.9230     2.1540     0.6920 C.3   1 <1>   0.2200 
  7 O        0.4200     4.8500    -1.5650 O.3   1 <1>  -0.5600 
  8 C       -2.9700     4.9220    -0.1090 C.ar  1 <1>  -0.1440 
  9 C       -0.6410     5.4990    -0.8800 C.3   1 <1>   0.2610 
 10 C       -0.8100     1.3800     1.3990 C.3   1 <1>  -0.2400 
 11 C       -2.9650     1.2200     0.0730 C.3   1 <1>  -0.2400 
 12 C       -3.5500     5.7000     0.8840 C.ar  1 <1>  -0.1500 
 13 C       -3.7510     4.5170    -1.1840 C.ar  1 <1>  -0.1500 
 14 C       -0.0950     6.6230     0.0080 C.2   1 <1>   0.5690 
 15 C       -4.8840     6.0620     0.8070 C.ar  1 <1>  -0.1500 
 16 C       -5.0850     4.8770    -1.2630 C.ar  1 <1>  -0.1500 
 17 O       -0.8640     7.3970     0.5280 O.2   1 <1>  -0.5700 
 18 N        1.2440     6.7230     0.2080 N.am  1 <1>  -0.7300 
 19 C       -5.6530     5.6490    -0.2660 C.ar  1 <1>  -0.1500 
 20 C        1.9580     7.7910     0.9540 C.3   1 <1>   0.1400 
 21 C        3.0940     8.4220     0.1150 C.3   1 <1>   0.2800 
 22 O        3.9190     7.4160    -0.3420 O.3   1 <1>  -0.6800 
 23 C        3.9620     9.3500     0.9630 C.3   1 <1>  -0.2400 
 24 C        2.5630     9.1510    -1.1210 C.3   1 <1>  -0.2400 
 25 H       -0.6710     4.0490    -3.0710 H     1 <1>   0.0800 
 26 H        0.8930     3.3200    -2.7780 H     1 <1>   0.0800 
 27 H       -1.1810     4.6680     1.0150 H     1 <1>   0.0800 
 28 H       -2.4310     2.7430     1.4380 H     1 <1>   0.0800 
 29 H       -1.2690     5.9520    -1.6250 H     1 <1>   0.0800 
 30 H       -0.3140     0.7150     0.7150 H     1 <1>   0.0800 
 31 H       -1.2250     0.7920     2.1970 H     1 <1>   0.0800 
 32 H       -0.0920     2.0620     1.8150 H     1 <1>   0.0800 
 33 H       -2.5130     0.5390    -0.6240 H     1 <1>   0.0800 
 34 H       -3.7250     1.7910    -0.4270 H     1 <1>   0.0800 
 35 H       -3.4350     0.6410     0.8470 H     1 <1>   0.0800 
 36 H       -2.9640     6.0410     1.7210 H     1 <1>   0.1500 
 37 H       -3.3270     3.9110    -1.9660 H     1 <1>   0.1500 
 38 H       -5.3210     6.6670     1.5810 H     1 <1>   0.1500 
 39 H       -5.6820     4.5550    -2.0980 H     1 <1>   0.1500 
 40 H        1.8650     6.1000    -0.3240 H     1 <1>   0.3700 
 41 H       -6.6900     5.9310    -0.3260 H     1 <1>   0.1500 
 42 H        1.2610     8.5570     1.2470 H     1 <1>   0.0800 
 43 H        2.3750     7.3670     1.8500 H     1 <1>   0.0800 
 44 H        4.6200     7.8010    -0.8990 H     1 <1>   0.4000 
 45 H        3.3640    10.1570     1.3490 H     1 <1>   0.0800 
 46 H        4.7580     9.7730     0.3770 H     1 <1>   0.0800 
 47 H        4.3810     8.8130     1.7950 H     1 <1>   0.0800 
 48 H        1.8890     9.9330    -0.8200 H     1 <1>   0.0800 
 49 H        2.0210     8.4720    -1.7550 H     1 <1>   0.0800 
 50 H        3.3650     9.5950    -1.6820 H     1 <1>   0.0800 
@<TRIPOS>BOND
  1   1   2  2   
  2   2   3  am  
  3   2   4  1   
  4   3   5  1   
  5   3   6  1   
  6   4   7  1   
  7   4  25  1   
  8   4  26  1   
  9   5   8  1   
 10   5   9  1   
 11   5  27  1   
 12   6  10  1   
 13   6  11  1   
 14   6  28  1   
 15   7   9  1   
 16   8  12  ar  
 17   8  13  ar  
 18   9  14  1   
 19   9  29  1   
 20  10  30  1   
 21  10  31  1   
 22  10  32  1   
 23  11  33  1   
 24  11  34  1   
 25  11  35  1   
 26  12  15  ar  
 27  12  36  1   
 28  13  16  ar  
 29  13  37  1   
 30  14  17  2   
 31  14  18  am  
 32  15  19  ar  
 33  15  38  1   
 34  16  19  ar  
 35  16  39  1   
 36  18  20  1   
 37  18  40  1   
 38  19  41  1   
 39  20  21  1   
 40  20  42  1   
 41  20  43  1   
 42  21  22  1   
 43  21  23  1   
 44  21  24  1   
 45  22  44  1   
 46  23  45  1   
 47  23  46  1   
 48  23  47  1   
 49  24  48  1   
 50  24  49  1   
 51  24  50  1   
@<TRIPOS>SUBSTRUCTURE
  1 ****   9 GROUP 4 **** **** 0

# MOE 2024.06 (io_trps.svl 2023.06)
