@<TRIPOS>MOLECULE
NONAME
47 49 1 0 0 
SMALL
USER_CHARGES


@<TRIPOS>ATOM
  1 CL       1.2180    -0.4310    -0.6630 Cl    1 <1>  -0.1770 
  2 C        0.3560    -1.9450    -0.6810 C.ar  1 <1>   0.1770 
  3 C        0.7400    -2.9340    -1.5650 C.ar  1 <1>  -0.1500 
  4 C       -0.7040    -2.1240     0.1930 C.ar  1 <1>  -0.1500 
  5 C        0.0270    -4.1150    -1.5440 C.ar  1 <1>   0.1900 
  6 C       -1.4150    -3.3210     0.1940 C.ar  1 <1>  -0.1440 
  7 F        0.3650    -5.0690    -2.3670 F     1 <1>  -0.1900 
  8 C       -1.0370    -4.3290    -0.6850 C.ar  1 <1>  -0.1500 
  9 C       -2.5840    -3.5220     1.1420 C.3   1 <1>   0.4870 
 10 N       -3.8530    -3.3990     0.3780 N.4   1 <1>  -0.9590 
 11 C       -4.0480    -2.0090    -0.1340 C.3   1 <1>   0.3430 
 12 C       -5.0120    -3.8260     1.2130 C.3   1 <1>   0.3430 
 13 C       -5.3270    -1.9260    -0.9590 C.3   1 <1>  -0.1600 
 14 C       -6.2940    -3.7670     0.3910 C.3   1 <1>  -0.1600 
 15 C       -6.5570    -2.3440    -0.1290 C.3   1 <1>   0.2800 
 16 O       -6.5610    -1.5270     1.0180 O.3   1 <1>  -0.5600 
 17 C       -7.9130    -2.2790    -0.9240 C.3   1 <1>   0.2000 
 18 C       -7.3120    -0.3520     0.9470 C.3   1 <1>   0.1200 
 19 O       -7.8320    -1.3470    -1.9720 O.3   1 <1>  -0.6800 
 20 C       -9.1140    -1.9250    -0.0010 C.3   1 <1>   0.2800 
 21 C       -8.8090    -0.6820     0.8600 C.3   1 <1>  -0.1600 
 22 O       -9.3260    -2.9880     0.8550 O.3   1 <1>  -0.6800 
 23 C      -10.4380    -1.7690    -0.7590 C.3   1 <1>  -0.2400 
 24 H        1.5640    -2.7910    -2.2410 H     1 <1>   0.1500 
 25 H       -0.9540    -1.3200     0.8640 H     1 <1>   0.1500 
 26 H       -1.5440    -5.2780    -0.7180 H     1 <1>   0.1500 
 27 H       -2.5540    -2.7870     1.9310 H     1 <1>   0.0800 
 28 H       -2.5140    -4.5010     1.5870 H     1 <1>   0.0800 
 29 H       -3.7860    -4.0210    -0.4360 H     1 <1>   0.4500 
 30 H       -4.1230    -1.3230     0.6960 H     1 <1>   0.0800 
 31 H       -3.2100    -1.7150    -0.7450 H     1 <1>   0.0800 
 32 H       -4.8640    -4.8300     1.5740 H     1 <1>   0.0800 
 33 H       -5.1140    -3.1680     2.0630 H     1 <1>   0.0800 
 34 H       -5.2420    -2.5440    -1.8340 H     1 <1>   0.0800 
 35 H       -5.4410    -0.9120    -1.2980 H     1 <1>   0.0800 
 36 H       -7.1050    -4.0840     1.0180 H     1 <1>   0.0800 
 37 H       -6.2370    -4.4610    -0.4280 H     1 <1>   0.0800 
 38 H       -8.0990    -3.2290    -1.3930 H     1 <1>   0.0800 
 39 H       -7.1080     0.2300     1.8290 H     1 <1>   0.0800 
 40 H       -6.9930     0.2080     0.0840 H     1 <1>   0.0800 
 41 H       -8.6640    -1.3460    -2.4860 H     1 <1>   0.4000 
 42 H       -9.2860     0.1790     0.4290 H     1 <1>   0.0800 
 43 H       -9.2100    -0.7960     1.8510 H     1 <1>   0.0800 
 44 H      -10.0760    -2.7860     1.4460 H     1 <1>   0.4000 
 45 H      -10.3960    -0.9290    -1.4280 H     1 <1>   0.0800 
 46 H      -11.2490    -1.5980    -0.0740 H     1 <1>   0.0800 
 47 H      -10.6460    -2.6520    -1.3370 H     1 <1>   0.0800 
@<TRIPOS>BOND
  1   1   2  1   
  2   2   3  ar  
  3   2   4  ar  
  4   3   5  ar  
  5   3  24  1   
  6   4   6  ar  
  7   4  25  1   
  8   5   7  1   
  9   5   8  ar  
 10   6   8  ar  
 11   6   9  1   
 12   8  26  1   
 13   9  10  1   
 14   9  27  1   
 15   9  28  1   
 16  10  11  1   
 17  10  12  1   
 18  10  29  1   
 19  11  13  1   
 20  11  30  1   
 21  11  31  1   
 22  12  14  1   
 23  12  32  1   
 24  12  33  1   
 25  13  15  1   
 26  13  34  1   
 27  13  35  1   
 28  14  15  1   
 29  14  36  1   
 30  14  37  1   
 31  15  16  1   
 32  15  17  1   
 33  16  18  1   
 34  17  19  1   
 35  17  20  1   
 36  17  38  1   
 37  18  21  1   
 38  18  39  1   
 39  18  40  1   
 40  19  41  1   
 41  20  21  1   
 42  20  22  1   
 43  20  23  1   
 44  21  42  1   
 45  21  43  1   
 46  22  44  1   
 47  23  45  1   
 48  23  46  1   
 49  23  47  1   
@<TRIPOS>SUBSTRUCTURE
  1 ****  11 GROUP 4 **** **** 0

# MOE 2024.06 (io_trps.svl 2023.06)
