@<TRIPOS>MOLECULE
NONAME
55 57 1 0 0 
SMALL
USER_CHARGES


@<TRIPOS>ATOM
  1 O       -1.8600    -0.2180     2.5400 O.2   1 <1>  -0.5700 
  2 C       -1.9530     0.4720     1.5410 C.2   1 <1>   0.7160 
  3 N       -2.7370     0.0360     0.5020 N.am  1 <1>  -0.6600 
  4 C       -1.2770     1.7430     1.4700 C.2   1 <1>  -0.0860 
  5 C       -2.8420    -1.4420     0.2610 C.3   1 <1>   0.3640 
  6 C       -3.8750     0.8890     0.0630 C.3   1 <1>   0.1400 
  7 C       -0.7530     2.4360     2.5620 C.2   1 <1>   0.1390 
  8 C       -0.9700     2.5530     0.4170 C.2   1 <1>  -0.3020 
  9 C       -1.4390    -1.9520    -0.0880 C.ar  1 <1>  -0.1440 
 10 C       -3.8340    -1.8550    -0.8720 C.3   1 <1>   0.2000 
 11 C       -4.5090     0.3660    -1.2250 C.3   1 <1>   0.1200 
 12 N       -0.1940     3.5580     2.2310 N.2   1 <1>  -0.7070 
 13 N       -0.3230     3.6300     0.8940 N.pl3 1 <1>   0.3140 
 14 C       -0.8650    -2.9740     0.6550 C.ar  1 <1>  -0.1500 
 15 C       -0.7220    -1.4030    -1.1440 C.ar  1 <1>  -0.1500 
 16 O       -4.8980    -0.9550    -1.0340 O.3   1 <1>  -0.5600 
 17 C       -4.4760    -3.2320    -0.6330 C.3   1 <1>   0.1200 
 18 C        0.2250     4.7780     0.1210 C.3   1 <1>   0.1760 
 19 C        0.3960    -3.4550     0.3450 C.ar  1 <1>   0.0830 
 20 C        0.5460    -1.8660    -1.4520 C.ar  1 <1>  -0.1500 
 21 O       -3.5230    -4.2270    -0.4350 O.3   1 <1>  -0.6800 
 22 C       -0.8950     5.5200    -0.6210 C.3   1 <1>  -0.2400 
 23 C        1.3120     4.3050    -0.8550 C.3   1 <1>  -0.2400 
 24 O        0.8750    -4.4850     1.0850 O.3   1 <1>  -0.3620 
 25 C        1.1180    -2.8810    -0.7060 C.ar  1 <1>   0.0830 
 26 C        0.9780    -5.7250     0.4230 C.3   1 <1>   0.0400 
 27 O        2.3750    -3.2680    -1.0360 O.3   1 <1>  -0.3630 
 28 C        3.3740    -3.0340    -0.0680 C.3   1 <1>   0.0400 
 29 H       -3.1690    -1.9070     1.1760 H     1 <1>   0.0800 
 30 H       -4.6220     0.9030     0.8390 H     1 <1>   0.0800 
 31 H       -3.5410     1.9000    -0.0910 H     1 <1>   0.0800 
 32 H       -0.8080     2.0720     3.5750 H     1 <1>   0.1500 
 33 H       -1.1730     2.4030    -0.6260 H     1 <1>   0.1500 
 34 H       -3.3120    -1.8850    -1.8110 H     1 <1>   0.0800 
 35 H       -3.8210     0.4210    -2.0510 H     1 <1>   0.0800 
 36 H       -5.3890     0.9370    -1.4630 H     1 <1>   0.0800 
 37 H       -1.3970    -3.4130     1.4810 H     1 <1>   0.1500 
 38 H       -1.1460    -0.6030    -1.7260 H     1 <1>   0.1500 
 39 H       -5.0760    -3.5130    -1.4820 H     1 <1>   0.0800 
 40 H       -5.0970    -3.2020     0.2450 H     1 <1>   0.0800 
 41 H        0.6720     5.4520     0.8310 H     1 <1>   0.0800 
 42 H        1.1010    -1.4370    -2.2660 H     1 <1>   0.1500 
 43 H       -2.8930    -4.2730    -1.1810 H     1 <1>   0.4000 
 44 H       -1.3560     4.8850    -1.3560 H     1 <1>   0.0800 
 45 H       -0.4950     6.3850    -1.1190 H     1 <1>   0.0800 
 46 H       -1.6410     5.8510     0.0810 H     1 <1>   0.0800 
 47 H        0.9020     3.6400    -1.5930 H     1 <1>   0.0800 
 48 H        2.0910     3.7960    -0.3140 H     1 <1>   0.0800 
 49 H        1.7480     5.1500    -1.3570 H     1 <1>   0.0800 
 50 H        1.3130    -6.4580     1.1340 H     1 <1>   0.0800 
 51 H        1.6870    -5.6400    -0.3810 H     1 <1>   0.0800 
 52 H        0.0090    -5.9950     0.0420 H     1 <1>   0.0800 
 53 H        4.3290    -3.2480    -0.5110 H     1 <1>   0.0800 
 54 H        3.2100    -3.6780     0.7770 H     1 <1>   0.0800 
 55 H        3.3290    -2.0030     0.2360 H     1 <1>   0.0800 
@<TRIPOS>BOND
  1   1   2  2   
  2   2   3  am  
  3   2   4  1   
  4   3   5  1   
  5   3   6  1   
  6   4   7  1   
  7   4   8  2   
  8   5   9  1   
  9   5  10  1   
 10   5  29  1   
 11   6  11  1   
 12   6  30  1   
 13   6  31  1   
 14   7  12  2   
 15   7  32  1   
 16   8  13  1   
 17   8  33  1   
 18   9  14  ar  
 19   9  15  ar  
 20  10  16  1   
 21  10  17  1   
 22  10  34  1   
 23  11  16  1   
 24  11  35  1   
 25  11  36  1   
 26  12  13  1   
 27  13  18  1   
 28  14  19  ar  
 29  14  37  1   
 30  15  20  ar  
 31  15  38  1   
 32  17  21  1   
 33  17  39  1   
 34  17  40  1   
 35  18  22  1   
 36  18  23  1   
 37  18  41  1   
 38  19  24  1   
 39  19  25  ar  
 40  20  25  ar  
 41  20  42  1   
 42  21  43  1   
 43  22  44  1   
 44  22  45  1   
 45  22  46  1   
 46  23  47  1   
 47  23  48  1   
 48  23  49  1   
 49  24  26  1   
 50  25  27  1   
 51  26  50  1   
 52  26  51  1   
 53  26  52  1   
 54  27  28  1   
 55  28  53  1   
 56  28  54  1   
 57  28  55  1   
@<TRIPOS>SUBSTRUCTURE
  1 ****   9 GROUP 4 **** **** 0

# MOE 2024.06 (io_trps.svl 2023.06)
