@<TRIPOS>MOLECULE
NONAME
58 60 1 0 0 
SMALL
USER_CHARGES


@<TRIPOS>ATOM
  1 O        3.0170    -3.3690     0.8270 O.2   1 <1>  -0.5700 
  2 C        3.3640    -2.5450     0.0010 C.2   1 <1>   0.5440 
  3 N        4.6260    -1.9970     0.0910 N.am  1 <1>  -0.6600 
  4 C        2.4660    -2.1930    -1.0690 C.ar  1 <1>   0.0860 
  5 C        5.5590    -2.3590     1.2060 C.3   1 <1>   0.1400 
  6 C        5.1250    -0.9210    -0.8100 C.3   1 <1>   0.1400 
  7 C        1.5270    -1.1650    -0.9250 C.ar  1 <1>   0.3920 
  8 C        2.5100    -2.8620    -2.2830 C.ar  1 <1>  -0.1500 
  9 C        5.5200    -1.3350     2.3500 C.3   1 <1>   0.1400 
 10 C        4.6710     0.4710    -0.3470 C.3   1 <1>  -0.1600 
 11 O        1.4780    -0.5150     0.2560 O.3   1 <1>  -0.3630 
 12 N        0.6830    -0.7710    -1.8800 N.ar  1 <1>  -0.6200 
 13 C        1.6380    -2.4680    -3.2730 C.ar  1 <1>  -0.1500 
 14 N        5.7850     0.0560     1.8610 N.am  1 <1>  -0.6600 
 15 C        4.6100     0.6670     1.1740 C.3   1 <1>   0.1400 
 16 C        0.5070     0.4740     0.5220 C.3   1 <1>   0.1200 
 17 C        0.7570    -1.4300    -3.0220 C.ar  1 <1>   0.1600 
 18 C        7.0280     0.6200     1.9900 C.2   1 <1>   0.5690 
 19 C        0.7240     0.9880     1.9420 C.3   1 <1>  -0.2400 
 20 O        7.9310     0.0520     2.5580 O.2   1 <1>  -0.5700 
 21 C        7.3640     1.9600     1.3740 C.3   1 <1>  -0.0990 
 22 C        8.1510     1.7210     0.0840 C.3   1 <1>   0.0960 
 23 N        8.1280     2.9260    -0.7600 N.pl3 1 <1>   0.3140 
 24 N        7.1060     3.1480    -1.6070 N.2   1 <1>  -0.7070 
 25 C        9.0320     3.9310    -0.8020 C.2   1 <1>  -0.3320 
 26 C        7.3820     4.2810    -2.1710 C.2   1 <1>   0.1080 
 27 C        8.5750     4.8220    -1.7080 C.2   1 <1>  -0.1500 
 28 C       10.3010     4.0030     0.0300 C.3   1 <1>  -0.0600 
 29 C        6.4830     4.9100    -3.2080 C.3   1 <1>  -0.0590 
 30 H        6.5640    -2.4280     0.8290 H     1 <1>   0.0800 
 31 H        5.3010    -3.3270     1.6000 H     1 <1>   0.0800 
 32 H        4.7910    -1.0950    -1.8190 H     1 <1>   0.0800 
 33 H        6.2010    -0.9510    -0.8220 H     1 <1>   0.0800 
 34 H        3.2080    -3.6670    -2.4340 H     1 <1>   0.1500 
 35 H        6.2520    -1.6110     3.0890 H     1 <1>   0.0800 
 36 H        4.5570    -1.3760     2.8270 H     1 <1>   0.0800 
 37 H        3.6970     0.6730    -0.7510 H     1 <1>   0.0800 
 38 H        5.3240     1.2070    -0.7770 H     1 <1>   0.0800 
 39 H        1.6350    -2.9580    -4.2300 H     1 <1>   0.1500 
 40 H        3.7130     0.1980     1.5420 H     1 <1>   0.0800 
 41 H        4.5310     1.7120     1.4130 H     1 <1>   0.0800 
 42 H       -0.4670     0.0260     0.4190 H     1 <1>   0.0800 
 43 H        0.6200     1.2670    -0.1980 H     1 <1>   0.0800 
 44 H        0.0790    -1.1280    -3.8040 H     1 <1>   0.1500 
 45 H        0.6530     0.1750     2.6430 H     1 <1>   0.0800 
 46 H       -0.0300     1.7150     2.1820 H     1 <1>   0.0800 
 47 H        1.6880     1.4550     2.0260 H     1 <1>   0.0800 
 48 H        7.9660     2.5190     2.0650 H     1 <1>   0.0800 
 49 H        6.4790     2.5280     1.1680 H     1 <1>   0.0800 
 50 H        7.7040     0.9230    -0.4790 H     1 <1>   0.0800 
 51 H        9.1670     1.4510     0.3050 H     1 <1>   0.0800 
 52 H        9.0140     5.7510    -2.0220 H     1 <1>   0.1500 
 53 H       10.0610     3.9870     1.0780 H     1 <1>   0.0800 
 54 H       10.8320     4.9130    -0.1840 H     1 <1>   0.0800 
 55 H       10.9430     3.1720    -0.1980 H     1 <1>   0.0800 
 56 H        6.3900     4.2480    -4.0490 H     1 <1>   0.0800 
 57 H        6.8910     5.8470    -3.5400 H     1 <1>   0.0800 
 58 H        5.5100     5.0780    -2.7850 H     1 <1>   0.0800 
@<TRIPOS>BOND
  1   1   2  2   
  2   2   3  am  
  3   2   4  1   
  4   3   5  1   
  5   3   6  1   
  6   4   7  ar  
  7   4   8  ar  
  8   5   9  1   
  9   5  30  1   
 10   5  31  1   
 11   6  10  1   
 12   6  32  1   
 13   6  33  1   
 14   7  11  1   
 15   7  12  ar  
 16   8  13  ar  
 17   8  34  1   
 18   9  14  1   
 19   9  35  1   
 20   9  36  1   
 21  10  15  1   
 22  10  37  1   
 23  10  38  1   
 24  11  16  1   
 25  12  17  ar  
 26  13  17  ar  
 27  13  39  1   
 28  14  15  1   
 29  14  18  am  
 30  15  40  1   
 31  15  41  1   
 32  16  19  1   
 33  16  42  1   
 34  16  43  1   
 35  17  44  1   
 36  18  20  2   
 37  18  21  1   
 38  19  45  1   
 39  19  46  1   
 40  19  47  1   
 41  21  22  1   
 42  21  48  1   
 43  21  49  1   
 44  22  23  1   
 45  22  50  1   
 46  22  51  1   
 47  23  24  1   
 48  23  25  1   
 49  24  26  2   
 50  25  27  2   
 51  25  28  1   
 52  26  27  1   
 53  26  29  1   
 54  27  52  1   
 55  28  53  1   
 56  28  54  1   
 57  28  55  1   
 58  29  56  1   
 59  29  57  1   
 60  29  58  1   
@<TRIPOS>SUBSTRUCTURE
  1 ****  10 GROUP 4 **** **** 0

# MOE 2024.06 (io_trps.svl 2023.06)
