@<TRIPOS>MOLECULE
NONAME
57 60 1 0 0 
SMALL
USER_CHARGES


@<TRIPOS>ATOM
  1 O       -1.7160    -0.3670     1.3890 O.2   1 <1>  -0.5700 
  2 C       -2.3320     0.2890     0.5720 C.2   1 <1>   0.7160 
  3 N       -3.4290    -0.2910     0.0090 N.am  1 <1>  -0.7300 
  4 C       -1.9270     1.6060     0.1840 C.2   1 <1>  -0.0860 
  5 C       -4.2460    -1.3600     0.6280 C.3   1 <1>   0.2200 
  6 C       -2.6700     2.4980    -0.6020 C.2   1 <1>   0.3720 
  7 C       -0.7990     2.3150     0.4690 C.2   1 <1>   0.0870 
  8 C       -3.4560    -2.6620     0.9430 C.3   1 <1>   0.3430 
  9 C       -5.4290    -1.6200    -0.3070 C.3   1 <1>  -0.2400 
 10 N       -2.0460     3.6090    -0.7640 N.2   1 <1>  -0.4100 
 11 N       -3.9420     2.2480    -1.1390 N.pl3 1 <1>  -0.8210 
 12 O       -0.9250     3.4820    -0.1090 O.3   1 <1>  -0.0190 
 13 C        0.3940     2.0280     1.2220 C.ar  1 <1>   0.0530 
 14 N       -2.8080    -3.3060    -0.2520 N.4   1 <1>  -0.9590 
 15 C       -4.0650     2.5330    -2.6120 C.3   1 <1>   0.2090 
 16 C       -5.0540     2.8950    -0.3610 C.3   1 <1>   0.2090 
 17 C        0.9210     2.9750     2.1000 C.ar  1 <1>  -0.1500 
 18 C        1.0750     0.8170     1.0980 C.ar  1 <1>  -0.1500 
 19 C       -2.4670    -4.7290    -0.0280 C.3   1 <1>   0.3430 
 20 C       -1.5350    -2.6480    -0.6390 C.3   1 <1>   0.3430 
 21 C       -4.4350     3.9970    -2.9240 C.3   1 <1>   0.1200 
 22 C       -5.3340     4.3430    -0.8070 C.3   1 <1>   0.1200 
 23 C        2.0690     2.7240     2.8280 C.ar  1 <1>  -0.1500 
 24 C        2.2230     0.5580     1.8240 C.ar  1 <1>  -0.1500 
 25 C       -1.4340    -5.0390    -1.1010 C.3   1 <1>  -0.1600 
 26 C       -0.7880    -3.6960    -1.4530 C.3   1 <1>  -0.1600 
 27 O       -5.5520     4.3950    -2.1850 O.3   1 <1>  -0.5600 
 28 C        2.7220     1.5120     2.6920 C.ar  1 <1>  -0.1500 
 29 H       -3.9530     0.3650    -0.5950 H     1 <1>   0.3700 
 30 H       -4.6310    -0.9820     1.5610 H     1 <1>   0.0800 
 31 H       -4.1490    -3.3610     1.3810 H     1 <1>   0.0800 
 32 H       -2.7090    -2.4460     1.6880 H     1 <1>   0.0800 
 33 H       -5.0980    -1.9320    -1.2800 H     1 <1>   0.0800 
 34 H       -6.0190    -0.7260    -0.4120 H     1 <1>   0.0800 
 35 H       -6.0650    -2.3850     0.1030 H     1 <1>   0.0800 
 36 H       -3.4420    -3.2430    -1.0560 H     1 <1>   0.4500 
 37 H       -4.8230     1.8940    -3.0290 H     1 <1>   0.0800 
 38 H       -3.1360     2.2990    -3.1030 H     1 <1>   0.0800 
 39 H       -4.8100     2.8960     0.6870 H     1 <1>   0.0800 
 40 H       -5.9540     2.3190    -0.4870 H     1 <1>   0.0800 
 41 H        0.4220     3.9220     2.2120 H     1 <1>   0.1500 
 42 H        0.7010     0.0710     0.4230 H     1 <1>   0.1500 
 43 H       -3.3320    -5.3680    -0.1070 H     1 <1>   0.0800 
 44 H       -2.0180    -4.8470     0.9450 H     1 <1>   0.0800 
 45 H       -0.9690    -2.4030     0.2460 H     1 <1>   0.0800 
 46 H       -1.7100    -1.7490    -1.2080 H     1 <1>   0.0800 
 47 H       -4.6760     4.1040    -3.9660 H     1 <1>   0.0800 
 48 H       -3.6150     4.6550    -2.6950 H     1 <1>   0.0800 
 49 H       -4.5050     4.9850    -0.5600 H     1 <1>   0.0800 
 50 H       -6.2160     4.7180    -0.3200 H     1 <1>   0.0800 
 51 H        2.4570     3.4700     3.5000 H     1 <1>   0.1500 
 52 H        2.7320    -0.3840     1.7150 H     1 <1>   0.1500 
 53 H       -1.9230    -5.4570    -1.9650 H     1 <1>   0.0800 
 54 H       -0.7120    -5.7510    -0.7390 H     1 <1>   0.0800 
 55 H        0.2590    -3.6800    -1.2020 H     1 <1>   0.0800 
 56 H       -0.8910    -3.4890    -2.5040 H     1 <1>   0.0800 
 57 H        3.6160     1.3130     3.2580 H     1 <1>   0.1500 
@<TRIPOS>BOND
  1   1   2  2   
  2   2   3  am  
  3   2   4  1   
  4   3   5  1   
  5   3  29  1   
  6   4   6  1   
  7   4   7  2   
  8   5   8  1   
  9   5   9  1   
 10   5  30  1   
 11   6  10  2   
 12   6  11  1   
 13   7  12  1   
 14   7  13  1   
 15   8  14  1   
 16   8  31  1   
 17   8  32  1   
 18   9  33  1   
 19   9  34  1   
 20   9  35  1   
 21  10  12  1   
 22  11  15  1   
 23  11  16  1   
 24  13  17  ar  
 25  13  18  ar  
 26  14  19  1   
 27  14  20  1   
 28  14  36  1   
 29  15  21  1   
 30  15  37  1   
 31  15  38  1   
 32  16  22  1   
 33  16  39  1   
 34  16  40  1   
 35  17  23  ar  
 36  17  41  1   
 37  18  24  ar  
 38  18  42  1   
 39  19  25  1   
 40  19  43  1   
 41  19  44  1   
 42  20  26  1   
 43  20  45  1   
 44  20  46  1   
 45  21  27  1   
 46  21  47  1   
 47  21  48  1   
 48  22  27  1   
 49  22  49  1   
 50  22  50  1   
 51  23  28  ar  
 52  23  51  1   
 53  24  28  ar  
 54  24  52  1   
 55  25  26  1   
 56  25  53  1   
 57  25  54  1   
 58  26  55  1   
 59  26  56  1   
 60  28  57  1   
@<TRIPOS>SUBSTRUCTURE
  1 ****   2 GROUP 4 **** **** 0

# MOE 2024.06 (io_trps.svl 2023.06)
