@<TRIPOS>MOLECULE
NONAME
55 57 1 0 0 
SMALL
USER_CHARGES


@<TRIPOS>ATOM
  1 O       -2.1030    -0.3370     2.5750 O.2   1 <1>  -0.5700 
  2 C       -2.1620     0.4230     1.6370 C.2   1 <1>   0.5690 
  3 N       -2.4510    -0.0100     0.3690 N.am  1 <1>  -0.6600 
  4 C       -1.8440     1.9030     1.9180 C.3   1 <1>   0.1710 
  5 C       -2.3820    -1.4690     0.0260 C.3   1 <1>   0.3640 
  6 C       -2.9120     0.9080    -0.7130 C.3   1 <1>   0.1400 
  7 N       -0.6580     2.4350     1.1700 N.3   1 <1>  -0.8100 
  8 C       -0.9320    -1.8480    -0.3350 C.ar  1 <1>  -0.1440 
  9 C       -3.4350    -1.8450    -1.0570 C.3   1 <1>   0.2000 
 10 C       -2.8280     0.2630    -2.1010 C.3   1 <1>   0.1200 
 11 C       -0.4560     3.8780     1.4250 C.3   1 <1>   0.1100 
 12 C        0.5540     1.6510     1.4810 C.3   1 <1>   0.1100 
 13 C       -0.4900    -2.0680    -1.6370 C.ar  1 <1>  -0.1500 
 14 C       -0.0150    -1.9980     0.6980 C.ar  1 <1>  -0.1500 
 15 O       -3.4970    -0.9680    -2.1680 O.3   1 <1>  -0.5600 
 16 C       -4.8510    -1.9220    -0.4680 C.3   1 <1>   0.1200 
 17 C        0.3940     4.5900     0.3450 C.3   1 <1>   0.3430 
 18 C        1.3600     1.4290     0.2020 C.3   1 <1>  -0.1600 
 19 C        0.8290    -2.3990    -1.8950 C.ar  1 <1>  -0.1500 
 20 C        1.3040    -2.3320     0.4450 C.ar  1 <1>  -0.1500 
 21 O       -4.9590    -3.0040     0.4000 O.3   1 <1>  -0.6800 
 22 N        1.6660     3.8790    -0.0320 N.4   1 <1>  -0.9590 
 23 C        1.3610     2.6130    -0.7590 C.3   1 <1>   0.3430 
 24 C        1.7300    -2.5290    -0.8550 C.ar  1 <1>  -0.1500 
 25 C        2.5510     4.7610    -0.8490 C.3   1 <1>   0.2630 
 26 H       -1.6760     2.0100     2.9760 H     1 <1>   0.0800 
 27 H       -2.7160     2.4780     1.6670 H     1 <1>   0.0800 
 28 H       -2.6300    -2.0370     0.9060 H     1 <1>   0.0800 
 29 H       -3.9330     1.1910    -0.5220 H     1 <1>   0.0800 
 30 H       -2.3140     1.8000    -0.7180 H     1 <1>   0.0800 
 31 H       -3.1940    -2.8160    -1.4520 H     1 <1>   0.0800 
 32 H       -1.8000     0.1140    -2.3720 H     1 <1>   0.0800 
 33 H       -3.2740     0.9100    -2.8350 H     1 <1>   0.0800 
 34 H       -1.4150     4.3670     1.4470 H     1 <1>   0.0800 
 35 H       -0.0100     4.0220     2.3940 H     1 <1>   0.0800 
 36 H        1.1500     2.1570     2.2210 H     1 <1>   0.0800 
 37 H        0.3110     0.6840     1.8900 H     1 <1>   0.0800 
 38 H       -1.1610    -1.9940    -2.4740 H     1 <1>   0.1500 
 39 H       -0.3270    -1.8620     1.7190 H     1 <1>   0.1500 
 40 H       -5.5800    -2.0510    -1.2500 H     1 <1>   0.0800 
 41 H       -5.0750    -1.0300     0.0910 H     1 <1>   0.0800 
 42 H        0.6290     5.5770     0.7050 H     1 <1>   0.0800 
 43 H       -0.2150     4.7090    -0.5360 H     1 <1>   0.0800 
 44 H        0.9350     0.5870    -0.3170 H     1 <1>   0.0800 
 45 H        2.3670     1.1550     0.4570 H     1 <1>   0.0800 
 46 H        1.1530    -2.5650    -2.9080 H     1 <1>   0.1500 
 47 H        1.9950    -2.4450     1.2630 H     1 <1>   0.1500 
 48 H       -4.9830    -3.8490    -0.0910 H     1 <1>   0.4000 
 49 H        2.1500     3.6150     0.8360 H     1 <1>   0.4500 
 50 H        0.3920     2.6880    -1.2250 H     1 <1>   0.0800 
 51 H        2.0930     2.4340    -1.5300 H     1 <1>   0.0800 
 52 H        2.7540    -2.7930    -1.0550 H     1 <1>   0.1500 
 53 H        2.0590     5.0380    -1.7670 H     1 <1>   0.0800 
 54 H        3.4680     4.2480    -1.0900 H     1 <1>   0.0800 
 55 H        2.7940     5.6580    -0.3020 H     1 <1>   0.0800 
@<TRIPOS>BOND
  1   1   2  2   
  2   2   3  am  
  3   2   4  1   
  4   3   5  1   
  5   3   6  1   
  6   4   7  1   
  7   4  26  1   
  8   4  27  1   
  9   5   8  1   
 10   5   9  1   
 11   5  28  1   
 12   6  10  1   
 13   6  29  1   
 14   6  30  1   
 15   7  11  1   
 16   7  12  1   
 17   8  13  ar  
 18   8  14  ar  
 19   9  15  1   
 20   9  16  1   
 21   9  31  1   
 22  10  15  1   
 23  10  32  1   
 24  10  33  1   
 25  11  17  1   
 26  11  34  1   
 27  11  35  1   
 28  12  18  1   
 29  12  36  1   
 30  12  37  1   
 31  13  19  ar  
 32  13  38  1   
 33  14  20  ar  
 34  14  39  1   
 35  16  21  1   
 36  16  40  1   
 37  16  41  1   
 38  17  22  1   
 39  17  42  1   
 40  17  43  1   
 41  18  23  1   
 42  18  44  1   
 43  18  45  1   
 44  19  24  ar  
 45  19  46  1   
 46  20  24  ar  
 47  20  47  1   
 48  21  48  1   
 49  22  23  1   
 50  22  25  1   
 51  22  49  1   
 52  23  50  1   
 53  23  51  1   
 54  24  52  1   
 55  25  53  1   
 56  25  54  1   
 57  25  55  1   
@<TRIPOS>SUBSTRUCTURE
  1 ****   3 GROUP 4 **** **** 0

# MOE 2024.06 (io_trps.svl 2023.06)
