@<TRIPOS>MOLECULE
NONAME
45 47 1 0 0 
SMALL
USER_CHARGES


@<TRIPOS>ATOM
  1 O       -0.1060     0.8110    -0.1290 O.2   1 <1>  -0.5700 
  2 C       -0.2530     1.9990    -0.2950 C.2   1 <1>   0.5690 
  3 N       -1.0390     2.7650     0.5230 N.am  1 <1>  -0.6600 
  4 C        0.4660     2.6550    -1.4750 C.3   1 <1>   0.1810 
  5 C       -1.1940     4.2390     0.2950 C.3   1 <1>   0.3640 
  6 C       -1.7290     2.2060     1.7230 C.3   1 <1>   0.0600 
  7 O        0.7190     4.0200    -1.2530 O.3   1 <1>  -0.5600 
  8 C       -2.6690     4.6650     0.2770 C.ar  1 <1>  -0.1430 
  9 C       -0.4440     4.7750    -0.9510 C.3   1 <1>   0.2610 
 10 C       -3.6640     4.0680    -0.5050 C.ar  1 <1>  -0.1430 
 11 C       -3.0150     5.7320     1.1000 C.ar  1 <1>  -0.1500 
 12 C       -0.1170     6.2620    -0.7490 C.2   1 <1>   0.5690 
 13 C       -4.9650     4.5450    -0.4320 C.ar  1 <1>  -0.1500 
 14 C       -3.4100     2.8960    -1.4480 C.3   1 <1>  -0.0960 
 15 C       -4.3130     6.2000     1.1600 C.ar  1 <1>  -0.1500 
 16 O       -0.7880     7.0540    -1.3680 O.2   1 <1>  -0.5700 
 17 N        0.8740     6.7020     0.1040 N.am  1 <1>  -0.6600 
 18 C       -5.2920     5.6030     0.3930 C.ar  1 <1>  -0.1500 
 19 C        1.2680     8.1620     0.1270 C.3   1 <1>   0.2010 
 20 C        1.8310     5.8330     0.8600 C.3   1 <1>   0.1400 
 21 C        2.7800     8.3950    -0.0020 C.2   1 <1>   0.5690 
 22 C        3.2400     5.9320     0.2510 C.3   1 <1>   0.1400 
 23 O        3.2000     9.5130    -0.1650 O.2   1 <1>  -0.5700 
 24 N        3.6460     7.3530     0.0850 N.am  1 <1>  -0.7300 
 25 H       -0.1270     2.5550    -2.3660 H     1 <1>   0.0800 
 26 H        1.4100     2.1680    -1.6310 H     1 <1>   0.0800 
 27 H       -0.7430     4.7090     1.1500 H     1 <1>   0.0800 
 28 H       -1.4300     2.7480     2.6030 H     1 <1>   0.0800 
 29 H       -1.4790     1.1680     1.8580 H     1 <1>   0.0800 
 30 H       -2.7960     2.2880     1.6060 H     1 <1>   0.0800 
 31 H       -1.0910     4.7110    -1.8060 H     1 <1>   0.0800 
 32 H       -2.2720     6.2210     1.7050 H     1 <1>   0.1500 
 33 H       -5.7420     4.0940    -1.0240 H     1 <1>   0.1500 
 34 H       -4.2500     2.7400    -2.1010 H     1 <1>   0.0800 
 35 H       -3.2590     1.9930    -0.8840 H     1 <1>   0.0800 
 36 H       -2.5520     3.0740    -2.0640 H     1 <1>   0.0800 
 37 H       -4.5610     7.0280     1.8010 H     1 <1>   0.1500 
 38 H       -6.3060     5.9620     0.4350 H     1 <1>   0.1500 
 39 H        0.7880     8.6960    -0.6730 H     1 <1>   0.0800 
 40 H        0.9390     8.5970     1.0520 H     1 <1>   0.0800 
 41 H        1.8690     6.1630     1.8840 H     1 <1>   0.0800 
 42 H        1.5190     4.8050     0.8690 H     1 <1>   0.0800 
 43 H        3.2470     5.4460    -0.7100 H     1 <1>   0.0800 
 44 H        3.9440     5.4300     0.8910 H     1 <1>   0.0800 
 45 H        4.6350     7.5600    -0.0720 H     1 <1>   0.3700 
@<TRIPOS>BOND
  1   1   2  2   
  2   2   3  am  
  3   2   4  1   
  4   3   5  1   
  5   3   6  1   
  6   4   7  1   
  7   4  25  1   
  8   4  26  1   
  9   5   8  1   
 10   5   9  1   
 11   5  27  1   
 12   6  28  1   
 13   6  29  1   
 14   6  30  1   
 15   7   9  1   
 16   8  10  ar  
 17   8  11  ar  
 18   9  12  1   
 19   9  31  1   
 20  10  13  ar  
 21  10  14  1   
 22  11  15  ar  
 23  11  32  1   
 24  12  16  2   
 25  12  17  am  
 26  13  18  ar  
 27  13  33  1   
 28  14  34  1   
 29  14  35  1   
 30  14  36  1   
 31  15  18  ar  
 32  15  37  1   
 33  17  19  1   
 34  17  20  1   
 35  18  38  1   
 36  19  21  1   
 37  19  39  1   
 38  19  40  1   
 39  20  22  1   
 40  20  41  1   
 41  20  42  1   
 42  21  23  2   
 43  21  24  am  
 44  22  24  1   
 45  22  43  1   
 46  22  44  1   
 47  24  45  1   
@<TRIPOS>SUBSTRUCTURE
  1 ****   9 GROUP 4 **** **** 0

# MOE 2024.06 (io_trps.svl 2023.06)
