@<TRIPOS>MOLECULE
NONAME
33 34 1 0 0 
SMALL
USER_CHARGES


@<TRIPOS>ATOM
  1 S       -0.1300     0.3850     1.9200 S.o2  1 <1>   1.4470 
  2 O        0.5520    -0.5010     2.8380 O.2   1 <1>  -0.6500 
  3 O       -0.5770     1.6690     2.4160 O.2   1 <1>  -0.6500 
  4 N       -1.4830    -0.4520     1.3290 N.am  1 <1>  -0.8490 
  5 C        0.9480     0.6090     0.4790 C.ar  1 <1>  -0.0090 
  6 C       -1.1320    -1.7110     0.6500 C.3   1 <1>   0.1960 
  7 C       -2.4200     0.3720     0.5620 C.3   1 <1>   0.1960 
  8 C        0.7560     1.6300    -0.4450 C.ar  1 <1>   0.1900 
  9 C        2.0060    -0.2630     0.2350 C.ar  1 <1>  -0.1500 
 10 C       -2.3760    -2.5390     0.3250 C.3   1 <1>  -0.1860 
 11 C       -3.7100    -0.4030     0.2980 C.3   1 <1>  -0.1600 
 12 F       -0.2250     2.4760    -0.2850 F     1 <1>  -0.1900 
 13 C        1.5580     1.8150    -1.5610 C.ar  1 <1>  -0.1500 
 14 C        2.8110    -0.0800    -0.8760 C.ar  1 <1>   0.1900 
 15 C       -2.0020    -3.7440    -0.5050 C.2   1 <1>   0.9060 
 16 C       -3.3940    -1.6990    -0.4390 C.3   1 <1>   0.2000 
 17 C        2.6080     0.9420    -1.7830 C.ar  1 <1>  -0.1500 
 18 F        3.8040    -0.9040    -1.0740 F     1 <1>  -0.1900 
 19 O       -0.8300    -3.8970    -0.8640 O.co2 1 <1>  -0.9000 
 20 O       -2.9070    -4.5180    -0.8400 O.co2 1 <1>  -0.9000 
 21 O       -4.5550    -2.4260    -0.5690 O.3   1 <1>  -0.6800 
 22 H       -0.6030    -1.4970    -0.2640 H     1 <1>   0.0800 
 23 H       -0.4850    -2.3010     1.2790 H     1 <1>   0.0800 
 24 H       -2.6600     1.2650     1.1150 H     1 <1>   0.0800 
 25 H       -1.9770     0.6580    -0.3770 H     1 <1>   0.0800 
 26 H        2.2070    -1.0840     0.9040 H     1 <1>   0.1500 
 27 H       -2.8040    -2.8860     1.2460 H     1 <1>   0.0800 
 28 H       -4.3750     0.1950    -0.2950 H     1 <1>   0.0800 
 29 H       -4.1840    -0.6230     1.2380 H     1 <1>   0.0800 
 30 H        1.3580     2.6260    -2.2400 H     1 <1>   0.1500 
 31 H       -3.0260    -1.4910    -1.4300 H     1 <1>   0.0800 
 32 H        3.2560     1.0460    -2.6360 H     1 <1>   0.1500 
 33 H       -4.2670    -3.3650    -0.7680 H     1 <1>   0.4000 
@<TRIPOS>BOND
  1   1   2  2   
  2   1   3  2   
  3   1   4  am  
  4   1   5  1   
  5   4   6  1   
  6   4   7  1   
  7   5   8  ar  
  8   5   9  ar  
  9   6  10  1   
 10   6  22  1   
 11   6  23  1   
 12   7  11  1   
 13   7  24  1   
 14   7  25  1   
 15   8  12  1   
 16   8  13  ar  
 17   9  14  ar  
 18   9  26  1   
 19  10  15  1   
 20  10  16  1   
 21  10  27  1   
 22  11  16  1   
 23  11  28  1   
 24  11  29  1   
 25  13  17  ar  
 26  13  30  1   
 27  14  17  ar  
 28  14  18  1   
 29  15  19  ar  
 30  15  20  ar  
 31  16  21  1   
 32  16  31  1   
 33  17  32  1   
 34  21  33  1   
@<TRIPOS>SUBSTRUCTURE
  1 ****   6 GROUP 4 **** **** 0

# MOE 2024.06 (io_trps.svl 2023.06)
