@<TRIPOS>MOLECULE
NONAME
56 57 1 0 0 
SMALL
USER_CHARGES


@<TRIPOS>ATOM
  1 S       -2.7550     0.8590    -1.0320 S.3   1 <1>  -0.4600 
  2 C       -1.3150     0.0550    -0.2830 C.3   1 <1>   0.1500 
  3 C       -3.3010    -0.3480    -2.2920 C.3   1 <1>   0.1310 
  4 C       -1.7640    -0.5810     1.0310 C.3   1 <1>  -0.2400 
  5 C       -0.2630     1.1390    -0.0700 C.3   1 <1>  -0.2400 
  6 C       -3.7550    -1.6610    -1.6600 C.2   1 <1>   0.5690 
  7 O       -2.9850    -2.5910    -1.7380 O.2   1 <1>  -0.5700 
  8 N       -4.9760    -1.7860    -1.0360 N.am  1 <1>  -0.6600 
  9 C       -5.4270    -3.1070    -0.4990 C.3   1 <1>   0.1400 
 10 C       -5.9130    -0.6550    -0.7820 C.3   1 <1>   0.1400 
 11 C       -5.5630    -3.0950     1.0310 C.3   1 <1>   0.1400 
 12 C       -5.7480    -0.1590     0.6570 C.3   1 <1>  -0.1600 
 13 N       -6.7850    -2.3450     1.4670 N.am  1 <1>  -0.6600 
 14 C       -6.6340    -0.8730     1.6860 C.3   1 <1>   0.1400 
 15 C       -8.0010    -2.9530     1.7020 C.2   1 <1>   0.5690 
 16 O       -8.9710    -2.3110     2.0370 O.2   1 <1>  -0.5700 
 17 C       -8.1910    -4.4660     1.5980 C.3   1 <1>   0.1810 
 18 O       -7.8950    -4.9480     0.2980 O.3   1 <1>  -0.3630 
 19 C       -8.2200    -6.2360     0.0720 C.ar  1 <1>   0.0820 
 20 C       -9.4840    -6.5830    -0.4050 C.ar  1 <1>  -0.1430 
 21 C       -7.2620    -7.2030     0.3230 C.ar  1 <1>  -0.1500 
 22 C       -9.7830    -7.9310    -0.5940 C.ar  1 <1>  -0.1430 
 23 C      -10.5210    -5.5030    -0.7130 C.3   1 <1>  -0.0970 
 24 C       -7.5630    -8.5360     0.1240 C.ar  1 <1>  -0.1500 
 25 C       -8.8200    -8.8940    -0.3280 C.ar  1 <1>  -0.1500 
 26 C      -11.1490    -8.3880    -1.0900 C.3   1 <1>  -0.0970 
 27 H       -0.9600    -0.6930    -0.9730 H     1 <1>   0.0800 
 28 H       -2.4620    -0.5220    -2.9400 H     1 <1>   0.0800 
 29 H       -4.0920     0.1060    -2.8560 H     1 <1>   0.0800 
 30 H       -2.1900     0.1620     1.6810 H     1 <1>   0.0800 
 31 H       -0.9240    -1.0340     1.5240 H     1 <1>   0.0800 
 32 H       -2.4950    -1.3460     0.8420 H     1 <1>   0.0800 
 33 H       -0.6420     1.9070     0.5800 H     1 <1>   0.0800 
 34 H        0.0030     1.5820    -1.0130 H     1 <1>   0.0800 
 35 H        0.6210     0.7150     0.3710 H     1 <1>   0.0800 
 36 H       -4.7210    -3.8720    -0.7680 H     1 <1>   0.0800 
 37 H       -6.3670    -3.3720    -0.9500 H     1 <1>   0.0800 
 38 H       -6.9280    -0.9710    -0.9570 H     1 <1>   0.0800 
 39 H       -5.7080     0.1570    -1.4560 H     1 <1>   0.0800 
 40 H       -4.6820    -2.6600     1.4690 H     1 <1>   0.0800 
 41 H       -5.6190    -4.1110     1.3760 H     1 <1>   0.0800 
 42 H       -6.0040     0.8840     0.6860 H     1 <1>   0.0800 
 43 H       -4.7170    -0.2260     0.9540 H     1 <1>   0.0800 
 44 H       -7.6060    -0.4120     1.6540 H     1 <1>   0.0800 
 45 H       -6.2370    -0.7080     2.6730 H     1 <1>   0.0800 
 46 H       -9.2150    -4.7090     1.8200 H     1 <1>   0.0800 
 47 H       -7.5530    -4.9670     2.3010 H     1 <1>   0.0800 
 48 H       -6.2880    -6.9130     0.6720 H     1 <1>   0.1500 
 49 H      -10.0700    -4.5320    -0.8010 H     1 <1>   0.0800 
 50 H      -11.2550    -5.4680     0.0710 H     1 <1>   0.0800 
 51 H      -11.0140    -5.7100    -1.6450 H     1 <1>   0.0800 
 52 H       -6.8240    -9.2930     0.3190 H     1 <1>   0.1500 
 53 H       -9.0420    -9.9360    -0.4760 H     1 <1>   0.1500 
 54 H      -11.9280    -7.9450    -0.4960 H     1 <1>   0.0800 
 55 H      -11.2460    -9.4560    -1.0240 H     1 <1>   0.0800 
 56 H      -11.2800    -8.0980    -2.1160 H     1 <1>   0.0800 
@<TRIPOS>BOND
  1   1   2  1   
  2   1   3  1   
  3   2   4  1   
  4   2   5  1   
  5   2  27  1   
  6   3   6  1   
  7   3  28  1   
  8   3  29  1   
  9   4  30  1   
 10   4  31  1   
 11   4  32  1   
 12   5  33  1   
 13   5  34  1   
 14   5  35  1   
 15   6   7  2   
 16   6   8  am  
 17   8   9  1   
 18   8  10  1   
 19   9  11  1   
 20   9  36  1   
 21   9  37  1   
 22  10  12  1   
 23  10  38  1   
 24  10  39  1   
 25  11  13  1   
 26  11  40  1   
 27  11  41  1   
 28  12  14  1   
 29  12  42  1   
 30  12  43  1   
 31  13  14  1   
 32  13  15  am  
 33  14  44  1   
 34  14  45  1   
 35  15  16  2   
 36  15  17  1   
 37  17  18  1   
 38  17  46  1   
 39  17  47  1   
 40  18  19  1   
 41  19  20  ar  
 42  19  21  ar  
 43  20  22  ar  
 44  20  23  1   
 45  21  24  ar  
 46  21  48  1   
 47  22  25  ar  
 48  22  26  1   
 49  23  49  1   
 50  23  50  1   
 51  23  51  1   
 52  24  25  ar  
 53  24  52  1   
 54  25  53  1   
 55  26  54  1   
 56  26  55  1   
 57  26  56  1   
@<TRIPOS>SUBSTRUCTURE
  1 ****   9 GROUP 4 **** **** 0

# MOE 2024.06 (io_trps.svl 2023.06)
