@<TRIPOS>MOLECULE
NONAME
54 58 1 0 0 
SMALL
USER_CHARGES


@<TRIPOS>ATOM
  1 O       -0.2080     0.1170     1.0060 O.2   1 <1>  -0.5700 
  2 C       -1.2210     0.7900     0.9520 C.2   1 <1>   0.5440 
  3 N       -2.4150     0.1570     0.6870 N.am  1 <1>  -0.6600 
  4 C       -1.1480     2.2260     1.1400 C.ar  1 <1>   0.0860 
  5 C       -3.6030     0.8270     0.0980 C.3   1 <1>   0.1400 
  6 C       -2.5000    -1.3130     0.4950 C.3   1 <1>   0.1400 
  7 C       -0.1920     2.9820     0.4830 C.ar  1 <1>  -0.1500 
  8 C       -2.0500     2.8930     1.9980 C.ar  1 <1>  -0.1500 
  9 C       -4.2940    -0.2600    -0.7220 C.3   1 <1>   0.2000 
 10 C       -3.9050    -1.5730    -0.0510 C.3   1 <1>  -0.0800 
 11 C       -0.1400     4.3660     0.6440 C.ar  1 <1>   0.0000 
 12 C       -2.0150     4.2560     2.1720 C.ar  1 <1>  -0.1500 
 13 O       -5.6710    -0.1060    -0.7200 O.3   1 <1>  -0.6800 
 14 C       -3.9830    -2.7830    -0.9920 C.3   1 <1>   0.0210 
 15 C       -1.0540     4.9980     1.4830 C.ar  1 <1>  -0.1520 
 16 C        0.6830     5.3880     0.1230 C.2   1 <1>  -0.1810 
 17 C       -3.5040    -4.0420    -0.2960 C.2   1 <1>   0.1080 
 18 N       -0.7990     6.3460     1.4680 N.pl3 1 <1>   0.0330 
 19 C        0.2580     6.5650     0.6310 C.2   1 <1>  -0.3320 
 20 C        1.8460     5.2470    -0.8380 C.3   1 <1>   0.0210 
 21 N       -4.1110    -4.5520     0.7290 N.2   1 <1>  -0.7070 
 22 C       -2.3760    -4.7710    -0.6570 C.2   1 <1>  -0.1500 
 23 C        0.8720     7.9170     0.3220 C.3   1 <1>   0.0200 
 24 C        2.6830     6.5410    -0.8500 C.3   1 <1>  -0.1600 
 25 N       -3.3810    -5.6360     1.0520 N.pl3 1 <1>   0.3000 
 26 C       -2.3230    -5.7890     0.2280 C.2   1 <1>  -0.3320 
 27 C        1.7970     7.8020    -0.9040 C.3   1 <1>  -0.1600 
 28 C       -1.3100    -6.9130     0.3390 C.3   1 <1>  -0.0600 
 29 H       -4.2440     1.1680     0.8920 H     1 <1>   0.0800 
 30 H       -3.3090     1.6520    -0.5280 H     1 <1>   0.0800 
 31 H       -1.7470    -1.6190    -0.2120 H     1 <1>   0.0800 
 32 H       -2.3390    -1.8290     1.4270 H     1 <1>   0.0800 
 33 H        0.5230     2.5030    -0.1610 H     1 <1>   0.1500 
 34 H       -2.7750     2.3030     2.5290 H     1 <1>   0.1500 
 35 H       -3.9470    -0.2190    -1.7410 H     1 <1>   0.0800 
 36 H       -4.5430    -1.7480     0.7980 H     1 <1>   0.0800 
 37 H       -2.7080     4.7540     2.8270 H     1 <1>   0.1500 
 38 H       -6.0340    -0.3260     0.1600 H     1 <1>   0.4000 
 39 H       -3.3860    -2.6110    -1.8690 H     1 <1>   0.0800 
 40 H       -5.0020    -2.9300    -1.3040 H     1 <1>   0.0800 
 41 H       -1.3130     7.0560     1.9970 H     1 <1>   0.2700 
 42 H        2.4640     4.4160    -0.5440 H     1 <1>   0.0800 
 43 H        1.4570     5.0530    -1.8210 H     1 <1>   0.0800 
 44 H       -1.7070    -4.5490    -1.4690 H     1 <1>   0.1500 
 45 H        0.1010     8.6410     0.1250 H     1 <1>   0.0800 
 46 H        1.4400     8.2440     1.1760 H     1 <1>   0.0800 
 47 H        3.2790     6.5740     0.0460 H     1 <1>   0.0800 
 48 H        3.3520     6.5240    -1.6920 H     1 <1>   0.0800 
 49 H       -3.6300    -6.2480     1.8380 H     1 <1>   0.2700 
 50 H        1.1900     7.7580    -1.7920 H     1 <1>   0.0800 
 51 H        2.4140     8.6810    -0.9690 H     1 <1>   0.0800 
 52 H       -0.5640    -6.8160    -0.4300 H     1 <1>   0.0800 
 53 H       -1.7970    -7.8660     0.2250 H     1 <1>   0.0800 
 54 H       -0.8210    -6.8800     1.2960 H     1 <1>   0.0800 
@<TRIPOS>BOND
  1   1   2  2   
  2   2   3  am  
  3   2   4  1   
  4   3   5  1   
  5   3   6  1   
  6   4   7  ar  
  7   4   8  ar  
  8   5   9  1   
  9   5  29  1   
 10   5  30  1   
 11   6  10  1   
 12   6  31  1   
 13   6  32  1   
 14   7  11  ar  
 15   7  33  1   
 16   8  12  ar  
 17   8  34  1   
 18   9  10  1   
 19   9  13  1   
 20   9  35  1   
 21  10  14  1   
 22  10  36  1   
 23  11  15  ar  
 24  11  16  1   
 25  12  15  ar  
 26  12  37  1   
 27  13  38  1   
 28  14  17  1   
 29  14  39  1   
 30  14  40  1   
 31  15  18  1   
 32  16  19  2   
 33  16  20  1   
 34  17  21  2   
 35  17  22  1   
 36  18  19  1   
 37  18  41  1   
 38  19  23  1   
 39  20  24  1   
 40  20  42  1   
 41  20  43  1   
 42  21  25  1   
 43  22  26  2   
 44  22  44  1   
 45  23  27  1   
 46  23  45  1   
 47  23  46  1   
 48  24  27  1   
 49  24  47  1   
 50  24  48  1   
 51  25  26  1   
 52  25  49  1   
 53  26  28  1   
 54  27  50  1   
 55  27  51  1   
 56  28  52  1   
 57  28  53  1   
 58  28  54  1   
@<TRIPOS>SUBSTRUCTURE
  1 ****   2 GROUP 4 **** **** 0

# MOE 2024.06 (io_trps.svl 2023.06)
