@<TRIPOS>MOLECULE
NONAME
47 50 1 0 0 
SMALL
USER_CHARGES


@<TRIPOS>ATOM
  1 O        2.7270     0.3510     3.4820 O.3   1 <1>  -0.6800 
  2 C        2.0030    -0.2730     2.4740 C.3   1 <1>   0.2000 
  3 C        2.5030    -1.7120     2.3630 C.3   1 <1>  -0.0800 
  4 C        2.4050     0.3660     1.1360 C.3   1 <1>   0.3430 
  5 C        3.8140    -1.5340     1.5900 C.3   1 <1>   0.3430 
  6 C        1.4830    -2.6210     1.6390 C.3   1 <1>  -0.0170 
  7 N        3.5410    -0.4530     0.6120 N.4   1 <1>  -0.9590 
  8 C        2.1480    -3.9030     1.1500 C.ar  1 <1>  -0.1440 
  9 C        4.7150     0.3650     0.2340 C.3   1 <1>   0.5240 
 10 C        2.6740    -4.0520    -0.1580 C.ar  1 <1>   0.0000 
 11 C        2.2860    -4.9540     2.0090 C.ar  1 <1>  -0.1500 
 12 C        4.3690     1.0220    -1.0970 C.2   1 <1>   0.0460 
 13 C        3.3750    -5.2490    -0.4480 C.ar  1 <1>   0.3100 
 14 C        2.5660    -3.0890    -1.1910 C.ar  1 <1>  -0.1500 
 15 C        2.9590    -6.1120     1.6060 C.ar  1 <1>   0.1600 
 16 N        3.6710     0.3240    -2.0250 N.2   1 <1>  -0.5650 
 17 C        4.6410     2.2720    -1.5380 C.2   1 <1>  -0.3320 
 18 N        3.4990    -6.2660     0.4400 N.ar  1 <1>  -0.6200 
 19 C        3.9830    -5.3970    -1.7040 C.ar  1 <1>  -0.1500 
 20 C        3.1700    -3.2640    -2.4060 C.ar  1 <1>  -0.1500 
 21 C        3.5490     1.1560    -3.0080 C.2   1 <1>   0.0360 
 22 N        4.1160     2.3580    -2.7760 N.pl3 1 <1>   0.0330 
 23 C        5.3800     3.4300    -0.8860 C.3   1 <1>  -0.0600 
 24 C        3.8940    -4.4290    -2.6660 C.ar  1 <1>  -0.1500 
 25 H        2.3890     0.1070     4.3700 H     1 <1>   0.4000 
 26 H        0.9510    -0.1750     2.6880 H     1 <1>   0.0800 
 27 H        2.7070    -2.1370     3.3300 H     1 <1>   0.0800 
 28 H        2.6850     1.3960     1.2820 H     1 <1>   0.0800 
 29 H        1.5830     0.3180     0.4420 H     1 <1>   0.0800 
 30 H        4.1400    -2.4410     1.1080 H     1 <1>   0.0800 
 31 H        4.5760    -1.2080     2.2800 H     1 <1>   0.0800 
 32 H        1.0010    -2.1110     0.8270 H     1 <1>   0.0800 
 33 H        0.6990    -2.8780     2.3320 H     1 <1>   0.0800 
 34 H        3.2590    -0.8470    -0.3030 H     1 <1>   0.4500 
 35 H        4.9350     1.1040     0.9860 H     1 <1>   0.0800 
 36 H        5.5740    -0.2690     0.0910 H     1 <1>   0.0800 
 37 H        1.8970    -4.9240     3.0110 H     1 <1>   0.1500 
 38 H        1.9900    -2.1990    -1.0450 H     1 <1>   0.1500 
 39 H        3.0410    -6.9220     2.3110 H     1 <1>   0.1500 
 40 H        4.5230    -6.3080    -1.8880 H     1 <1>   0.1500 
 41 H        3.0910    -2.5160    -3.1780 H     1 <1>   0.1500 
 42 H        3.0470     0.9350    -3.9360 H     1 <1>   0.1500 
 43 H        4.1430     3.1590    -3.4170 H     1 <1>   0.2700 
 44 H        5.7250     3.1640     0.0970 H     1 <1>   0.0800 
 45 H        4.7300     4.2840    -0.7980 H     1 <1>   0.0800 
 46 H        6.2330     3.7080    -1.4800 H     1 <1>   0.0800 
 47 H        4.3670    -4.5550    -3.6250 H     1 <1>   0.1500 
@<TRIPOS>BOND
  1   1   2  1   
  2   1  25  1   
  3   2   3  1   
  4   2   4  1   
  5   2  26  1   
  6   3   5  1   
  7   3   6  1   
  8   3  27  1   
  9   4   7  1   
 10   4  28  1   
 11   4  29  1   
 12   5   7  1   
 13   5  30  1   
 14   5  31  1   
 15   6   8  1   
 16   6  32  1   
 17   6  33  1   
 18   7   9  1   
 19   7  34  1   
 20   8  10  ar  
 21   8  11  ar  
 22   9  12  1   
 23   9  35  1   
 24   9  36  1   
 25  10  13  ar  
 26  10  14  ar  
 27  11  15  ar  
 28  11  37  1   
 29  12  16  1   
 30  12  17  2   
 31  13  18  ar  
 32  13  19  ar  
 33  14  20  ar  
 34  14  38  1   
 35  15  18  ar  
 36  15  39  1   
 37  16  21  2   
 38  17  22  1   
 39  17  23  1   
 40  19  24  ar  
 41  19  40  1   
 42  20  24  ar  
 43  20  41  1   
 44  21  22  1   
 45  21  42  1   
 46  22  43  1   
 47  23  44  1   
 48  23  45  1   
 49  23  46  1   
 50  24  47  1   
@<TRIPOS>SUBSTRUCTURE
  1 ****   7 GROUP 4 **** **** 0

# MOE 2024.06 (io_trps.svl 2023.06)
