@<TRIPOS>MOLECULE
NONAME
45 47 1 0 0 
SMALL
USER_CHARGES


@<TRIPOS>ATOM
  1 S       -0.2940     0.2200     0.3920 S.o2  1 <1>   1.3330 
  2 O       -0.0820    -0.5470     1.5990 O.2   1 <1>  -0.6500 
  3 O       -0.9700     1.4950     0.4690 O.2   1 <1>  -0.6500 
  4 N       -1.1360    -0.7640    -0.7050 N.am  1 <1>  -0.8490 
  5 C        1.2710     0.4830    -0.4440 C.3   1 <1>  -0.0550 
  6 C       -0.8230    -2.1910    -0.5660 C.3   1 <1>   0.1160 
  7 C       -2.5860    -0.5630    -0.6330 C.3   1 <1>   0.1160 
  8 C        2.2200     1.4380     0.3060 C.3   1 <1>  -0.0800 
  9 C        3.4200     1.8010    -0.5510 C.3   1 <1>   0.2200 
 10 C        2.8830     0.7630     1.5130 C.3   1 <1>   0.1200 
 11 N        3.9870     3.0810    -0.0710 N.am  1 <1>  -0.7300 
 12 C        4.3860     0.6650    -0.2370 C.3   1 <1>   0.1200 
 13 O        4.1190     0.2770     1.0780 O.3   1 <1>  -0.5600 
 14 C        4.1110     4.2210    -0.8140 C.2   1 <1>   0.5440 
 15 O        3.7510     4.1890    -1.9750 O.2   1 <1>  -0.5700 
 16 C        4.6750     5.4290    -0.2390 C.ar  1 <1>   0.0860 
 17 C        5.2710     6.3910    -1.0410 C.ar  1 <1>  -0.1500 
 18 C        4.6360     5.6700     1.1540 C.ar  1 <1>  -0.1500 
 19 C        5.8230     7.5410    -0.4790 C.ar  1 <1>  -0.1520 
 20 C        5.1790     6.8010     1.7150 C.ar  1 <1>  -0.1500 
 21 N        6.4570     8.6100    -1.0620 N.pl3 1 <1>   0.0330 
 22 C        5.7860     7.7540     0.8940 C.ar  1 <1>   0.0000 
 23 C        6.8170     9.4810    -0.0750 C.2   1 <1>  -0.3020 
 24 C        6.4230     8.9900     1.1250 C.2   1 <1>  -0.1500 
 25 H        1.7570    -0.4600    -0.6000 H     1 <1>   0.0800 
 26 H        1.0590     0.9040    -1.4080 H     1 <1>   0.0800 
 27 H       -1.3100    -2.7540    -1.3440 H     1 <1>   0.0800 
 28 H       -1.1540    -2.5580     0.3920 H     1 <1>   0.0800 
 29 H        0.2390    -2.3490    -0.6470 H     1 <1>   0.0800 
 30 H       -3.0870    -1.1900    -1.3500 H     1 <1>   0.0800 
 31 H       -2.8280     0.4620    -0.8580 H     1 <1>   0.0800 
 32 H       -2.9480    -0.7940     0.3560 H     1 <1>   0.0800 
 33 H        1.6710     2.3180     0.5970 H     1 <1>   0.0800 
 34 H        3.1910     1.8580    -1.6020 H     1 <1>   0.0800 
 35 H        2.3140    -0.0540     1.9200 H     1 <1>   0.0800 
 36 H        3.0740     1.4820     2.2910 H     1 <1>   0.0800 
 37 H        4.4250     3.0280     0.8500 H     1 <1>   0.3700 
 38 H        5.4170     0.9610    -0.3270 H     1 <1>   0.0800 
 39 H        4.1950    -0.1820    -0.8720 H     1 <1>   0.0800 
 40 H        5.3100     6.2490    -2.1070 H     1 <1>   0.1500 
 41 H        4.1580     4.9500     1.7930 H     1 <1>   0.1500 
 42 H        5.1450     6.9760     2.7760 H     1 <1>   0.1500 
 43 H        6.6210     8.7230    -2.0680 H     1 <1>   0.2700 
 44 H        7.3320    10.4020    -0.2850 H     1 <1>   0.1500 
 45 H        6.5530     9.4310     2.0980 H     1 <1>   0.1500 
@<TRIPOS>BOND
  1   1   2  2   
  2   1   3  2   
  3   1   4  am  
  4   1   5  1   
  5   4   6  1   
  6   4   7  1   
  7   5   8  1   
  8   5  25  1   
  9   5  26  1   
 10   6  27  1   
 11   6  28  1   
 12   6  29  1   
 13   7  30  1   
 14   7  31  1   
 15   7  32  1   
 16   8   9  1   
 17   8  10  1   
 18   8  33  1   
 19   9  11  1   
 20   9  12  1   
 21   9  34  1   
 22  10  13  1   
 23  10  35  1   
 24  10  36  1   
 25  11  14  am  
 26  11  37  1   
 27  12  13  1   
 28  12  38  1   
 29  12  39  1   
 30  14  15  2   
 31  14  16  1   
 32  16  17  ar  
 33  16  18  ar  
 34  17  19  ar  
 35  17  40  1   
 36  18  20  ar  
 37  18  41  1   
 38  19  21  1   
 39  19  22  ar  
 40  20  22  ar  
 41  20  42  1   
 42  21  23  1   
 43  21  43  1   
 44  22  24  1   
 45  23  24  2   
 46  23  44  1   
 47  24  45  1   
@<TRIPOS>SUBSTRUCTURE
  1 ****  11 GROUP 4 **** **** 0

# MOE 2024.06 (io_trps.svl 2023.06)
