@<TRIPOS>MOLECULE
NONAME
47 50 1 0 0 
SMALL
USER_CHARGES


@<TRIPOS>ATOM
  1 O       -0.0790     0.3320    -0.1120 O.2   1 <1>  -0.5700 
  2 C       -0.0740     1.5530    -0.1130 C.2   1 <1>   0.7160 
  3 N       -1.3040     2.1960    -0.0870 N.am  1 <1>  -0.6600 
  4 C        1.2160     2.2390    -0.1310 C.2   1 <1>   0.2030 
  5 C       -1.4560     3.6490     0.2290 C.3   1 <1>   0.1400 
  6 C       -2.5610     1.4320    -0.3590 C.3   1 <1>   0.1400 
  7 N        1.4670     3.4980    -0.3510 N.2   1 <1>  -0.4100 
  8 C        2.4260     1.6020     0.0800 C.2   1 <1>  -0.1500 
  9 C       -2.8430     3.9270     0.8040 C.3   1 <1>  -0.1600 
 10 C       -3.5950     2.3310    -1.0400 C.3   1 <1>  -0.1600 
 11 O        2.7550     3.7220    -0.2910 O.3   1 <1>  -0.0190 
 12 C        3.3530     2.5700    -0.0290 C.2   1 <1>   0.0870 
 13 C       -3.9490     3.5750    -0.2050 C.3   1 <1>   0.4180 
 14 C        4.7950     2.5110     0.0930 C.ar  1 <1>   0.0530 
 15 O       -4.0630     4.6240    -1.1350 O.3   1 <1>  -0.5600 
 16 C       -5.2760     3.3520     0.5180 C.2   1 <1>  -0.2880 
 17 C        5.4490     1.3090     0.3630 C.ar  1 <1>  -0.1500 
 18 C        5.5880     3.6500    -0.0530 C.ar  1 <1>  -0.1500 
 19 C       -4.8300     5.7410    -0.7790 C.3   1 <1>   0.1200 
 20 C       -6.3530     4.1280     0.3730 C.2   1 <1>  -0.2760 
 21 C        6.8260     1.2450     0.4830 C.ar  1 <1>  -0.1500 
 22 C        6.9640     3.5940     0.0640 C.ar  1 <1>  -0.1500 
 23 C       -6.2910     5.3420    -0.5340 C.3   1 <1>  -0.0220 
 24 C       -7.6880     3.8880     1.0550 C.3   1 <1>  -0.1020 
 25 C        7.5880     2.3890     0.3330 C.ar  1 <1>  -0.1500 
 26 H       -1.3110     4.2260    -0.6710 H     1 <1>   0.0800 
 27 H       -0.7150     3.9470     0.9500 H     1 <1>   0.0800 
 28 H       -2.9530     1.0550     0.5710 H     1 <1>   0.0800 
 29 H       -2.3500     0.5910    -0.9980 H     1 <1>   0.0800 
 30 H        2.5450     0.5540     0.2830 H     1 <1>   0.1500 
 31 H       -2.9180     4.9540     1.1040 H     1 <1>   0.0800 
 32 H       -2.9610     3.3330     1.6920 H     1 <1>   0.0800 
 33 H       -4.4840     1.7620    -1.2380 H     1 <1>   0.0800 
 34 H       -3.1880     2.6310    -1.9890 H     1 <1>   0.0800 
 35 H       -5.2600     2.4870     1.1560 H     1 <1>   0.1500 
 36 H        4.8780     0.4060     0.4830 H     1 <1>   0.1500 
 37 H        5.1230     4.5980    -0.2630 H     1 <1>   0.1500 
 38 H       -4.7670     6.4530    -1.5820 H     1 <1>   0.0800 
 39 H       -4.4100     6.1820     0.1070 H     1 <1>   0.0800 
 40 H        7.3060     0.3050     0.6910 H     1 <1>   0.1500 
 41 H        7.5530     4.4880    -0.0530 H     1 <1>   0.1500 
 42 H       -6.7710     5.1230    -1.4710 H     1 <1>   0.0800 
 43 H       -6.8000     6.1740    -0.0810 H     1 <1>   0.0800 
 44 H       -7.9400     4.7230     1.6840 H     1 <1>   0.0800 
 45 H       -7.6470     3.0030     1.6630 H     1 <1>   0.0800 
 46 H       -8.4610     3.7600     0.3180 H     1 <1>   0.0800 
 47 H        8.6590     2.3430     0.4250 H     1 <1>   0.1500 
@<TRIPOS>BOND
  1   1   2  2   
  2   2   3  am  
  3   2   4  1   
  4   3   5  1   
  5   3   6  1   
  6   4   7  2   
  7   4   8  1   
  8   5   9  1   
  9   5  26  1   
 10   5  27  1   
 11   6  10  1   
 12   6  28  1   
 13   6  29  1   
 14   7  11  1   
 15   8  12  2   
 16   8  30  1   
 17   9  13  1   
 18   9  31  1   
 19   9  32  1   
 20  10  13  1   
 21  10  33  1   
 22  10  34  1   
 23  11  12  1   
 24  12  14  1   
 25  13  15  1   
 26  13  16  1   
 27  14  17  ar  
 28  14  18  ar  
 29  15  19  1   
 30  16  20  2   
 31  16  35  1   
 32  17  21  ar  
 33  17  36  1   
 34  18  22  ar  
 35  18  37  1   
 36  19  23  1   
 37  19  38  1   
 38  19  39  1   
 39  20  23  1   
 40  20  24  1   
 41  21  25  ar  
 42  21  40  1   
 43  22  25  ar  
 44  22  41  1   
 45  23  42  1   
 46  23  43  1   
 47  24  44  1   
 48  24  45  1   
 49  24  46  1   
 50  25  47  1   
@<TRIPOS>SUBSTRUCTURE
  1 ****   2 GROUP 4 **** **** 0

# MOE 2024.06 (io_trps.svl 2023.06)
