@<TRIPOS>MOLECULE
NONAME
46 48 1 0 0 
SMALL
USER_CHARGES


@<TRIPOS>ATOM
  1 S       -0.1090    -0.0270    -2.2640 S.3   1 <1>  -0.0800 
  2 C        0.3660    -1.5180    -1.4670 C.2   1 <1>  -0.1400 
  3 C        0.9600     0.9100    -1.2400 C.2   1 <1>  -0.1100 
  4 C        1.2760    -1.2640    -0.5070 C.2   1 <1>  -0.1500 
  5 C       -0.2670    -2.8080    -1.9370 C.3   1 <1>   0.5230 
  6 C        1.6180     0.1220    -0.3670 C.2   1 <1>   0.0190 
  7 N       -1.6230    -2.8890    -1.3340 N.4   1 <1>  -0.9590 
  8 C        2.5630     0.5560     0.6150 C.1   1 <1>  -0.0190 
  9 C       -2.0100    -4.3080    -1.0240 C.3   1 <1>   0.3430 
 10 C       -2.6410    -2.2210    -2.1980 C.3   1 <1>   0.3430 
 11 C        3.3530     0.9160     1.4300 C.1   1 <1>  -0.2000 
 12 C       -3.2210    -4.4590    -0.0730 C.3   1 <1>   0.1400 
 13 C       -3.6150    -1.4020    -1.3530 C.3   1 <1>  -0.1600 
 14 C        4.3450     1.3720     2.4390 C.3   1 <1>   0.3200 
 15 N       -4.3840    -3.5740    -0.4250 N.am  1 <1>  -0.6600 
 16 C       -4.1680    -2.1290    -0.1260 C.3   1 <1>   0.1400 
 17 O        5.5140     1.6480     1.7650 O.3   1 <1>  -0.6800 
 18 C       -5.6450    -3.9990    -0.7870 C.2   1 <1>   0.5690 
 19 O       -6.4680    -3.2120    -1.1830 O.2   1 <1>  -0.5700 
 20 C       -6.0870    -5.4440    -0.7050 C.3   1 <1>   0.1570 
 21 N       -6.1380    -5.8420     0.7030 N.pl3 1 <1>   0.3140 
 22 N       -5.2890    -6.6940     1.2360 N.2   1 <1>  -0.4180 
 23 C       -6.9310    -5.4150     1.6660 C.2   1 <1>   0.0360 
 24 N       -5.5840    -6.7640     2.4840 N.2   1 <1>   0.0000 
 25 N       -6.6090    -5.9680     2.7710 N.2   1 <1>  -0.3380 
 26 H        0.9950     1.9750    -1.3920 H     1 <1>   0.1500 
 27 H        1.7460    -1.9900     0.1350 H     1 <1>   0.1500 
 28 H        0.3380    -3.6310    -1.5920 H     1 <1>   0.0800 
 29 H       -0.3140    -2.8410    -3.0140 H     1 <1>   0.0800 
 30 H       -1.5630    -2.3500    -0.4600 H     1 <1>   0.4500 
 31 H       -1.1740    -4.8170    -0.5710 H     1 <1>   0.0800 
 32 H       -2.2340    -4.8220    -1.9440 H     1 <1>   0.0800 
 33 H       -3.1930    -2.9650    -2.7500 H     1 <1>   0.0800 
 34 H       -2.1670    -1.5660    -2.9100 H     1 <1>   0.0800 
 35 H       -2.9120    -4.2470     0.9370 H     1 <1>   0.0800 
 36 H       -3.5100    -5.4920    -0.0930 H     1 <1>   0.0800 
 37 H       -4.4450    -1.1250    -1.9800 H     1 <1>   0.0800 
 38 H       -3.1470    -0.4850    -1.0420 H     1 <1>   0.0800 
 39 H        4.5410     0.6000     3.1620 H     1 <1>   0.0800 
 40 H        4.0190     2.2690     2.9370 H     1 <1>   0.0800 
 41 H       -5.0950    -1.6680     0.1750 H     1 <1>   0.0800 
 42 H       -3.4870    -2.0310     0.7030 H     1 <1>   0.0800 
 43 H        5.6330     0.9860     1.0570 H     1 <1>   0.4000 
 44 H       -5.4060    -6.0790    -1.2370 H     1 <1>   0.0800 
 45 H       -7.0680    -5.5510    -1.1300 H     1 <1>   0.0800 
 46 H       -7.7240    -4.7020     1.5270 H     1 <1>   0.1500 
@<TRIPOS>BOND
  1   1   2  1   
  2   1   3  1   
  3   2   4  2   
  4   2   5  1   
  5   3   6  2   
  6   3  26  1   
  7   4   6  1   
  8   4  27  1   
  9   5   7  1   
 10   5  28  1   
 11   5  29  1   
 12   6   8  1   
 13   7   9  1   
 14   7  10  1   
 15   7  30  1   
 16   8  11  3   
 17   9  12  1   
 18   9  31  1   
 19   9  32  1   
 20  10  13  1   
 21  10  33  1   
 22  10  34  1   
 23  11  14  1   
 24  12  15  1   
 25  12  35  1   
 26  12  36  1   
 27  13  16  1   
 28  13  37  1   
 29  13  38  1   
 30  14  17  1   
 31  14  39  1   
 32  14  40  1   
 33  15  16  1   
 34  15  18  am  
 35  16  41  1   
 36  16  42  1   
 37  17  43  1   
 38  18  19  2   
 39  18  20  1   
 40  20  21  1   
 41  20  44  1   
 42  20  45  1   
 43  21  22  1   
 44  21  23  1   
 45  22  24  2   
 46  23  25  2   
 47  23  46  1   
 48  24  25  1   
@<TRIPOS>SUBSTRUCTURE
  1 ****   7 GROUP 4 **** **** 0

# MOE 2024.06 (io_trps.svl 2023.06)
