@<TRIPOS>MOLECULE
NONAME
43 45 1 0 0 
SMALL
USER_CHARGES


@<TRIPOS>ATOM
  1 F       -1.7060    -0.3370    -1.4080 F     1 <1>  -0.1900 
  2 C       -2.3780     0.4450    -0.6020 C.ar  1 <1>   0.1900 
  3 C       -1.7730     1.5600    -0.0470 C.ar  1 <1>   0.1900 
  4 C       -3.6940     0.1380    -0.3210 C.ar  1 <1>  -0.1500 
  5 F       -0.5280     1.8470    -0.3190 F     1 <1>  -0.1900 
  6 C       -2.4790     2.3880     0.8060 C.ar  1 <1>  -0.1500 
  7 C       -4.4350     0.9620     0.5290 C.ar  1 <1>   0.0860 
  8 C       -3.8010     2.0800     1.0870 C.ar  1 <1>  -0.1500 
  9 C       -5.8190     0.6510     0.8280 C.2   1 <1>   0.5440 
 10 O       -6.0860    -0.4550     1.2600 O.2   1 <1>  -0.5700 
 11 N       -6.8330     1.5640     0.6270 N.am  1 <1>  -0.6600 
 12 C       -8.2200     1.3250     1.1400 C.3   1 <1>   0.1400 
 13 C       -6.7180     2.7700    -0.2370 C.3   1 <1>   0.1400 
 14 C       -9.2300     1.1750    -0.0260 C.3   1 <1>   0.0000 
 15 C       -7.6890     2.6590    -1.4180 C.3   1 <1>  -0.1600 
 16 C      -10.6630     0.9750     0.4990 C.3   1 <1>   0.2000 
 17 C       -9.1330     2.4070    -0.9510 C.3   1 <1>  -0.1600 
 18 C       -8.9910    -0.1460    -0.7790 C.3   1 <1>  -0.1600 
 19 O      -10.9270     1.8000     1.5950 O.3   1 <1>  -0.5600 
 20 C      -10.7640    -0.5070     0.8750 C.3   1 <1>  -0.1600 
 21 C       -9.6820    -1.2260     0.0590 C.3   1 <1>  -0.1600 
 22 C      -12.2720     1.9040     1.9420 C.3   1 <1>   0.0400 
 23 H       -4.1510    -0.7360    -0.7520 H     1 <1>   0.1500 
 24 H       -2.0000     3.2490     1.2380 H     1 <1>   0.1500 
 25 H       -4.3640     2.7090     1.7560 H     1 <1>   0.1500 
 26 H       -8.2460     0.4520     1.7690 H     1 <1>   0.0800 
 27 H       -8.4990     2.1640     1.7520 H     1 <1>   0.0800 
 28 H       -6.9570     3.6420     0.3490 H     1 <1>   0.0800 
 29 H       -5.7180     2.8820    -0.6150 H     1 <1>   0.0800 
 30 H       -7.6530     3.5680    -1.9910 H     1 <1>   0.0800 
 31 H       -7.3660     1.8570    -2.0590 H     1 <1>   0.0800 
 32 H      -11.3610     1.2020    -0.2880 H     1 <1>   0.0800 
 33 H       -9.7730     2.2820    -1.8070 H     1 <1>   0.0800 
 34 H       -9.4790     3.2710    -0.4100 H     1 <1>   0.0800 
 35 H       -9.4630    -0.1020    -1.7450 H     1 <1>   0.0800 
 36 H       -7.9470    -0.3640    -0.9190 H     1 <1>   0.0800 
 37 H      -10.5670    -0.6400     1.9250 H     1 <1>   0.0800 
 38 H      -11.7400    -0.8900     0.6380 H     1 <1>   0.0800 
 39 H       -8.9640    -1.6740     0.7270 H     1 <1>   0.0800 
 40 H      -10.0980    -1.9950    -0.5690 H     1 <1>   0.0800 
 41 H      -12.3490     2.5770     2.7770 H     1 <1>   0.0800 
 42 H      -12.6460     0.9360     2.2240 H     1 <1>   0.0800 
 43 H      -12.8250     2.2980     1.1070 H     1 <1>   0.0800 
@<TRIPOS>BOND
  1   1   2  1   
  2   2   3  ar  
  3   2   4  ar  
  4   3   5  1   
  5   3   6  ar  
  6   4   7  ar  
  7   4  23  1   
  8   6   8  ar  
  9   6  24  1   
 10   7   8  ar  
 11   7   9  1   
 12   8  25  1   
 13   9  10  2   
 14   9  11  am  
 15  11  12  1   
 16  11  13  1   
 17  12  14  1   
 18  12  26  1   
 19  12  27  1   
 20  13  15  1   
 21  13  28  1   
 22  13  29  1   
 23  14  16  1   
 24  14  17  1   
 25  14  18  1   
 26  15  17  1   
 27  15  30  1   
 28  15  31  1   
 29  16  19  1   
 30  16  20  1   
 31  16  32  1   
 32  17  33  1   
 33  17  34  1   
 34  18  21  1   
 35  18  35  1   
 36  18  36  1   
 37  19  22  1   
 38  20  21  1   
 39  20  37  1   
 40  20  38  1   
 41  21  39  1   
 42  21  40  1   
 43  22  41  1   
 44  22  42  1   
 45  22  43  1   
@<TRIPOS>SUBSTRUCTURE
  1 ****  11 GROUP 4 **** **** 0

# MOE 2024.06 (io_trps.svl 2023.06)
