@<TRIPOS>MOLECULE
NONAME
53 55 1 0 0 
SMALL
USER_CHARGES


@<TRIPOS>ATOM
  1 O        1.2190    -0.6600     0.3030 O.co2 1 <1>  -0.9000 
  2 C        1.8040    -1.5390    -0.3550 C.2   1 <1>   0.9790 
  3 O        2.5010    -1.2050    -1.3280 O.co2 1 <1>  -0.9000 
  4 C        1.6510    -2.9450    -0.0050 C.ar  1 <1>  -0.1790 
  5 C        0.8590    -3.3440     1.0720 C.ar  1 <1>  -0.1500 
  6 C        2.2840    -3.9480    -0.7380 C.ar  1 <1>  -0.1500 
  7 C        0.6760    -4.6770     1.3820 C.ar  1 <1>  -0.1500 
  8 C        2.1080    -5.2850    -0.4380 C.ar  1 <1>  -0.1500 
  9 C        1.2830    -5.6560     0.6120 C.ar  1 <1>  -0.1430 
 10 C        1.0130    -7.1170     0.8750 C.3   1 <1>   0.4870 
 11 N        0.0580    -7.5550    -0.1750 N.4   1 <1>  -0.9590 
 12 C       -0.0640    -9.0430    -0.2360 C.3   1 <1>   0.5660 
 13 C       -1.2770    -6.8820    -0.0390 C.3   1 <1>   0.3430 
 14 C        1.2890    -9.5980    -0.6610 C.ar  1 <1>  -0.1430 
 15 C       -1.1980    -9.5300    -1.1790 C.3   1 <1>   0.2000 
 16 C       -2.2790    -7.4170    -1.0740 C.3   1 <1>   0.1200 
 17 C        1.9570   -10.4640     0.1930 C.ar  1 <1>  -0.1500 
 18 C        1.8760    -9.2530    -1.8750 C.ar  1 <1>  -0.1500 
 19 O       -2.3870    -8.8060    -0.9630 O.3   1 <1>  -0.5600 
 20 C       -1.4850   -11.0220    -0.9490 C.3   1 <1>   0.1200 
 21 C        3.1980   -10.9750    -0.1440 C.ar  1 <1>   0.0830 
 22 C        3.1230    -9.7520    -2.2130 C.ar  1 <1>  -0.1500 
 23 O       -1.5890   -11.2880     0.4150 O.3   1 <1>  -0.6800 
 24 O        3.7690   -11.8310     0.7360 O.3   1 <1>  -0.3630 
 25 C        3.7990   -10.5960    -1.3500 C.ar  1 <1>   0.0830 
 26 C        3.9800   -13.1550     0.2920 C.3   1 <1>   0.0400 
 27 O        5.0290   -11.0160    -1.7300 O.3   1 <1>  -0.3630 
 28 C        6.1210   -10.5940    -0.9410 C.3   1 <1>   0.0400 
 29 H        0.3830    -2.5770     1.6640 H     1 <1>   0.1500 
 30 H        2.9200    -3.6530    -1.5590 H     1 <1>   0.1500 
 31 H        0.0520    -4.9290     2.2210 H     1 <1>   0.1500 
 32 H        2.6210    -6.0180    -1.0370 H     1 <1>   0.1500 
 33 H        0.5940    -7.2550     1.8580 H     1 <1>   0.0800 
 34 H        1.9380    -7.6680     0.8050 H     1 <1>   0.0800 
 35 H        0.4720    -7.2440    -1.0580 H     1 <1>   0.4500 
 36 H       -0.2900    -9.4110     0.7520 H     1 <1>   0.0800 
 37 H       -1.6780    -7.0560     0.9460 H     1 <1>   0.0800 
 38 H       -1.1660    -5.8170    -0.1700 H     1 <1>   0.0800 
 39 H       -0.9190    -9.3880    -2.2080 H     1 <1>   0.0800 
 40 H       -1.9790    -7.1660    -2.0770 H     1 <1>   0.0800 
 41 H       -3.2540    -6.9990    -0.8940 H     1 <1>   0.0800 
 42 H        1.5240   -10.7660     1.1310 H     1 <1>   0.1500 
 43 H        1.3840    -8.5990    -2.5740 H     1 <1>   0.1500 
 44 H       -0.6860   -11.6280    -1.3410 H     1 <1>   0.0800 
 45 H       -2.4080   -11.3010    -1.4290 H     1 <1>   0.0800 
 46 H        3.5850    -9.4890    -3.1480 H     1 <1>   0.1500 
 47 H       -2.0020   -12.1650     0.5660 H     1 <1>   0.4000 
 48 H        4.3260   -13.7380     1.1260 H     1 <1>   0.0800 
 49 H        4.7210   -13.1590    -0.4870 H     1 <1>   0.0800 
 50 H        3.0510   -13.5520    -0.0750 H     1 <1>   0.0800 
 51 H        7.0260   -10.9270    -1.4140 H     1 <1>   0.0800 
 52 H        6.0430   -11.0260     0.0410 H     1 <1>   0.0800 
 53 H        6.1110    -9.5200    -0.8790 H     1 <1>   0.0800 
@<TRIPOS>BOND
  1   1   2  ar  
  2   2   3  ar  
  3   2   4  1   
  4   4   5  ar  
  5   4   6  ar  
  6   5   7  ar  
  7   5  29  1   
  8   6   8  ar  
  9   6  30  1   
 10   7   9  ar  
 11   7  31  1   
 12   8   9  ar  
 13   8  32  1   
 14   9  10  1   
 15  10  11  1   
 16  10  33  1   
 17  10  34  1   
 18  11  12  1   
 19  11  13  1   
 20  11  35  1   
 21  12  14  1   
 22  12  15  1   
 23  12  36  1   
 24  13  16  1   
 25  13  37  1   
 26  13  38  1   
 27  14  17  ar  
 28  14  18  ar  
 29  15  19  1   
 30  15  20  1   
 31  15  39  1   
 32  16  19  1   
 33  16  40  1   
 34  16  41  1   
 35  17  21  ar  
 36  17  42  1   
 37  18  22  ar  
 38  18  43  1   
 39  20  23  1   
 40  20  44  1   
 41  20  45  1   
 42  21  24  1   
 43  21  25  ar  
 44  22  25  ar  
 45  22  46  1   
 46  23  47  1   
 47  24  26  1   
 48  25  27  1   
 49  26  48  1   
 50  26  49  1   
 51  26  50  1   
 52  27  28  1   
 53  28  51  1   
 54  28  52  1   
 55  28  53  1   
@<TRIPOS>SUBSTRUCTURE
  1 ****  11 GROUP 4 **** **** 0

# MOE 2024.06 (io_trps.svl 2023.06)
