@<TRIPOS>MOLECULE
NONAME
55 59 1 0 0 
SMALL
USER_CHARGES


@<TRIPOS>ATOM
  1 O       -3.7990    -0.4740     1.8160 O.2   1 <1>  -0.5700 
  2 C       -2.9960    -1.0380     1.1160 C.2   1 <1>   0.5690 
  3 N       -2.8520    -2.3720     1.0050 N.am  1 <1>  -0.6600 
  4 C       -2.0350    -0.3200     0.2100 C.3   1 <1>  -0.0990 
  5 C       -1.8290    -2.7710     0.0270 C.3   1 <1>   0.1400 
  6 C       -3.6170    -3.4060     1.7690 C.3   1 <1>   0.2010 
  7 C       -1.1580    -1.4470    -0.3680 C.3   1 <1>  -0.1600 
  8 C       -4.4040    -4.3700     0.8750 C.2   1 <1>   0.5690 
  9 O       -3.8740    -5.4270     0.6140 O.2   1 <1>  -0.5700 
 10 N       -5.6560    -4.0660     0.3950 N.am  1 <1>  -0.6600 
 11 C       -6.3670    -2.7630     0.6140 C.3   1 <1>   0.1400 
 12 C       -6.4250    -5.1030    -0.3600 C.3   1 <1>   0.1400 
 13 C       -6.8340    -2.1240    -0.7170 C.3   1 <1>   0.1430 
 14 C       -7.6340    -4.5160    -1.1050 C.3   1 <1>  -0.1600 
 15 C       -7.9590    -1.1570    -0.3830 C.ar  1 <1>   0.1670 
 16 C       -7.2640    -3.1810    -1.7660 C.3   1 <1>  -0.1600 
 17 C       -5.7580    -1.1730    -1.3000 C.3   1 <1>  -0.1600 
 18 N       -9.1890    -1.4950    -0.0780 N.ar  1 <1>  -0.6200 
 19 C       -7.5380     0.1360    -0.4220 C.ar  1 <1>  -0.1440 
 20 C       -6.0790     0.2410    -0.7840 C.3   1 <1>  -0.0170 
 21 C      -10.0270    -0.4830     0.1860 C.ar  1 <1>   0.6200 
 22 C       -8.4530     1.1150    -0.1330 C.ar  1 <1>   0.1600 
 23 N       -9.6970     0.8160     0.1670 N.ar  1 <1>  -0.6200 
 24 C      -11.4050    -0.8240     0.5190 C.ar  1 <1>   0.0000 
 25 C      -12.4610     0.0560     0.2610 C.ar  1 <1>  -0.1500 
 26 C      -11.7360    -2.0470     1.1110 C.ar  1 <1>  -0.1500 
 27 C      -13.7690    -0.2640     0.5740 C.ar  1 <1>  -0.1500 
 28 C      -13.0430    -2.3740     1.4270 C.ar  1 <1>  -0.1500 
 29 C      -14.0640    -1.4810     1.1590 C.ar  1 <1>  -0.1500 
 30 H       -1.4550     0.3910     0.7690 H     1 <1>   0.0800 
 31 H       -2.5870     0.1800    -0.5640 H     1 <1>   0.0800 
 32 H       -2.3020    -3.2360    -0.8230 H     1 <1>   0.0800 
 33 H       -1.1240    -3.4540     0.4710 H     1 <1>   0.0800 
 34 H       -4.2870    -2.9280     2.4600 H     1 <1>   0.0800 
 35 H       -2.9210    -3.9820     2.3500 H     1 <1>   0.0800 
 36 H       -0.1760    -1.4070     0.0720 H     1 <1>   0.0800 
 37 H       -1.0580    -1.3680    -1.4360 H     1 <1>   0.0800 
 38 H       -5.7570    -2.0610     1.1500 H     1 <1>   0.0800 
 39 H       -7.2300    -2.9630     1.2260 H     1 <1>   0.0800 
 40 H       -6.7530    -5.8690     0.3220 H     1 <1>   0.0800 
 41 H       -5.7640    -5.5620    -1.0770 H     1 <1>   0.0800 
 42 H       -8.4490    -4.3700    -0.4180 H     1 <1>   0.0800 
 43 H       -7.9630    -5.2170    -1.8510 H     1 <1>   0.0800 
 44 H       -6.4510    -3.3710    -2.4450 H     1 <1>   0.0800 
 45 H       -8.0940    -2.8130    -2.3440 H     1 <1>   0.0800 
 46 H       -5.8410    -1.1530    -2.3730 H     1 <1>   0.0800 
 47 H       -4.7610    -1.4850    -1.0460 H     1 <1>   0.0800 
 48 H       -5.9060     0.9890    -1.5380 H     1 <1>   0.0800 
 49 H       -5.5070     0.4710     0.0980 H     1 <1>   0.0800 
 50 H       -8.1640     2.1520    -0.1480 H     1 <1>   0.1500 
 51 H      -12.2510     1.0080    -0.1940 H     1 <1>   0.1500 
 52 H      -10.9550    -2.7540     1.3290 H     1 <1>   0.1500 
 53 H      -14.5590     0.4360     0.3630 H     1 <1>   0.1500 
 54 H      -13.2650    -3.3230     1.8820 H     1 <1>   0.1500 
 55 H      -15.0810    -1.7330     1.4030 H     1 <1>   0.1500 
@<TRIPOS>BOND
  1   1   2  2   
  2   2   3  am  
  3   2   4  1   
  4   3   5  1   
  5   3   6  1   
  6   4   7  1   
  7   4  30  1   
  8   4  31  1   
  9   5   7  1   
 10   5  32  1   
 11   5  33  1   
 12   6   8  1   
 13   6  34  1   
 14   6  35  1   
 15   7  36  1   
 16   7  37  1   
 17   8   9  2   
 18   8  10  am  
 19  10  11  1   
 20  10  12  1   
 21  11  13  1   
 22  11  38  1   
 23  11  39  1   
 24  12  14  1   
 25  12  40  1   
 26  12  41  1   
 27  13  15  1   
 28  13  16  1   
 29  13  17  1   
 30  14  16  1   
 31  14  42  1   
 32  14  43  1   
 33  15  18  ar  
 34  15  19  ar  
 35  16  44  1   
 36  16  45  1   
 37  17  20  1   
 38  17  46  1   
 39  17  47  1   
 40  18  21  ar  
 41  19  20  1   
 42  19  22  ar  
 43  20  48  1   
 44  20  49  1   
 45  21  23  ar  
 46  21  24  1   
 47  22  23  ar  
 48  22  50  1   
 49  24  25  ar  
 50  24  26  ar  
 51  25  27  ar  
 52  25  51  1   
 53  26  28  ar  
 54  26  52  1   
 55  27  29  ar  
 56  27  53  1   
 57  28  29  ar  
 58  28  54  1   
 59  29  55  1   
@<TRIPOS>SUBSTRUCTURE
  1 ****  13 GROUP 4 **** **** 0

# MOE 2024.06 (io_trps.svl 2023.06)
