@<TRIPOS>MOLECULE
NONAME
42 44 1 0 0 
SMALL
USER_CHARGES


@<TRIPOS>ATOM
  1 O       -0.8510    -0.5190     1.0560 O.2   1 <1>  -0.5760 
  2 C       -2.0090    -0.4010     0.7310 C.2   1 <1>   0.6850 
  3 N       -2.7720    -1.4770     0.3010 N.am  1 <1>  -0.4430 
  4 N       -2.5780     0.8390     0.7910 N.am  1 <1>  -0.4960 
  5 C       -4.0890    -1.2280    -0.0560 C.2   1 <1>   0.4190 
  6 C       -2.1920    -2.8490     0.2150 C.3   1 <1>   0.0500 
  7 C       -3.8730     1.0980     0.4460 C.2   1 <1>   0.6980 
  8 N       -5.0080    -2.1230    -0.5000 N.pl3 1 <1>  -0.7050 
  9 C       -4.6680    -0.0080    -0.0050 C.2   1 <1>   0.2690 
 10 O       -4.2890     2.2360     0.5370 O.2   1 <1>  -0.5760 
 11 C       -6.1610    -1.4850    -0.7160 C.cat 1 <1>   1.0680 
 12 N       -5.9970    -0.1770    -0.4450 N.pl3 1 <1>  -0.7680 
 13 N       -7.2830    -2.1230    -1.1270 N.pl3 1 <1>  -0.5980 
 14 C       -6.9000     0.9930    -0.6520 C.3   1 <1>   0.2660 
 15 C       -7.2640    -3.5160    -1.6800 C.3   1 <1>   0.1590 
 16 C       -8.6680    -1.5800    -0.9380 C.3   1 <1>   0.1590 
 17 C       -7.9560    -4.5130    -0.7260 C.3   1 <1>   0.1910 
 18 C       -9.7040    -2.6850    -0.6640 C.3   1 <1>  -0.1690 
 19 O       -8.4490    -5.5420    -1.5050 O.3   1 <1>  -0.6850 
 20 C       -9.0880    -3.8690     0.1110 C.3   1 <1>  -0.0900 
 21 C      -10.1460    -4.8840     0.5840 C.3   1 <1>   0.1110 
 22 O      -11.0170    -4.2630     1.4620 O.3   1 <1>  -0.6850 
 23 H       -1.9930     1.6080     1.1130 H     1 <1>   0.3630 
 24 H       -2.7920    -3.5380     0.7820 H     1 <1>   0.0700 
 25 H       -1.1910    -2.8690     0.6140 H     1 <1>   0.0700 
 26 H       -2.1530    -3.1650    -0.8130 H     1 <1>   0.0700 
 27 H       -4.8650    -3.1200    -0.6180 H     1 <1>   0.4430 
 28 H       -6.3280     1.8630    -0.9290 H     1 <1>   0.0700 
 29 H       -7.4350     1.2110     0.2580 H     1 <1>   0.0700 
 30 H       -7.6020     0.8000    -1.4430 H     1 <1>   0.0700 
 31 H       -7.7940    -3.5010    -2.6180 H     1 <1>   0.0700 
 32 H       -6.2640    -3.8510    -1.8840 H     1 <1>   0.0700 
 33 H       -8.6720    -0.9150    -0.0910 H     1 <1>   0.0700 
 34 H       -8.9650    -1.0240    -1.8110 H     1 <1>   0.0700 
 35 H       -7.2280    -4.9520    -0.0660 H     1 <1>   0.0700 
 36 H      -10.5200    -2.2560    -0.1090 H     1 <1>   0.0700 
 37 H      -10.1130    -3.0340    -1.5960 H     1 <1>   0.0700 
 38 H       -9.3030    -5.2960    -1.9140 H     1 <1>   0.3930 
 39 H       -8.6240    -3.4670     0.9960 H     1 <1>   0.0700 
 40 H       -9.6930    -5.7190     1.0900 H     1 <1>   0.0700 
 41 H      -10.7280    -5.2490    -0.2450 H     1 <1>   0.0700 
 42 H      -10.6280    -4.2020     2.3560 H     1 <1>   0.3930 
@<TRIPOS>BOND
  1   1   2  2   
  2   2   3  am  
  3   2   4  am  
  4   3   5  1   
  5   3   6  1   
  6   4   7  am  
  7   4  23  1   
  8   5   8  1   
  9   5   9  2   
 10   6  24  1   
 11   6  25  1   
 12   6  26  1   
 13   7   9  1   
 14   7  10  2   
 15   8  11  ar  
 16   8  27  1   
 17   9  12  1   
 18  11  12  ar  
 19  11  13  ar  
 20  12  14  1   
 21  13  15  1   
 22  13  16  1   
 23  14  28  1   
 24  14  29  1   
 25  14  30  1   
 26  15  17  1   
 27  15  31  1   
 28  15  32  1   
 29  16  18  1   
 30  16  33  1   
 31  16  34  1   
 32  17  19  1   
 33  17  20  1   
 34  17  35  1   
 35  18  20  1   
 36  18  36  1   
 37  18  37  1   
 38  19  38  1   
 39  20  21  1   
 40  20  39  1   
 41  21  22  1   
 42  21  40  1   
 43  21  41  1   
 44  22  42  1   
@<TRIPOS>SUBSTRUCTURE
  1 ****  11 GROUP 4 **** **** 0

# MOE 2024.06 (io_trps.svl 2023.06)
