@<TRIPOS>MOLECULE
NONAME
49 52 1 0 0 
SMALL
USER_CHARGES


@<TRIPOS>ATOM
  1 O       -1.2390     0.6660     3.0830 O.2   1 <1>  -0.5700 
  2 C       -1.5040     1.1970     2.0310 C.2   1 <1>   0.5690 
  3 N       -1.8070     0.4600     0.9170 N.am  1 <1>  -0.6600 
  4 C       -1.4990     2.7200     1.9830 C.3   1 <1>   0.0440 
  5 C       -2.0750     0.9830    -0.4460 C.3   1 <1>   0.1400 
  6 C       -1.8400    -1.0210     0.9230 C.3   1 <1>   0.1400 
  7 C       -0.4090     3.2890     1.0790 C.ar  1 <1>  -0.1440 
  8 C       -2.3390    -0.2540    -1.3070 C.3   1 <1>   0.2000 
  9 C       -2.6260    -1.3970    -0.3330 C.3   1 <1>  -0.0800 
 10 C        0.8980     2.8460     1.2030 C.ar  1 <1>  -0.1500 
 11 C       -0.7140     4.2450     0.1220 C.ar  1 <1>  -0.1500 
 12 O       -3.4280    -0.0690    -2.1440 O.3   1 <1>  -0.6800 
 13 C       -2.2630    -2.7740    -0.9170 C.3   1 <1>  -0.0170 
 14 C        1.8880     3.3460     0.3780 C.ar  1 <1>  -0.1500 
 15 C        0.2760     4.7460    -0.7040 C.ar  1 <1>  -0.1500 
 16 C       -2.5910    -3.9010     0.0480 C.ar  1 <1>   0.1670 
 17 C        1.5900     4.3060    -0.5840 C.ar  1 <1>  -0.0230 
 18 N       -1.6880    -4.1620     0.9800 N.ar  1 <1>  -0.6200 
 19 C       -3.7920    -4.5970    -0.0750 C.ar  1 <1>   0.1600 
 20 N        2.6050     4.8320    -1.4280 N.pl3 1 <1>   0.5930 
 21 C       -2.0650    -5.1500     1.7750 C.ar  1 <1>   0.1600 
 22 N       -4.1720    -5.5850     0.7180 N.ar  1 <1>  -0.6200 
 23 N        2.6300     4.6910    -2.7430 N.2   1 <1>  -0.4180 
 24 C        3.6770     5.5560    -1.1080 C.2   1 <1>   0.0060 
 25 C       -3.2660    -5.8380     1.6480 C.ar  1 <1>   0.1600 
 26 N        3.6770     5.2990    -3.1660 N.2   1 <1>   0.0000 
 27 N        4.3440     5.8470    -2.1570 N.2   1 <1>  -0.3380 
 28 C        4.0520     5.9880     0.2990 C.3   1 <1>  -0.0600 
 29 H       -2.4680     3.0500     1.6610 H     1 <1>   0.0800 
 30 H       -1.3470     3.0920     2.9800 H     1 <1>   0.0800 
 31 H       -2.9330     1.6320    -0.4230 H     1 <1>   0.0800 
 32 H       -1.2150     1.5130    -0.8160 H     1 <1>   0.0800 
 33 H       -0.8310    -1.3950     0.8750 H     1 <1>   0.0800 
 34 H       -2.3120    -1.3960     1.8160 H     1 <1>   0.0800 
 35 H       -1.4750    -0.4620    -1.9160 H     1 <1>   0.0800 
 36 H       -3.6680    -1.3880    -0.0650 H     1 <1>   0.0800 
 37 H        1.1480     2.1030     1.9440 H     1 <1>   0.1500 
 38 H       -1.7230     4.6040     0.0110 H     1 <1>   0.1500 
 39 H       -4.2340     0.1060    -1.6190 H     1 <1>   0.4000 
 40 H       -1.2130    -2.8090    -1.1520 H     1 <1>   0.0800 
 41 H       -2.8040    -2.9200    -1.8360 H     1 <1>   0.0800 
 42 H        2.8950     2.9800     0.4820 H     1 <1>   0.1500 
 43 H        0.0270     5.4840    -1.4490 H     1 <1>   0.1500 
 44 H       -4.4720    -4.3230    -0.8630 H     1 <1>   0.1500 
 45 H       -1.3910    -5.4290     2.5650 H     1 <1>   0.1500 
 46 H       -3.4840    -6.6280     2.3450 H     1 <1>   0.1500 
 47 H        4.8830     6.6700     0.2630 H     1 <1>   0.0800 
 48 H        4.3360     5.1340     0.8870 H     1 <1>   0.0800 
 49 H        3.2220     6.4830     0.7710 H     1 <1>   0.0800 
@<TRIPOS>BOND
  1   1   2  2   
  2   2   3  am  
  3   2   4  1   
  4   3   5  1   
  5   3   6  1   
  6   4   7  1   
  7   4  29  1   
  8   4  30  1   
  9   5   8  1   
 10   5  31  1   
 11   5  32  1   
 12   6   9  1   
 13   6  33  1   
 14   6  34  1   
 15   7  10  ar  
 16   7  11  ar  
 17   8   9  1   
 18   8  12  1   
 19   8  35  1   
 20   9  13  1   
 21   9  36  1   
 22  10  14  ar  
 23  10  37  1   
 24  11  15  ar  
 25  11  38  1   
 26  12  39  1   
 27  13  16  1   
 28  13  40  1   
 29  13  41  1   
 30  14  17  ar  
 31  14  42  1   
 32  15  17  ar  
 33  15  43  1   
 34  16  18  ar  
 35  16  19  ar  
 36  17  20  1   
 37  18  21  ar  
 38  19  22  ar  
 39  19  44  1   
 40  20  23  1   
 41  20  24  1   
 42  21  25  ar  
 43  21  45  1   
 44  22  25  ar  
 45  23  26  2   
 46  24  27  2   
 47  24  28  1   
 48  25  46  1   
 49  26  27  1   
 50  28  47  1   
 51  28  48  1   
 52  28  49  1   
@<TRIPOS>SUBSTRUCTURE
  1 ****   5 GROUP 4 **** **** 0

# MOE 2024.06 (io_trps.svl 2023.06)
