@<TRIPOS>MOLECULE
NONAME
46 47 1 0 0 
SMALL
USER_CHARGES


@<TRIPOS>ATOM
  1 O        0.0020     0.1130    -0.1950 O.2   1 <1>  -0.5700 
  2 C        1.1000    -0.2040    -0.5830 C.2   1 <1>   0.5690 
  3 N        2.1940     0.6120    -0.5120 N.am  1 <1>  -0.4940 
  4 C        1.2860    -1.5860    -1.1670 C.3   1 <1>  -0.0990 
  5 C        2.3760     1.9190    -0.0050 C.2   1 <1>  -0.0880 
  6 C        0.7750    -2.6500    -0.2010 C.3   1 <1>   0.1200 
  7 N        1.4800     2.9430     0.0590 N.pl3 1 <1>   0.3140 
  8 C        3.5510     2.3970     0.4910 C.2   1 <1>  -0.0540 
  9 O        1.0700    -3.8930    -0.7460 O.3   1 <1>  -0.5600 
 10 N        2.0410     4.0560     0.5800 N.2   1 <1>  -0.7070 
 11 C        0.0940     2.9960    -0.4210 C.3   1 <1>   0.0160 
 12 C        4.7990     1.6870     0.6470 C.ar  1 <1>   0.0540 
 13 C        3.2640     3.7230     0.8310 C.2   1 <1>   0.1080 
 14 C        0.6010    -4.9630     0.0030 C.3   1 <1>   0.1200 
 15 C        5.9610     2.0350    -0.0540 C.ar  1 <1>   0.0830 
 16 C        4.8540     0.6060     1.5220 C.ar  1 <1>  -0.1500 
 17 C        4.2520     4.6970     1.4320 C.3   1 <1>  -0.0590 
 18 C        1.0100    -6.2410    -0.7170 C.3   1 <1>  -0.2400 
 19 O        5.8860     3.0890    -0.9120 O.3   1 <1>  -0.3620 
 20 C        7.1330     1.3070     0.1320 C.ar  1 <1>  -0.1500 
 21 C        6.0190    -0.1150     1.7040 C.ar  1 <1>  -0.1500 
 22 C        7.0010     3.5380    -1.6490 C.3   1 <1>   0.0400 
 23 C        7.1610     0.2360     1.0080 C.ar  1 <1>  -0.1500 
 24 H        3.0720     0.1710    -0.7920 H     1 <1>   0.3700 
 25 H        2.3250    -1.7640    -1.3730 H     1 <1>   0.0800 
 26 H        0.7320    -1.6460    -2.0850 H     1 <1>   0.0800 
 27 H       -0.2920    -2.5630    -0.0740 H     1 <1>   0.0800 
 28 H        1.2660    -2.5660     0.7540 H     1 <1>   0.0800 
 29 H        0.0130     2.4500    -1.3410 H     1 <1>   0.0800 
 30 H       -0.1840     4.0200    -0.5840 H     1 <1>   0.0800 
 31 H       -0.5490     2.5630     0.3220 H     1 <1>   0.0800 
 32 H       -0.4710    -4.8940     0.0760 H     1 <1>   0.0800 
 33 H        1.0420    -4.9220     0.9850 H     1 <1>   0.0800 
 34 H        3.9670     0.3370     2.0680 H     1 <1>   0.1500 
 35 H        4.9680     4.1770     2.0390 H     1 <1>   0.0800 
 36 H        3.7310     5.4130     2.0400 H     1 <1>   0.0800 
 37 H        4.7650     5.2150     0.6430 H     1 <1>   0.0800 
 38 H        0.5750    -6.2640    -1.7000 H     1 <1>   0.0800 
 39 H        0.6630    -7.0970    -0.1670 H     1 <1>   0.0800 
 40 H        2.0810    -6.2930    -0.7970 H     1 <1>   0.0800 
 41 H        8.0350     1.5550    -0.3930 H     1 <1>   0.1500 
 42 H        6.0390    -0.9460     2.3880 H     1 <1>   0.1500 
 43 H        6.6910     4.3830    -2.2380 H     1 <1>   0.0800 
 44 H        7.3350     2.7460    -2.2950 H     1 <1>   0.0800 
 45 H        7.7760     3.8350    -0.9650 H     1 <1>   0.0800 
 46 H        8.0700    -0.3230     1.1490 H     1 <1>   0.1500 
@<TRIPOS>BOND
  1   1   2  2   
  2   2   3  am  
  3   2   4  1   
  4   3   5  1   
  5   3  24  1   
  6   4   6  1   
  7   4  25  1   
  8   4  26  1   
  9   5   7  1   
 10   5   8  2   
 11   6   9  1   
 12   6  27  1   
 13   6  28  1   
 14   7  10  1   
 15   7  11  1   
 16   8  12  1   
 17   8  13  1   
 18   9  14  1   
 19  10  13  2   
 20  11  29  1   
 21  11  30  1   
 22  11  31  1   
 23  12  15  ar  
 24  12  16  ar  
 25  13  17  1   
 26  14  18  1   
 27  14  32  1   
 28  14  33  1   
 29  15  19  1   
 30  15  20  ar  
 31  16  21  ar  
 32  16  34  1   
 33  17  35  1   
 34  17  36  1   
 35  17  37  1   
 36  18  38  1   
 37  18  39  1   
 38  18  40  1   
 39  19  22  1   
 40  20  23  ar  
 41  20  41  1   
 42  21  23  ar  
 43  21  42  1   
 44  22  43  1   
 45  22  44  1   
 46  22  45  1   
 47  23  46  1   
@<TRIPOS>SUBSTRUCTURE
  1 ****   3 GROUP 4 **** **** 0

# MOE 2024.06 (io_trps.svl 2023.06)
