@<TRIPOS>MOLECULE
NONAME
55 59 1 0 0 
SMALL
USER_CHARGES


@<TRIPOS>ATOM
  1 O       -5.1650     1.2610     1.1680 O.3   1 <1>  -0.8290 
  2 C       -5.2890     0.0200     1.0540 C.ar  1 <1>   0.1390 
  3 N       -6.4900    -0.4940     0.6960 N.ar  1 <1>  -0.3100 
  4 C       -4.1860    -0.7940     1.2990 C.ar  1 <1>  -0.1500 
  5 N       -6.6330    -1.7890     0.5660 N.ar  1 <1>  -0.3100 
  6 C       -4.3450    -2.1430     1.1620 C.ar  1 <1>  -0.1500 
  7 C       -5.6000    -2.5930     0.7870 C.ar  1 <1>   0.1670 
  8 C       -5.8650    -4.0740     0.5980 C.3   1 <1>  -0.0160 
  9 C       -6.7240    -4.6410     1.7390 C.3   1 <1>  -0.0990 
 10 C       -7.6130    -5.7590     1.2290 C.2   1 <1>   0.5690 
 11 O       -7.1560    -6.8770     1.2840 O.2   1 <1>  -0.5700 
 12 N       -8.8650    -5.5190     0.7150 N.am  1 <1>  -0.6600 
 13 C       -9.5560    -4.1810     0.6710 C.3   1 <1>   0.1400 
 14 C       -9.6920    -6.6850     0.2730 C.3   1 <1>   0.1400 
 15 C      -10.1520    -3.8460    -0.7210 C.3   1 <1>   0.1430 
 16 C      -10.8980    -6.2720    -0.5850 C.3   1 <1>  -0.1600 
 17 C      -11.3480    -2.9270    -0.5020 C.ar  1 <1>   0.1670 
 18 C      -10.5330    -5.1140    -1.5220 C.3   1 <1>  -0.1600 
 19 C       -9.2070    -2.9330    -1.5440 C.3   1 <1>  -0.1600 
 20 N      -12.5350    -3.2990    -0.0820 N.ar  1 <1>  -0.6200 
 21 C      -11.0430    -1.6320    -0.7870 C.ar  1 <1>  -0.1430 
 22 C       -9.6140    -1.4800    -1.2430 C.3   1 <1>  -0.0160 
 23 C      -13.4440    -2.3240     0.0460 C.ar  1 <1>   0.6200 
 24 C      -12.0240    -0.6900    -0.6230 C.ar  1 <1>   0.1600 
 25 N      -13.2270    -1.0260    -0.2120 N.ar  1 <1>  -0.6200 
 26 C      -14.7740    -2.7060     0.5030 C.ar  1 <1>   0.0000 
 27 C      -15.5930    -1.8160     1.2060 C.ar  1 <1>  -0.1500 
 28 C      -15.2950    -3.9810     0.2600 C.ar  1 <1>  -0.1500 
 29 C      -16.8550    -2.1760     1.6410 C.ar  1 <1>  -0.1500 
 30 C      -16.5570    -4.3480     0.6920 C.ar  1 <1>  -0.1500 
 31 C      -17.3410    -3.4440     1.3850 C.ar  1 <1>  -0.1500 
 32 H       -3.2640    -0.3260     1.5830 H     1 <1>   0.1500 
 33 H       -3.5310    -2.8190     1.3360 H     1 <1>   0.1500 
 34 H       -4.9410    -4.6200     0.5370 H     1 <1>   0.0800 
 35 H       -6.3710    -4.2000    -0.3420 H     1 <1>   0.0800 
 36 H       -7.3150    -3.8770     2.2040 H     1 <1>   0.0800 
 37 H       -6.0760    -5.0310     2.5020 H     1 <1>   0.0800 
 38 H       -8.9040    -3.3810     0.9660 H     1 <1>   0.0800 
 39 H      -10.3570    -4.2120     1.3890 H     1 <1>   0.0800 
 40 H      -10.0290    -7.2300     1.1390 H     1 <1>   0.0800 
 41 H       -9.0660    -7.3430    -0.3060 H     1 <1>   0.0800 
 42 H      -11.7120    -5.9810     0.0580 H     1 <1>   0.0800 
 43 H      -11.2280    -7.1200    -1.1570 H     1 <1>   0.0800 
 44 H       -9.6960    -5.4240    -2.1230 H     1 <1>   0.0800 
 45 H      -11.3540    -4.8980    -2.1840 H     1 <1>   0.0800 
 46 H       -9.3650    -3.1070    -2.5940 H     1 <1>   0.0800 
 47 H       -8.1700    -3.1080    -1.3270 H     1 <1>   0.0800 
 48 H       -9.5280    -0.8540    -2.1140 H     1 <1>   0.0800 
 49 H       -9.0230    -1.0680    -0.4440 H     1 <1>   0.0800 
 50 H      -11.8190     0.3460    -0.8300 H     1 <1>   0.1500 
 51 H      -15.2310    -0.8240     1.4150 H     1 <1>   0.1500 
 52 H      -14.7000    -4.6970    -0.2790 H     1 <1>   0.1500 
 53 H      -17.4610    -1.4670     2.1790 H     1 <1>   0.1500 
 54 H      -16.9280    -5.3370     0.4890 H     1 <1>   0.1500 
 55 H      -18.3230    -3.7270     1.7220 H     1 <1>   0.1500 
@<TRIPOS>BOND
  1   1   2  1   
  2   2   3  ar  
  3   2   4  ar  
  4   3   5  ar  
  5   4   6  ar  
  6   4  32  1   
  7   5   7  ar  
  8   6   7  ar  
  9   6  33  1   
 10   7   8  1   
 11   8   9  1   
 12   8  34  1   
 13   8  35  1   
 14   9  10  1   
 15   9  36  1   
 16   9  37  1   
 17  10  11  2   
 18  10  12  am  
 19  12  13  1   
 20  12  14  1   
 21  13  15  1   
 22  13  38  1   
 23  13  39  1   
 24  14  16  1   
 25  14  40  1   
 26  14  41  1   
 27  15  17  1   
 28  15  18  1   
 29  15  19  1   
 30  16  18  1   
 31  16  42  1   
 32  16  43  1   
 33  17  20  ar  
 34  17  21  ar  
 35  18  44  1   
 36  18  45  1   
 37  19  22  1   
 38  19  46  1   
 39  19  47  1   
 40  20  23  ar  
 41  21  22  1   
 42  21  24  ar  
 43  22  48  1   
 44  22  49  1   
 45  23  25  ar  
 46  23  26  1   
 47  24  25  ar  
 48  24  50  1   
 49  26  27  ar  
 50  26  28  ar  
 51  27  29  ar  
 52  27  51  1   
 53  28  30  ar  
 54  28  52  1   
 55  29  31  ar  
 56  29  53  1   
 57  30  31  ar  
 58  30  54  1   
 59  31  55  1   
@<TRIPOS>SUBSTRUCTURE
  1 ****  13 GROUP 4 **** **** 0

# MOE 2024.06 (io_trps.svl 2023.06)
