@<TRIPOS>MOLECULE
NONAME
50 51 1 0 0 
SMALL
USER_CHARGES


@<TRIPOS>ATOM
  1 O       -2.6060     0.0310    -2.1570 O.2   1 <1>  -0.5700 
  2 C       -2.6170     0.7180    -1.1680 C.2   1 <1>   0.5690 
  3 N       -3.0090     0.2020     0.0390 N.am  1 <1>  -0.6600 
  4 C       -2.2300     2.1820    -1.3130 C.3   1 <1>  -0.0990 
  5 C       -2.7640    -1.2430     0.3160 C.3   1 <1>   0.3200 
  6 C       -3.6770     1.0140     1.1070 C.3   1 <1>   0.1400 
  7 C       -0.8830     2.4900    -0.6360 C.3   1 <1>  -0.1600 
  8 C       -4.0990    -1.9500     0.4020 C.2   1 <1>  -0.3320 
  9 C       -5.0520     1.5710     0.6600 C.3   1 <1>   0.3430 
 10 C       -0.4770     3.9640    -0.7850 C.3   1 <1>  -0.0800 
 11 N       -4.6840    -2.3710     1.5410 N.pl3 1 <1>   0.0330 
 12 C       -4.9290    -2.2900    -0.6080 C.2   1 <1>   0.0770 
 13 N       -5.8310     0.5720    -0.1380 N.4   1 <1>  -0.9590 
 14 C        0.8850     4.2580    -0.1630 C.3   1 <1>  -0.1600 
 15 C       -1.4080     4.9490    -0.0780 C.3   1 <1>  -0.1600 
 16 C       -5.8650    -2.8950     1.1490 C.2   1 <1>   0.0360 
 17 N       -6.0610    -2.8360    -0.1280 N.2   1 <1>  -0.5650 
 18 C       -5.9480     0.9390    -1.5820 C.3   1 <1>   0.2630 
 19 C       -7.1690     0.2500     0.4380 C.3   1 <1>   0.2630 
 20 C        0.9010     5.7720     0.0460 C.3   1 <1>  -0.1600 
 21 C       -0.5650     6.2060     0.1520 C.3   1 <1>  -0.1600 
 22 H       -3.0030     2.8070    -0.9140 H     1 <1>   0.0800 
 23 H       -2.1470     2.4060    -2.3620 H     1 <1>   0.0800 
 24 H       -2.2080    -1.3520     1.2320 H     1 <1>   0.0800 
 25 H       -2.1770    -1.6820    -0.4760 H     1 <1>   0.0800 
 26 H       -3.0380     1.8320     1.3960 H     1 <1>   0.0800 
 27 H       -3.8210     0.4060     1.9830 H     1 <1>   0.0800 
 28 H       -0.1230     1.8760    -1.0900 H     1 <1>   0.0800 
 29 H       -0.9240     2.2330     0.4070 H     1 <1>   0.0800 
 30 H       -4.8960     2.4580     0.0690 H     1 <1>   0.0800 
 31 H       -5.6110     1.8650     1.5330 H     1 <1>   0.0800 
 32 H       -0.4290     4.2240    -1.8310 H     1 <1>   0.0800 
 33 H       -4.3150    -2.3530     2.4980 H     1 <1>   0.2700 
 34 H       -4.7720    -2.1520    -1.6680 H     1 <1>   0.1500 
 35 H       -5.2720    -0.3080    -0.1160 H     1 <1>   0.4500 
 36 H        1.6950     3.9310    -0.7920 H     1 <1>   0.0800 
 37 H        0.9660     3.7710     0.7940 H     1 <1>   0.0800 
 38 H       -1.7040     4.5510     0.8770 H     1 <1>   0.0800 
 39 H       -2.2850     5.1680    -0.6630 H     1 <1>   0.0800 
 40 H       -6.5640    -3.3240     1.8490 H     1 <1>   0.1500 
 41 H       -6.4980     1.8590    -1.6950 H     1 <1>   0.0800 
 42 H       -6.4630     0.1590    -2.1190 H     1 <1>   0.0800 
 43 H       -4.9710     1.0580    -2.0210 H     1 <1>   0.0800 
 44 H       -7.8150     1.1120     0.3990 H     1 <1>   0.0800 
 45 H       -7.0690    -0.0670     1.4630 H     1 <1>   0.0800 
 46 H       -7.6250    -0.5530    -0.1190 H     1 <1>   0.0800 
 47 H        1.3550     6.2490    -0.8060 H     1 <1>   0.0800 
 48 H        1.4580     6.0360     0.9290 H     1 <1>   0.0800 
 49 H       -0.7750     6.6350     1.1160 H     1 <1>   0.0800 
 50 H       -0.7780     6.9390    -0.6080 H     1 <1>   0.0800 
@<TRIPOS>BOND
  1   1   2  2   
  2   2   3  am  
  3   2   4  1   
  4   3   5  1   
  5   3   6  1   
  6   4   7  1   
  7   4  22  1   
  8   4  23  1   
  9   5   8  1   
 10   5  24  1   
 11   5  25  1   
 12   6   9  1   
 13   6  26  1   
 14   6  27  1   
 15   7  10  1   
 16   7  28  1   
 17   7  29  1   
 18   8  11  1   
 19   8  12  2   
 20   9  13  1   
 21   9  30  1   
 22   9  31  1   
 23  10  14  1   
 24  10  15  1   
 25  10  32  1   
 26  11  16  1   
 27  11  33  1   
 28  12  17  1   
 29  12  34  1   
 30  13  18  1   
 31  13  19  1   
 32  13  35  1   
 33  14  20  1   
 34  14  36  1   
 35  14  37  1   
 36  15  21  1   
 37  15  38  1   
 38  15  39  1   
 39  16  17  2   
 40  16  40  1   
 41  18  41  1   
 42  18  42  1   
 43  18  43  1   
 44  19  44  1   
 45  19  45  1   
 46  19  46  1   
 47  20  21  1   
 48  20  47  1   
 49  20  48  1   
 50  21  49  1   
 51  21  50  1   
@<TRIPOS>SUBSTRUCTURE
  1 ****   3 GROUP 4 **** **** 0

# MOE 2024.06 (io_trps.svl 2023.06)
