@<TRIPOS>MOLECULE
NONAME
46 48 1 0 0 
SMALL
USER_CHARGES


@<TRIPOS>ATOM
  1 O       -0.4630    -1.1630    -1.0120 O.2   1 <1>  -0.5700 
  2 C        0.0640    -1.9510    -0.2410 C.2   1 <1>   0.5440 
  3 N        0.3300    -1.5080     1.0490 N.am  1 <1>  -0.6600 
  4 C        0.4050    -3.2940    -0.7290 C.ar  1 <1>   0.3960 
  5 C       -0.2110    -0.2210     1.5700 C.3   1 <1>   0.0600 
  6 C        1.1980    -2.2460     2.0080 C.3   1 <1>   0.0600 
  7 N        0.2510    -4.3670     0.0680 N.ar  1 <1>  -0.6200 
  8 C        0.8780    -3.4220    -2.0360 C.ar  1 <1>  -0.1500 
  9 C        0.5700    -5.5400    -0.4350 C.ar  1 <1>   0.4100 
 10 C        1.2190    -4.6530    -2.5540 C.ar  1 <1>  -0.1500 
 11 N        0.3740    -6.5740     0.4330 N.pl3 1 <1>  -0.8690 
 12 C        1.0610    -5.7320    -1.7220 C.ar  1 <1>  -0.1500 
 13 C       -0.3110    -7.8360     0.0610 C.3   1 <1>   0.2890 
 14 C       -1.8210    -7.7590     0.2590 C.3   1 <1>  -0.0800 
 15 C        0.0490    -8.9120     1.0810 C.3   1 <1>   0.1200 
 16 C       -1.9900    -8.0740     1.7460 C.3   1 <1>   0.1200 
 17 C       -2.5210    -6.4600    -0.1810 C.3   1 <1>  -0.0170 
 18 O       -0.8420    -8.7620     2.1480 O.3   1 <1>  -0.5600 
 19 C       -4.0280    -6.5710     0.0000 C.ar  1 <1>  -0.1430 
 20 C       -4.8200    -7.2670    -0.8900 C.ar  1 <1>  -0.1500 
 21 C       -4.6800    -5.9830     1.0650 C.ar  1 <1>  -0.1500 
 22 C       -6.1860    -7.3470    -0.6730 C.ar  1 <1>   0.1600 
 23 C       -6.0520    -6.1230     1.1890 C.ar  1 <1>   0.1600 
 24 N       -6.8210    -6.7950     0.3470 N.ar  1 <1>  -0.6200 
 25 H       -0.6240    -0.3690     2.5510 H     1 <1>   0.0800 
 26 H       -0.9880     0.1560     0.9270 H     1 <1>   0.0800 
 27 H        0.5780     0.5080     1.6210 H     1 <1>   0.0800 
 28 H        1.7330    -1.5530     2.6330 H     1 <1>   0.0800 
 29 H        1.9150    -2.8500     1.4800 H     1 <1>   0.0800 
 30 H        0.5900    -2.8840     2.6250 H     1 <1>   0.0800 
 31 H        0.9760    -2.5390    -2.6430 H     1 <1>   0.1500 
 32 H        1.5930    -4.7580    -3.5590 H     1 <1>   0.1500 
 33 H        0.0870    -6.2450     1.3590 H     1 <1>   0.4000 
 34 H        1.3200    -6.7190    -2.0510 H     1 <1>   0.1500 
 35 H       -0.0440    -8.1360    -0.9370 H     1 <1>   0.0800 
 36 H       -2.2600    -8.5750    -0.2870 H     1 <1>   0.0800 
 37 H        1.0590    -8.8180     1.4390 H     1 <1>   0.0800 
 38 H       -0.1040    -9.8930     0.6670 H     1 <1>   0.0800 
 39 H       -2.8540    -8.6880     1.9340 H     1 <1>   0.0800 
 40 H       -2.0480    -7.1740     2.3340 H     1 <1>   0.0800 
 41 H       -2.3000    -6.2590    -1.2140 H     1 <1>   0.0800 
 42 H       -2.1600    -5.6260     0.3950 H     1 <1>   0.0800 
 43 H       -4.3900    -7.7480    -1.7490 H     1 <1>   0.1500 
 44 H       -4.1350    -5.4170     1.7980 H     1 <1>   0.1500 
 45 H       -6.7880    -7.8960    -1.3780 H     1 <1>   0.1500 
 46 H       -6.5430    -5.6570     2.0260 H     1 <1>   0.1500 
@<TRIPOS>BOND
  1   1   2  2   
  2   2   3  am  
  3   2   4  1   
  4   3   5  1   
  5   3   6  1   
  6   4   7  ar  
  7   4   8  ar  
  8   5  25  1   
  9   5  26  1   
 10   5  27  1   
 11   6  28  1   
 12   6  29  1   
 13   6  30  1   
 14   7   9  ar  
 15   8  10  ar  
 16   8  31  1   
 17   9  11  1   
 18   9  12  ar  
 19  10  12  ar  
 20  10  32  1   
 21  11  13  1   
 22  11  33  1   
 23  12  34  1   
 24  13  14  1   
 25  13  15  1   
 26  13  35  1   
 27  14  16  1   
 28  14  17  1   
 29  14  36  1   
 30  15  18  1   
 31  15  37  1   
 32  15  38  1   
 33  16  18  1   
 34  16  39  1   
 35  16  40  1   
 36  17  19  1   
 37  17  41  1   
 38  17  42  1   
 39  19  20  ar  
 40  19  21  ar  
 41  20  22  ar  
 42  20  43  1   
 43  21  23  ar  
 44  21  44  1   
 45  22  24  ar  
 46  22  45  1   
 47  23  24  ar  
 48  23  46  1   
@<TRIPOS>SUBSTRUCTURE
  1 ****  17 GROUP 4 **** **** 0

# MOE 2024.06 (io_trps.svl 2023.06)
