@<TRIPOS>MOLECULE
NONAME
50 53 1 0 0 
SMALL
USER_CHARGES


@<TRIPOS>ATOM
  1 O       -1.3480     0.7460    -0.2790 O.2   1 <1>  -0.5700 
  2 C       -1.0380     1.8100     0.1930 C.2   1 <1>   0.5690 
  3 N       -1.8640     2.8740     0.0940 N.am  1 <1>  -0.7300 
  4 C        0.3220     1.9770     0.8800 C.3   1 <1>   0.1810 
  5 C       -1.5440     4.2140     0.6440 C.3   1 <1>   0.3640 
  6 O        0.4120     3.1430     1.6700 O.3   1 <1>  -0.5600 
  7 C       -1.9070     5.2710    -0.3950 C.ar  1 <1>  -0.1440 
  8 C       -0.0490     4.3270     1.0340 C.3   1 <1>   0.2610 
  9 C       -2.5980     6.4100    -0.0050 C.ar  1 <1>  -0.1500 
 10 C       -1.5430     5.1300    -1.7290 C.ar  1 <1>  -0.1500 
 11 C        0.2160     5.5680     1.9040 C.2   1 <1>   0.5690 
 12 C       -2.9220     7.3880    -0.9290 C.ar  1 <1>  -0.1500 
 13 C       -1.8640     6.1080    -2.6530 C.ar  1 <1>  -0.1500 
 14 O       -0.6940     6.0230     2.5650 O.2   1 <1>  -0.5700 
 15 N        1.4560     6.1680     1.9070 N.am  1 <1>  -0.6600 
 16 C       -2.5540     7.2380    -2.2540 C.ar  1 <1>  -0.1500 
 17 C        2.6930     5.5600     1.3510 C.3   1 <1>   0.1400 
 18 C        1.6410     7.5520     2.4130 C.3   1 <1>   0.1400 
 19 C        3.1710     6.4100     0.1750 C.3   1 <1>  -0.1600 
 20 C        2.1230     8.4400     1.2600 C.3   1 <1>  -0.1600 
 21 C        3.3900     7.8760     0.5920 C.3   1 <1>   0.1000 
 22 C        3.8020     8.7440    -0.5940 C.2   1 <1>   0.0060 
 23 N        4.3400     9.9570    -0.4590 N.pl3 1 <1>   0.0330 
 24 N        3.6870     8.4290    -1.8400 N.2   1 <1>  -0.3380 
 25 C        4.5430    10.3510    -1.7140 C.2   1 <1>   0.0060 
 26 N        4.1610     9.4540    -2.5520 N.2   1 <1>  -0.3380 
 27 C        5.1480    11.6860    -2.0950 C.3   1 <1>  -0.0600 
 28 H       -2.7660     2.7650    -0.3700 H     1 <1>   0.3700 
 29 H        1.0940     2.0140     0.1330 H     1 <1>   0.0800 
 30 H        0.5010     1.1330     1.5210 H     1 <1>   0.0800 
 31 H       -2.1480     4.3570     1.5240 H     1 <1>   0.0800 
 32 H        0.5150     4.4430     0.1270 H     1 <1>   0.0800 
 33 H       -2.8830     6.5460     1.0250 H     1 <1>   0.1500 
 34 H       -1.0060     4.2570    -2.0600 H     1 <1>   0.1500 
 35 H       -3.4560     8.2670    -0.6150 H     1 <1>   0.1500 
 36 H       -1.5760     5.9920    -3.6840 H     1 <1>   0.1500 
 37 H       -2.8030     8.0000    -2.9720 H     1 <1>   0.1500 
 38 H        3.4470     5.5400     2.1200 H     1 <1>   0.0800 
 39 H        2.5280     4.5460     1.0350 H     1 <1>   0.0800 
 40 H        0.7180     7.9430     2.8070 H     1 <1>   0.0800 
 41 H        2.3660     7.5430     3.2100 H     1 <1>   0.0800 
 42 H        4.0900     6.0060    -0.2110 H     1 <1>   0.0800 
 43 H        2.4370     6.3590    -0.6110 H     1 <1>   0.0800 
 44 H        1.3350     8.5110     0.5280 H     1 <1>   0.0800 
 45 H        2.3110     9.4290     1.6330 H     1 <1>   0.0800 
 46 H        4.1910     7.8960     1.3110 H     1 <1>   0.0800 
 47 H        4.5480    10.4660     0.4010 H     1 <1>   0.2700 
 48 H        6.1390    11.7740    -1.6900 H     1 <1>   0.0800 
 49 H        4.5370    12.4890    -1.7260 H     1 <1>   0.0800 
 50 H        5.2070    11.7640    -3.1660 H     1 <1>   0.0800 
@<TRIPOS>BOND
  1   1   2  2   
  2   2   3  am  
  3   2   4  1   
  4   3   5  1   
  5   3  28  1   
  6   4   6  1   
  7   4  29  1   
  8   4  30  1   
  9   5   7  1   
 10   5   8  1   
 11   5  31  1   
 12   6   8  1   
 13   7   9  ar  
 14   7  10  ar  
 15   8  11  1   
 16   8  32  1   
 17   9  12  ar  
 18   9  33  1   
 19  10  13  ar  
 20  10  34  1   
 21  11  14  2   
 22  11  15  am  
 23  12  16  ar  
 24  12  35  1   
 25  13  16  ar  
 26  13  36  1   
 27  15  17  1   
 28  15  18  1   
 29  16  37  1   
 30  17  19  1   
 31  17  38  1   
 32  17  39  1   
 33  18  20  1   
 34  18  40  1   
 35  18  41  1   
 36  19  21  1   
 37  19  42  1   
 38  19  43  1   
 39  20  21  1   
 40  20  44  1   
 41  20  45  1   
 42  21  22  1   
 43  21  46  1   
 44  22  23  1   
 45  22  24  2   
 46  23  25  1   
 47  23  47  1   
 48  24  26  1   
 49  25  26  2   
 50  25  27  1   
 51  27  48  1   
 52  27  49  1   
 53  27  50  1   
@<TRIPOS>SUBSTRUCTURE
  1 ****  15 GROUP 4 **** **** 0

# MOE 2024.06 (io_trps.svl 2023.06)
