@<TRIPOS>MOLECULE
NONAME
52 54 1 0 0 
SMALL
USER_CHARGES


@<TRIPOS>ATOM
  1 O       -2.0450    -0.4850     0.1800 O.2   1 <1>  -0.5700 
  2 C       -1.3950    -1.5120     0.1510 C.2   1 <1>   0.5440 
  3 N       -0.0570    -1.4410    -0.1250 N.am  1 <1>  -0.7300 
  4 C       -2.0350    -2.7780     0.4160 C.ar  1 <1>   0.0860 
  5 C        0.6840    -0.1990    -0.4230 C.3   1 <1>   0.1400 
  6 C       -3.1500    -2.8390     1.2510 C.ar  1 <1>   0.1600 
  7 C       -1.6010    -3.9800    -0.1380 C.ar  1 <1>  -0.1500 
  8 C        1.7340    -0.5020    -1.4840 C.3   1 <1>  -0.2400 
  9 N       -3.8340    -3.9280     1.5650 N.ar  1 <1>  -0.6200 
 10 C       -2.2910    -5.1240     0.1830 C.ar  1 <1>  -0.1500 
 11 C       -3.3910    -5.0530     1.0330 C.ar  1 <1>   0.4100 
 12 N       -4.1070    -6.1520     1.3750 N.pl3 1 <1>  -0.8690 
 13 C       -4.7830    -7.0000     0.3510 C.3   1 <1>   0.2890 
 14 C       -6.3090    -7.0190     0.5280 C.3   1 <1>   0.1900 
 15 C       -4.3790    -8.4710     0.4840 C.3   1 <1>   0.1200 
 16 N       -7.0750    -6.0170    -0.2810 N.3   1 <1>  -0.8100 
 17 C       -6.6390    -8.4620     0.1520 C.3   1 <1>   0.1200 
 18 O       -5.5550    -9.2170     0.5830 O.3   1 <1>  -0.5600 
 19 C       -6.5620    -4.6390    -0.0720 C.3   1 <1>   0.1100 
 20 C       -8.5250    -6.0890     0.0200 C.3   1 <1>   0.1100 
 21 C       -7.3680    -3.5730    -0.8380 C.3   1 <1>   0.3430 
 22 C       -9.3390    -5.0420    -0.7680 C.3   1 <1>   0.3430 
 23 N       -8.8350    -3.6490    -0.5220 N.4   1 <1>  -0.9590 
 24 C       -9.6090    -2.6390    -1.3020 C.3   1 <1>   0.2630 
 25 H        0.5220    -2.2740    -0.0180 H     1 <1>   0.3700 
 26 H        0.0060     0.5590    -0.7810 H     1 <1>   0.0800 
 27 H        1.1540     0.1610     0.4770 H     1 <1>   0.0800 
 28 H       -3.4900    -1.9130     1.6860 H     1 <1>   0.1500 
 29 H       -0.7530    -4.0100    -0.7990 H     1 <1>   0.1500 
 30 H        1.2620    -0.8580    -2.3820 H     1 <1>   0.0800 
 31 H        2.4330    -1.2370    -1.1260 H     1 <1>   0.0800 
 32 H        2.2760     0.3960    -1.7190 H     1 <1>   0.0800 
 33 H       -1.9930    -6.0790    -0.2060 H     1 <1>   0.1500 
 34 H       -4.6780    -5.9880     2.2070 H     1 <1>   0.4000 
 35 H       -4.5310    -6.6680    -0.6410 H     1 <1>   0.0800 
 36 H       -6.5370    -6.8950     1.5730 H     1 <1>   0.0800 
 37 H       -3.7930    -8.6480     1.3680 H     1 <1>   0.0800 
 38 H       -3.8440    -8.8030    -0.3880 H     1 <1>   0.0800 
 39 H       -6.7170    -8.5760    -0.9160 H     1 <1>   0.0800 
 40 H       -7.5250    -8.8250     0.6400 H     1 <1>   0.0800 
 41 H       -6.5540    -4.4000     0.9790 H     1 <1>   0.0800 
 42 H       -5.5500    -4.5790    -0.4290 H     1 <1>   0.0800 
 43 H       -8.8970    -7.0650    -0.2420 H     1 <1>   0.0800 
 44 H       -8.6890    -5.9480     1.0750 H     1 <1>   0.0800 
 45 H       -7.2150    -3.7290    -1.8930 H     1 <1>   0.0800 
 46 H       -6.9860    -2.5980    -0.5880 H     1 <1>   0.0800 
 47 H      -10.3760    -5.1130    -0.4820 H     1 <1>   0.0800 
 48 H       -9.2670    -5.2750    -1.8180 H     1 <1>   0.0800 
 49 H       -8.9360    -3.4540     0.4830 H     1 <1>   0.4500 
 50 H       -9.5110    -2.8260    -2.3590 H     1 <1>   0.0800 
 51 H       -9.2450    -1.6460    -1.0930 H     1 <1>   0.0800 
 52 H      -10.6540    -2.6830    -1.0390 H     1 <1>   0.0800 
@<TRIPOS>BOND
  1   1   2  2   
  2   2   3  am  
  3   2   4  1   
  4   3   5  1   
  5   3  25  1   
  6   4   6  ar  
  7   4   7  ar  
  8   5   8  1   
  9   5  26  1   
 10   5  27  1   
 11   6   9  ar  
 12   6  28  1   
 13   7  10  ar  
 14   7  29  1   
 15   8  30  1   
 16   8  31  1   
 17   8  32  1   
 18   9  11  ar  
 19  10  11  ar  
 20  10  33  1   
 21  11  12  1   
 22  12  13  1   
 23  12  34  1   
 24  13  14  1   
 25  13  15  1   
 26  13  35  1   
 27  14  16  1   
 28  14  17  1   
 29  14  36  1   
 30  15  18  1   
 31  15  37  1   
 32  15  38  1   
 33  16  19  1   
 34  16  20  1   
 35  17  18  1   
 36  17  39  1   
 37  17  40  1   
 38  19  21  1   
 39  19  41  1   
 40  19  42  1   
 41  20  22  1   
 42  20  43  1   
 43  20  44  1   
 44  21  23  1   
 45  21  45  1   
 46  21  46  1   
 47  22  23  1   
 48  22  47  1   
 49  22  48  1   
 50  23  24  1   
 51  23  49  1   
 52  24  50  1   
 53  24  51  1   
 54  24  52  1   
@<TRIPOS>SUBSTRUCTURE
  1 ****  11 GROUP 4 **** **** 0

# MOE 2024.06 (io_trps.svl 2023.06)
