@<TRIPOS>MOLECULE
NONAME
47 48 1 0 0 
SMALL
USER_CHARGES


@<TRIPOS>ATOM
  1 CL       0.5100    -0.8270     1.7490 Cl    1 <1>  -0.1770 
  2 C        0.2370    -2.4250     1.1040 C.ar  1 <1>   0.1770 
  3 C        0.8970    -3.5030     1.6640 C.ar  1 <1>  -0.1500 
  4 C       -0.6340    -2.5890     0.0440 C.ar  1 <1>  -0.1500 
  5 C        0.6780    -4.7700     1.1500 C.ar  1 <1>  -0.1500 
  6 C       -0.8480    -3.8590    -0.4650 C.ar  1 <1>  -0.1500 
  7 C       -0.1950    -4.9520     0.0860 C.ar  1 <1>  -0.1430 
  8 C       -0.4390    -6.3460    -0.4700 C.3   1 <1>  -0.0160 
  9 C       -1.5990    -7.0220     0.2760 C.3   1 <1>  -0.0990 
 10 C       -1.9240    -8.4230    -0.2220 C.2   1 <1>   0.5690 
 11 O       -1.2770    -8.8660    -1.1430 O.2   1 <1>  -0.5700 
 12 N       -2.9290    -9.1420     0.3720 N.am  1 <1>  -0.6600 
 13 C       -3.2870   -10.5220    -0.0940 C.3   1 <1>   0.1400 
 14 C       -3.7920    -8.6670     1.4930 C.3   1 <1>   0.1400 
 15 C       -4.7650   -10.5730    -0.5170 C.3   1 <1>   0.2000 
 16 C       -5.2610    -8.6910     1.0480 C.3   1 <1>  -0.1600 
 17 O       -5.0760   -11.8640    -0.9080 O.3   1 <1>  -0.6800 
 18 C       -5.7150   -10.1180     0.6260 C.3   1 <1>  -0.1060 
 19 C       -5.5940   -11.0910     1.8240 C.2   1 <1>   0.9060 
 20 C       -7.2070   -10.0990     0.1830 C.3   1 <1>  -0.1600 
 21 O       -5.4270   -12.3020     1.6120 O.co2 1 <1>  -0.9000 
 22 O       -5.6720   -10.6520     2.9780 O.co2 1 <1>  -0.9000 
 23 C       -7.5500    -9.2450    -1.0520 C.3   1 <1>  -0.1600 
 24 C       -9.0480    -9.3180    -1.3620 C.3   1 <1>  -0.2400 
 25 H        1.5700    -3.3490     2.4870 H     1 <1>   0.1500 
 26 H       -1.1330    -1.7340    -0.3740 H     1 <1>   0.1500 
 27 H        1.1890    -5.6140     1.5820 H     1 <1>   0.1500 
 28 H       -1.5260    -3.9930    -1.2910 H     1 <1>   0.1500 
 29 H       -0.6690    -6.2860    -1.5200 H     1 <1>   0.0800 
 30 H        0.4520    -6.9420    -0.3690 H     1 <1>   0.0800 
 31 H       -2.4780    -6.4140     0.1690 H     1 <1>   0.0800 
 32 H       -1.3500    -7.0820     1.3180 H     1 <1>   0.0800 
 33 H       -2.6760   -10.8100    -0.9300 H     1 <1>   0.0800 
 34 H       -3.1140   -11.2170     0.7100 H     1 <1>   0.0800 
 35 H       -3.6510    -9.3120     2.3450 H     1 <1>   0.0800 
 36 H       -3.5340    -7.6710     1.7990 H     1 <1>   0.0800 
 37 H       -4.8820    -9.9460    -1.3810 H     1 <1>   0.0800 
 38 H       -5.8740    -8.3470     1.8620 H     1 <1>   0.0800 
 39 H       -5.3740    -7.9960     0.2370 H     1 <1>   0.0800 
 40 H       -5.2340   -12.3610    -0.0480 H     1 <1>   0.4000 
 41 H       -7.5080   -11.1150    -0.0130 H     1 <1>   0.0800 
 42 H       -7.7970    -9.7610     1.0180 H     1 <1>   0.0800 
 43 H       -7.2840    -8.2180    -0.8860 H     1 <1>   0.0800 
 44 H       -7.0060    -9.6050    -1.9080 H     1 <1>   0.0800 
 45 H       -9.6210    -8.9490    -0.5290 H     1 <1>   0.0800 
 46 H       -9.3370   -10.3360    -1.5570 H     1 <1>   0.0800 
 47 H       -9.2750    -8.7240    -2.2280 H     1 <1>   0.0800 
@<TRIPOS>BOND
  1   1   2  1   
  2   2   3  ar  
  3   2   4  ar  
  4   3   5  ar  
  5   3  25  1   
  6   4   6  ar  
  7   4  26  1   
  8   5   7  ar  
  9   5  27  1   
 10   6   7  ar  
 11   6  28  1   
 12   7   8  1   
 13   8   9  1   
 14   8  29  1   
 15   8  30  1   
 16   9  10  1   
 17   9  31  1   
 18   9  32  1   
 19  10  11  2   
 20  10  12  am  
 21  12  13  1   
 22  12  14  1   
 23  13  15  1   
 24  13  33  1   
 25  13  34  1   
 26  14  16  1   
 27  14  35  1   
 28  14  36  1   
 29  15  17  1   
 30  15  18  1   
 31  15  37  1   
 32  16  18  1   
 33  16  38  1   
 34  16  39  1   
 35  17  40  1   
 36  18  19  1   
 37  18  20  1   
 38  19  21  ar  
 39  19  22  ar  
 40  20  23  1   
 41  20  41  1   
 42  20  42  1   
 43  23  24  1   
 44  23  43  1   
 45  23  44  1   
 46  24  45  1   
 47  24  46  1   
 48  24  47  1   
@<TRIPOS>SUBSTRUCTURE
  1 ****  12 GROUP 4 **** **** 0

# MOE 2024.06 (io_trps.svl 2023.06)
