@<TRIPOS>MOLECULE
NONAME
44 46 1 0 0 
SMALL
USER_CHARGES


@<TRIPOS>ATOM
  1 O       -0.9800     0.3640     1.7330 O.2   1 <1>  -0.5700 
  2 C       -1.5790     0.9120     0.8280 C.2   1 <1>   0.5440 
  3 N       -2.3350     0.1450    -0.0250 N.am  1 <1>  -0.6600 
  4 C       -1.5190     2.3530     0.6820 C.ar  1 <1>   0.0860 
  5 C       -3.4260     0.6640    -0.8890 C.3   1 <1>   0.1400 
  6 C       -2.4270    -1.3350     0.0750 C.3   1 <1>   0.1400 
  7 C       -0.8340     2.9780    -0.3690 C.ar  1 <1>  -0.1440 
  8 C       -2.1750     3.1560     1.6120 C.ar  1 <1>  -0.1500 
  9 C       -4.4840    -0.4360    -0.8440 C.3   1 <1>   0.2000 
 10 C       -3.6520    -1.7190    -0.7640 C.3   1 <1>  -0.0800 
 11 C       -0.8420     4.3600    -0.4870 C.ar  1 <1>  -0.1500 
 12 C       -0.0580     2.1540    -1.3900 C.3   1 <1>  -0.0960 
 13 C       -2.1730     4.5330     1.4870 C.ar  1 <1>   0.0820 
 14 O       -5.2080    -0.2800     0.3290 O.3   1 <1>  -0.6800 
 15 C       -4.3940    -2.9630    -0.2450 C.3   1 <1>   0.0210 
 16 C       -1.5130     5.1390     0.4370 C.ar  1 <1>  -0.1500 
 17 O       -2.8120     5.2960     2.3860 O.3   1 <1>  -0.5320 
 18 C       -3.4720    -4.1660    -0.2180 C.2   1 <1>   0.1080 
 19 N       -2.9390    -4.6690    -1.2880 N.2   1 <1>  -0.7070 
 20 C       -3.0880    -4.8500     0.9310 C.2   1 <1>  -0.1500 
 21 N       -2.1950    -5.7000    -0.8460 N.pl3 1 <1>   0.3000 
 22 C       -2.2670    -5.8280     0.4960 C.2   1 <1>  -0.3320 
 23 C       -1.5370    -6.8940     1.2920 C.3   1 <1>  -0.0600 
 24 H       -3.8150     1.6050    -0.5410 H     1 <1>   0.0800 
 25 H       -3.0550     0.7740    -1.8930 H     1 <1>   0.0800 
 26 H       -1.5320    -1.7990    -0.3050 H     1 <1>   0.0800 
 27 H       -2.5590    -1.6160     1.1070 H     1 <1>   0.0800 
 28 H       -2.6840     2.6840     2.4320 H     1 <1>   0.1500 
 29 H       -5.1640    -0.4130    -1.6780 H     1 <1>   0.0800 
 30 H       -3.2970    -1.9390    -1.7560 H     1 <1>   0.0800 
 31 H       -0.3210     4.8420    -1.2970 H     1 <1>   0.1500 
 32 H        0.5680     2.7810    -1.9980 H     1 <1>   0.0800 
 33 H       -0.7370     1.6230    -2.0320 H     1 <1>   0.0800 
 34 H        0.5720     1.4410    -0.8880 H     1 <1>   0.0800 
 35 H       -4.5730    -0.1900     1.0690 H     1 <1>   0.4000 
 36 H       -5.2250    -3.1810    -0.8900 H     1 <1>   0.0800 
 37 H       -4.7770    -2.7920     0.7450 H     1 <1>   0.0800 
 38 H       -1.5230     6.2110     0.3520 H     1 <1>   0.1500 
 39 H       -3.2080     4.7860     3.1150 H     1 <1>   0.4500 
 40 H       -3.3940    -4.6230     1.9370 H     1 <1>   0.1500 
 41 H       -1.6510    -6.2940    -1.4820 H     1 <1>   0.2700 
 42 H       -1.7550    -6.7870     2.3400 H     1 <1>   0.0800 
 43 H       -0.4750    -6.8010     1.1520 H     1 <1>   0.0800 
 44 H       -1.8490    -7.8740     0.9760 H     1 <1>   0.0800 
@<TRIPOS>BOND
  1   1   2  2   
  2   2   3  am  
  3   2   4  1   
  4   3   5  1   
  5   3   6  1   
  6   4   7  ar  
  7   4   8  ar  
  8   5   9  1   
  9   5  24  1   
 10   5  25  1   
 11   6  10  1   
 12   6  26  1   
 13   6  27  1   
 14   7  11  ar  
 15   7  12  1   
 16   8  13  ar  
 17   8  28  1   
 18   9  10  1   
 19   9  14  1   
 20   9  29  1   
 21  10  15  1   
 22  10  30  1   
 23  11  16  ar  
 24  11  31  1   
 25  12  32  1   
 26  12  33  1   
 27  12  34  1   
 28  13  16  ar  
 29  13  17  1   
 30  14  35  1   
 31  15  18  1   
 32  15  36  1   
 33  15  37  1   
 34  16  38  1   
 35  17  39  1   
 36  18  19  2   
 37  18  20  1   
 38  19  21  1   
 39  20  22  2   
 40  20  40  1   
 41  21  22  1   
 42  21  41  1   
 43  22  23  1   
 44  23  42  1   
 45  23  43  1   
 46  23  44  1   
@<TRIPOS>SUBSTRUCTURE
  1 ****   3 GROUP 4 **** **** 0

# MOE 2024.06 (io_trps.svl 2023.06)
