@<TRIPOS>MOLECULE
NONAME
53 56 1 0 0 
SMALL
USER_CHARGES


@<TRIPOS>ATOM
  1 O        1.8010    -0.1680    -0.4830 O.3   1 <1>  -0.5600 
  2 C        2.5300    -1.0680     0.3250 C.3   1 <1>   0.4240 
  3 C        0.4360    -0.0170    -0.2120 C.3   1 <1>   0.1200 
  4 C        1.7040    -2.3110     0.7150 C.ar  1 <1>  -0.1440 
  5 C        3.0270    -0.2860     1.5570 C.3   1 <1>  -0.1600 
  6 C        3.7390    -1.4810    -0.5240 C.3   1 <1>  -0.1600 
  7 C       -0.2760    -1.3370    -0.4830 C.3   1 <1>  -0.0160 
  8 C        0.3750    -2.4400     0.3260 C.ar  1 <1>  -0.1440 
  9 C        2.2770    -3.3360     1.4620 C.ar  1 <1>  -0.1500 
 10 C        4.2040     0.6520     1.2640 C.3   1 <1>   0.3430 
 11 C        4.5680    -0.2870    -1.0100 C.3   1 <1>   0.3430 
 12 C       -0.3590    -3.5630     0.6710 C.ar  1 <1>  -0.1500 
 13 C        1.5450    -4.4560     1.8090 C.ar  1 <1>  -0.1500 
 14 N        4.2910     0.9310    -0.1950 N.4   1 <1>  -0.9590 
 15 C        0.2240    -4.5800     1.4180 C.ar  1 <1>   0.0830 
 16 C        5.1600     2.0820    -0.5390 C.3   1 <1>   0.5240 
 17 O       -0.4220    -5.7100     1.7980 O.3   1 <1>  -0.3630 
 18 C        4.5780     3.3090     0.1230 C.2   1 <1>  -0.1810 
 19 C       -1.7650    -5.9450     1.4380 C.3   1 <1>   0.0400 
 20 C        5.1630     4.0210     1.1620 C.2   1 <1>   0.1390 
 21 C        3.4130     3.9510    -0.1200 C.2   1 <1>  -0.3020 
 22 N        4.4230     5.0100     1.5470 N.2   1 <1>  -0.7070 
 23 N        3.3420     4.9810     0.7480 N.pl3 1 <1>   0.3140 
 24 C        2.2600     5.9830     0.8610 C.3   1 <1>   0.0960 
 25 C        2.3450     7.0200    -0.2650 C.3   1 <1>  -0.2400 
 26 H        0.0510     0.7540    -0.8570 H     1 <1>   0.0800 
 27 H        0.3060     0.2830     0.8130 H     1 <1>   0.0800 
 28 H        3.3510    -0.9730     2.3170 H     1 <1>   0.0800 
 29 H        2.2170     0.2710     1.9890 H     1 <1>   0.0800 
 30 H        3.4030    -2.0550    -1.3700 H     1 <1>   0.0800 
 31 H        4.3790    -2.1260     0.0500 H     1 <1>   0.0800 
 32 H       -0.2200    -1.5720    -1.5310 H     1 <1>   0.0800 
 33 H       -1.3130    -1.2410    -0.2140 H     1 <1>   0.0800 
 34 H        3.3010    -3.2830     1.7860 H     1 <1>   0.1500 
 35 H        5.1220     0.1940     1.5960 H     1 <1>   0.0800 
 36 H        4.0670     1.5690     1.8160 H     1 <1>   0.0800 
 37 H        4.3120    -0.0850    -2.0380 H     1 <1>   0.0800 
 38 H        5.6150    -0.5390    -0.9670 H     1 <1>   0.0800 
 39 H       -1.3820    -3.6360     0.3540 H     1 <1>   0.1500 
 40 H        1.9910    -5.2460     2.3860 H     1 <1>   0.1500 
 41 H        3.3260     1.2030    -0.4560 H     1 <1>   0.4500 
 42 H        5.1760     2.2300    -1.6070 H     1 <1>   0.0800 
 43 H        6.1670     1.9130    -0.1950 H     1 <1>   0.0800 
 44 H       -2.0570    -6.8980     1.8420 H     1 <1>   0.0800 
 45 H       -1.8410    -5.9650     0.3650 H     1 <1>   0.0800 
 46 H       -2.3800    -5.1680     1.8550 H     1 <1>   0.0800 
 47 H        6.1160     3.7990     1.6170 H     1 <1>   0.1500 
 48 H        2.6410     3.7550    -0.8420 H     1 <1>   0.1500 
 49 H        2.3540     6.4720     1.8150 H     1 <1>   0.0800 
 50 H        1.3150     5.4730     0.8300 H     1 <1>   0.0800 
 51 H        3.2910     7.5310    -0.2250 H     1 <1>   0.0800 
 52 H        1.5620     7.7480    -0.1490 H     1 <1>   0.0800 
 53 H        2.2340     6.5490    -1.2250 H     1 <1>   0.0800 
@<TRIPOS>BOND
  1   1   2  1   
  2   1   3  1   
  3   2   4  1   
  4   2   5  1   
  5   2   6  1   
  6   3   7  1   
  7   3  26  1   
  8   3  27  1   
  9   4   8  ar  
 10   4   9  ar  
 11   5  10  1   
 12   5  28  1   
 13   5  29  1   
 14   6  11  1   
 15   6  30  1   
 16   6  31  1   
 17   7   8  1   
 18   7  32  1   
 19   7  33  1   
 20   8  12  ar  
 21   9  13  ar  
 22   9  34  1   
 23  10  14  1   
 24  10  35  1   
 25  10  36  1   
 26  11  14  1   
 27  11  37  1   
 28  11  38  1   
 29  12  15  ar  
 30  12  39  1   
 31  13  15  ar  
 32  13  40  1   
 33  14  16  1   
 34  14  41  1   
 35  15  17  1   
 36  16  18  1   
 37  16  42  1   
 38  16  43  1   
 39  17  19  1   
 40  18  20  1   
 41  18  21  2   
 42  19  44  1   
 43  19  45  1   
 44  19  46  1   
 45  20  22  2   
 46  20  47  1   
 47  21  23  1   
 48  21  48  1   
 49  22  23  1   
 50  23  24  1   
 51  24  25  1   
 52  24  49  1   
 53  24  50  1   
 54  25  51  1   
 55  25  52  1   
 56  25  53  1   
@<TRIPOS>SUBSTRUCTURE
  1 ****   2 GROUP 4 **** **** 0

# MOE 2024.06 (io_trps.svl 2023.06)
