@<TRIPOS>MOLECULE
NONAME
54 57 1 0 0 
SMALL
USER_CHARGES


@<TRIPOS>ATOM
  1 O       -1.7640     0.6710    -0.2330 O.3   1 <1>  -0.3630 
  2 C       -2.7140     0.5300     0.7230 C.ar  1 <1>   0.0830 
  3 C       -0.7050     1.5950    -0.0790 C.3   1 <1>   0.1200 
  4 C       -3.6090    -0.5130     0.5570 C.ar  1 <1>  -0.1500 
  5 C       -2.8280     1.3600     1.8340 C.ar  1 <1>  -0.1500 
  6 C        0.2670     1.4220    -1.2450 C.3   1 <1>   0.1200 
  7 C       -4.6190    -0.7370     1.4820 C.ar  1 <1>  -0.1440 
  8 C       -3.8290     1.1370     2.7620 C.ar  1 <1>  -0.1500 
  9 O        1.2800     2.3660    -1.1430 O.3   1 <1>  -0.6800 
 10 C       -4.7200     0.0920     2.5900 C.ar  1 <1>  -0.1500 
 11 C       -5.6020    -1.8700     1.2740 C.3   1 <1>   0.4860 
 12 N       -6.5420    -1.4670     0.1950 N.4   1 <1>  -0.9590 
 13 C       -7.4110    -0.3200     0.6370 C.3   1 <1>   0.3430 
 14 C       -7.3590    -2.6120    -0.2930 C.3   1 <1>   0.3430 
 15 C       -8.2980     0.2010    -0.5050 C.3   1 <1>   0.1440 
 16 C       -8.2160    -2.1620    -1.4800 C.3   1 <1>  -0.1600 
 17 C       -9.2310     1.2450     0.0590 C.ar  1 <1>   0.1670 
 18 C       -9.1070    -0.9570    -1.1280 C.3   1 <1>  -0.1600 
 19 C       -7.5010     1.0010    -1.5710 C.3   1 <1>  -0.1600 
 20 N       -9.9330     1.0980     1.1580 N.ar  1 <1>  -0.6200 
 21 C       -9.2490     2.3740    -0.7010 C.ar  1 <1>  -0.1430 
 22 C       -8.3330     2.2590    -1.8930 C.3   1 <1>  -0.0170 
 23 C      -10.6840     2.1500     1.4630 C.ar  1 <1>   0.4770 
 24 C      -10.0570     3.4040    -0.2880 C.ar  1 <1>   0.1600 
 25 N      -10.7840     3.2970     0.8050 N.ar  1 <1>  -0.6200 
 26 C      -11.5250     2.0370     2.7120 C.3   1 <1>  -0.0970 
 27 H       -0.2050     1.3880     0.8510 H     1 <1>   0.0800 
 28 H       -1.1230     2.5860    -0.0780 H     1 <1>   0.0800 
 29 H       -3.4890    -1.1440    -0.3060 H     1 <1>   0.1500 
 30 H       -2.1510     2.1790     1.9930 H     1 <1>   0.1500 
 31 H       -0.2290     1.5590    -2.1900 H     1 <1>   0.0800 
 32 H        0.7230     0.4470    -1.2080 H     1 <1>   0.0800 
 33 H       -3.9100     1.7790     3.6240 H     1 <1>   0.1500 
 34 H        0.9520     3.2600    -1.3640 H     1 <1>   0.4000 
 35 H       -5.4870    -0.0610     3.3320 H     1 <1>   0.1500 
 36 H       -6.1390    -2.0730     2.1860 H     1 <1>   0.0800 
 37 H       -5.0630    -2.7580     0.9860 H     1 <1>   0.0800 
 38 H       -5.9600    -1.1230    -0.5780 H     1 <1>   0.4500 
 39 H       -6.8040     0.4930     1.0000 H     1 <1>   0.0800 
 40 H       -8.0500    -0.6400     1.4440 H     1 <1>   0.0800 
 41 H       -8.0020    -2.9660     0.4980 H     1 <1>   0.0800 
 42 H       -6.7180    -3.4240    -0.6000 H     1 <1>   0.0800 
 43 H       -8.8430    -2.9830    -1.7850 H     1 <1>   0.0800 
 44 H       -7.5780    -1.9270    -2.3140 H     1 <1>   0.0800 
 45 H       -9.6300    -0.6120    -2.0050 H     1 <1>   0.0800 
 46 H       -9.8550    -1.2760    -0.4200 H     1 <1>   0.0800 
 47 H       -7.3010     0.4340    -2.4630 H     1 <1>   0.0800 
 48 H       -6.5620     1.3250    -1.1550 H     1 <1>   0.0800 
 49 H       -8.9190     2.1140    -2.7850 H     1 <1>   0.0800 
 50 H       -7.7120     3.1320    -2.0040 H     1 <1>   0.0800 
 51 H      -10.1120     4.3210    -0.8510 H     1 <1>   0.1500 
 52 H      -11.5860     1.0160     3.0370 H     1 <1>   0.0800 
 53 H      -12.5170     2.3990     2.5130 H     1 <1>   0.0800 
 54 H      -11.0850     2.6310     3.4910 H     1 <1>   0.0800 
@<TRIPOS>BOND
  1   1   2  1   
  2   1   3  1   
  3   2   4  ar  
  4   2   5  ar  
  5   3   6  1   
  6   3  27  1   
  7   3  28  1   
  8   4   7  ar  
  9   4  29  1   
 10   5   8  ar  
 11   5  30  1   
 12   6   9  1   
 13   6  31  1   
 14   6  32  1   
 15   7  10  ar  
 16   7  11  1   
 17   8  10  ar  
 18   8  33  1   
 19   9  34  1   
 20  10  35  1   
 21  11  12  1   
 22  11  36  1   
 23  11  37  1   
 24  12  13  1   
 25  12  14  1   
 26  12  38  1   
 27  13  15  1   
 28  13  39  1   
 29  13  40  1   
 30  14  16  1   
 31  14  41  1   
 32  14  42  1   
 33  15  17  1   
 34  15  18  1   
 35  15  19  1   
 36  16  18  1   
 37  16  43  1   
 38  16  44  1   
 39  17  20  ar  
 40  17  21  ar  
 41  18  45  1   
 42  18  46  1   
 43  19  22  1   
 44  19  47  1   
 45  19  48  1   
 46  20  23  ar  
 47  21  22  1   
 48  21  24  ar  
 49  22  49  1   
 50  22  50  1   
 51  23  25  ar  
 52  23  26  1   
 53  24  25  ar  
 54  24  51  1   
 55  26  52  1   
 56  26  53  1   
 57  26  54  1   
@<TRIPOS>SUBSTRUCTURE
  1 ****  13 GROUP 4 **** **** 0

# MOE 2024.06 (io_trps.svl 2023.06)
