@<TRIPOS>MOLECULE
NONAME
52 55 1 0 0 
SMALL
USER_CHARGES


@<TRIPOS>ATOM
  1 S       -0.2820    -0.2040     0.8090 S.o2  1 <1>   1.3330 
  2 O       -0.6380     1.0450     1.4330 O.2   1 <1>  -0.6500 
  3 O        0.3120    -0.2150    -0.5050 O.2   1 <1>  -0.6500 
  4 N       -1.7170    -1.0650     0.7200 N.am  1 <1>  -0.9140 
  5 C        0.7030    -1.1650     1.9380 C.3   1 <1>  -0.1350 
  6 C       -1.7190    -2.1450    -0.2590 C.3   1 <1>   0.1960 
  7 C       -3.0610    -2.8760    -0.1930 C.3   1 <1>  -0.0990 
  8 C       -3.1300    -4.0530    -1.1510 C.2   1 <1>   0.5690 
  9 O       -2.1190    -4.3760    -1.7290 O.2   1 <1>  -0.5700 
 10 N       -4.3110    -4.7280    -1.3380 N.am  1 <1>  -0.6600 
 11 C       -5.5770    -4.4930    -0.5870 C.3   1 <1>   0.1400 
 12 C       -4.4270    -5.8160    -2.3520 C.3   1 <1>   0.1400 
 13 C       -5.9710    -5.7810     0.1400 C.3   1 <1>  -0.1600 
 14 C       -4.8130    -7.1190    -1.6530 C.3   1 <1>  -0.1600 
 15 C       -6.0970    -6.9620    -0.8330 C.3   1 <1>   0.4600 
 16 O       -7.1280    -6.6880    -1.7580 O.3   1 <1>  -0.5600 
 17 C       -6.4140    -8.2550    -0.0920 C.2   1 <1>  -0.3320 
 18 C       -8.4580    -6.9380    -1.3670 C.3   1 <1>   0.1200 
 19 N       -5.5900    -8.9190     0.7750 N.pl3 1 <1>   0.0330 
 20 C       -7.5760    -8.9300    -0.2040 C.2   1 <1>  -0.1810 
 21 C       -8.6870    -8.4340    -1.0940 C.3   1 <1>   0.0210 
 22 C       -6.2520   -10.0390     1.2160 C.ar  1 <1>  -0.1520 
 23 C       -7.5070   -10.0760     0.6130 C.ar  1 <1>   0.0000 
 24 C       -5.8540   -11.0430     2.1020 C.ar  1 <1>  -0.1500 
 25 C       -8.3800   -11.1310     0.8970 C.ar  1 <1>  -0.1500 
 26 C       -6.7240   -12.0740     2.3740 C.ar  1 <1>  -0.1500 
 27 C       -7.9870   -12.1180     1.7710 C.ar  1 <1>  -0.1500 
 28 H       -2.3890    -0.3590     0.4200 H     1 <1>   0.4200 
 29 H        1.6440    -0.6800     2.1050 H     1 <1>   0.0800 
 30 H        0.8850    -2.1410     1.5350 H     1 <1>   0.0800 
 31 H        0.1940    -1.2640     2.8760 H     1 <1>   0.0800 
 32 H       -0.9210    -2.8370    -0.0410 H     1 <1>   0.0800 
 33 H       -1.5640    -1.7530    -1.2530 H     1 <1>   0.0800 
 34 H       -3.8430    -2.1850    -0.4440 H     1 <1>   0.0800 
 35 H       -3.2120    -3.2430     0.8040 H     1 <1>   0.0800 
 36 H       -6.3520    -4.2160    -1.2830 H     1 <1>   0.0800 
 37 H       -5.4710    -3.6990     0.1280 H     1 <1>   0.0800 
 38 H       -3.5000    -5.9510    -2.8820 H     1 <1>   0.0800 
 39 H       -5.1830    -5.5490    -3.0720 H     1 <1>   0.0800 
 40 H       -6.8930    -5.6420     0.6700 H     1 <1>   0.0800 
 41 H       -5.2160    -6.0050     0.8710 H     1 <1>   0.0800 
 42 H       -4.0030    -7.4140    -1.0130 H     1 <1>   0.0800 
 43 H       -4.9540    -7.8980    -2.3800 H     1 <1>   0.0800 
 44 H       -9.1020    -6.6030    -2.1600 H     1 <1>   0.0800 
 45 H       -8.6690    -6.3620    -0.4830 H     1 <1>   0.0800 
 46 H       -4.6390    -8.6520     1.0460 H     1 <1>   0.2700 
 47 H       -8.6830    -8.9810    -2.0200 H     1 <1>   0.0800 
 48 H       -9.6380    -8.5740    -0.6140 H     1 <1>   0.0800 
 49 H       -4.8820   -11.0020     2.5600 H     1 <1>   0.1500 
 50 H       -9.3450   -11.1520     0.4260 H     1 <1>   0.1500 
 51 H       -6.4410   -12.8590     3.0530 H     1 <1>   0.1500 
 52 H       -8.6480   -12.9360     2.0000 H     1 <1>   0.1500 
@<TRIPOS>BOND
  1   1   2  2   
  2   1   3  2   
  3   1   4  am  
  4   1   5  1   
  5   4   6  1   
  6   4  28  1   
  7   5  29  1   
  8   5  30  1   
  9   5  31  1   
 10   6   7  1   
 11   6  32  1   
 12   6  33  1   
 13   7   8  1   
 14   7  34  1   
 15   7  35  1   
 16   8   9  2   
 17   8  10  am  
 18  10  11  1   
 19  10  12  1   
 20  11  13  1   
 21  11  36  1   
 22  11  37  1   
 23  12  14  1   
 24  12  38  1   
 25  12  39  1   
 26  13  15  1   
 27  13  40  1   
 28  13  41  1   
 29  14  15  1   
 30  14  42  1   
 31  14  43  1   
 32  15  16  1   
 33  15  17  1   
 34  16  18  1   
 35  17  19  1   
 36  17  20  2   
 37  18  21  1   
 38  18  44  1   
 39  18  45  1   
 40  19  22  1   
 41  19  46  1   
 42  20  21  1   
 43  20  23  1   
 44  21  47  1   
 45  21  48  1   
 46  22  23  ar  
 47  22  24  ar  
 48  23  25  ar  
 49  24  26  ar  
 50  24  49  1   
 51  25  27  ar  
 52  25  50  1   
 53  26  27  ar  
 54  26  51  1   
 55  27  52  1   
@<TRIPOS>SUBSTRUCTURE
  1 ****  13 GROUP 4 **** **** 0

# MOE 2024.06 (io_trps.svl 2023.06)
