@<TRIPOS>MOLECULE
NONAME
43 44 1 0 0 
SMALL
USER_CHARGES


@<TRIPOS>ATOM
  1 O        0.9330    -0.3720     2.2390 O.2   1 <1>  -0.5700 
  2 C        1.5960    -0.7930     1.3170 C.2   1 <1>   0.5690 
  3 N        2.3640     0.0240     0.5350 N.am  1 <1>  -0.4930 
  4 C        1.5680    -2.3090     0.9810 C.3   1 <1>   0.2510 
  5 C        2.5180     1.4320     0.5980 C.2   1 <1>   0.0630 
  6 N        0.2200    -2.8990     0.6790 N.3   1 <1>  -0.8100 
  7 C        2.1860    -3.0990     2.1420 C.3   1 <1>  -0.2400 
  8 C        3.2520     2.1930    -0.2440 C.2   1 <1>  -0.3320 
  9 C        1.9720     2.3380     1.5090 C.2   1 <1>   0.1390 
 10 C        0.2870    -4.1580    -0.0960 C.3   1 <1>   0.1100 
 11 C       -0.7520    -1.9490     0.0850 C.3   1 <1>   0.1100 
 12 N        3.1160     3.4760     0.1800 N.pl3 1 <1>   0.3140 
 13 C        4.0920     1.7900    -1.4480 C.3   1 <1>  -0.0600 
 14 N        2.3260     3.5630     1.2590 N.2   1 <1>  -0.7070 
 15 C       -1.1050    -4.8090    -0.2320 C.3   1 <1>   0.3430 
 16 C       -2.1490    -2.5830    -0.0560 C.3   1 <1>   0.3430 
 17 C        3.7220     4.6770    -0.4090 C.3   1 <1>   0.0160 
 18 N       -2.1100    -3.8680    -0.8380 N.4   1 <1>  -0.9590 
 19 C       -3.4630    -4.4950    -0.9100 C.3   1 <1>   0.2630 
 20 H        2.9280    -0.4120    -0.1890 H     1 <1>   0.3700 
 21 H        2.1930    -2.4450     0.1170 H     1 <1>   0.0800 
 22 H        1.5440    -3.0430     3.0030 H     1 <1>   0.0800 
 23 H        3.1370    -2.6720     2.4080 H     1 <1>   0.0800 
 24 H        2.3490    -4.1280     1.8840 H     1 <1>   0.0800 
 25 H        1.3290     2.0640     2.3280 H     1 <1>   0.1500 
 26 H        0.9330    -4.8590     0.4010 H     1 <1>   0.0800 
 27 H        0.6960    -3.9680    -1.0730 H     1 <1>   0.0800 
 28 H       -0.4020    -1.6080    -0.8740 H     1 <1>   0.0800 
 29 H       -0.8640    -1.0890     0.7220 H     1 <1>   0.0800 
 30 H        4.0610     0.7270    -1.6000 H     1 <1>   0.0800 
 31 H        5.1160     2.0820    -1.2990 H     1 <1>   0.0800 
 32 H        3.7190     2.2700    -2.3360 H     1 <1>   0.0800 
 33 H       -1.4340    -5.1060     0.7510 H     1 <1>   0.0800 
 34 H       -1.0230    -5.6980    -0.8360 H     1 <1>   0.0800 
 35 H       -2.8100    -1.8790    -0.5350 H     1 <1>   0.0800 
 36 H       -2.5300    -2.7730     0.9350 H     1 <1>   0.0800 
 37 H        3.3880     4.7800    -1.4240 H     1 <1>   0.0800 
 38 H        4.7900     4.5860    -0.3770 H     1 <1>   0.0800 
 39 H        3.4170     5.5380     0.1580 H     1 <1>   0.0800 
 40 H       -1.7890    -3.6390    -1.7880 H     1 <1>   0.4500 
 41 H       -3.8150    -4.7380     0.0800 H     1 <1>   0.0800 
 42 H       -3.4260    -5.4000    -1.4950 H     1 <1>   0.0800 
 43 H       -4.1660    -3.8180    -1.3690 H     1 <1>   0.0800 
@<TRIPOS>BOND
  1   1   2  2   
  2   2   3  am  
  3   2   4  1   
  4   3   5  1   
  5   3  20  1   
  6   4   6  1   
  7   4   7  1   
  8   4  21  1   
  9   5   8  2   
 10   5   9  1   
 11   6  10  1   
 12   6  11  1   
 13   7  22  1   
 14   7  23  1   
 15   7  24  1   
 16   8  12  1   
 17   8  13  1   
 18   9  14  2   
 19   9  25  1   
 20  10  15  1   
 21  10  26  1   
 22  10  27  1   
 23  11  16  1   
 24  11  28  1   
 25  11  29  1   
 26  12  14  1   
 27  12  17  1   
 28  13  30  1   
 29  13  31  1   
 30  13  32  1   
 31  15  18  1   
 32  15  33  1   
 33  15  34  1   
 34  16  18  1   
 35  16  35  1   
 36  16  36  1   
 37  17  37  1   
 38  17  38  1   
 39  17  39  1   
 40  18  19  1   
 41  18  40  1   
 42  19  41  1   
 43  19  42  1   
 44  19  43  1   
@<TRIPOS>SUBSTRUCTURE
  1 ****   2 GROUP 4 **** **** 0

# MOE 2024.06 (io_trps.svl 2023.06)
