@<TRIPOS>MOLECULE
NONAME
46 49 1 0 0 
SMALL
USER_CHARGES


@<TRIPOS>ATOM
  1 O        0.6510     0.1310    -0.0140 O.2   1 <1>  -0.5700 
  2 C        1.5500    -0.6210    -0.3410 C.2   1 <1>   0.5440 
  3 N        2.8070    -0.0930    -0.5630 N.am  1 <1>  -0.6600 
  4 C        1.2690    -2.0390    -0.4700 C.ar  1 <1>   0.0860 
  5 C        4.0640    -0.8990    -0.4530 C.3   1 <1>   0.1400 
  6 C        2.9790     1.3670    -0.8030 C.3   1 <1>   0.1400 
  7 C        0.5690    -2.7180     0.5200 C.ar  1 <1>  -0.1500 
  8 C        1.6880    -2.7610    -1.6070 C.ar  1 <1>  -0.1500 
  9 C        4.9850    -0.4050     0.6730 C.3   1 <1>   0.1400 
 10 C        3.3810     2.0700     0.4980 C.3   1 <1>  -0.1600 
 11 C        0.3090    -4.0800     0.3950 C.ar  1 <1>   0.0000 
 12 C        1.4370    -4.1110    -1.7430 C.ar  1 <1>  -0.1500 
 13 N        5.6240     0.9020     0.3320 N.am  1 <1>  -0.6600 
 14 C        4.8960     2.1400     0.7320 C.3   1 <1>   0.1400 
 15 C        0.7470    -4.7570    -0.7280 C.ar  1 <1>   0.1400 
 16 C       -0.3420    -5.0610     1.1720 C.2   1 <1>  -0.1500 
 17 C        6.7760     0.9240    -0.4300 C.2   1 <1>   0.7160 
 18 O        0.4050    -6.0420    -0.6600 O.3   1 <1>  -0.2800 
 19 C       -0.2490    -6.2140     0.4840 C.2   1 <1>  -0.0400 
 20 O        7.0810    -0.0800    -1.0480 O.2   1 <1>  -0.5700 
 21 C        7.6220     2.0910    -0.5270 C.2   1 <1>  -0.0860 
 22 C       -0.7550    -7.6030     0.8070 C.3   1 <1>  -0.0600 
 23 C        8.4060     2.3990    -1.6420 C.2   1 <1>   0.1390 
 24 C        7.8990     3.1130     0.3340 C.2   1 <1>  -0.3020 
 25 N        9.0820     3.4960    -1.5030 N.2   1 <1>  -0.7070 
 26 N        8.7700     3.9340    -0.2720 N.pl3 1 <1>   0.3000 
 27 H        4.5920    -0.8740    -1.3910 H     1 <1>   0.0800 
 28 H        3.8230    -1.9250    -0.2440 H     1 <1>   0.0800 
 29 H        2.0460     1.7780    -1.1510 H     1 <1>   0.0800 
 30 H        3.7130     1.5310    -1.5730 H     1 <1>   0.0800 
 31 H        0.2200    -2.1880     1.3890 H     1 <1>   0.1500 
 32 H        2.2120    -2.2330    -2.3850 H     1 <1>   0.1500 
 33 H        5.7600    -1.1380     0.8240 H     1 <1>   0.0800 
 34 H        4.4330    -0.3250     1.5930 H     1 <1>   0.0800 
 35 H        2.8920     1.5970     1.3310 H     1 <1>   0.0800 
 36 H        3.0130     3.0790     0.4620 H     1 <1>   0.0800 
 37 H        1.7540    -4.6680    -2.6060 H     1 <1>   0.1500 
 38 H        5.0890     2.3440     1.7710 H     1 <1>   0.0800 
 39 H        5.2710     2.9690     0.1570 H     1 <1>   0.0800 
 40 H       -0.8070    -4.8720     2.1210 H     1 <1>   0.1500 
 41 H       -1.2630    -7.6030     1.7540 H     1 <1>   0.0800 
 42 H        0.0710    -8.2890     0.8510 H     1 <1>   0.0800 
 43 H       -1.4370    -7.9260     0.0430 H     1 <1>   0.0800 
 44 H        8.4440     1.7850    -2.5280 H     1 <1>   0.1500 
 45 H        7.5300     3.2780     1.3290 H     1 <1>   0.1500 
 46 H        9.1790     4.7930     0.1170 H     1 <1>   0.2700 
@<TRIPOS>BOND
  1   1   2  2   
  2   2   3  am  
  3   2   4  1   
  4   3   5  1   
  5   3   6  1   
  6   4   7  ar  
  7   4   8  ar  
  8   5   9  1   
  9   5  27  1   
 10   5  28  1   
 11   6  10  1   
 12   6  29  1   
 13   6  30  1   
 14   7  11  ar  
 15   7  31  1   
 16   8  12  ar  
 17   8  32  1   
 18   9  13  1   
 19   9  33  1   
 20   9  34  1   
 21  10  14  1   
 22  10  35  1   
 23  10  36  1   
 24  11  15  ar  
 25  11  16  1   
 26  12  15  ar  
 27  12  37  1   
 28  13  14  1   
 29  13  17  am  
 30  14  38  1   
 31  14  39  1   
 32  15  18  1   
 33  16  19  2   
 34  16  40  1   
 35  17  20  2   
 36  17  21  1   
 37  18  19  1   
 38  19  22  1   
 39  21  23  1   
 40  21  24  2   
 41  22  41  1   
 42  22  42  1   
 43  22  43  1   
 44  23  25  2   
 45  23  44  1   
 46  24  26  1   
 47  24  45  1   
 48  25  26  1   
 49  26  46  1   
@<TRIPOS>SUBSTRUCTURE
  1 ****   5 GROUP 4 **** **** 0

# MOE 2024.06 (io_trps.svl 2023.06)
