@<TRIPOS>MOLECULE
NONAME
59 61 1 0 0 
SMALL
USER_CHARGES


@<TRIPOS>ATOM
  1 O        2.9340     2.3180    -0.9430 O.3   1 <1>  -0.6800 
  2 C        3.8300     1.6530    -1.7760 C.3   1 <1>   0.2000 
  3 C        4.7220     0.6950    -0.9200 C.3   1 <1>   0.0000 
  4 C        4.6160     2.7570    -2.5050 C.3   1 <1>  -0.1600 
  5 C        5.7090     1.4980    -0.0350 C.3   1 <1>   0.3430 
  6 C        5.5480    -0.2430    -1.8390 C.3   1 <1>   0.1200 
  7 C        3.8120    -0.1920    -0.0170 C.3   1 <1>  -0.0170 
  8 C        5.8000     3.2980    -1.6950 C.3   1 <1>   0.3430 
  9 N        5.6140     2.9710    -0.2570 N.4   1 <1>  -0.9590 
 10 O        6.5130     0.4550    -2.5530 O.3   1 <1>  -0.6800 
 11 C        4.5610    -1.1680     0.8870 C.ar  1 <1>  -0.1440 
 12 C        6.4790     3.7580     0.6470 C.3   1 <1>   0.4810 
 13 C        4.9290    -0.7950     2.1730 C.ar  1 <1>  -0.1500 
 14 C        4.8580    -2.4500     0.4480 C.ar  1 <1>  -0.1500 
 15 C        5.7270     5.0160     1.0420 C.2   1 <1>  -0.1670 
 16 C        5.6160    -1.6760     2.9900 C.ar  1 <1>  -0.1500 
 17 C        5.5450    -3.3320     1.2640 C.ar  1 <1>  -0.1500 
 18 C        5.5560     5.9660    -0.0330 C.ar  1 <1>   0.0280 
 19 C        5.2710     5.1650     2.2990 C.2   1 <1>  -0.2880 
 20 C        5.9290    -2.9430     2.5340 C.ar  1 <1>  -0.1500 
 21 C        4.2890     6.2370    -0.5410 C.ar  1 <1>  -0.1500 
 22 C        6.6480     6.6050    -0.6120 C.ar  1 <1>  -0.1500 
 23 C        4.5120     6.3630     2.8490 C.3   1 <1>  -0.0220 
 24 C        4.1180     7.1010    -1.6070 C.ar  1 <1>  -0.1500 
 25 C        6.4830     7.4690    -1.6790 C.ar  1 <1>  -0.1500 
 26 C        3.1010     5.9450     3.2610 C.3   1 <1>  -0.2400 
 27 C        5.2170     7.7150    -2.1810 C.ar  1 <1>  -0.1500 
 28 H        2.1790     2.6680    -1.4630 H     1 <1>   0.4000 
 29 H        3.2470     1.0830    -2.4810 H     1 <1>   0.0800 
 30 H        5.0020     2.3700    -3.4300 H     1 <1>   0.0800 
 31 H        3.9630     3.5700    -2.7710 H     1 <1>   0.0800 
 32 H        6.7140     1.1680    -0.2400 H     1 <1>   0.0800 
 33 H        5.5030     1.2900     0.9990 H     1 <1>   0.0800 
 34 H        4.9080    -0.7500    -2.5430 H     1 <1>   0.0800 
 35 H        6.0770    -0.9800    -1.2600 H     1 <1>   0.0800 
 36 H        3.2030     0.4270     0.6190 H     1 <1>   0.0800 
 37 H        3.1310    -0.7480    -0.6370 H     1 <1>   0.0800 
 38 H        5.8730     4.3630    -1.8420 H     1 <1>   0.0800 
 39 H        6.7120     2.8450    -2.0480 H     1 <1>   0.0800 
 40 H        4.6340     3.2260    -0.0400 H     1 <1>   0.4500 
 41 H        7.0260    -0.1570    -3.1260 H     1 <1>   0.4000 
 42 H        6.6920     3.1890     1.5370 H     1 <1>   0.0800 
 43 H        7.4110     4.0050     0.1660 H     1 <1>   0.0800 
 44 H        4.6760     0.1760     2.5580 H     1 <1>   0.1500 
 45 H        4.5550    -2.7780    -0.5310 H     1 <1>   0.1500 
 46 H        5.9020    -1.3810     3.9850 H     1 <1>   0.1500 
 47 H        5.7770    -4.3230     0.9140 H     1 <1>   0.1500 
 48 H        5.4180     4.4150     3.0590 H     1 <1>   0.1500 
 49 H        6.4630    -3.6290     3.1690 H     1 <1>   0.1500 
 50 H        3.4300     5.7680    -0.0950 H     1 <1>   0.1500 
 51 H        7.6360     6.4360    -0.2220 H     1 <1>   0.1500 
 52 H        5.0360     6.7550     3.7040 H     1 <1>   0.0800 
 53 H        4.4520     7.1500     2.1180 H     1 <1>   0.0800 
 54 H        3.1320     7.3030    -1.9890 H     1 <1>   0.1500 
 55 H        7.3360     7.9580    -2.1180 H     1 <1>   0.1500 
 56 H        3.1400     5.1880     4.0240 H     1 <1>   0.0800 
 57 H        2.5630     5.5580     2.4140 H     1 <1>   0.0800 
 58 H        2.5660     6.7940     3.6490 H     1 <1>   0.0800 
 59 H        5.0870     8.3910    -3.0100 H     1 <1>   0.1500 
@<TRIPOS>BOND
  1   1   2  1   
  2   1  28  1   
  3   2   3  1   
  4   2   4  1   
  5   2  29  1   
  6   3   5  1   
  7   3   6  1   
  8   3   7  1   
  9   4   8  1   
 10   4  30  1   
 11   4  31  1   
 12   5   9  1   
 13   5  32  1   
 14   5  33  1   
 15   6  10  1   
 16   6  34  1   
 17   6  35  1   
 18   7  11  1   
 19   7  36  1   
 20   7  37  1   
 21   8   9  1   
 22   8  38  1   
 23   8  39  1   
 24   9  12  1   
 25   9  40  1   
 26  10  41  1   
 27  11  13  ar  
 28  11  14  ar  
 29  12  15  1   
 30  12  42  1   
 31  12  43  1   
 32  13  16  ar  
 33  13  44  1   
 34  14  17  ar  
 35  14  45  1   
 36  15  18  1   
 37  15  19  2   
 38  16  20  ar  
 39  16  46  1   
 40  17  20  ar  
 41  17  47  1   
 42  18  21  ar  
 43  18  22  ar  
 44  19  23  1   
 45  19  48  1   
 46  20  49  1   
 47  21  24  ar  
 48  21  50  1   
 49  22  25  ar  
 50  22  51  1   
 51  23  26  1   
 52  23  52  1   
 53  23  53  1   
 54  24  27  ar  
 55  24  54  1   
 56  25  27  ar  
 57  25  55  1   
 58  26  56  1   
 59  26  57  1   
 60  26  58  1   
 61  27  59  1   
@<TRIPOS>SUBSTRUCTURE
  1 ****   9 GROUP 4 **** **** 0

# MOE 2024.06 (io_trps.svl 2023.06)
