@<TRIPOS>MOLECULE
NONAME
54 56 1 0 0 
SMALL
USER_CHARGES


@<TRIPOS>ATOM
  1 O        3.5460     2.0610     1.7200 O.co2 1 <1>  -0.9000 
  2 C        3.3080     0.9080     1.3660 C.2   1 <1>   0.9060 
  3 O        3.7800    -0.0570     1.9760 O.co2 1 <1>  -0.9000 
  4 C        2.7260     0.6740    -0.0410 C.3   1 <1>  -0.1060 
  5 C        3.8170    -0.1090    -0.7920 C.3   1 <1>   0.4230 
  6 C        2.5010     2.0180    -0.8060 C.3   1 <1>  -0.1600 
  7 C        1.3830    -0.1010    -0.0090 C.3   1 <1>  -0.1600 
  8 N        3.9310    -1.5040    -0.2270 N.4   1 <1>  -0.9590 
  9 C        5.1570     0.7070    -0.7580 C.3   1 <1>   0.3430 
 10 C        3.7750     2.7760    -1.2300 C.3   1 <1>   0.3430 
 11 C        1.5550    -1.5610     0.4340 C.3   1 <1>  -0.1600 
 12 C        2.6630    -2.2750    -0.3390 C.3   1 <1>   0.3430 
 13 C        5.1050    -2.3160    -0.6580 C.3   1 <1>   0.2630 
 14 N        4.9880     2.1960    -0.5940 N.4   1 <1>  -0.9590 
 15 C        6.2350     2.9660    -0.8500 C.3   1 <1>   0.4860 
 16 C        6.0770     4.3680    -0.3100 C.ar  1 <1>  -0.1430 
 17 C        6.1980     4.5740     1.0560 C.ar  1 <1>   0.0830 
 18 C        5.8070     5.4400    -1.1460 C.ar  1 <1>  -0.1500 
 19 O        6.4760     3.4930     1.8270 O.3   1 <1>  -0.3620 
 20 C        6.0350     5.8490     1.5840 C.ar  1 <1>  -0.1500 
 21 C        5.6400     6.7130    -0.6260 C.ar  1 <1>   0.0830 
 22 C        5.9090     3.4050     3.1200 C.3   1 <1>   0.0400 
 23 C        5.7550     6.9160     0.7470 C.ar  1 <1>  -0.1500 
 24 O        5.3680     7.6980    -1.5190 O.3   1 <1>  -0.3620 
 25 C        5.2280     9.0390    -1.1030 C.3   1 <1>   0.0400 
 26 H        3.5120    -0.1910    -1.8210 H     1 <1>   0.0800 
 27 H        1.9150     2.6750    -0.1850 H     1 <1>   0.0800 
 28 H        1.9180     1.8520    -1.6950 H     1 <1>   0.0800 
 29 H        0.6980     0.3950     0.6600 H     1 <1>   0.0800 
 30 H        0.9350    -0.1010    -0.9880 H     1 <1>   0.0800 
 31 H        4.0170    -1.3060     0.8100 H     1 <1>   0.4500 
 32 H        5.7020     0.5050    -1.6640 H     1 <1>   0.0800 
 33 H        5.7390     0.3520     0.0770 H     1 <1>   0.0800 
 34 H        3.6730     3.8100    -0.9360 H     1 <1>   0.0800 
 35 H        3.8760     2.7430    -2.3020 H     1 <1>   0.0800 
 36 H        0.6280    -2.0880     0.2900 H     1 <1>   0.0800 
 37 H        1.7760    -1.6020     1.4880 H     1 <1>   0.0800 
 38 H        2.3810    -2.3740    -1.3740 H     1 <1>   0.0800 
 39 H        2.7950    -3.2630     0.0740 H     1 <1>   0.0800 
 40 H        5.0670    -2.5040    -1.7180 H     1 <1>   0.0800 
 41 H        5.1060    -3.2620    -0.1400 H     1 <1>   0.0800 
 42 H        6.0250    -1.8070    -0.4200 H     1 <1>   0.0800 
 43 H        4.7900     2.3550     0.4360 H     1 <1>   0.4500 
 44 H        7.0630     2.4970    -0.3420 H     1 <1>   0.0800 
 45 H        6.4490     2.9980    -1.9040 H     1 <1>   0.0800 
 46 H        5.7180     5.3130    -2.2100 H     1 <1>   0.1500 
 47 H        6.1290     6.0170     2.6410 H     1 <1>   0.1500 
 48 H        5.9440     2.3780     3.4350 H     1 <1>   0.0800 
 49 H        4.8820     3.7270     3.0800 H     1 <1>   0.0800 
 50 H        6.4750     4.0200     3.7960 H     1 <1>   0.0800 
 51 H        5.6320     7.8900     1.1800 H     1 <1>   0.1500 
 52 H        5.0350     9.6400    -1.9730 H     1 <1>   0.0800 
 53 H        6.1420     9.3570    -0.6340 H     1 <1>   0.0800 
 54 H        4.3990     9.1090    -0.4210 H     1 <1>   0.0800 
@<TRIPOS>BOND
  1   1   2  ar  
  2   2   3  ar  
  3   2   4  1   
  4   4   5  1   
  5   4   6  1   
  6   4   7  1   
  7   5   8  1   
  8   5   9  1   
  9   5  26  1   
 10   6  10  1   
 11   6  27  1   
 12   6  28  1   
 13   7  11  1   
 14   7  29  1   
 15   7  30  1   
 16   8  12  1   
 17   8  13  1   
 18   8  31  1   
 19   9  14  1   
 20   9  32  1   
 21   9  33  1   
 22  10  14  1   
 23  10  34  1   
 24  10  35  1   
 25  11  12  1   
 26  11  36  1   
 27  11  37  1   
 28  12  38  1   
 29  12  39  1   
 30  13  40  1   
 31  13  41  1   
 32  13  42  1   
 33  14  15  1   
 34  14  43  1   
 35  15  16  1   
 36  15  44  1   
 37  15  45  1   
 38  16  17  ar  
 39  16  18  ar  
 40  17  19  1   
 41  17  20  ar  
 42  18  21  ar  
 43  18  46  1   
 44  19  22  1   
 45  20  23  ar  
 46  20  47  1   
 47  21  23  ar  
 48  21  24  1   
 49  22  48  1   
 50  22  49  1   
 51  22  50  1   
 52  23  51  1   
 53  24  25  1   
 54  25  52  1   
 55  25  53  1   
 56  25  54  1   
@<TRIPOS>SUBSTRUCTURE
  1 ****  14 GROUP 4 **** **** 0

# MOE 2024.06 (io_trps.svl 2023.06)
