@<TRIPOS>MOLECULE
NONAME
52 54 1 0 0 
SMALL
USER_CHARGES


@<TRIPOS>ATOM
  1 O        0.9220    -2.3960     2.6360 O.2   1 <1>  -0.5700 
  2 C        1.6920    -2.9410     1.8830 C.2   1 <1>   0.5690 
  3 N        1.6820    -4.2870     1.6380 N.am  1 <1>  -0.6600 
  4 C        2.7390    -2.1050     1.1750 C.3   1 <1>  -0.0990 
  5 C        2.6700    -4.9000     0.7190 C.3   1 <1>   0.1400 
  6 C        0.7220    -5.2110     2.3030 C.3   1 <1>   0.0600 
  7 C        2.8540    -2.5080    -0.3070 C.3   1 <1>  -0.0800 
  8 C        2.8240    -4.0360    -0.5490 C.3   1 <1>  -0.0800 
  9 C        4.1300    -1.9820    -0.9770 C.3   1 <1>  -0.1600 
 10 C        4.0930    -4.3660    -1.3480 C.3   1 <1>  -0.1600 
 11 C        4.4790    -3.0460    -2.0130 C.3   1 <1>   0.4230 
 12 N        5.8940    -2.9880    -2.4600 N.4   1 <1>  -0.9590 
 13 C        6.9240    -3.1200    -1.3900 C.3   1 <1>   0.5230 
 14 C        6.1860    -3.8530    -3.6360 C.3   1 <1>   0.2630 
 15 C        7.6360    -1.7760    -1.2850 C.2   1 <1>   0.0070 
 16 N        7.3790    -0.7750    -2.0750 N.2   1 <1>  -0.5650 
 17 N        8.5920    -1.5080    -0.3580 N.pl3 1 <1>   0.0480 
 18 C        8.2080     0.1940    -1.6460 C.2   1 <1>   0.0770 
 19 C        8.9500    -0.2350    -0.6050 C.2   1 <1>  -0.3020 
 20 C        9.1870    -2.3710     0.6900 C.3   1 <1>   0.0960 
 21 C        8.2820    -2.4840     1.9200 C.3   1 <1>   0.1200 
 22 O        7.1090    -3.1620     1.5820 O.3   1 <1>  -0.5600 
 23 C        6.2540    -3.3470     2.6680 C.3   1 <1>   0.0400 
 24 H        2.4780    -1.0650     1.2550 H     1 <1>   0.0800 
 25 H        3.6690    -2.2550     1.6870 H     1 <1>   0.0800 
 26 H        3.6080    -4.9780     1.2400 H     1 <1>   0.0800 
 27 H        2.3530    -5.8920     0.4450 H     1 <1>   0.0800 
 28 H        1.2590    -5.9460     2.8750 H     1 <1>   0.0800 
 29 H        0.1190    -5.7050     1.5620 H     1 <1>   0.0800 
 30 H        0.0710    -4.6670     2.9670 H     1 <1>   0.0800 
 31 H        2.0020    -2.0890    -0.8190 H     1 <1>   0.0800 
 32 H        1.9710    -4.2430    -1.1760 H     1 <1>   0.0800 
 33 H        4.9050    -1.8840    -0.2400 H     1 <1>   0.0800 
 34 H        3.9600    -1.0250    -1.4390 H     1 <1>   0.0800 
 35 H        3.8990    -5.1340    -2.0760 H     1 <1>   0.0800 
 36 H        4.8630    -4.6940    -0.6740 H     1 <1>   0.0800 
 37 H        3.8320    -2.8970    -2.8630 H     1 <1>   0.0800 
 38 H        6.0670    -2.0010    -2.7460 H     1 <1>   0.4500 
 39 H        6.4550    -3.3610    -0.4550 H     1 <1>   0.0800 
 40 H        7.6350    -3.8900    -1.6340 H     1 <1>   0.0800 
 41 H        6.0840    -4.8930    -3.3720 H     1 <1>   0.0800 
 42 H        7.1910    -3.6780    -3.9850 H     1 <1>   0.0800 
 43 H        5.5030    -3.6310    -4.4390 H     1 <1>   0.0800 
 44 H        8.2310     1.1660    -2.1140 H     1 <1>   0.1500 
 45 H        9.7000     0.2940    -0.0440 H     1 <1>   0.1500 
 46 H        9.3840    -3.3480     0.2880 H     1 <1>   0.0800 
 47 H       10.1270    -1.9410     0.9860 H     1 <1>   0.0800 
 48 H        8.0300    -1.5050     2.2940 H     1 <1>   0.0800 
 49 H        8.7870    -3.0410     2.6910 H     1 <1>   0.0800 
 50 H        5.3890    -3.8900     2.3330 H     1 <1>   0.0800 
 51 H        5.9530    -2.3880     3.0540 H     1 <1>   0.0800 
 52 H        6.7590    -3.9160     3.4310 H     1 <1>   0.0800 
@<TRIPOS>BOND
  1   1   2  2   
  2   2   3  am  
  3   2   4  1   
  4   3   5  1   
  5   3   6  1   
  6   4   7  1   
  7   4  24  1   
  8   4  25  1   
  9   5   8  1   
 10   5  26  1   
 11   5  27  1   
 12   6  28  1   
 13   6  29  1   
 14   6  30  1   
 15   7   8  1   
 16   7   9  1   
 17   7  31  1   
 18   8  10  1   
 19   8  32  1   
 20   9  11  1   
 21   9  33  1   
 22   9  34  1   
 23  10  11  1   
 24  10  35  1   
 25  10  36  1   
 26  11  12  1   
 27  11  37  1   
 28  12  13  1   
 29  12  14  1   
 30  12  38  1   
 31  13  15  1   
 32  13  39  1   
 33  13  40  1   
 34  14  41  1   
 35  14  42  1   
 36  14  43  1   
 37  15  16  2   
 38  15  17  1   
 39  16  18  1   
 40  17  19  1   
 41  17  20  1   
 42  18  19  2   
 43  18  44  1   
 44  19  45  1   
 45  20  21  1   
 46  20  46  1   
 47  20  47  1   
 48  21  22  1   
 49  21  48  1   
 50  21  49  1   
 51  22  23  1   
 52  23  50  1   
 53  23  51  1   
 54  23  52  1   
@<TRIPOS>SUBSTRUCTURE
  1 ****   9 GROUP 4 **** **** 0

# MOE 2024.06 (io_trps.svl 2023.06)
