@<TRIPOS>MOLECULE
NONAME
48 50 1 0 0 
SMALL
USER_CHARGES


@<TRIPOS>ATOM
  1 CL       2.0590     2.6100     0.3510 Cl    1 <1>  -0.1770 
  2 C        0.3530     2.3960     0.6610 C.ar  1 <1>   0.1770 
  3 C       -0.5940     3.1040    -0.0750 C.ar  1 <1>  -0.1440 
  4 C       -0.0160     1.5060     1.6520 C.ar  1 <1>  -0.1500 
  5 C       -1.9430     2.9110     0.2030 C.ar  1 <1>  -0.1500 
  6 C       -0.1780     4.0900    -1.1670 C.3   1 <1>   0.0450 
  7 C       -1.3630     1.3360     1.8960 C.ar  1 <1>   0.1900 
  8 C       -2.3350     2.0220     1.1920 C.ar  1 <1>  -0.1500 
  9 C        0.2080     5.4600    -0.6130 C.2   1 <1>   0.5690 
 10 F       -1.7330     0.4970     2.8260 F     1 <1>  -0.1900 
 11 O       -0.4620     5.9010     0.2920 O.2   1 <1>  -0.5700 
 12 N        1.2590     6.1820    -1.1290 N.am  1 <1>  -0.6600 
 13 C        2.0880     5.8250    -2.3260 C.3   1 <1>   0.1400 
 14 C        1.6830     7.4530    -0.4780 C.3   1 <1>   0.1400 
 15 C        3.4630     5.2570    -1.9400 C.3   1 <1>   0.1400 
 16 C        2.6610     7.1840     0.6730 C.3   1 <1>  -0.1600 
 17 N        4.2100     6.1650    -1.0150 N.am  1 <1>  -0.6600 
 18 C        3.7290     6.1160     0.3970 C.3   1 <1>   0.1400 
 19 C        5.2530     6.9360    -1.4650 C.2   1 <1>   0.5690 
 20 O        5.5670     6.9440    -2.6340 O.2   1 <1>  -0.5700 
 21 C        6.0510     7.8260    -0.5310 C.3   1 <1>   0.0440 
 22 C        6.9860     7.0180     0.3510 C.ar  1 <1>   0.1670 
 23 N        6.9220     7.2620     1.6530 N.ar  1 <1>  -0.6200 
 24 C        7.8440     6.0900    -0.2220 C.ar  1 <1>  -0.1500 
 25 C        7.7410     6.5500     2.4100 C.ar  1 <1>   0.1600 
 26 C        8.6890     5.3540     0.5800 C.ar  1 <1>  -0.1500 
 27 C        8.6270     5.5990     1.9350 C.ar  1 <1>  -0.1500 
 28 H        0.7210     0.9640     2.2140 H     1 <1>   0.1500 
 29 H       -2.6940     3.4580    -0.3420 H     1 <1>   0.1500 
 30 H       -0.9910     4.2330    -1.8530 H     1 <1>   0.0800 
 31 H        0.6330     3.6580    -1.7170 H     1 <1>   0.0800 
 32 H       -3.3740     1.8650     1.4170 H     1 <1>   0.1500 
 33 H        2.2410     6.7070    -2.9240 H     1 <1>   0.0800 
 34 H        1.5710     5.1200    -2.9500 H     1 <1>   0.0800 
 35 H        0.8210     7.9790    -0.1020 H     1 <1>   0.0800 
 36 H        2.1560     8.0890    -1.2060 H     1 <1>   0.0800 
 37 H        4.0350     5.0980    -2.8390 H     1 <1>   0.0800 
 38 H        3.3380     4.2960    -1.4760 H     1 <1>   0.0800 
 39 H        2.0970     6.8790     1.5360 H     1 <1>   0.0800 
 40 H        3.1440     8.1080     0.9340 H     1 <1>   0.0800 
 41 H        3.3010     5.1460     0.5860 H     1 <1>   0.0800 
 42 H        4.5470     6.2310     1.0850 H     1 <1>   0.0800 
 43 H        5.3790     8.4060     0.0700 H     1 <1>   0.0800 
 44 H        6.6380     8.5120    -1.1120 H     1 <1>   0.0800 
 45 H        7.8520     5.9420    -1.2880 H     1 <1>   0.1500 
 46 H        7.7040     6.7340     3.4710 H     1 <1>   0.1500 
 47 H        9.3640     4.6250     0.1670 H     1 <1>   0.1500 
 48 H        9.2590     5.0600     2.6170 H     1 <1>   0.1500 
@<TRIPOS>BOND
  1   1   2  1   
  2   2   3  ar  
  3   2   4  ar  
  4   3   5  ar  
  5   3   6  1   
  6   4   7  ar  
  7   4  28  1   
  8   5   8  ar  
  9   5  29  1   
 10   6   9  1   
 11   6  30  1   
 12   6  31  1   
 13   7   8  ar  
 14   7  10  1   
 15   8  32  1   
 16   9  11  2   
 17   9  12  am  
 18  12  13  1   
 19  12  14  1   
 20  13  15  1   
 21  13  33  1   
 22  13  34  1   
 23  14  16  1   
 24  14  35  1   
 25  14  36  1   
 26  15  17  1   
 27  15  37  1   
 28  15  38  1   
 29  16  18  1   
 30  16  39  1   
 31  16  40  1   
 32  17  18  1   
 33  17  19  am  
 34  18  41  1   
 35  18  42  1   
 36  19  20  2   
 37  19  21  1   
 38  21  22  1   
 39  21  43  1   
 40  21  44  1   
 41  22  23  ar  
 42  22  24  ar  
 43  23  25  ar  
 44  24  26  ar  
 45  24  45  1   
 46  25  27  ar  
 47  25  46  1   
 48  26  27  ar  
 49  26  47  1   
 50  27  48  1   
@<TRIPOS>SUBSTRUCTURE
  1 ****  18 GROUP 4 **** **** 0

# MOE 2024.06 (io_trps.svl 2023.06)
