@<TRIPOS>MOLECULE
NONAME
61 65 1 0 0 
SMALL
USER_CHARGES


@<TRIPOS>ATOM
  1 O        0.6420     0.2740    -1.2390 O.3   1 <1>  -0.5600 
  2 C        1.3270    -0.4080    -0.2530 C.3   1 <1>   0.2800 
  3 C       -0.4610     0.7050    -0.5350 C.3   1 <1>   0.2000 
  4 C        1.5510     0.7410     0.7170 C.3   1 <1>  -0.0800 
  5 C        2.7070    -0.8860    -0.7220 C.3   1 <1>   0.3430 
  6 C        0.2840    -1.4160     0.2310 C.3   1 <1>  -0.1600 
  7 C        0.2180     1.5300     0.5750 C.3   1 <1>  -0.0800 
  8 C       -1.0040    -0.6180     0.0170 C.3   1 <1>  -0.1600 
  9 C        2.8440     1.3510     0.1560 C.3   1 <1>   0.3430 
 10 N        3.6670     0.2060    -0.3460 N.4   1 <1>  -0.9590 
 11 C        0.3610     3.0130     0.1780 C.3   1 <1>   0.3430 
 12 C        4.5900     0.5700    -1.4660 C.3   1 <1>   0.4860 
 13 N       -0.7890     3.8570     0.6480 N.4   1 <1>  -0.9590 
 14 C        5.3370     1.8380    -1.0980 C.ar  1 <1>  -0.1440 
 15 C       -2.0970     3.4880    -0.0060 C.3   1 <1>   0.3430 
 16 C       -0.4760     5.3080     0.4280 C.3   1 <1>   0.2630 
 17 C        6.2850     1.8640    -0.0480 C.ar  1 <1>   0.0000 
 18 C        5.0830     3.0050    -1.7600 C.ar  1 <1>  -0.1500 
 19 C       -3.3080     4.2140     0.5930 C.3   1 <1>   0.1200 
 20 C        6.8300     3.1220     0.3060 C.ar  1 <1>   0.3100 
 21 C        6.7250     0.7230     0.6640 C.ar  1 <1>  -0.1500 
 22 C        5.7090     4.1890    -1.3550 C.ar  1 <1>   0.1600 
 23 O       -4.4350     3.6300     0.0380 O.3   1 <1>  -0.5600 
 24 N        6.5220     4.2660    -0.3520 N.ar  1 <1>  -0.6200 
 25 C        7.7280     3.1940     1.3820 C.ar  1 <1>  -0.1500 
 26 C        7.6090     0.8280     1.7030 C.ar  1 <1>  -0.1500 
 27 C       -5.6430     4.1800     0.4660 C.3   1 <1>   0.0400 
 28 C        8.1110     2.0780     2.0740 C.ar  1 <1>  -0.1500 
 29 H       -1.1460     1.2290    -1.1800 H     1 <1>   0.0800 
 30 H        1.7110     0.3830     1.7190 H     1 <1>   0.0800 
 31 H        2.6850    -1.0610    -1.7850 H     1 <1>   0.0800 
 32 H        2.9710    -1.7980    -0.2130 H     1 <1>   0.0800 
 33 H        0.2900    -2.2990    -0.3850 H     1 <1>   0.0800 
 34 H        0.4330    -1.6950     1.2600 H     1 <1>   0.0800 
 35 H       -0.3390     1.4580     1.4930 H     1 <1>   0.0800 
 36 H       -1.5710    -0.4870     0.9220 H     1 <1>   0.0800 
 37 H       -1.6290    -1.0930    -0.7210 H     1 <1>   0.0800 
 38 H        3.3790     1.9230     0.8990 H     1 <1>   0.0800 
 39 H        2.6020     1.9920    -0.6760 H     1 <1>   0.0800 
 40 H        4.2520    -0.1130     0.4380 H     1 <1>   0.4500 
 41 H        0.4650     3.0920    -0.8930 H     1 <1>   0.0800 
 42 H        1.2610     3.4000     0.6260 H     1 <1>   0.0800 
 43 H        5.2910    -0.2280    -1.6530 H     1 <1>   0.0800 
 44 H        4.0230     0.7400    -2.3660 H     1 <1>   0.0800 
 45 H       -0.9010     3.7110     1.6630 H     1 <1>   0.4500 
 46 H       -2.0530     3.7000    -1.0610 H     1 <1>   0.0800 
 47 H       -2.2730     2.4330     0.1200 H     1 <1>   0.0800 
 48 H       -0.3860     5.5180    -0.6260 H     1 <1>   0.0800 
 49 H        0.4510     5.5720     0.9120 H     1 <1>   0.0800 
 50 H       -1.2560     5.9300     0.8350 H     1 <1>   0.0800 
 51 H        4.4050     3.0590    -2.5940 H     1 <1>   0.1500 
 52 H       -3.3050     5.2590     0.3350 H     1 <1>   0.0800 
 53 H       -3.3520     4.0810     1.6600 H     1 <1>   0.0800 
 54 H        6.3830    -0.2550     0.3860 H     1 <1>   0.1500 
 55 H        5.4960     5.0940    -1.9020 H     1 <1>   0.1500 
 56 H        8.1140     4.1640     1.6420 H     1 <1>   0.1500 
 57 H        7.9410    -0.0420     2.2460 H     1 <1>   0.1500 
 58 H       -6.4440     3.6520    -0.0230 H     1 <1>   0.0800 
 59 H       -5.6810     5.2210     0.1950 H     1 <1>   0.0800 
 60 H       -5.7350     4.0610     1.5330 H     1 <1>   0.0800 
 61 H        8.8040     2.1490     2.8960 H     1 <1>   0.1500 
@<TRIPOS>BOND
  1   1   2  1   
  2   1   3  1   
  3   2   4  1   
  4   2   5  1   
  5   2   6  1   
  6   3   7  1   
  7   3   8  1   
  8   3  29  1   
  9   4   7  1   
 10   4   9  1   
 11   4  30  1   
 12   5  10  1   
 13   5  31  1   
 14   5  32  1   
 15   6   8  1   
 16   6  33  1   
 17   6  34  1   
 18   7  11  1   
 19   7  35  1   
 20   8  36  1   
 21   8  37  1   
 22   9  10  1   
 23   9  38  1   
 24   9  39  1   
 25  10  12  1   
 26  10  40  1   
 27  11  13  1   
 28  11  41  1   
 29  11  42  1   
 30  12  14  1   
 31  12  43  1   
 32  12  44  1   
 33  13  15  1   
 34  13  16  1   
 35  13  45  1   
 36  14  17  ar  
 37  14  18  ar  
 38  15  19  1   
 39  15  46  1   
 40  15  47  1   
 41  16  48  1   
 42  16  49  1   
 43  16  50  1   
 44  17  20  ar  
 45  17  21  ar  
 46  18  22  ar  
 47  18  51  1   
 48  19  23  1   
 49  19  52  1   
 50  19  53  1   
 51  20  24  ar  
 52  20  25  ar  
 53  21  26  ar  
 54  21  54  1   
 55  22  24  ar  
 56  22  55  1   
 57  23  27  1   
 58  25  28  ar  
 59  25  56  1   
 60  26  28  ar  
 61  26  57  1   
 62  27  58  1   
 63  27  59  1   
 64  27  60  1   
 65  28  61  1   
@<TRIPOS>SUBSTRUCTURE
  1 ****   9 GROUP 4 **** **** 0

# MOE 2024.06 (io_trps.svl 2023.06)
