@<TRIPOS>MOLECULE
NONAME
49 50 1 0 0 
SMALL
USER_CHARGES


@<TRIPOS>ATOM
  1 O        0.5130    -1.9220     0.5570 O.2   1 <1>  -0.5700 
  2 C        0.9690    -3.0510     0.5420 C.2   1 <1>   0.7150 
  3 N        2.3310    -3.2020     0.5870 N.am  1 <1>  -0.7300 
  4 C        0.1180    -4.2220     0.4770 C.2   1 <1>   0.0550 
  5 C        3.3300    -2.1030     0.6540 C.3   1 <1>   0.0600 
  6 O       -1.2080    -4.1120     0.4860 O.3   1 <1>  -0.2800 
  7 C        0.4300    -5.5470     0.4030 C.2   1 <1>  -0.1500 
  8 C       -1.7470    -5.3090     0.4200 C.2   1 <1>  -0.0400 
  9 C       -0.7760    -6.2480     0.3660 C.2   1 <1>  -0.1500 
 10 C       -3.2630    -5.4170     0.4180 C.3   1 <1>   0.3200 
 11 N       -3.6810    -6.7870     0.0520 N.am  1 <1>  -0.7300 
 12 C       -4.4520    -7.6050     0.8150 C.2   1 <1>   0.5690 
 13 O       -4.9420    -7.2220     1.8520 O.2   1 <1>  -0.5700 
 14 C       -4.6840    -9.0590     0.3680 C.3   1 <1>   0.2610 
 15 O       -3.5380    -9.5530    -0.3210 O.3   1 <1>  -0.3630 
 16 C       -5.9080    -9.2110    -0.5700 C.3   1 <1>  -0.0800 
 17 C       -2.3360    -9.7500     0.2860 C.ar  1 <1>   0.0820 
 18 C       -7.2130    -8.7690     0.1120 C.3   1 <1>  -0.2400 
 19 C       -6.0780   -10.6590    -1.0650 C.3   1 <1>  -0.2400 
 20 C       -1.2670   -10.1250    -0.5250 C.ar  1 <1>  -0.1430 
 21 C       -2.1350    -9.5820     1.6550 C.ar  1 <1>  -0.1500 
 22 C       -0.0150   -10.3170     0.0360 C.ar  1 <1>  -0.1500 
 23 C       -1.4610   -10.3260    -2.0220 C.3   1 <1>  -0.0970 
 24 C       -0.8810    -9.7750     2.2030 C.ar  1 <1>  -0.1500 
 25 C        0.1800   -10.1420     1.3950 C.ar  1 <1>  -0.1500 
 26 H        2.7050    -4.1500     0.5940 H     1 <1>   0.3700 
 27 H        2.8390    -1.1440     0.6400 H     1 <1>   0.0800 
 28 H        3.9940    -2.1630    -0.1910 H     1 <1>   0.0800 
 29 H        3.9010    -2.1850     1.5620 H     1 <1>   0.0800 
 30 H        1.4010    -6.0070     0.3760 H     1 <1>   0.1500 
 31 H       -0.8750    -7.3180     0.3130 H     1 <1>   0.1500 
 32 H       -3.6660    -4.7250    -0.3000 H     1 <1>   0.0800 
 33 H       -3.6410    -5.1530     1.3910 H     1 <1>   0.0800 
 34 H       -3.1810    -7.1960    -0.7400 H     1 <1>   0.3700 
 35 H       -4.8360    -9.6760     1.2350 H     1 <1>   0.0800 
 36 H       -5.7520    -8.5750    -1.4250 H     1 <1>   0.0800 
 37 H       -7.3930    -9.3490     1.0010 H     1 <1>   0.0800 
 38 H       -8.0480    -8.8980    -0.5540 H     1 <1>   0.0800 
 39 H       -7.1710    -7.7300     0.3870 H     1 <1>   0.0800 
 40 H       -6.2090   -11.3300    -0.2350 H     1 <1>   0.0800 
 41 H       -5.2150   -10.9740    -1.6250 H     1 <1>   0.0800 
 42 H       -6.9360   -10.7370    -1.7100 H     1 <1>   0.0800 
 43 H       -2.9340    -9.2980     2.3140 H     1 <1>   0.1500 
 44 H        0.8170   -10.6070    -0.5810 H     1 <1>   0.1500 
 45 H       -2.2200   -11.0680    -2.1930 H     1 <1>   0.0800 
 46 H       -0.5520   -10.6530    -2.4920 H     1 <1>   0.0800 
 47 H       -1.7720    -9.4030    -2.4770 H     1 <1>   0.0800 
 48 H       -0.7300    -9.6410     3.2600 H     1 <1>   0.1500 
 49 H        1.1550   -10.2940     1.8230 H     1 <1>   0.1500 
@<TRIPOS>BOND
  1   1   2  2   
  2   2   3  am  
  3   2   4  1   
  4   3   5  1   
  5   3  26  1   
  6   4   6  1   
  7   4   7  2   
  8   5  27  1   
  9   5  28  1   
 10   5  29  1   
 11   6   8  1   
 12   7   9  1   
 13   7  30  1   
 14   8   9  2   
 15   8  10  1   
 16   9  31  1   
 17  10  11  1   
 18  10  32  1   
 19  10  33  1   
 20  11  12  am  
 21  11  34  1   
 22  12  13  2   
 23  12  14  1   
 24  14  15  1   
 25  14  16  1   
 26  14  35  1   
 27  15  17  1   
 28  16  18  1   
 29  16  19  1   
 30  16  36  1   
 31  17  20  ar  
 32  17  21  ar  
 33  18  37  1   
 34  18  38  1   
 35  18  39  1   
 36  19  40  1   
 37  19  41  1   
 38  19  42  1   
 39  20  22  ar  
 40  20  23  1   
 41  21  24  ar  
 42  21  43  1   
 43  22  25  ar  
 44  22  44  1   
 45  23  45  1   
 46  23  46  1   
 47  23  47  1   
 48  24  25  ar  
 49  24  48  1   
 50  25  49  1   
@<TRIPOS>SUBSTRUCTURE
  1 ****   9 GROUP 4 **** **** 0

# MOE 2024.06 (io_trps.svl 2023.06)
