@<TRIPOS>MOLECULE
NONAME
37 38 1 0 0 
SMALL
USER_CHARGES


@<TRIPOS>ATOM
  1 S        0.0540    -0.1080     0.0150 S.3   1 <1>  -0.0800 
  2 C       -1.5610    -0.7380    -0.0010 C.2   1 <1>   0.4420 
  3 C       -0.6390     1.4770     0.0050 C.2   1 <1>   0.1980 
  4 N       -2.4420     0.1950    -0.0120 N.2   1 <1>  -0.3380 
  5 N       -1.6820    -2.1100     0.0010 N.am  1 <1>  -0.4940 
  6 N       -1.9100     1.4540    -0.0090 N.2   1 <1>  -0.3380 
  7 C        0.3100     2.6590     0.0130 C.3   1 <1>   0.0200 
  8 C       -2.8030    -2.8970    -0.0100 C.2   1 <1>   0.7150 
  9 C       -0.4490     3.9840     0.0030 C.3   1 <1>   0.1200 
 10 O       -3.9050    -2.3920    -0.0250 O.2   1 <1>  -0.5700 
 11 C       -2.6260    -4.3280    -0.0040 C.2   1 <1>  -0.0450 
 12 O        0.4840     5.0150     0.0120 O.3   1 <1>  -0.5600 
 13 S       -4.0590    -5.3630    -0.0190 S.3   1 <1>  -0.0800 
 14 C       -1.5250    -5.1270     0.0120 C.2   1 <1>  -0.1500 
 15 C       -0.0820     6.2820     0.0040 C.3   1 <1>   0.1200 
 16 C       -3.1060    -6.8300    -0.0030 C.2   1 <1>  -0.1400 
 17 C       -1.7950    -6.5270     0.0120 C.2   1 <1>  -0.1500 
 18 C        1.0580     7.2930     0.0150 C.3   1 <1>  -0.2400 
 19 C       -3.8780    -8.1380    -0.0090 C.3   1 <1>   0.0200 
 20 C       -2.9530    -9.3580     0.0060 C.3   1 <1>  -0.2400 
 21 H       -0.8080    -2.6210     0.0120 H     1 <1>   0.3700 
 22 H        0.9400     2.6080    -0.8560 H     1 <1>   0.0800 
 23 H        0.9220     2.6110     0.8950 H     1 <1>   0.0800 
 24 H       -1.0720     4.0690     0.8780 H     1 <1>   0.0800 
 25 H       -1.0530     4.0660    -0.8850 H     1 <1>   0.0800 
 26 H       -0.5060    -4.7880     0.0230 H     1 <1>   0.1500 
 27 H       -0.6980     6.3950     0.8810 H     1 <1>   0.0800 
 28 H       -0.6790     6.3930    -0.8850 H     1 <1>   0.0800 
 29 H       -0.9930    -7.2440     0.0240 H     1 <1>   0.1500 
 30 H        1.6550     7.1650     0.9000 H     1 <1>   0.0800 
 31 H        0.6600     8.2910     0.0100 H     1 <1>   0.0800 
 32 H        1.6740     7.1630    -0.8560 H     1 <1>   0.0800 
 33 H       -4.5000    -8.1720    -0.8870 H     1 <1>   0.0800 
 34 H       -4.5210    -8.1670     0.8540 H     1 <1>   0.0800 
 35 H       -2.3180    -9.3550    -0.8620 H     1 <1>   0.0800 
 36 H       -3.5370   -10.2610     0.0020 H     1 <1>   0.0800 
 37 H       -2.3400    -9.3500     0.8900 H     1 <1>   0.0800 
@<TRIPOS>BOND
  1   1   2  1   
  2   1   3  1   
  3   2   4  2   
  4   2   5  1   
  5   3   6  2   
  6   3   7  1   
  7   4   6  1   
  8   5   8  am  
  9   5  21  1   
 10   7   9  1   
 11   7  22  1   
 12   7  23  1   
 13   8  10  2   
 14   8  11  1   
 15   9  12  1   
 16   9  24  1   
 17   9  25  1   
 18  11  13  1   
 19  11  14  2   
 20  12  15  1   
 21  13  16  1   
 22  14  17  1   
 23  14  26  1   
 24  15  18  1   
 25  15  27  1   
 26  15  28  1   
 27  16  17  2   
 28  16  19  1   
 29  17  29  1   
 30  18  30  1   
 31  18  31  1   
 32  18  32  1   
 33  19  20  1   
 34  19  33  1   
 35  19  34  1   
 36  20  35  1   
 37  20  36  1   
 38  20  37  1   
@<TRIPOS>SUBSTRUCTURE
  1 ****   2 GROUP 4 **** **** 0

# MOE 2024.06 (io_trps.svl 2023.06)
