@<TRIPOS>MOLECULE
NONAME
20 20 1 0 0 
SMALL
USER_CHARGES


@<TRIPOS>ATOM
  1 O       12.5770     5.3970    -0.0480 O.co2 1 <1>  -0.9190 
  2 C       11.5800     4.6980     0.1830 C.2   1 <1>   0.8870 
  3 O       11.6840     3.4880     0.4270 O.co2 1 <1>  -0.9190 
  4 C       10.2010     5.3480     0.2100 C.3   1 <1>  -0.3170 
  5 C        9.3800     5.1070    -1.0780 C.3   1 <1>  -0.1580 
  6 C        7.9760     5.7200    -1.0400 C.2   1 <1>   0.3800 
  7 O        7.8120     6.7740    -1.6290 O.2   1 <1>  -0.6060 
  8 C        6.9100     5.0370    -0.3710 C.3   1 <1>   0.0260 
  9 C        6.9530     3.8360     0.3480 C.2   1 <1>  -0.2070 
 10 C        5.5720     5.4450    -0.3120 C.2   1 <1>  -0.2070 
 11 C        5.6990     3.5310     0.8160 C.2   1 <1>  -0.2070 
 12 C        4.8390     4.5350     0.4050 C.2   1 <1>  -0.2070 
 13 H       10.3170     6.4070     0.3560 H     1 <1>   0.0200 
 14 H        9.6600     4.9610     1.0540 H     1 <1>   0.0200 
 15 H        9.2970     4.0480    -1.2460 H     1 <1>   0.0200 
 16 H        9.9210     5.5170    -1.9120 H     1 <1>   0.0200 
 17 H        7.8430     3.2530     0.5040 H     1 <1>   0.0930 
 18 H        5.2010     6.3440    -0.7700 H     1 <1>   0.0930 
 19 H        5.4280     2.6710     1.4000 H     1 <1>   0.0930 
 20 H        3.7860     4.5830     0.6160 H     1 <1>   0.0930 
@<TRIPOS>BOND
  1   1   2  ar  
  2   2   3  ar  
  3   2   4  1   
  4   4   5  1   
  5   4  13  1   
  6   4  14  1   
  7   5   6  1   
  8   5  15  1   
  9   5  16  1   
 10   6   7  2   
 11   6   8  1   
 12   8   9  1   
 13   8  10  1   
 14   9  11  2   
 15   9  17  1   
 16  10  12  2   
 17  10  18  1   
 18  11  12  1   
 19  11  19  1   
 20  12  20  1   
@<TRIPOS>SUBSTRUCTURE
  1 ****   6 GROUP 4 **** **** 0

# MOE 2024.06 (io_trps.svl 2023.06)
