@<TRIPOS>MOLECULE
NONAME
55 59 1 0 0 
SMALL
USER_CHARGES


@<TRIPOS>ATOM
  1 O       -1.4130     0.5850     2.3040 O.2   1 <1>  -0.5700 
  2 C       -2.3830     1.1800     1.8730 C.2   1 <1>   0.5440 
  3 N       -3.6260     0.5890     1.9810 N.am  1 <1>  -0.6600 
  4 C       -2.2000     2.4630     1.2390 C.ar  1 <1>   0.0860 
  5 C       -4.7330     0.8250     1.0140 C.3   1 <1>   0.1400 
  6 C       -3.8630    -0.5700     2.8850 C.3   1 <1>   0.1400 
  7 C       -1.1650     2.6580     0.3290 C.ar  1 <1>   0.1600 
  8 C       -3.0280     3.5530     1.4890 C.ar  1 <1>  -0.1500 
  9 C       -4.8980    -0.4220     0.1440 C.3   1 <1>  -0.1600 
 10 C       -4.0260    -1.8350     2.0430 C.3   1 <1>  -0.1600 
 11 N       -0.9170     3.7700    -0.3410 N.ar  1 <1>  -0.6200 
 12 C       -2.7810     4.7190     0.8080 C.ar  1 <1>  -0.1500 
 13 C       -5.1320    -1.6770     0.9960 C.3   1 <1>   0.4600 
 14 C       -1.7240     4.7990    -0.0980 C.ar  1 <1>   0.4100 
 15 O       -6.3390    -1.5270     1.7130 O.3   1 <1>  -0.5600 
 16 C       -5.2140    -2.9240     0.1240 C.2   1 <1>  -0.3320 
 17 N       -1.4810     5.9730    -0.7810 N.pl3 1 <1>  -0.8380 
 18 C       -7.5480    -1.8130     1.0480 C.3   1 <1>   0.1200 
 19 N       -4.1950    -3.4760    -0.6010 N.pl3 1 <1>   0.0330 
 20 C       -6.3290    -3.6620    -0.0430 C.2   1 <1>  -0.1810 
 21 C       -1.3590     7.2590    -0.0440 C.3   1 <1>   0.1290 
 22 C       -0.7790     5.9390    -2.0940 C.3   1 <1>   0.1290 
 23 C       -7.6230    -3.2930     0.6370 C.3   1 <1>   0.0210 
 24 C       -4.6830    -4.5920    -1.2380 C.ar  1 <1>  -0.1520 
 25 C       -6.0270    -4.7380    -0.9030 C.ar  1 <1>   0.0000 
 26 C       -4.0550    -5.5040    -2.0900 C.ar  1 <1>  -0.1500 
 27 C       -6.7580    -5.8090    -1.4250 C.ar  1 <1>  -0.1500 
 28 C       -4.7860    -6.5530    -2.5970 C.ar  1 <1>  -0.1500 
 29 C       -6.1380    -6.7060    -2.2650 C.ar  1 <1>  -0.1500 
 30 H       -4.5260     1.6710     0.3840 H     1 <1>   0.0800 
 31 H       -5.6430     1.0190     1.5570 H     1 <1>   0.0800 
 32 H       -4.7570    -0.3930     3.4600 H     1 <1>   0.0800 
 33 H       -3.0430    -0.6890     3.5730 H     1 <1>   0.0800 
 34 H       -0.5040     1.8280     0.1470 H     1 <1>   0.1500 
 35 H       -3.8340     3.4730     2.1970 H     1 <1>   0.1500 
 36 H       -4.0030    -0.5520    -0.4370 H     1 <1>   0.0800 
 37 H       -5.7070    -0.2880    -0.5480 H     1 <1>   0.0800 
 38 H       -4.2560    -2.6720     2.6770 H     1 <1>   0.0800 
 39 H       -3.0890    -2.0390     1.5600 H     1 <1>   0.0800 
 40 H       -3.4000     5.5830     0.9560 H     1 <1>   0.1500 
 41 H       -7.6200    -1.1820     0.1810 H     1 <1>   0.0800 
 42 H       -8.3550    -1.5730     1.7180 H     1 <1>   0.0800 
 43 H       -3.2280    -3.1420    -0.6550 H     1 <1>   0.2700 
 44 H       -1.5560     7.1160     1.0040 H     1 <1>   0.0800 
 45 H       -2.0620     7.9700    -0.4410 H     1 <1>   0.0800 
 46 H       -0.3620     7.6490    -0.1510 H     1 <1>   0.0800 
 47 H       -1.0590     5.0530    -2.6380 H     1 <1>   0.0800 
 48 H        0.2850     5.9270    -1.9360 H     1 <1>   0.0800 
 49 H       -1.0470     6.8010    -2.6780 H     1 <1>   0.0800 
 50 H       -8.4500    -3.4420    -0.0320 H     1 <1>   0.0800 
 51 H       -7.7650    -3.9090     1.5060 H     1 <1>   0.0800 
 52 H       -3.0160    -5.3800    -2.3390 H     1 <1>   0.1500 
 53 H       -7.7930    -5.9150    -1.1600 H     1 <1>   0.1500 
 54 H       -4.3250    -7.2680    -3.2550 H     1 <1>   0.1500 
 55 H       -6.6870    -7.5350    -2.6740 H     1 <1>   0.1500 
@<TRIPOS>BOND
  1   1   2  2   
  2   2   3  am  
  3   2   4  1   
  4   3   5  1   
  5   3   6  1   
  6   4   7  ar  
  7   4   8  ar  
  8   5   9  1   
  9   5  30  1   
 10   5  31  1   
 11   6  10  1   
 12   6  32  1   
 13   6  33  1   
 14   7  11  ar  
 15   7  34  1   
 16   8  12  ar  
 17   8  35  1   
 18   9  13  1   
 19   9  36  1   
 20   9  37  1   
 21  10  13  1   
 22  10  38  1   
 23  10  39  1   
 24  11  14  ar  
 25  12  14  ar  
 26  12  40  1   
 27  13  15  1   
 28  13  16  1   
 29  14  17  1   
 30  15  18  1   
 31  16  19  1   
 32  16  20  2   
 33  17  21  1   
 34  17  22  1   
 35  18  23  1   
 36  18  41  1   
 37  18  42  1   
 38  19  24  1   
 39  19  43  1   
 40  20  23  1   
 41  20  25  1   
 42  21  44  1   
 43  21  45  1   
 44  21  46  1   
 45  22  47  1   
 46  22  48  1   
 47  22  49  1   
 48  23  50  1   
 49  23  51  1   
 50  24  25  ar  
 51  24  26  ar  
 52  25  27  ar  
 53  26  28  ar  
 54  26  52  1   
 55  27  29  ar  
 56  27  53  1   
 57  28  29  ar  
 58  28  54  1   
 59  29  55  1   
@<TRIPOS>SUBSTRUCTURE
  1 ****   9 GROUP 4 **** **** 0

# MOE 2024.06 (io_trps.svl 2023.06)
