@<TRIPOS>MOLECULE
NONAME
54 58 1 0 0 
SMALL
USER_CHARGES


@<TRIPOS>ATOM
  1 O       -1.2750    -1.3660     1.5220 O.2   1 <1>  -0.5700 
  2 C       -2.2520    -1.3360     0.7970 C.2   1 <1>   0.5440 
  3 N       -2.8120    -2.5230     0.3820 N.am  1 <1>  -0.6600 
  4 C       -2.7880    -0.0570     0.3750 C.ar  1 <1>   0.0860 
  5 C       -2.5390    -3.7900     1.1450 C.3   1 <1>   0.2200 
  6 C       -3.5480    -2.6170    -0.9140 C.3   1 <1>   0.1400 
  7 C       -1.9610     0.9430    -0.1110 C.ar  1 <1>  -0.1500 
  8 C       -4.1750     0.2060     0.4580 C.ar  1 <1>  -0.1500 
  9 C       -1.3530    -4.5590     0.5310 C.3   1 <1>   0.1200 
 10 C       -3.7810    -4.6820     1.4100 C.3   1 <1>   0.1100 
 11 C       -3.5040    -4.0090    -1.5690 C.3   1 <1>  -0.0800 
 12 C       -2.4970     2.1600    -0.5250 C.ar  1 <1>   0.2270 
 13 C       -4.7140     1.4040     0.0560 C.ar  1 <1>  -0.1500 
 14 O       -1.6800    -5.2930    -0.6140 O.3   1 <1>  -0.5600 
 15 N       -4.8950    -4.6280     0.4250 N.3   1 <1>  -0.8100 
 16 C       -2.0700    -4.5470    -1.7210 C.3   1 <1>   0.1200 
 17 C       -4.4760    -5.0230    -0.9250 C.3   1 <1>   0.1100 
 18 N       -1.9000     3.2630    -1.0400 N.2   1 <1>  -0.2270 
 19 C       -3.8470     2.3810    -0.4430 C.ar  1 <1>  -0.1520 
 20 C       -6.0740    -5.3790     0.9240 C.3   1 <1>   0.2900 
 21 N       -2.8020     4.1400    -1.2750 N.2   1 <1>  -0.4180 
 22 N       -3.9920     3.6330    -0.9200 N.pl3 1 <1>   0.3000 
 23 C       -5.8040    -6.8420     1.2910 C.2   1 <1>   0.0070 
 24 N       -5.3890    -7.2060     2.4670 N.2   1 <1>  -0.5650 
 25 N       -6.0020    -7.8880     0.4450 N.pl3 1 <1>   0.0480 
 26 C       -5.2960    -8.5430     2.3830 C.2   1 <1>   0.0770 
 27 C       -5.6660    -8.9760     1.1610 C.2   1 <1>  -0.3020 
 28 C       -6.5300    -7.9170    -0.9360 C.3   1 <1>   0.0960 
 29 C       -8.0550    -8.0540    -0.9260 C.3   1 <1>  -0.2400 
 30 H       -2.1960    -3.5010     2.1230 H     1 <1>   0.0800 
 31 H       -4.5750    -2.3390    -0.7530 H     1 <1>   0.0800 
 32 H       -3.1220    -1.9060    -1.6000 H     1 <1>   0.0800 
 33 H       -0.8980     0.7930    -0.1740 H     1 <1>   0.1500 
 34 H       -4.8110    -0.5670     0.8570 H     1 <1>   0.1500 
 35 H       -0.9910    -5.2690     1.2530 H     1 <1>   0.0800 
 36 H       -0.5490    -3.8830     0.2980 H     1 <1>   0.0800 
 37 H       -4.1750    -4.3950     2.3690 H     1 <1>   0.0800 
 38 H       -3.4410    -5.6980     1.5110 H     1 <1>   0.0800 
 39 H       -3.8570    -3.8620    -2.5730 H     1 <1>   0.0800 
 40 H       -5.7720     1.5940     0.1240 H     1 <1>   0.1500 
 41 H       -1.3610    -3.7520    -1.8800 H     1 <1>   0.0800 
 42 H       -2.0270    -5.2130    -2.5640 H     1 <1>   0.0800 
 43 H       -4.0440    -6.0100    -0.9030 H     1 <1>   0.0800 
 44 H       -5.3530    -5.0590    -1.5470 H     1 <1>   0.0800 
 45 H       -6.4300    -4.8850     1.8110 H     1 <1>   0.0800 
 46 H       -6.8670    -5.3230     0.2000 H     1 <1>   0.0800 
 47 H       -4.8680     4.1540    -1.0100 H     1 <1>   0.2700 
 48 H       -4.9640    -9.1330     3.2210 H     1 <1>   0.1500 
 49 H       -5.7100    -9.9780     0.7760 H     1 <1>   0.1500 
 50 H       -6.2450    -7.0190    -1.4470 H     1 <1>   0.0800 
 51 H       -6.0890    -8.7520    -1.4520 H     1 <1>   0.0800 
 52 H       -8.5050    -7.2200    -0.4180 H     1 <1>   0.0800 
 53 H       -8.3430    -8.9660    -0.4320 H     1 <1>   0.0800 
 54 H       -8.4260    -8.0810    -1.9350 H     1 <1>   0.0800 
@<TRIPOS>BOND
  1   1   2  2   
  2   2   3  am  
  3   2   4  1   
  4   3   5  1   
  5   3   6  1   
  6   4   7  ar  
  7   4   8  ar  
  8   5   9  1   
  9   5  10  1   
 10   5  30  1   
 11   6  11  1   
 12   6  31  1   
 13   6  32  1   
 14   7  12  ar  
 15   7  33  1   
 16   8  13  ar  
 17   8  34  1   
 18   9  14  1   
 19   9  35  1   
 20   9  36  1   
 21  10  15  1   
 22  10  37  1   
 23  10  38  1   
 24  11  16  1   
 25  11  17  1   
 26  11  39  1   
 27  12  18  1   
 28  12  19  ar  
 29  13  19  ar  
 30  13  40  1   
 31  14  16  1   
 32  15  17  1   
 33  15  20  1   
 34  16  41  1   
 35  16  42  1   
 36  17  43  1   
 37  17  44  1   
 38  18  21  2   
 39  19  22  1   
 40  20  23  1   
 41  20  45  1   
 42  20  46  1   
 43  21  22  1   
 44  22  47  1   
 45  23  24  2   
 46  23  25  1   
 47  24  26  1   
 48  25  27  1   
 49  25  28  1   
 50  26  27  2   
 51  26  48  1   
 52  27  49  1   
 53  28  29  1   
 54  28  50  1   
 55  28  51  1   
 56  29  52  1   
 57  29  53  1   
 58  29  54  1   
@<TRIPOS>SUBSTRUCTURE
  1 ****   6 GROUP 4 **** **** 0

# MOE 2024.06 (io_trps.svl 2023.06)
