@<TRIPOS>MOLECULE
NONAME
58 60 1 0 0 
SMALL
USER_CHARGES


@<TRIPOS>ATOM
  1 O        4.3310    -0.6520     1.0320 O.2   1 <1>  -0.5700 
  2 C        3.3460    -0.9210     0.3680 C.2   1 <1>   0.5440 
  3 N        2.7710     0.1210    -0.3160 N.am  1 <1>  -0.6600 
  4 C        2.8740    -2.2880     0.2180 C.ar  1 <1>   0.0860 
  5 C        3.0400     0.2680    -1.7780 C.3   1 <1>   0.1400 
  6 C        2.3380     1.3570     0.3950 C.3   1 <1>   0.1400 
  7 C        3.6870    -3.3720     0.5500 C.ar  1 <1>  -0.1500 
  8 C        1.5980    -2.5760    -0.2700 C.ar  1 <1>  -0.1500 
  9 C        4.5170     0.6380    -2.0480 C.3   1 <1>   0.3430 
 10 C        3.4990     2.3270     0.6680 C.3   1 <1>  -0.1600 
 11 C        3.2560    -4.6760     0.3900 C.ar  1 <1>  -0.1500 
 12 C        1.1630    -3.8790    -0.4330 C.ar  1 <1>  -0.1500 
 13 N        5.1330     1.3780    -0.9020 N.4   1 <1>  -0.9590 
 14 C        4.4090     2.6200    -0.5270 C.3   1 <1>   0.3430 
 15 C        1.9910    -4.9390    -0.1080 C.ar  1 <1>  -0.1430 
 16 C        6.6070     1.5360    -1.0390 C.3   1 <1>   0.4860 
 17 C        1.5160    -6.3730    -0.2850 C.3   1 <1>  -0.0170 
 18 C        7.2000     2.0060     0.2700 C.ar  1 <1>  -0.1430 
 19 C        0.8300    -6.8740     0.9910 C.3   1 <1>  -0.1600 
 20 C        7.4360     1.0710     1.2750 C.ar  1 <1>   0.4100 
 21 C        7.5400     3.3250     0.4870 C.ar  1 <1>  -0.1500 
 22 C        0.3450    -8.3220     0.8380 C.3   1 <1>  -0.1600 
 23 N        7.9590     1.3540     2.4480 N.ar  1 <1>  -0.6200 
 24 N        7.1460    -0.2430     1.1190 N.pl3 1 <1>  -0.9000 
 25 C        8.0890     3.6320     1.7160 C.ar  1 <1>  -0.1500 
 26 C       -0.3380    -8.8110     2.1180 C.3   1 <1>  -0.2400 
 27 C        8.2740     2.6230     2.6450 C.ar  1 <1>   0.1600 
 28 H        2.3980     1.0280    -2.1880 H     1 <1>   0.0800 
 29 H        2.8080    -0.6540    -2.2840 H     1 <1>   0.0800 
 30 H        1.8890     1.0770     1.3350 H     1 <1>   0.0800 
 31 H        1.5780     1.8490    -0.1880 H     1 <1>   0.0800 
 32 H        4.6730    -3.1930     0.9430 H     1 <1>   0.1500 
 33 H        0.9300    -1.7720    -0.5220 H     1 <1>   0.1500 
 34 H        4.5840     1.2180    -2.9530 H     1 <1>   0.0800 
 35 H        5.0640    -0.2770    -2.2040 H     1 <1>   0.0800 
 36 H        4.0930     1.9560     1.4860 H     1 <1>   0.0800 
 37 H        3.0760     3.2570     1.0030 H     1 <1>   0.0800 
 38 H        3.9090    -5.4900     0.6570 H     1 <1>   0.1500 
 39 H        0.1730    -4.0690    -0.8110 H     1 <1>   0.1500 
 40 H        4.9990     0.7430    -0.0850 H     1 <1>   0.4500 
 41 H        5.1120     3.3850    -0.2410 H     1 <1>   0.0800 
 42 H        3.8300     2.9870    -1.3580 H     1 <1>   0.0800 
 43 H        6.8350     2.2410    -1.8190 H     1 <1>   0.0800 
 44 H        7.0520     0.5870    -1.2940 H     1 <1>   0.0800 
 45 H        2.3560    -7.0040    -0.5180 H     1 <1>   0.0800 
 46 H        0.8300    -6.4260    -1.1120 H     1 <1>   0.0800 
 47 H       -0.0080    -6.2360     1.2150 H     1 <1>   0.0800 
 48 H        1.5230    -6.8120     1.8120 H     1 <1>   0.0800 
 49 H        7.4000     4.0930    -0.2550 H     1 <1>   0.1500 
 50 H        1.1820    -8.9630     0.6170 H     1 <1>   0.0800 
 51 H       -0.3510    -8.3870     0.0190 H     1 <1>   0.0800 
 52 H        7.7160    -0.7830     1.7760 H     1 <1>   0.4000 
 53 H        6.1660    -0.4760     1.3470 H     1 <1>   0.4000 
 54 H        8.3780     4.6410     1.9530 H     1 <1>   0.1500 
 55 H        0.3470    -8.7750     2.9470 H     1 <1>   0.0800 
 56 H       -0.6710    -9.8260     1.9920 H     1 <1>   0.0800 
 57 H       -1.1920    -8.1970     2.3470 H     1 <1>   0.0800 
 58 H        8.7060     2.8730     3.6010 H     1 <1>   0.1500 
@<TRIPOS>BOND
  1   1   2  2   
  2   2   3  am  
  3   2   4  1   
  4   3   5  1   
  5   3   6  1   
  6   4   7  ar  
  7   4   8  ar  
  8   5   9  1   
  9   5  28  1   
 10   5  29  1   
 11   6  10  1   
 12   6  30  1   
 13   6  31  1   
 14   7  11  ar  
 15   7  32  1   
 16   8  12  ar  
 17   8  33  1   
 18   9  13  1   
 19   9  34  1   
 20   9  35  1   
 21  10  14  1   
 22  10  36  1   
 23  10  37  1   
 24  11  15  ar  
 25  11  38  1   
 26  12  15  ar  
 27  12  39  1   
 28  13  14  1   
 29  13  16  1   
 30  13  40  1   
 31  14  41  1   
 32  14  42  1   
 33  15  17  1   
 34  16  18  1   
 35  16  43  1   
 36  16  44  1   
 37  17  19  1   
 38  17  45  1   
 39  17  46  1   
 40  18  20  ar  
 41  18  21  ar  
 42  19  22  1   
 43  19  47  1   
 44  19  48  1   
 45  20  23  ar  
 46  20  24  1   
 47  21  25  ar  
 48  21  49  1   
 49  22  26  1   
 50  22  50  1   
 51  22  51  1   
 52  23  27  ar  
 53  24  52  1   
 54  24  53  1   
 55  25  27  ar  
 56  25  54  1   
 57  26  55  1   
 58  26  56  1   
 59  26  57  1   
 60  27  58  1   
@<TRIPOS>SUBSTRUCTURE
  1 ****   2 GROUP 4 **** **** 0

# MOE 2024.06 (io_trps.svl 2023.06)
