@<TRIPOS>MOLECULE
NONAME
51 52 1 0 0 
SMALL
USER_CHARGES


@<TRIPOS>ATOM
  1 S        0.7330     0.1060    -0.6940 S.o2  1 <1>   1.3330 
  2 O        0.1630    -0.0270    -2.0130 O.2   1 <1>  -0.6500 
  3 O        2.1400     0.4070    -0.5530 O.2   1 <1>  -0.6500 
  4 N        0.3440    -1.2530     0.2400 N.am  1 <1>  -0.8490 
  5 C       -0.1310     1.4400     0.1320 C.3   1 <1>  -0.0550 
  6 C        1.4340    -2.2350     0.2850 C.3   1 <1>   0.1160 
  7 C       -0.8980    -1.9140    -0.1790 C.3   1 <1>   0.1160 
  8 C        0.0420     2.7880    -0.6040 C.3   1 <1>  -0.0800 
  9 C       -0.6260     3.9920     0.0580 C.3   1 <1>   0.2000 
 10 C        1.5110     3.2090    -0.7700 C.3   1 <1>   0.3430 
 11 O       -0.3740     3.9700     1.4280 O.3   1 <1>  -0.6800 
 12 C        0.1390     5.1670    -0.5570 C.3   1 <1>   0.3430 
 13 N        1.5560     4.7000    -0.6890 N.4   1 <1>  -0.9590 
 14 C        2.3730     5.1290     0.4820 C.3   1 <1>   0.4860 
 15 C        2.4890     6.6410     0.4620 C.ar  1 <1>  -0.1440 
 16 C        1.7550     7.4020     1.3600 C.ar  1 <1>  -0.1500 
 17 C        3.3210     7.2740    -0.4520 C.ar  1 <1>  -0.1500 
 18 C        1.8410     8.7820     1.3320 C.ar  1 <1>  -0.1500 
 19 C        3.4070     8.6550    -0.4790 C.ar  1 <1>  -0.1500 
 20 C        2.6610     9.4180     0.4150 C.ar  1 <1>   0.0820 
 21 O        2.6810    10.7720     0.4540 O.3   1 <1>  -0.3620 
 22 C        3.5260    11.5210    -0.3940 C.3   1 <1>   0.1200 
 23 C        3.3140    13.0040    -0.1000 C.3   1 <1>   0.1200 
 24 O        4.1950    13.7540    -0.8680 O.3   1 <1>  -0.6800 
 25 H       -1.1750     1.2000     0.1880 H     1 <1>   0.0800 
 26 H        0.2440     1.5160     1.1350 H     1 <1>   0.0800 
 27 H        1.1590    -3.0710     0.9060 H     1 <1>   0.0800 
 28 H        2.3200    -1.7870     0.7010 H     1 <1>   0.0800 
 29 H        1.6600    -2.5910    -0.7070 H     1 <1>   0.0800 
 30 H       -1.1390    -2.7150     0.5000 H     1 <1>   0.0800 
 31 H       -0.7940    -2.3170    -1.1730 H     1 <1>   0.0800 
 32 H       -1.7140    -1.2110    -0.1760 H     1 <1>   0.0800 
 33 H       -0.3700     2.6810    -1.5940 H     1 <1>   0.0800 
 34 H       -1.6890     4.0580    -0.1070 H     1 <1>   0.0800 
 35 H        1.9020     2.8550    -1.7110 H     1 <1>   0.0800 
 36 H        2.1020     2.7800     0.0250 H     1 <1>   0.0800 
 37 H       -1.0840     3.4970     1.9150 H     1 <1>   0.4000 
 38 H        0.0490     6.0550     0.0480 H     1 <1>   0.0800 
 39 H       -0.2620     5.3700    -1.5360 H     1 <1>   0.0800 
 40 H        1.9810     5.1130    -1.5280 H     1 <1>   0.4500 
 41 H        1.9060     4.8080     1.3990 H     1 <1>   0.0800 
 42 H        3.3570     4.6950     0.4280 H     1 <1>   0.0800 
 43 H        1.1130     6.9330     2.0870 H     1 <1>   0.1500 
 44 H        3.9120     6.7040    -1.1480 H     1 <1>   0.1500 
 45 H        1.2740     9.3790     2.0240 H     1 <1>   0.1500 
 46 H        4.0560     9.1190    -1.1980 H     1 <1>   0.1500 
 47 H        4.5430    11.2350    -0.1890 H     1 <1>   0.0800 
 48 H        3.2620    11.3050    -1.4140 H     1 <1>   0.0800 
 49 H        3.4970    13.2240     0.9380 H     1 <1>   0.0800 
 50 H        2.3130    13.2970    -0.3660 H     1 <1>   0.0800 
 51 H        5.1090    13.6740    -0.5310 H     1 <1>   0.4000 
@<TRIPOS>BOND
  1   1   2  2   
  2   1   3  2   
  3   1   4  am  
  4   1   5  1   
  5   4   6  1   
  6   4   7  1   
  7   5   8  1   
  8   5  25  1   
  9   5  26  1   
 10   6  27  1   
 11   6  28  1   
 12   6  29  1   
 13   7  30  1   
 14   7  31  1   
 15   7  32  1   
 16   8   9  1   
 17   8  10  1   
 18   8  33  1   
 19   9  11  1   
 20   9  12  1   
 21   9  34  1   
 22  10  13  1   
 23  10  35  1   
 24  10  36  1   
 25  11  37  1   
 26  12  13  1   
 27  12  38  1   
 28  12  39  1   
 29  13  14  1   
 30  13  40  1   
 31  14  15  1   
 32  14  41  1   
 33  14  42  1   
 34  15  16  ar  
 35  15  17  ar  
 36  16  18  ar  
 37  16  43  1   
 38  17  19  ar  
 39  17  44  1   
 40  18  20  ar  
 41  18  45  1   
 42  19  20  ar  
 43  19  46  1   
 44  20  21  1   
 45  21  22  1   
 46  22  23  1   
 47  22  47  1   
 48  22  48  1   
 49  23  24  1   
 50  23  49  1   
 51  23  50  1   
 52  24  51  1   
@<TRIPOS>SUBSTRUCTURE
  1 ****  13 GROUP 4 **** **** 0

# MOE 2024.06 (io_trps.svl 2023.06)
