@<TRIPOS>MOLECULE
NONAME
51 55 1 0 0 
SMALL
USER_CHARGES


@<TRIPOS>ATOM
  1 O       -2.6820    -0.3410    -1.4890 O.2   1 <1>  -0.5700 
  2 C       -2.7370     0.4620    -0.5710 C.2   1 <1>   0.7670 
  3 N       -2.6240     1.7890    -0.9140 N.2   1 <1>  -0.6610 
  4 C       -2.9130     0.0630     0.7890 C.2   1 <1>   0.0290 
  5 C       -2.6300     2.6650     0.0170 C.2   1 <1>   0.5000 
  6 C       -3.0730    -1.3170     1.1430 C.2   1 <1>   0.6160 
  7 C       -2.8960     1.0460     1.7350 C.2   1 <1>  -0.0500 
  8 N       -2.7550     2.3400     1.3370 N.pl3 1 <1>  -0.5500 
  9 C       -2.4950     4.1420    -0.3330 C.3   1 <1>  -0.1000 
 10 O       -2.4130    -1.7560     2.0680 O.2   1 <1>  -0.5700 
 11 N       -4.0000    -2.1570     0.5650 N.am  1 <1>  -0.6600 
 12 C       -1.7280     5.1020     0.5310 C.3   1 <1>  -0.2000 
 13 C       -3.2200     5.2160     0.4250 C.3   1 <1>  -0.2000 
 14 C       -5.0930    -1.7640    -0.3570 C.3   1 <1>   0.1400 
 15 C       -4.1380    -3.5920     0.9330 C.3   1 <1>   0.1400 
 16 C       -6.1830    -2.8020    -0.1060 C.3   1 <1>   0.2000 
 17 C       -5.4180    -4.0840     0.2350 C.3   1 <1>  -0.0800 
 18 O       -6.8970    -2.4210     1.0180 O.3   1 <1>  -0.6800 
 19 C       -5.1000    -4.8940    -1.0380 C.3   1 <1>  -0.0160 
 20 C       -4.5470    -6.2700    -0.7020 C.ar  1 <1>   0.1670 
 21 N       -3.2590    -6.4220    -0.7100 N.ar  1 <1>  -0.6200 
 22 C       -5.4480    -7.3040    -0.3990 C.ar  1 <1>  -0.1500 
 23 C       -2.7620    -7.6490    -0.4090 C.ar  1 <1>   0.3100 
 24 C       -4.9790    -8.5460    -0.0940 C.ar  1 <1>  -0.1500 
 25 C       -3.5890    -8.7490    -0.0930 C.ar  1 <1>   0.0000 
 26 C       -1.3710    -7.8370    -0.4080 C.ar  1 <1>  -0.1500 
 27 C       -2.9930    -9.9910     0.2070 C.ar  1 <1>  -0.1500 
 28 C       -0.8110    -9.0520    -0.1130 C.ar  1 <1>  -0.1500 
 29 C       -1.6320   -10.1400     0.1980 C.ar  1 <1>  -0.1500 
 30 H       -2.9900     0.8270     2.7880 H     1 <1>   0.1500 
 31 H       -2.7310     3.1140     2.0070 H     1 <1>   0.4000 
 32 H       -2.4070     4.2790    -1.3970 H     1 <1>   0.1000 
 33 H       -1.2910     4.7560     1.4510 H     1 <1>   0.1000 
 34 H       -1.1160     5.8430     0.0450 H     1 <1>   0.1000 
 35 H       -3.6380     6.0370    -0.1330 H     1 <1>   0.1000 
 36 H       -3.8290     4.9520     1.2720 H     1 <1>   0.1000 
 37 H       -5.4460    -0.7630    -0.1740 H     1 <1>   0.0800 
 38 H       -4.7420    -1.8440    -1.3710 H     1 <1>   0.0800 
 39 H       -3.2640    -4.1390     0.6220 H     1 <1>   0.0800 
 40 H       -4.2360    -3.6770     2.0020 H     1 <1>   0.0800 
 41 H       -6.8710    -2.9030    -0.9280 H     1 <1>   0.0800 
 42 H       -5.9970    -4.7060     0.8960 H     1 <1>   0.0800 
 43 H       -6.2650    -2.2600     1.7470 H     1 <1>   0.4000 
 44 H       -4.3890    -4.3630    -1.6480 H     1 <1>   0.0800 
 45 H       -5.9940    -5.0210    -1.6200 H     1 <1>   0.0800 
 46 H       -6.5040    -7.1030    -0.4120 H     1 <1>   0.1500 
 47 H       -5.6380    -9.3620     0.1420 H     1 <1>   0.1500 
 48 H       -0.7580    -6.9880    -0.6480 H     1 <1>   0.1500 
 49 H       -3.6300   -10.8230     0.4450 H     1 <1>   0.1500 
 50 H        0.2580    -9.1810    -0.1160 H     1 <1>   0.1500 
 51 H       -1.1790   -11.0900     0.4270 H     1 <1>   0.1500 
@<TRIPOS>BOND
  1   1   2  2   
  2   2   3  1   
  3   2   4  1   
  4   3   5  2   
  5   4   6  1   
  6   4   7  2   
  7   5   8  1   
  8   5   9  1   
  9   6  10  2   
 10   6  11  am  
 11   7   8  1   
 12   7  30  1   
 13   8  31  1   
 14   9  12  1   
 15   9  13  1   
 16   9  32  1   
 17  11  14  1   
 18  11  15  1   
 19  12  13  1   
 20  12  33  1   
 21  12  34  1   
 22  13  35  1   
 23  13  36  1   
 24  14  16  1   
 25  14  37  1   
 26  14  38  1   
 27  15  17  1   
 28  15  39  1   
 29  15  40  1   
 30  16  17  1   
 31  16  18  1   
 32  16  41  1   
 33  17  19  1   
 34  17  42  1   
 35  18  43  1   
 36  19  20  1   
 37  19  44  1   
 38  19  45  1   
 39  20  21  ar  
 40  20  22  ar  
 41  21  23  ar  
 42  22  24  ar  
 43  22  46  1   
 44  23  25  ar  
 45  23  26  ar  
 46  24  25  ar  
 47  24  47  1   
 48  25  27  ar  
 49  26  28  ar  
 50  26  48  1   
 51  27  29  ar  
 52  27  49  1   
 53  28  29  ar  
 54  28  50  1   
 55  29  51  1   
@<TRIPOS>SUBSTRUCTURE
  1 ****  11 GROUP 4 **** **** 0

# MOE 2024.06 (io_trps.svl 2023.06)
