@<TRIPOS>MOLECULE
NONAME
47 49 1 0 0 
SMALL
USER_CHARGES


@<TRIPOS>ATOM
  1 S        0.5990     1.2530     1.6810 S.3   1 <1>  -0.0800 
  2 C       -0.5930     1.7610     0.4990 C.2   1 <1>   0.1980 
  3 C        1.4850     2.7170     1.3790 C.2   1 <1>  -0.1100 
  4 N       -0.3390     2.8880    -0.0410 N.2   1 <1>  -0.5650 
  5 C       -1.7850     0.8490     0.2280 C.3   1 <1>   0.1000 
  6 C        0.8370     3.4390     0.4510 C.2   1 <1>   0.0460 
  7 C       -2.6470     0.6600     1.4830 C.3   1 <1>  -0.2400 
  8 C       -1.3400    -0.5100    -0.3310 C.3   1 <1>  -0.2400 
  9 C        1.2610     4.7890    -0.1140 C.3   1 <1>   0.3900 
 10 N        2.5510     5.2580     0.4830 N.pl3 1 <1>  -0.8380 
 11 C        3.6880     5.2590    -0.3140 C.ar  1 <1>   0.4100 
 12 C        2.4030     6.2270     1.6060 C.3   1 <1>   0.1290 
 13 N        4.3860     6.3810    -0.3430 N.ar  1 <1>  -0.6200 
 14 C        4.0630     4.1220    -1.0490 C.ar  1 <1>   0.1600 
 15 C        5.4660     6.3390    -1.1420 C.ar  1 <1>   0.3960 
 16 N        5.1100     4.0450    -1.8450 N.ar  1 <1>  -0.6200 
 17 C        6.3480     7.5010    -1.2930 C.2   1 <1>   0.5440 
 18 C        5.7860     5.1860    -1.8650 C.ar  1 <1>   0.1600 
 19 O        6.9640     7.6420    -2.3370 O.2   1 <1>  -0.5700 
 20 N        6.5560     8.4530    -0.3100 N.am  1 <1>  -0.6600 
 21 C        6.0220     8.4200     1.0690 C.3   1 <1>   0.1400 
 22 C        7.4290     9.6310    -0.5100 C.3   1 <1>   0.1400 
 23 C        6.8200     9.4780     1.8210 C.3   1 <1>  -0.1600 
 24 C        7.2440    10.4750     0.7460 C.3   1 <1>  -0.1600 
 25 H        2.3960     2.8870     1.9230 H     1 <1>   0.1500 
 26 H       -2.3900     1.3330    -0.5200 H     1 <1>   0.0800 
 27 H       -2.0980     0.1450     2.2510 H     1 <1>   0.0800 
 28 H       -3.5280     0.0890     1.2480 H     1 <1>   0.0800 
 29 H       -2.9530     1.6190     1.8630 H     1 <1>   0.0800 
 30 H       -0.7600    -1.0500     0.3950 H     1 <1>   0.0800 
 31 H       -0.7390    -0.3620    -1.2110 H     1 <1>   0.0800 
 32 H       -2.1970    -1.1020    -0.5970 H     1 <1>   0.0800 
 33 H        0.4860     5.5090     0.0800 H     1 <1>   0.0800 
 34 H        1.3610     4.7020    -1.1830 H     1 <1>   0.0800 
 35 H        1.6980     5.8510     2.3270 H     1 <1>   0.0800 
 36 H        2.0580     7.1740     1.2280 H     1 <1>   0.0800 
 37 H        3.3510     6.3710     2.0940 H     1 <1>   0.0800 
 38 H        3.4510     3.2450    -0.9550 H     1 <1>   0.1500 
 39 H        6.6570     5.2130    -2.4970 H     1 <1>   0.1500 
 40 H        6.1430     7.4450     1.5100 H     1 <1>   0.0800 
 41 H        4.9780     8.6830     1.0470 H     1 <1>   0.0800 
 42 H        7.1470    10.1700    -1.3990 H     1 <1>   0.0800 
 43 H        8.4490     9.2990    -0.5990 H     1 <1>   0.0800 
 44 H        7.6910     9.0170     2.2550 H     1 <1>   0.0800 
 45 H        6.2400     9.9370     2.6020 H     1 <1>   0.0800 
 46 H        6.4540    11.1860     0.5740 H     1 <1>   0.0800 
 47 H        8.1420    11.0050     1.0070 H     1 <1>   0.0800 
@<TRIPOS>BOND
  1   1   2  1   
  2   1   3  1   
  3   2   4  2   
  4   2   5  1   
  5   3   6  2   
  6   3  25  1   
  7   4   6  1   
  8   5   7  1   
  9   5   8  1   
 10   5  26  1   
 11   6   9  1   
 12   7  27  1   
 13   7  28  1   
 14   7  29  1   
 15   8  30  1   
 16   8  31  1   
 17   8  32  1   
 18   9  10  1   
 19   9  33  1   
 20   9  34  1   
 21  10  11  1   
 22  10  12  1   
 23  11  13  ar  
 24  11  14  ar  
 25  12  35  1   
 26  12  36  1   
 27  12  37  1   
 28  13  15  ar  
 29  14  16  ar  
 30  14  38  1   
 31  15  17  1   
 32  15  18  ar  
 33  16  18  ar  
 34  17  19  2   
 35  17  20  am  
 36  18  39  1   
 37  20  21  1   
 38  20  22  1   
 39  21  23  1   
 40  21  40  1   
 41  21  41  1   
 42  22  24  1   
 43  22  42  1   
 44  22  43  1   
 45  23  24  1   
 46  23  44  1   
 47  23  45  1   
 48  24  46  1   
 49  24  47  1   
@<TRIPOS>SUBSTRUCTURE
  1 ****  11 GROUP 4 **** **** 0

# MOE 2024.06 (io_trps.svl 2023.06)
