@<TRIPOS>MOLECULE
NONAME
57 59 1 0 0 
SMALL
USER_CHARGES


@<TRIPOS>ATOM
  1 F       -3.1590    -5.3830     1.4360 F     1 <1>  -0.1900 
  2 C       -4.1710    -4.5730     1.2730 C.ar  1 <1>   0.1900 
  3 C       -4.0570    -3.5390     0.3640 C.ar  1 <1>  -0.1500 
  4 C       -5.3170    -4.7800     2.0160 C.ar  1 <1>  -0.1500 
  5 C       -5.1330    -2.6830     0.1960 C.ar  1 <1>  -0.1500 
  6 C       -6.3860    -3.9170     1.8390 C.ar  1 <1>  -0.1500 
  7 C       -6.2970    -2.8680     0.9320 C.ar  1 <1>  -0.1430 
  8 C       -7.4770    -1.9270     0.7440 C.3   1 <1>  -0.0160 
  9 C       -8.4710    -2.5160    -0.2630 C.3   1 <1>  -0.1600 
 10 C       -9.6900    -1.5970    -0.4750 C.3   1 <1>  -0.0990 
 11 C      -10.7410    -2.1700    -1.4220 C.2   1 <1>   0.5690 
 12 O      -10.4250    -3.0850    -2.1480 O.2   1 <1>  -0.5700 
 13 N      -12.0170    -1.6690    -1.4280 N.am  1 <1>  -0.6600 
 14 C      -13.0840    -2.3510    -2.2200 C.3   1 <1>   0.1400 
 15 C      -12.4980    -0.5180    -0.6160 C.3   1 <1>   0.1400 
 16 C      -13.7180    -3.5270    -1.4530 C.3   1 <1>   0.1400 
 17 C      -13.2250    -0.9800     0.6550 C.3   1 <1>  -0.1600 
 18 N      -13.8760    -3.2830     0.0210 N.am  1 <1>  -0.6600 
 19 C      -14.3950    -1.9420     0.4100 C.3   1 <1>   0.1400 
 20 C      -13.5650    -4.2200     0.9910 C.2   1 <1>   0.5440 
 21 O      -13.9100    -4.0130     2.1400 O.2   1 <1>  -0.5700 
 22 C      -12.8490    -5.4460     0.6980 C.ar  1 <1>   0.0860 
 23 C      -13.3640    -6.6930     1.0130 C.ar  1 <1>  -0.1500 
 24 C      -11.5980    -5.4650     0.1030 C.ar  1 <1>  -0.1500 
 25 C      -12.6540    -7.8410     0.7120 C.ar  1 <1>   0.1670 
 26 C      -10.9640    -6.6620    -0.1680 C.ar  1 <1>   0.1670 
 27 N      -11.4710    -7.8470     0.1240 N.ar  1 <1>  -0.6200 
 28 C      -13.2220    -9.2000     1.0580 C.3   1 <1>  -0.0970 
 29 C       -9.6080    -6.6620    -0.8420 C.3   1 <1>  -0.0970 
 30 H       -3.1490    -3.4100    -0.1960 H     1 <1>   0.1500 
 31 H       -5.3690    -5.5970     2.7120 H     1 <1>   0.1500 
 32 H       -5.0610    -1.8750    -0.5110 H     1 <1>   0.1500 
 33 H       -7.2870    -4.0660     2.4080 H     1 <1>   0.1500 
 34 H       -7.1260    -0.9720     0.3940 H     1 <1>   0.0800 
 35 H       -7.9630    -1.7720     1.6910 H     1 <1>   0.0800 
 36 H       -8.8070    -3.4740     0.0950 H     1 <1>   0.0800 
 37 H       -7.9730    -2.6750    -1.2040 H     1 <1>   0.0800 
 38 H       -9.3620    -0.6550    -0.8720 H     1 <1>   0.0800 
 39 H      -10.1500    -1.4250     0.4800 H     1 <1>   0.0800 
 40 H      -12.6720    -2.7180    -3.1440 H     1 <1>   0.0800 
 41 H      -13.8500    -1.6420    -2.4800 H     1 <1>   0.0800 
 42 H      -13.1680     0.0750    -1.2150 H     1 <1>   0.0800 
 43 H      -11.6730     0.1170    -0.3460 H     1 <1>   0.0800 
 44 H      -13.1130    -4.3960    -1.6300 H     1 <1>   0.0800 
 45 H      -14.6850    -3.7330    -1.8750 H     1 <1>   0.0800 
 46 H      -13.6120    -0.1070     1.1470 H     1 <1>   0.0800 
 47 H      -12.5280    -1.4380     1.3330 H     1 <1>   0.0800 
 48 H      -15.0500    -1.5600    -0.3540 H     1 <1>   0.0800 
 49 H      -14.9750    -2.0300     1.3140 H     1 <1>   0.0800 
 50 H      -14.3210    -6.7500     1.4970 H     1 <1>   0.1500 
 51 H      -11.1270    -4.5370    -0.1480 H     1 <1>   0.1500 
 52 H      -14.1810    -9.1120     1.5340 H     1 <1>   0.0800 
 53 H      -12.5490    -9.7100     1.7220 H     1 <1>   0.0800 
 54 H      -13.3300    -9.7820     0.1610 H     1 <1>   0.0800 
 55 H       -9.3320    -5.6730    -1.1580 H     1 <1>   0.0800 
 56 H       -9.6370    -7.3020    -1.7050 H     1 <1>   0.0800 
 57 H       -8.8670    -7.0340    -0.1590 H     1 <1>   0.0800 
@<TRIPOS>BOND
  1   1   2  1   
  2   2   3  ar  
  3   2   4  ar  
  4   3   5  ar  
  5   3  30  1   
  6   4   6  ar  
  7   4  31  1   
  8   5   7  ar  
  9   5  32  1   
 10   6   7  ar  
 11   6  33  1   
 12   7   8  1   
 13   8   9  1   
 14   8  34  1   
 15   8  35  1   
 16   9  10  1   
 17   9  36  1   
 18   9  37  1   
 19  10  11  1   
 20  10  38  1   
 21  10  39  1   
 22  11  12  2   
 23  11  13  am  
 24  13  14  1   
 25  13  15  1   
 26  14  16  1   
 27  14  40  1   
 28  14  41  1   
 29  15  17  1   
 30  15  42  1   
 31  15  43  1   
 32  16  18  1   
 33  16  44  1   
 34  16  45  1   
 35  17  19  1   
 36  17  46  1   
 37  17  47  1   
 38  18  19  1   
 39  18  20  am  
 40  19  48  1   
 41  19  49  1   
 42  20  21  2   
 43  20  22  1   
 44  22  23  ar  
 45  22  24  ar  
 46  23  25  ar  
 47  23  50  1   
 48  24  26  ar  
 49  24  51  1   
 50  25  27  ar  
 51  25  28  1   
 52  26  27  ar  
 53  26  29  1   
 54  28  52  1   
 55  28  53  1   
 56  28  54  1   
 57  29  55  1   
 58  29  56  1   
 59  29  57  1   
@<TRIPOS>SUBSTRUCTURE
  1 ****  24 GROUP 4 **** **** 0

# MOE 2024.06 (io_trps.svl 2023.06)
