@<TRIPOS>MOLECULE
NONAME
56 59 1 0 0 
SMALL
USER_CHARGES


@<TRIPOS>ATOM
  1 O       -0.2020    -0.7340    -0.6990 O.3   1 <1>  -0.3630 
  2 C        1.0210    -1.2830    -0.4410 C.ar  1 <1>   0.0830 
  3 C       -0.3690     0.5810    -1.1760 C.3   1 <1>   0.0400 
  4 C        1.0560    -2.6430    -0.0200 C.ar  1 <1>   0.3100 
  5 C        2.1840    -0.5550    -0.5800 C.ar  1 <1>  -0.1500 
  6 N       -0.1080    -3.3390     0.0950 N.ar  1 <1>  -0.6200 
  7 C        2.3150    -3.2280     0.2640 C.ar  1 <1>   0.0000 
  8 C        3.4250    -1.1440    -0.3050 C.ar  1 <1>   0.0830 
  9 C       -0.0540    -4.5810     0.4800 C.ar  1 <1>   0.4100 
 10 C        2.3430    -4.5740     0.6970 C.ar  1 <1>  -0.1440 
 11 C        3.4770    -2.4480     0.1060 C.ar  1 <1>  -0.1500 
 12 O        4.6070    -0.4860    -0.4240 O.3   1 <1>  -0.3630 
 13 N       -1.2380    -5.2900     0.5770 N.pl3 1 <1>  -0.8380 
 14 C        1.1540    -5.2240     0.8000 C.ar  1 <1>  -0.1500 
 15 C        3.6460    -5.2800     1.0450 C.3   1 <1>  -0.0970 
 16 C        4.6700     0.8580    -0.8480 C.3   1 <1>   0.0400 
 17 C       -1.4160    -6.4920    -0.2880 C.3   1 <1>   0.2090 
 18 C       -2.5140    -4.5280     0.7320 C.3   1 <1>   0.2090 
 19 C       -2.5210    -7.4120     0.2660 C.3   1 <1>   0.2090 
 20 C       -3.6560    -5.4200     1.2600 C.3   1 <1>   0.2090 
 21 N       -3.8300    -6.6850     0.4530 N.pl3 1 <1>  -0.8380 
 22 C       -4.9980    -7.1080    -0.1020 C.ar  1 <1>   0.4100 
 23 N       -4.9280    -7.9040    -1.1550 N.ar  1 <1>  -0.6200 
 24 C       -6.2440    -6.7210     0.4320 C.ar  1 <1>  -0.1500 
 25 C       -6.0550    -8.2990    -1.7030 C.ar  1 <1>   0.7710 
 26 C       -7.3890    -7.1470    -0.1550 C.ar  1 <1>   0.2180 
 27 N       -7.2660    -7.9440    -1.2430 N.ar  1 <1>  -0.1790 
 28 N       -5.9480    -9.0920    -2.7660 N.pl3 1 <1>  -0.9000 
 29 C       -8.7780    -6.7860     0.3430 C.3   1 <1>  -0.0970 
 30 H       -1.4210     0.7520    -1.3180 H     1 <1>   0.0800 
 31 H        0.1470     0.6800    -2.1150 H     1 <1>   0.0800 
 32 H        0.0170     1.2690    -0.4450 H     1 <1>   0.0800 
 33 H        2.1530     0.4650    -0.8960 H     1 <1>   0.1500 
 34 H        4.4390    -2.8750     0.3120 H     1 <1>   0.1500 
 35 H        1.0950    -6.2400     1.1370 H     1 <1>   0.1500 
 36 H        4.1430    -4.7610     1.8450 H     1 <1>   0.0800 
 37 H        4.2930    -5.3060     0.1860 H     1 <1>   0.0800 
 38 H        3.4620    -6.2910     1.3610 H     1 <1>   0.0800 
 39 H        5.7040     1.1530    -0.8680 H     1 <1>   0.0800 
 40 H        4.1290     1.4700    -0.1490 H     1 <1>   0.0800 
 41 H        4.2510     0.9320    -1.8360 H     1 <1>   0.0800 
 42 H       -0.4950    -7.0420    -0.3520 H     1 <1>   0.0800 
 43 H       -1.6840    -6.1770    -1.2820 H     1 <1>   0.0800 
 44 H       -2.7940    -4.1120    -0.2210 H     1 <1>   0.0800 
 45 H       -2.3600    -3.7090     1.4140 H     1 <1>   0.0800 
 46 H       -2.1970    -7.7920     1.2190 H     1 <1>   0.0800 
 47 H       -2.6320    -8.2540    -0.3920 H     1 <1>   0.0800 
 48 H       -4.5560    -4.8340     1.2520 H     1 <1>   0.0800 
 49 H       -3.4380    -5.6840     2.2800 H     1 <1>   0.0800 
 50 H       -6.2660    -6.1040     1.3090 H     1 <1>   0.1500 
 51 H       -8.0740    -8.3050    -1.7380 H     1 <1>   0.4570 
 52 H       -6.6830    -9.5110    -3.3360 H     1 <1>   0.4000 
 53 H       -4.9990    -9.3250    -3.0790 H     1 <1>   0.4000 
 54 H       -8.7150    -6.1520     1.2100 H     1 <1>   0.0800 
 55 H       -9.3220    -7.6730     0.6170 H     1 <1>   0.0800 
 56 H       -9.3270    -6.2580    -0.4180 H     1 <1>   0.0800 
@<TRIPOS>BOND
  1   1   2  1   
  2   1   3  1   
  3   2   4  ar  
  4   2   5  ar  
  5   3  30  1   
  6   3  31  1   
  7   3  32  1   
  8   4   6  ar  
  9   4   7  ar  
 10   5   8  ar  
 11   5  33  1   
 12   6   9  ar  
 13   7  10  ar  
 14   7  11  ar  
 15   8  11  ar  
 16   8  12  1   
 17   9  13  1   
 18   9  14  ar  
 19  10  14  ar  
 20  10  15  1   
 21  11  34  1   
 22  12  16  1   
 23  13  17  1   
 24  13  18  1   
 25  14  35  1   
 26  15  36  1   
 27  15  37  1   
 28  15  38  1   
 29  16  39  1   
 30  16  40  1   
 31  16  41  1   
 32  17  19  1   
 33  17  42  1   
 34  17  43  1   
 35  18  20  1   
 36  18  44  1   
 37  18  45  1   
 38  19  21  1   
 39  19  46  1   
 40  19  47  1   
 41  20  21  1   
 42  20  48  1   
 43  20  49  1   
 44  21  22  1   
 45  22  23  ar  
 46  22  24  ar  
 47  23  25  ar  
 48  24  26  ar  
 49  24  50  1   
 50  25  27  ar  
 51  25  28  1   
 52  26  27  ar  
 53  26  29  1   
 54  27  51  1   
 55  28  52  1   
 56  28  53  1   
 57  29  54  1   
 58  29  55  1   
 59  29  56  1   
@<TRIPOS>SUBSTRUCTURE
  1 ****  13 GROUP 4 **** **** 0

# MOE 2024.06 (io_trps.svl 2023.06)
