@<TRIPOS>MOLECULE
NONAME
46 48 1 0 0 
SMALL
USER_CHARGES


@<TRIPOS>ATOM
  1 O       -1.3920    -0.0520    -1.4580 O.2   1 <1>  -0.5700 
  2 C       -1.6360     0.3900    -0.3620 C.2   1 <1>   0.5690 
  3 N       -2.0370    -0.4150     0.6520 N.am  1 <1>  -0.7300 
  4 C       -1.5120     1.8930    -0.1190 C.3   1 <1>  -0.0190 
  5 C       -2.1950    -1.8840     0.5630 C.3   1 <1>   0.2200 
  6 C       -0.4800     2.2150     0.9830 C.3   1 <1>  -0.1600 
  7 C       -2.8800     2.5290     0.2040 C.3   1 <1>  -0.1600 
  8 C       -3.6650    -2.2780     0.4950 C.3   1 <1>  -0.0800 
  9 C       -1.8040    -2.4990     1.8990 C.3   1 <1>   0.1200 
 10 C       -0.3590     3.7290     1.2150 C.3   1 <1>  -0.1600 
 11 C       -2.7560     4.0430     0.4390 C.3   1 <1>  -0.1600 
 12 C       -4.0840    -2.3110     1.9700 C.3   1 <1>   0.1200 
 13 C       -4.5570    -1.3960    -0.3990 C.3   1 <1>  -0.0170 
 14 O       -2.9080    -2.2900     2.7260 O.3   1 <1>  -0.5600 
 15 C       -1.7260     4.3440     1.5310 C.3   1 <1>   0.2000 
 16 C       -5.9720    -1.9490    -0.4670 C.ar  1 <1>  -0.1440 
 17 O       -1.5760     5.7090     1.6200 O.3   1 <1>  -0.6800 
 18 C       -6.3050    -2.9810    -1.3200 C.ar  1 <1>  -0.1500 
 19 C       -6.9940    -1.4530     0.3180 C.ar  1 <1>  -0.1500 
 20 C       -7.6050    -3.4570    -1.3440 C.ar  1 <1>   0.1600 
 21 C       -8.2620    -2.0020     0.2170 C.ar  1 <1>   0.1600 
 22 N       -8.5920    -2.9940    -0.5930 N.ar  1 <1>  -0.6200 
 23 H       -2.2600    -0.0290     1.5710 H     1 <1>   0.3700 
 24 H       -1.1570     2.3280    -1.0370 H     1 <1>   0.0800 
 25 H       -1.6180    -2.2810    -0.2570 H     1 <1>   0.0800 
 26 H       -0.7710     1.7410     1.9050 H     1 <1>   0.0800 
 27 H        0.4800     1.8190     0.6990 H     1 <1>   0.0800 
 28 H       -3.5590     2.3480    -0.6120 H     1 <1>   0.0800 
 29 H       -3.2960     2.0710     1.0850 H     1 <1>   0.0800 
 30 H       -3.7160    -3.2870     0.1250 H     1 <1>   0.0800 
 31 H       -0.9310    -2.0430     2.3310 H     1 <1>   0.0800 
 32 H       -1.6570    -3.5610     1.8040 H     1 <1>   0.0800 
 33 H        0.0490     4.1850     0.3310 H     1 <1>   0.0800 
 34 H        0.3120     3.9110     2.0370 H     1 <1>   0.0800 
 35 H       -3.7130     4.4380     0.7330 H     1 <1>   0.0800 
 36 H       -2.4580     4.5140    -0.4820 H     1 <1>   0.0800 
 37 H       -4.6370    -3.2040     2.2060 H     1 <1>   0.0800 
 38 H       -4.6610    -1.4440     2.2420 H     1 <1>   0.0800 
 39 H       -4.1410    -1.3580    -1.3910 H     1 <1>   0.0800 
 40 H       -4.5870    -0.3880    -0.0250 H     1 <1>   0.0800 
 41 H       -2.0810     3.9910     2.4850 H     1 <1>   0.0800 
 42 H       -1.2450     6.0630     0.7750 H     1 <1>   0.4000 
 43 H       -5.5670    -3.4170    -1.9680 H     1 <1>   0.1500 
 44 H       -6.8190    -0.6460     1.0050 H     1 <1>   0.1500 
 45 H       -7.8470    -4.2630    -2.0160 H     1 <1>   0.1500 
 46 H       -9.0470    -1.6030     0.8370 H     1 <1>   0.1500 
@<TRIPOS>BOND
  1   1   2  2   
  2   2   3  am  
  3   2   4  1   
  4   3   5  1   
  5   3  23  1   
  6   4   6  1   
  7   4   7  1   
  8   4  24  1   
  9   5   8  1   
 10   5   9  1   
 11   5  25  1   
 12   6  10  1   
 13   6  26  1   
 14   6  27  1   
 15   7  11  1   
 16   7  28  1   
 17   7  29  1   
 18   8  12  1   
 19   8  13  1   
 20   8  30  1   
 21   9  14  1   
 22   9  31  1   
 23   9  32  1   
 24  10  15  1   
 25  10  33  1   
 26  10  34  1   
 27  11  15  1   
 28  11  35  1   
 29  11  36  1   
 30  12  14  1   
 31  12  37  1   
 32  12  38  1   
 33  13  16  1   
 34  13  39  1   
 35  13  40  1   
 36  15  17  1   
 37  15  41  1   
 38  16  18  ar  
 39  16  19  ar  
 40  17  42  1   
 41  18  20  ar  
 42  18  43  1   
 43  19  21  ar  
 44  19  44  1   
 45  20  22  ar  
 46  20  45  1   
 47  21  22  ar  
 48  21  46  1   
@<TRIPOS>SUBSTRUCTURE
  1 ****   3 GROUP 4 **** **** 0

# MOE 2024.06 (io_trps.svl 2023.06)
