@<TRIPOS>MOLECULE
NONAME
55 58 1 0 0 
SMALL
USER_CHARGES


@<TRIPOS>ATOM
  1 O        0.2980    -0.2280     0.1540 O.2   1 <1>  -0.5700 
  2 C        1.3060    -0.8450    -0.1370 C.2   1 <1>   0.5440 
  3 N        2.4580    -0.1440    -0.4270 N.am  1 <1>  -0.6600 
  4 C        1.2660    -2.2940    -0.1550 C.ar  1 <1>   0.0860 
  5 C        2.4610     1.3400    -0.6100 C.3   1 <1>   0.1400 
  6 C        3.8320    -0.7250    -0.3440 C.3   1 <1>   0.1400 
  7 C        0.7450    -3.0110     0.9210 C.ar  1 <1>  -0.1500 
  8 C        1.7430    -3.0300    -1.2400 C.ar  1 <1>  -0.1500 
  9 C        3.4030     2.0090     0.4040 C.3   1 <1>   0.1200 
 10 C        4.6970     0.0680     0.6510 C.3   1 <1>   0.1200 
 11 C        0.7170    -4.3930     0.9210 C.ar  1 <1>  -0.1500 
 12 C        1.7140    -4.4120    -1.2390 C.ar  1 <1>  -0.1500 
 13 O        4.6790     1.4330     0.3460 O.3   1 <1>  -0.5600 
 14 C        1.1970    -5.1290    -0.1620 C.ar  1 <1>   0.0860 
 15 C        1.1720    -6.5790    -0.1790 C.2   1 <1>   0.5440 
 16 O        2.1650    -7.1930    -0.5210 O.2   1 <1>  -0.5700 
 17 N        0.0440    -7.2880     0.1640 N.am  1 <1>  -0.6600 
 18 C       -1.3380    -6.7420     0.1350 C.3   1 <1>   0.1400 
 19 C        0.0140    -8.7730     0.1530 C.3   1 <1>   0.1400 
 20 C       -2.2210    -7.9420    -0.1980 C.3   1 <1>   0.2000 
 21 C       -1.4580    -9.1540     0.3240 C.3   1 <1>  -0.0800 
 22 O       -3.4610    -7.8490     0.4140 O.3   1 <1>  -0.6800 
 23 C       -1.8390   -10.4630    -0.3830 C.3   1 <1>   0.0210 
 24 C       -0.9900   -11.6140     0.1180 C.2   1 <1>   0.1080 
 25 N       -1.0330   -12.0380     1.3430 N.2   1 <1>  -0.7070 
 26 C       -0.0780   -12.3270    -0.6540 C.2   1 <1>  -0.1500 
 27 N       -0.1410   -13.0450     1.3850 N.pl3 1 <1>   0.3000 
 28 C        0.4520   -13.2380     0.1880 C.2   1 <1>  -0.3320 
 29 C        1.5060   -14.2960    -0.0810 C.3   1 <1>  -0.0600 
 30 H        2.7940     1.5710    -1.6060 H     1 <1>   0.0800 
 31 H        1.4710     1.7430    -0.4940 H     1 <1>   0.0800 
 32 H        3.7970    -1.7520    -0.0260 H     1 <1>   0.0800 
 33 H        4.2920    -0.6900    -1.3160 H     1 <1>   0.0800 
 34 H        0.3610    -2.4630     1.7650 H     1 <1>   0.1500 
 35 H        2.1380    -2.5040    -2.0910 H     1 <1>   0.1500 
 36 H        3.0180     1.9020     1.4030 H     1 <1>   0.0800 
 37 H        3.5040     3.0560     0.1810 H     1 <1>   0.0800 
 38 H        5.7180    -0.2660     0.6050 H     1 <1>   0.0800 
 39 H        4.3350    -0.0660     1.6560 H     1 <1>   0.0800 
 40 H        0.3220    -4.9170     1.7730 H     1 <1>   0.1500 
 41 H        2.0980    -4.9590    -2.0840 H     1 <1>   0.1500 
 42 H       -1.5830    -6.3500     1.1060 H     1 <1>   0.0800 
 43 H       -1.4340    -5.9760    -0.6150 H     1 <1>   0.0800 
 44 H        0.3970    -9.1260    -0.7900 H     1 <1>   0.0800 
 45 H        0.6180    -9.1740     0.9500 H     1 <1>   0.0800 
 46 H       -2.3700    -7.9960    -1.2630 H     1 <1>   0.0800 
 47 H       -1.6320    -9.2640     1.3810 H     1 <1>   0.0800 
 48 H       -3.3770    -8.0080     1.3740 H     1 <1>   0.4000 
 49 H       -1.7130   -10.3610    -1.4450 H     1 <1>   0.0800 
 50 H       -2.8730   -10.6880    -0.1890 H     1 <1>   0.0800 
 51 H        0.1390   -12.1640    -1.6940 H     1 <1>   0.1500 
 52 H        0.0400   -13.5790     2.2440 H     1 <1>   0.2700 
 53 H        1.8230   -14.2490    -1.1080 H     1 <1>   0.0800 
 54 H        1.1070   -15.2760     0.1090 H     1 <1>   0.0800 
 55 H        2.3630   -14.1360     0.5480 H     1 <1>   0.0800 
@<TRIPOS>BOND
  1   1   2  2   
  2   2   3  am  
  3   2   4  1   
  4   3   5  1   
  5   3   6  1   
  6   4   7  ar  
  7   4   8  ar  
  8   5   9  1   
  9   5  30  1   
 10   5  31  1   
 11   6  10  1   
 12   6  32  1   
 13   6  33  1   
 14   7  11  ar  
 15   7  34  1   
 16   8  12  ar  
 17   8  35  1   
 18   9  13  1   
 19   9  36  1   
 20   9  37  1   
 21  10  13  1   
 22  10  38  1   
 23  10  39  1   
 24  11  14  ar  
 25  11  40  1   
 26  12  14  ar  
 27  12  41  1   
 28  14  15  1   
 29  15  16  2   
 30  15  17  am  
 31  17  18  1   
 32  17  19  1   
 33  18  20  1   
 34  18  42  1   
 35  18  43  1   
 36  19  21  1   
 37  19  44  1   
 38  19  45  1   
 39  20  21  1   
 40  20  22  1   
 41  20  46  1   
 42  21  23  1   
 43  21  47  1   
 44  22  48  1   
 45  23  24  1   
 46  23  49  1   
 47  23  50  1   
 48  24  25  2   
 49  24  26  1   
 50  25  27  1   
 51  26  28  2   
 52  26  51  1   
 53  27  28  1   
 54  27  52  1   
 55  28  29  1   
 56  29  53  1   
 57  29  54  1   
 58  29  55  1   
@<TRIPOS>SUBSTRUCTURE
  1 ****  14 GROUP 4 **** **** 0

# MOE 2024.06 (io_trps.svl 2023.06)
