@<TRIPOS>MOLECULE
NONAME
53 55 1 0 0 
SMALL
USER_CHARGES


@<TRIPOS>ATOM
  1 O       -0.0620     0.9960    -0.5830 O.2   1 <1>  -0.5700 
  2 C       -0.0110     2.1960    -0.4900 C.2   1 <1>   0.5690 
  3 N       -0.7970     2.8540     0.3890 N.am  1 <1>  -0.7300 
  4 C        0.9250     3.0010    -1.3930 C.3   1 <1>   0.1810 
  5 C       -0.8480     4.3330     0.5060 C.3   1 <1>   0.3640 
  6 O        1.2130     4.2740    -0.8630 O.3   1 <1>  -0.5600 
  7 C       -2.3000     4.7860     0.3700 C.ar  1 <1>  -0.1440 
  8 C        0.0690     5.0470    -0.5220 C.3   1 <1>   0.2610 
  9 C       -3.1530     4.2240    -0.5730 C.ar  1 <1>  -0.1500 
 10 C       -2.7850     5.7890     1.1990 C.ar  1 <1>  -0.1500 
 11 C        0.4400     6.4410     0.0120 C.2   1 <1>   0.5690 
 12 C       -4.4650     4.6500    -0.6780 C.ar  1 <1>  -0.1500 
 13 C       -4.0970     6.2170     1.0940 C.ar  1 <1>  -0.1500 
 14 O       -0.2820     7.3470    -0.3370 O.2   1 <1>  -0.5700 
 15 N        1.4990     6.6740     0.8710 N.am  1 <1>  -0.6600 
 16 C       -4.9390     5.6470     0.1560 C.ar  1 <1>  -0.1500 
 17 C        1.8500     8.0730     1.2800 C.3   1 <1>   0.1400 
 18 C        2.2280     5.6040     1.6150 C.3   1 <1>   0.1400 
 19 C        2.3140     8.9700     0.1100 C.3   1 <1>  -0.0800 
 20 C        3.6470     5.4340     1.0810 C.3   1 <1>  -0.2400 
 21 C        3.5000     8.3840    -0.6780 C.3   1 <1>  -0.1600 
 22 C        2.6730    10.3700     0.6430 C.3   1 <1>  -0.1600 
 23 C        3.9410     9.3190    -1.8110 C.3   1 <1>  -0.1600 
 24 C        3.1160    11.3090    -0.4880 C.3   1 <1>  -0.1600 
 25 C        4.2890    10.7130    -1.2760 C.3   1 <1>  -0.1600 
 26 H       -1.4690     2.3200     0.9430 H     1 <1>   0.3700 
 27 H        0.4770     3.1270    -2.3610 H     1 <1>   0.0800 
 28 H        1.8550     2.4740    -1.5040 H     1 <1>   0.0800 
 29 H       -0.5120     4.5880     1.4950 H     1 <1>   0.0800 
 30 H       -0.4870     5.1940    -1.4310 H     1 <1>   0.0800 
 31 H       -2.8050     3.4490    -1.2330 H     1 <1>   0.1500 
 32 H       -2.1430     6.2540     1.9280 H     1 <1>   0.1500 
 33 H       -5.1180     4.2070    -1.4090 H     1 <1>   0.1500 
 34 H       -4.4610     6.9970     1.7390 H     1 <1>   0.1500 
 35 H       -5.9590     5.9800     0.0750 H     1 <1>   0.1500 
 36 H        0.9820     8.5190     1.7340 H     1 <1>   0.0800 
 37 H        2.6270     8.0460     2.0230 H     1 <1>   0.0800 
 38 H        2.2630     5.8570     2.6610 H     1 <1>   0.0800 
 39 H        1.7150     4.6640     1.5320 H     1 <1>   0.0800 
 40 H        1.4890     9.0920    -0.5690 H     1 <1>   0.0800 
 41 H        4.2370     6.3070     1.2850 H     1 <1>   0.0800 
 42 H        3.6270     5.2470     0.0220 H     1 <1>   0.0800 
 43 H        4.1140     4.5950     1.5630 H     1 <1>   0.0800 
 44 H        4.3310     8.2250    -0.0140 H     1 <1>   0.0800 
 45 H        3.2200     7.4360    -1.1010 H     1 <1>   0.0800 
 46 H        1.8170    10.7980     1.1370 H     1 <1>   0.0800 
 47 H        3.4670    10.2890     1.3640 H     1 <1>   0.0800 
 48 H        4.7970     8.9010    -2.3120 H     1 <1>   0.0800 
 49 H        3.1450     9.4020    -2.5310 H     1 <1>   0.0800 
 50 H        2.2880    11.4750    -1.1560 H     1 <1>   0.0800 
 51 H        3.4040    12.2600    -0.0760 H     1 <1>   0.0800 
 52 H        4.5390    11.3630    -2.0970 H     1 <1>   0.0800 
 53 H        5.1510    10.6440    -0.6350 H     1 <1>   0.0800 
@<TRIPOS>BOND
  1   1   2  2   
  2   2   3  am  
  3   2   4  1   
  4   3   5  1   
  5   3  26  1   
  6   4   6  1   
  7   4  27  1   
  8   4  28  1   
  9   5   7  1   
 10   5   8  1   
 11   5  29  1   
 12   6   8  1   
 13   7   9  ar  
 14   7  10  ar  
 15   8  11  1   
 16   8  30  1   
 17   9  12  ar  
 18   9  31  1   
 19  10  13  ar  
 20  10  32  1   
 21  11  14  2   
 22  11  15  am  
 23  12  16  ar  
 24  12  33  1   
 25  13  16  ar  
 26  13  34  1   
 27  15  17  1   
 28  15  18  1   
 29  16  35  1   
 30  17  19  1   
 31  17  36  1   
 32  17  37  1   
 33  18  20  1   
 34  18  38  1   
 35  18  39  1   
 36  19  21  1   
 37  19  22  1   
 38  19  40  1   
 39  20  41  1   
 40  20  42  1   
 41  20  43  1   
 42  21  23  1   
 43  21  44  1   
 44  21  45  1   
 45  22  24  1   
 46  22  46  1   
 47  22  47  1   
 48  23  25  1   
 49  23  48  1   
 50  23  49  1   
 51  24  25  1   
 52  24  50  1   
 53  24  51  1   
 54  25  52  1   
 55  25  53  1   
@<TRIPOS>SUBSTRUCTURE
  1 ****  11 GROUP 4 **** **** 0

# MOE 2024.06 (io_trps.svl 2023.06)
