@<TRIPOS>MOLECULE
NONAME
39 41 1 0 0 
SMALL
USER_CHARGES


@<TRIPOS>ATOM
  1 O        0.8180    -0.6530     1.3850 O.3   1 <1>  -0.0190 
  2 N        0.4390    -1.8900     1.2640 N.2   1 <1>  -0.4100 
  3 C        1.4700    -0.4090     0.2730 C.2   1 <1>   0.2980 
  4 C        0.8690    -2.3020     0.1370 C.2   1 <1>   0.3350 
  5 N        1.5370    -1.3860    -0.5440 N.2   1 <1>  -0.5650 
  6 C        2.0700     0.9700     0.0610 C.3   1 <1>   0.0200 
  7 C        0.6450    -3.7090    -0.4190 C.3   1 <1>   0.5240 
  8 C        0.9900     2.0490    -0.0930 C.3   1 <1>  -0.2400 
  9 N       -0.5810    -4.3550     0.1690 N.4   1 <1>  -0.9590 
 10 C       -0.6120    -5.8330    -0.0790 C.3   1 <1>   0.3430 
 11 C       -1.8230    -3.6710    -0.3010 C.3   1 <1>   0.3430 
 12 C       -1.8250    -6.4990     0.5950 C.3   1 <1>   0.1000 
 13 C       -3.0390    -4.2800     0.3990 C.3   1 <1>  -0.1600 
 14 C       -1.8970    -7.9750     0.2330 C.2   1 <1>  -0.3320 
 15 C       -3.1290    -5.7990     0.1830 C.3   1 <1>  -0.1600 
 16 N       -2.6730    -8.8600     0.9010 N.pl3 1 <1>   0.3000 
 17 C       -1.2700    -8.6790    -0.7390 C.2   1 <1>  -0.1500 
 18 N       -2.5610   -10.0980     0.3950 N.2   1 <1>  -0.7070 
 19 C       -1.7230    -9.9840    -0.5870 C.2   1 <1>   0.1390 
 20 H        2.6830     0.9520    -0.8230 H     1 <1>   0.0800 
 21 H        2.7030     1.2060     0.8980 H     1 <1>   0.0800 
 22 H        1.5170    -4.2970    -0.1900 H     1 <1>   0.0800 
 23 H        0.5530    -3.6480    -1.4900 H     1 <1>   0.0800 
 24 H        0.3580     1.8240    -0.9340 H     1 <1>   0.0800 
 25 H        1.4490     3.0080    -0.2550 H     1 <1>   0.0800 
 26 H        0.3830     2.1040     0.7940 H     1 <1>   0.0800 
 27 H       -0.5190    -4.1800     1.1840 H     1 <1>   0.4500 
 28 H        0.2880    -6.2920     0.2970 H     1 <1>   0.0800 
 29 H       -0.6660    -6.0180    -1.1390 H     1 <1>   0.0800 
 30 H       -1.9270    -3.7880    -1.3680 H     1 <1>   0.0800 
 31 H       -1.7740    -2.6150    -0.0780 H     1 <1>   0.0800 
 32 H       -1.6980    -6.4190     1.6610 H     1 <1>   0.0800 
 33 H       -3.9310    -3.8140     0.0140 H     1 <1>   0.0800 
 34 H       -2.9940    -4.0570     1.4510 H     1 <1>   0.0800 
 35 H       -3.9540    -6.1950     0.7510 H     1 <1>   0.0800 
 36 H       -3.3270    -6.0010    -0.8570 H     1 <1>   0.0800 
 37 H       -3.2890    -8.6650     1.7010 H     1 <1>   0.2700 
 38 H       -0.5720    -8.3680    -1.4960 H     1 <1>   0.1500 
 39 H       -1.4220   -10.8150    -1.2040 H     1 <1>   0.1500 
@<TRIPOS>BOND
  1   1   2  1   
  2   1   3  1   
  3   2   4  2   
  4   3   5  2   
  5   3   6  1   
  6   4   5  1   
  7   4   7  1   
  8   6   8  1   
  9   6  20  1   
 10   6  21  1   
 11   7   9  1   
 12   7  22  1   
 13   7  23  1   
 14   8  24  1   
 15   8  25  1   
 16   8  26  1   
 17   9  10  1   
 18   9  11  1   
 19   9  27  1   
 20  10  12  1   
 21  10  28  1   
 22  10  29  1   
 23  11  13  1   
 24  11  30  1   
 25  11  31  1   
 26  12  14  1   
 27  12  15  1   
 28  12  32  1   
 29  13  15  1   
 30  13  33  1   
 31  13  34  1   
 32  14  16  1   
 33  14  17  2   
 34  15  35  1   
 35  15  36  1   
 36  16  18  1   
 37  16  37  1   
 38  17  19  1   
 39  17  38  1   
 40  18  19  2   
 41  19  39  1   
@<TRIPOS>SUBSTRUCTURE
  1 ****   9 GROUP 4 **** **** 0

# MOE 2024.06 (io_trps.svl 2023.06)
