@<TRIPOS>MOLECULE
NONAME
46 48 1 0 0 
SMALL
USER_CHARGES


@<TRIPOS>ATOM
  1 O        2.0710     0.1410     2.3970 O.co2 1 <1>  -0.9000 
  2 C        1.9220    -0.1040     1.1950 C.2   1 <1>   0.9060 
  3 O        1.5020    -1.2010     0.7990 O.co2 1 <1>  -0.9000 
  4 C        2.3980     0.8980     0.1420 C.3   1 <1>  -0.1060 
  5 C        3.6980     0.2380    -0.3800 C.3   1 <1>   0.2000 
  6 C        2.7260     2.3010     0.7450 C.3   1 <1>  -0.1600 
  7 C        1.3210     1.0790    -0.9700 C.3   1 <1>  -0.0170 
  8 O        3.4160    -0.6910    -1.3700 O.3   1 <1>  -0.6800 
  9 C        4.7360     1.2590    -0.8580 C.3   1 <1>   0.2090 
 10 C        4.1280     2.3670     1.3520 C.3   1 <1>   0.2090 
 11 C        0.1170     1.9240    -0.5570 C.ar  1 <1>  -0.1440 
 12 N        5.1670     2.1320     0.2930 N.pl3 1 <1>  -0.8380 
 13 C       -0.8150     1.4210     0.3370 C.ar  1 <1>  -0.1500 
 14 C       -0.0630     3.1990    -1.0740 C.ar  1 <1>  -0.1500 
 15 C        6.4750     2.2750     0.6020 C.ar  1 <1>   0.1000 
 16 C       -1.9080     2.1810     0.7140 C.ar  1 <1>  -0.1500 
 17 C       -1.1560     3.9610    -0.7000 C.ar  1 <1>  -0.1500 
 18 C        7.1560     3.4940     0.4500 C.ar  1 <1>  -0.1440 
 19 C        7.1900     1.1840     1.1030 C.ar  1 <1>  -0.1500 
 20 C       -2.0800     3.4530     0.1960 C.ar  1 <1>  -0.1500 
 21 C        8.4820     3.5760     0.7950 C.ar  1 <1>   0.2110 
 22 C        6.4140     4.7070    -0.1030 C.3   1 <1>  -0.0970 
 23 C        8.5110     1.3060     1.4360 C.ar  1 <1>   0.2110 
 24 N        9.1450     2.4950     1.2810 N.ar  1 <1>  -0.1790 
 25 H        4.1600    -0.3170     0.4210 H     1 <1>   0.0800 
 26 H        1.9990     2.5440     1.5010 H     1 <1>   0.0800 
 27 H        2.6630     3.0620    -0.0100 H     1 <1>   0.0800 
 28 H        1.7840     1.5320    -1.8280 H     1 <1>   0.0800 
 29 H        0.9550     0.1190    -1.2910 H     1 <1>   0.0800 
 30 H        2.7190    -1.2850    -0.9880 H     1 <1>   0.4000 
 31 H        4.3040     1.8750    -1.6270 H     1 <1>   0.0800 
 32 H        5.5860     0.7410    -1.2630 H     1 <1>   0.0800 
 33 H        4.2170     1.6190     2.1230 H     1 <1>   0.0800 
 34 H        4.2810     3.3320     1.8020 H     1 <1>   0.0800 
 35 H       -0.6870     0.4320     0.7470 H     1 <1>   0.1500 
 36 H        0.6510     3.6020    -1.7690 H     1 <1>   0.1500 
 37 H       -2.6180     1.7770     1.4140 H     1 <1>   0.1500 
 38 H       -1.2860     4.9480    -1.1050 H     1 <1>   0.1500 
 39 H        6.6670     0.2500     1.2250 H     1 <1>   0.1500 
 40 H       -2.9300     4.0430     0.4900 H     1 <1>   0.1500 
 41 H        9.0240     4.5020     0.6860 H     1 <1>   0.1500 
 42 H        5.9710     4.4600    -1.0530 H     1 <1>   0.0800 
 43 H        7.0680     5.5480    -0.2400 H     1 <1>   0.0800 
 44 H        5.6240     4.9910     0.5700 H     1 <1>   0.0800 
 45 H        9.0620     0.4650     1.8260 H     1 <1>   0.1500 
 46 H       10.1350     2.5800     1.5340 H     1 <1>   0.4570 
@<TRIPOS>BOND
  1   1   2  ar  
  2   2   3  ar  
  3   2   4  1   
  4   4   5  1   
  5   4   6  1   
  6   4   7  1   
  7   5   8  1   
  8   5   9  1   
  9   5  25  1   
 10   6  10  1   
 11   6  26  1   
 12   6  27  1   
 13   7  11  1   
 14   7  28  1   
 15   7  29  1   
 16   8  30  1   
 17   9  12  1   
 18   9  31  1   
 19   9  32  1   
 20  10  12  1   
 21  10  33  1   
 22  10  34  1   
 23  11  13  ar  
 24  11  14  ar  
 25  12  15  1   
 26  13  16  ar  
 27  13  35  1   
 28  14  17  ar  
 29  14  36  1   
 30  15  18  ar  
 31  15  19  ar  
 32  16  20  ar  
 33  16  37  1   
 34  17  20  ar  
 35  17  38  1   
 36  18  21  ar  
 37  18  22  1   
 38  19  23  ar  
 39  19  39  1   
 40  20  40  1   
 41  21  24  ar  
 42  21  41  1   
 43  22  42  1   
 44  22  43  1   
 45  22  44  1   
 46  23  24  ar  
 47  23  45  1   
 48  24  46  1   
@<TRIPOS>SUBSTRUCTURE
  1 ****   6 GROUP 4 **** **** 0

# MOE 2024.06 (io_trps.svl 2023.06)
