@<TRIPOS>MOLECULE
NONAME
39 42 1 0 0 
SMALL
USER_CHARGES


@<TRIPOS>ATOM
  1 O        0.0010    -0.0950     0.8590 O.3   1 <1>  -0.0190 
  2 N       -0.6800     0.9590     0.5300 N.2   1 <1>  -0.4100 
  3 C        1.2520     0.2610     0.6900 C.2   1 <1>   0.2980 
  4 C        0.1560     1.8590     0.1920 C.2   1 <1>   0.3350 
  5 N        1.4190     1.4620     0.2830 N.2   1 <1>  -0.5650 
  6 C        2.3440    -0.7720     1.0170 C.3   1 <1>   0.4690 
  7 C       -0.1850     3.2760    -0.2720 C.3   1 <1>   0.1010 
  8 N        2.2290    -2.0420     0.2300 N.pl3 1 <1>  -0.8380 
  9 C        3.7700    -0.2880     0.7280 C.3   1 <1>  -0.1600 
 10 C       -0.1050     4.2610     0.9020 C.3   1 <1>  -0.2400 
 11 C       -1.5680     3.3610    -0.9370 C.3   1 <1>  -0.2400 
 12 C        1.3040    -3.0040     0.5660 C.ar  1 <1>   0.4100 
 13 C        3.5410    -2.4270    -0.3360 C.3   1 <1>   0.2090 
 14 C        4.5510    -1.5530     0.3940 C.3   1 <1>  -0.1600 
 15 N        0.8210    -3.0130     1.7860 N.ar  1 <1>  -0.6200 
 16 C        0.8840    -3.9620    -0.3670 C.ar  1 <1>   0.0000 
 17 C       -0.0690    -3.9770     2.0740 C.ar  1 <1>   0.4700 
 18 C       -0.0150    -4.8950     0.0550 C.ar  1 <1>   0.1050 
 19 C        1.1090    -4.2850    -1.7150 C.2   1 <1>   0.1390 
 20 N       -0.5190    -4.9290     1.2960 N.ar  1 <1>  -0.5670 
 21 N       -0.2610    -5.7030    -1.0050 N.pl3 1 <1>   0.3000 
 22 N        0.4430    -5.3240    -2.1050 N.2   1 <1>  -0.7070 
 23 H        2.2790    -1.0040     2.0660 H     1 <1>   0.0800 
 24 H        0.5520     3.5600    -1.0040 H     1 <1>   0.0800 
 25 H        3.7660     0.3600    -0.1310 H     1 <1>   0.0800 
 26 H        4.1810     0.2470     1.5650 H     1 <1>   0.0800 
 27 H       -0.8220     3.9960     1.6580 H     1 <1>   0.0800 
 28 H       -0.3030     5.2630     0.5670 H     1 <1>   0.0800 
 29 H        0.8780     4.2320     1.3380 H     1 <1>   0.0800 
 30 H       -2.3400     3.1050    -0.2330 H     1 <1>   0.0800 
 31 H       -1.6190     2.6730    -1.7630 H     1 <1>   0.0800 
 32 H       -1.7480     4.3540    -1.3060 H     1 <1>   0.0800 
 33 H        3.7450    -3.4740    -0.1850 H     1 <1>   0.0800 
 34 H        3.5470    -2.2030    -1.3890 H     1 <1>   0.0800 
 35 H        4.8560    -2.0500     1.2990 H     1 <1>   0.0800 
 36 H        5.4190    -1.3550    -0.2100 H     1 <1>   0.0800 
 37 H       -0.4530    -3.9550     3.0800 H     1 <1>   0.1500 
 38 H        1.7660    -3.7190    -2.3520 H     1 <1>   0.1500 
 39 H       -0.9070    -6.4980    -0.9890 H     1 <1>   0.2700 
@<TRIPOS>BOND
  1   1   2  1   
  2   1   3  1   
  3   2   4  2   
  4   3   5  2   
  5   3   6  1   
  6   4   5  1   
  7   4   7  1   
  8   6   8  1   
  9   6   9  1   
 10   6  23  1   
 11   7  10  1   
 12   7  11  1   
 13   7  24  1   
 14   8  12  1   
 15   8  13  1   
 16   9  14  1   
 17   9  25  1   
 18   9  26  1   
 19  10  27  1   
 20  10  28  1   
 21  10  29  1   
 22  11  30  1   
 23  11  31  1   
 24  11  32  1   
 25  12  15  ar  
 26  12  16  ar  
 27  13  14  1   
 28  13  33  1   
 29  13  34  1   
 30  14  35  1   
 31  14  36  1   
 32  15  17  ar  
 33  16  18  ar  
 34  16  19  1   
 35  17  20  ar  
 36  17  37  1   
 37  18  20  ar  
 38  18  21  1   
 39  19  22  2   
 40  19  38  1   
 41  21  22  1   
 42  21  39  1   
@<TRIPOS>SUBSTRUCTURE
  1 ****   8 GROUP 4 **** **** 0

# MOE 2024.06 (io_trps.svl 2023.06)
