@<TRIPOS>MOLECULE
NONAME
60 62 1 0 0 
SMALL
USER_CHARGES


@<TRIPOS>ATOM
  1 S       -0.5140     0.0270    -0.2920 S.o2  1 <1>   1.3330 
  2 O       -1.1850    -1.0180     0.4470 O.2   1 <1>  -0.6500 
  3 O       -0.4850    -0.0220    -1.7370 O.2   1 <1>  -0.6500 
  4 N        1.0880     0.0980     0.2660 N.am  1 <1>  -0.8490 
  5 C       -1.2000     1.6140     0.1870 C.3   1 <1>  -0.0550 
  6 C        1.2330    -0.2610     1.6810 C.3   1 <1>   0.1160 
  7 C        2.0040    -0.7050    -0.5490 C.3   1 <1>   0.1160 
  8 C       -0.5940     2.8230    -0.5610 C.3   1 <1>  -0.0800 
  9 C       -1.3290     4.1430    -0.3140 C.3   1 <1>   0.2000 
 10 C        0.8680     3.1310    -0.2060 C.3   1 <1>   0.1400 
 11 O       -1.5840     4.2730     1.0430 O.3   1 <1>  -0.6800 
 12 C       -0.3040     5.2050    -0.7030 C.3   1 <1>   0.1400 
 13 N        0.9950     4.6080    -0.3030 N.am  1 <1>  -0.6600 
 14 C        2.2080     5.2530    -0.2600 C.2   1 <1>   0.5440 
 15 O        3.2170     4.5900    -0.1220 O.2   1 <1>  -0.5700 
 16 C        2.3160     6.6930    -0.3790 C.ar  1 <1>   0.0860 
 17 C        1.6930     7.5540     0.5230 C.ar  1 <1>  -0.1500 
 18 C        3.0710     7.2680    -1.3990 C.ar  1 <1>  -0.1500 
 19 C        1.8160     8.9270     0.4130 C.ar  1 <1>  -0.1500 
 20 C        3.2000     8.6390    -1.5170 C.ar  1 <1>  -0.1500 
 21 C        2.5800     9.4800    -0.6050 C.ar  1 <1>  -0.1430 
 22 C        2.7500    10.9840    -0.7100 C.3   1 <1>   0.4860 
 23 N        3.6860    11.4310     0.3560 N.4   1 <1>  -0.9590 
 24 C        3.7090    12.9170     0.4740 C.3   1 <1>   0.3430 
 25 C        5.0550    10.8600     0.1670 C.3   1 <1>   0.3430 
 26 C        4.5650    13.3250     1.6740 C.3   1 <1>  -0.1600 
 27 C        5.9370    11.2340     1.3600 C.3   1 <1>  -0.1600 
 28 C        5.9850    12.7510     1.5820 C.3   1 <1>  -0.1600 
 29 H       -2.2530     1.5950    -0.0150 H     1 <1>   0.0800 
 30 H       -1.0830     1.7470     1.2450 H     1 <1>   0.0800 
 31 H        2.2480    -0.1010     2.0010 H     1 <1>   0.0800 
 32 H        0.9750    -1.2970     1.8350 H     1 <1>   0.0800 
 33 H        0.5860     0.3480     2.2880 H     1 <1>   0.0800 
 34 H        3.0100    -0.6180    -0.1770 H     1 <1>   0.0800 
 35 H        1.9940    -0.3560    -1.5680 H     1 <1>   0.0800 
 36 H        1.7070    -1.7410    -0.5350 H     1 <1>   0.0800 
 37 H       -0.6330     2.6240    -1.6180 H     1 <1>   0.0800 
 38 H       -2.2590     4.2270    -0.8520 H     1 <1>   0.0800 
 39 H        1.5490     2.6440    -0.8840 H     1 <1>   0.0800 
 40 H        1.0990     2.8280     0.8010 H     1 <1>   0.0800 
 41 H       -0.7280     4.3550     1.5100 H     1 <1>   0.4000 
 42 H       -0.5010     6.1400    -0.2100 H     1 <1>   0.0800 
 43 H       -0.3100     5.3480    -1.7700 H     1 <1>   0.0800 
 44 H        1.1100     7.1300     1.3230 H     1 <1>   0.1500 
 45 H        3.5630     6.6150    -2.1010 H     1 <1>   0.1500 
 46 H        1.3110     9.5510     1.1310 H     1 <1>   0.1500 
 47 H        3.7920     9.0360    -2.3260 H     1 <1>   0.1500 
 48 H        1.7900    11.4580    -0.5840 H     1 <1>   0.0800 
 49 H        3.1360    11.2460    -1.6820 H     1 <1>   0.0800 
 50 H        3.3350    11.0460     1.2400 H     1 <1>   0.4500 
 51 H        4.1230    13.3490    -0.4230 H     1 <1>   0.0800 
 52 H        2.7080    13.2960     0.6050 H     1 <1>   0.0800 
 53 H        5.0030     9.7850     0.0890 H     1 <1>   0.0800 
 54 H        5.4920    11.2470    -0.7390 H     1 <1>   0.0800 
 55 H        4.6190    14.3990     1.7190 H     1 <1>   0.0800 
 56 H        4.0930    12.9910     2.5820 H     1 <1>   0.0800 
 57 H        5.5680    10.7430     2.2440 H     1 <1>   0.0800 
 58 H        6.9350    10.8680     1.1860 H     1 <1>   0.0800 
 59 H        6.5290    12.9710     2.4860 H     1 <1>   0.0800 
 60 H        6.5090    13.2180     0.7640 H     1 <1>   0.0800 
@<TRIPOS>BOND
  1   1   2  2   
  2   1   3  2   
  3   1   4  am  
  4   1   5  1   
  5   4   6  1   
  6   4   7  1   
  7   5   8  1   
  8   5  29  1   
  9   5  30  1   
 10   6  31  1   
 11   6  32  1   
 12   6  33  1   
 13   7  34  1   
 14   7  35  1   
 15   7  36  1   
 16   8   9  1   
 17   8  10  1   
 18   8  37  1   
 19   9  11  1   
 20   9  12  1   
 21   9  38  1   
 22  10  13  1   
 23  10  39  1   
 24  10  40  1   
 25  11  41  1   
 26  12  13  1   
 27  12  42  1   
 28  12  43  1   
 29  13  14  am  
 30  14  15  2   
 31  14  16  1   
 32  16  17  ar  
 33  16  18  ar  
 34  17  19  ar  
 35  17  44  1   
 36  18  20  ar  
 37  18  45  1   
 38  19  21  ar  
 39  19  46  1   
 40  20  21  ar  
 41  20  47  1   
 42  21  22  1   
 43  22  23  1   
 44  22  48  1   
 45  22  49  1   
 46  23  24  1   
 47  23  25  1   
 48  23  50  1   
 49  24  26  1   
 50  24  51  1   
 51  24  52  1   
 52  25  27  1   
 53  25  53  1   
 54  25  54  1   
 55  26  28  1   
 56  26  55  1   
 57  26  56  1   
 58  27  28  1   
 59  27  57  1   
 60  27  58  1   
 61  28  59  1   
 62  28  60  1   
@<TRIPOS>SUBSTRUCTURE
  1 ****  14 GROUP 4 **** **** 0

# MOE 2024.06 (io_trps.svl 2023.06)
