@<TRIPOS>MOLECULE
NONAME
50 53 1 0 0 
SMALL
USER_CHARGES


@<TRIPOS>ATOM
  1 O       -0.0960     0.1290     1.7710 O.3   1 <1>  -0.6800 
  2 C        0.5630    -0.1130     0.5730 C.3   1 <1>   0.2000 
  3 C        1.2850    -1.4510     0.6920 C.3   1 <1>  -0.0800 
  4 C        1.7120     0.9000     0.4410 C.3   1 <1>   0.3430 
  5 C        2.4950    -1.0780     1.5550 C.3   1 <1>   0.3430 
  6 C        1.6740    -2.0070    -0.6980 C.3   1 <1>  -0.0170 
  7 N        2.8910     0.3080     1.1610 N.4   1 <1>  -0.9590 
  8 C        2.7800    -3.0460    -0.6170 C.ar  1 <1>   0.1670 
  9 C        4.1440     0.2850     0.3580 C.3   1 <1>   0.3430 
 10 N        4.0030    -2.6130    -0.6860 N.ar  1 <1>  -0.6200 
 11 C        2.4360    -4.3980    -0.4610 C.ar  1 <1>  -0.1500 
 12 C        4.6850     1.6970     0.1710 C.3   1 <1>  -0.1600 
 13 C        5.0020    -3.5360    -0.6210 C.ar  1 <1>   0.3100 
 14 C        3.4170    -5.3380    -0.3730 C.ar  1 <1>  -0.1500 
 15 C        6.0410     1.6630    -0.5540 C.3   1 <1>   0.0960 
 16 C        4.7540    -4.9160    -0.4510 C.ar  1 <1>   0.0000 
 17 C        6.3350    -3.1050    -0.7190 C.ar  1 <1>  -0.1500 
 18 N        6.6020     3.0220    -0.6600 N.pl3 1 <1>   0.3140 
 19 C        5.8440    -5.8030    -0.3700 C.ar  1 <1>  -0.1500 
 20 C        7.3820    -3.9850    -0.6400 C.ar  1 <1>  -0.1500 
 21 N        6.8900     3.7460     0.4350 N.2   1 <1>  -0.7070 
 22 C        6.8850     3.7020    -1.7880 C.2   1 <1>  -0.3020 
 23 C        7.1320    -5.3490    -0.4610 C.ar  1 <1>  -0.1500 
 24 C        7.3540     4.8700    -0.0230 C.2   1 <1>   0.1390 
 25 C        7.3740     4.9020    -1.4120 C.2   1 <1>  -0.1500 
 26 H       -0.9420    -0.3660     1.8240 H     1 <1>   0.4000 
 27 H       -0.1460    -0.0520    -0.2360 H     1 <1>   0.0800 
 28 H        0.6850    -2.1860     1.1990 H     1 <1>   0.0800 
 29 H        1.4270     1.8530     0.8560 H     1 <1>   0.0800 
 30 H        1.9520     1.0250    -0.6010 H     1 <1>   0.0800 
 31 H        3.3070    -1.7780     1.4490 H     1 <1>   0.0800 
 32 H        2.1840    -1.0700     2.5880 H     1 <1>   0.0800 
 33 H        2.0120    -1.2190    -1.3470 H     1 <1>   0.0800 
 34 H        0.8080    -2.4430    -1.1660 H     1 <1>   0.0800 
 35 H        3.0480     0.8450     2.0260 H     1 <1>   0.4500 
 36 H        4.8830    -0.3130     0.8680 H     1 <1>   0.0800 
 37 H        3.9590    -0.1700    -0.6030 H     1 <1>   0.0800 
 38 H        1.4000    -4.6840    -0.4120 H     1 <1>   0.1500 
 39 H        4.8220     2.1510     1.1370 H     1 <1>   0.0800 
 40 H        3.9990     2.2890    -0.4070 H     1 <1>   0.0800 
 41 H        3.1950    -6.3840    -0.2520 H     1 <1>   0.1500 
 42 H        5.9350     1.2560    -1.5430 H     1 <1>   0.0800 
 43 H        6.7450     1.0640    -0.0050 H     1 <1>   0.0800 
 44 H        6.5170    -2.0580    -0.8640 H     1 <1>   0.1500 
 45 H        5.6480    -6.8530    -0.2360 H     1 <1>   0.1500 
 46 H        8.4010    -3.6460    -0.7160 H     1 <1>   0.1500 
 47 H        6.7300     3.3080    -2.7760 H     1 <1>   0.1500 
 48 H        7.9630    -6.0310    -0.3990 H     1 <1>   0.1500 
 49 H        7.6830     5.6780     0.6090 H     1 <1>   0.1500 
 50 H        7.7130     5.7200    -2.0220 H     1 <1>   0.1500 
@<TRIPOS>BOND
  1   1   2  1   
  2   1  26  1   
  3   2   3  1   
  4   2   4  1   
  5   2  27  1   
  6   3   5  1   
  7   3   6  1   
  8   3  28  1   
  9   4   7  1   
 10   4  29  1   
 11   4  30  1   
 12   5   7  1   
 13   5  31  1   
 14   5  32  1   
 15   6   8  1   
 16   6  33  1   
 17   6  34  1   
 18   7   9  1   
 19   7  35  1   
 20   8  10  ar  
 21   8  11  ar  
 22   9  12  1   
 23   9  36  1   
 24   9  37  1   
 25  10  13  ar  
 26  11  14  ar  
 27  11  38  1   
 28  12  15  1   
 29  12  39  1   
 30  12  40  1   
 31  13  16  ar  
 32  13  17  ar  
 33  14  16  ar  
 34  14  41  1   
 35  15  18  1   
 36  15  42  1   
 37  15  43  1   
 38  16  19  ar  
 39  17  20  ar  
 40  17  44  1   
 41  18  21  1   
 42  18  22  1   
 43  19  23  ar  
 44  19  45  1   
 45  20  23  ar  
 46  20  46  1   
 47  21  24  2   
 48  22  25  2   
 49  22  47  1   
 50  23  48  1   
 51  24  25  1   
 52  24  49  1   
 53  25  50  1   
@<TRIPOS>SUBSTRUCTURE
  1 ****   9 GROUP 4 **** **** 0

# MOE 2024.06 (io_trps.svl 2023.06)
