@<TRIPOS>MOLECULE
NONAME
47 50 1 0 0 
SMALL
USER_CHARGES


@<TRIPOS>ATOM
  1 S        0.0470    -0.2820     2.1560 S.o2  1 <1>   1.5000 
  2 O        0.3870     0.9450     2.8450 O.2   1 <1>  -0.6500 
  3 O       -0.5990    -1.3490     2.8900 O.2   1 <1>  -0.6500 
  4 N       -0.9860     0.1410     0.8820 N.am  1 <1>  -0.8490 
  5 C        1.4810    -0.9670     1.2900 C.2   1 <1>  -0.0220 
  6 C       -2.3550     0.3850     1.3650 C.3   1 <1>   0.1960 
  7 C       -0.5000     1.3110     0.1430 C.3   1 <1>   0.1960 
  8 S        2.9960    -0.0490     1.3310 S.3   1 <1>  -0.0800 
  9 C        1.6510    -2.0840     0.5550 C.2   1 <1>  -0.1500 
 10 C       -3.3420     0.5690     0.1960 C.3   1 <1>   0.0000 
 11 C       -1.3690     1.5610    -1.0930 C.3   1 <1>  -0.1600 
 12 C        3.8300    -1.2410     0.3290 C.ar  1 <1>   0.0400 
 13 C        2.9630    -2.2700     0.0010 C.ar  1 <1>   0.0000 
 14 C       -4.7680     0.7930     0.7320 C.3   1 <1>   0.2000 
 15 C       -2.8500     1.7260    -0.7150 C.3   1 <1>  -0.1600 
 16 C       -3.5300    -0.7240    -0.6190 C.3   1 <1>  -0.1600 
 17 C        5.1470    -1.1950    -0.0890 C.ar  1 <1>  -0.1500 
 18 C        3.4490    -3.3060    -0.7910 C.ar  1 <1>  -0.1500 
 19 O       -4.9690     2.1140     1.1370 O.3   1 <1>  -0.5600 
 20 C       -5.7010     0.4040    -0.4170 C.3   1 <1>  -0.1600 
 21 C       -4.9210    -0.6180    -1.2570 C.3   1 <1>  -0.1600 
 22 C        5.6120    -2.2340    -0.8760 C.ar  1 <1>  -0.1500 
 23 C        4.7640    -3.2830    -1.2230 C.ar  1 <1>  -0.1500 
 24 C       -6.1180     2.3310     1.8930 C.3   1 <1>   0.0400 
 25 H       -2.6830    -0.4480     1.9630 H     1 <1>   0.0800 
 26 H       -2.3690     1.2640     1.9900 H     1 <1>   0.0800 
 27 H       -0.5170     2.1820     0.7800 H     1 <1>   0.0800 
 28 H        0.5160     1.1490    -0.1750 H     1 <1>   0.0800 
 29 H        0.8810    -2.8130     0.3700 H     1 <1>   0.1500 
 30 H       -1.0280     2.4510    -1.5890 H     1 <1>   0.0800 
 31 H       -1.2440     0.7430    -1.7790 H     1 <1>   0.0800 
 32 H       -4.9370     0.1400     1.5720 H     1 <1>   0.0800 
 33 H       -3.4500     1.7970    -1.6050 H     1 <1>   0.0800 
 34 H       -2.9490     2.6590    -0.1870 H     1 <1>   0.0800 
 35 H       -2.7630    -0.8760    -1.3560 H     1 <1>   0.0800 
 36 H       -3.5200    -1.5690     0.0470 H     1 <1>   0.0800 
 37 H        5.7820    -0.3740     0.1930 H     1 <1>   0.1500 
 38 H        2.7990    -4.1190    -1.0610 H     1 <1>   0.1500 
 39 H       -6.6140    -0.0220    -0.0420 H     1 <1>   0.0800 
 40 H       -5.9220     1.2690    -1.0180 H     1 <1>   0.0800 
 41 H       -5.4110    -1.5770    -1.2650 H     1 <1>   0.0800 
 42 H       -4.8370    -0.2630    -2.2700 H     1 <1>   0.0800 
 43 H        6.6310    -2.2340    -1.2210 H     1 <1>   0.1500 
 44 H        5.1400    -4.0850    -1.8350 H     1 <1>   0.1500 
 45 H       -6.1460     3.3710     2.1650 H     1 <1>   0.0800 
 46 H       -6.0790     1.7260     2.7830 H     1 <1>   0.0800 
 47 H       -6.9860     2.0890     1.3060 H     1 <1>   0.0800 
@<TRIPOS>BOND
  1   1   2  2   
  2   1   3  2   
  3   1   4  am  
  4   1   5  1   
  5   4   6  1   
  6   4   7  1   
  7   5   8  1   
  8   5   9  2   
  9   6  10  1   
 10   6  25  1   
 11   6  26  1   
 12   7  11  1   
 13   7  27  1   
 14   7  28  1   
 15   8  12  1   
 16   9  13  1   
 17   9  29  1   
 18  10  14  1   
 19  10  15  1   
 20  10  16  1   
 21  11  15  1   
 22  11  30  1   
 23  11  31  1   
 24  12  13  ar  
 25  12  17  ar  
 26  13  18  ar  
 27  14  19  1   
 28  14  20  1   
 29  14  32  1   
 30  15  33  1   
 31  15  34  1   
 32  16  21  1   
 33  16  35  1   
 34  16  36  1   
 35  17  22  ar  
 36  17  37  1   
 37  18  23  ar  
 38  18  38  1   
 39  19  24  1   
 40  20  21  1   
 41  20  39  1   
 42  20  40  1   
 43  21  41  1   
 44  21  42  1   
 45  22  23  ar  
 46  22  43  1   
 47  23  44  1   
 48  24  45  1   
 49  24  46  1   
 50  24  47  1   
@<TRIPOS>SUBSTRUCTURE
  1 ****   4 GROUP 4 **** **** 0

# MOE 2024.06 (io_trps.svl 2023.06)
