@<TRIPOS>MOLECULE
NONAME
44 46 1 0 0 
SMALL
USER_CHARGES


@<TRIPOS>ATOM
  1 O       -0.3030     0.8200     1.8350 O.2   1 <1>  -0.5700 
  2 C       -0.4760     1.9110     1.2870 C.2   1 <1>   0.5440 
  3 N       -1.3900     2.7630     1.9030 N.am  1 <1>  -0.6600 
  4 C        0.2780     2.2960     0.1100 C.ar  1 <1>   0.3960 
  5 C       -1.4030     4.2190     1.6230 C.3   1 <1>   0.1400 
  6 C       -2.6310     2.1740     2.4670 C.3   1 <1>   0.1400 
  7 N        1.5930     2.5910     0.2480 N.ar  1 <1>  -0.6200 
  8 C       -0.3740     2.3990    -1.1590 C.ar  1 <1>  -0.1710 
  9 C       -2.5600     4.5500     0.6810 C.3   1 <1>  -0.1600 
 10 C       -3.8030     3.1650     2.4300 C.3   1 <1>  -0.1600 
 11 C        2.2480     2.9500    -0.8290 C.ar  1 <1>   0.1600 
 12 O       -1.5930     2.1610    -1.3440 O.3   1 <1>  -0.8290 
 13 C        0.3690     2.7910    -2.2740 C.ar  1 <1>  -0.1500 
 14 C       -3.9180     3.9320     1.0950 C.3   1 <1>   0.2800 
 15 C        1.6920     3.0660    -2.1010 C.ar  1 <1>  -0.1500 
 16 O       -4.7520     5.0360     1.4060 O.3   1 <1>  -0.5600 
 17 C       -4.5900     3.0460    -0.0090 C.3   1 <1>   0.2000 
 18 C       -5.7830     5.4150     0.5300 C.3   1 <1>   0.1200 
 19 O       -3.9180     1.8580    -0.3220 O.3   1 <1>  -0.6800 
 20 C       -5.0170     3.8380    -1.2810 C.3   1 <1>   0.2800 
 21 C       -5.3340     5.2980    -0.9280 C.3   1 <1>  -0.1600 
 22 O       -6.1910     3.2590    -1.7230 O.3   1 <1>  -0.6800 
 23 C       -4.0760     3.7700    -2.4930 C.3   1 <1>  -0.2400 
 24 H       -1.5200     4.7500     2.5510 H     1 <1>   0.0800 
 25 H       -0.4710     4.5250     1.1810 H     1 <1>   0.0800 
 26 H       -2.8810     1.2950     1.8970 H     1 <1>   0.0800 
 27 H       -2.4400     1.8630     3.4780 H     1 <1>   0.0800 
 28 H       -2.2770     4.1980    -0.2850 H     1 <1>   0.0800 
 29 H       -2.6380     5.6180     0.6050 H     1 <1>   0.0800 
 30 H       -3.6620     3.8680     3.2310 H     1 <1>   0.0800 
 31 H       -4.7130     2.6300     2.6260 H     1 <1>   0.0800 
 32 H        3.2930     3.1720    -0.7150 H     1 <1>   0.1500 
 33 H       -0.1300     2.8560    -3.2230 H     1 <1>   0.1500 
 34 H        2.3060     3.3670    -2.9270 H     1 <1>   0.1500 
 35 H       -5.5010     2.7070     0.4490 H     1 <1>   0.0800 
 36 H       -6.6350     4.7820     0.7160 H     1 <1>   0.0800 
 37 H       -6.0500     6.4310     0.7630 H     1 <1>   0.0800 
 38 H       -2.9840     2.0290    -0.7040 H     1 <1>   0.4000 
 39 H       -4.4590     5.9090    -1.0560 H     1 <1>   0.0800 
 40 H       -6.0930     5.6800    -1.5870 H     1 <1>   0.0800 
 41 H       -5.9870     2.3140    -1.8770 H     1 <1>   0.4000 
 42 H       -3.1320     4.2300    -2.2740 H     1 <1>   0.0800 
 43 H       -4.5080     4.2810    -3.3330 H     1 <1>   0.0800 
 44 H       -3.8760     2.7490    -2.7660 H     1 <1>   0.0800 
@<TRIPOS>BOND
  1   1   2  2   
  2   2   3  am  
  3   2   4  1   
  4   3   5  1   
  5   3   6  1   
  6   4   7  ar  
  7   4   8  ar  
  8   5   9  1   
  9   5  24  1   
 10   5  25  1   
 11   6  10  1   
 12   6  26  1   
 13   6  27  1   
 14   7  11  ar  
 15   8  12  1   
 16   8  13  ar  
 17   9  14  1   
 18   9  28  1   
 19   9  29  1   
 20  10  14  1   
 21  10  30  1   
 22  10  31  1   
 23  11  15  ar  
 24  11  32  1   
 25  13  15  ar  
 26  13  33  1   
 27  14  16  1   
 28  14  17  1   
 29  15  34  1   
 30  16  18  1   
 31  17  19  1   
 32  17  20  1   
 33  17  35  1   
 34  18  21  1   
 35  18  36  1   
 36  18  37  1   
 37  19  38  1   
 38  20  21  1   
 39  20  22  1   
 40  20  23  1   
 41  21  39  1   
 42  21  40  1   
 43  22  41  1   
 44  23  42  1   
 45  23  43  1   
 46  23  44  1   
@<TRIPOS>SUBSTRUCTURE
  1 ****   9 GROUP 4 **** **** 0

# MOE 2024.06 (io_trps.svl 2023.06)
