@<TRIPOS>MOLECULE
NONAME
43 44 1 0 0 
SMALL
USER_CHARGES


@<TRIPOS>ATOM
  1 CL       0.2140    -1.7160    -1.1690 Cl    1 <1>  -0.1770 
  2 C       -1.4570    -1.8420    -0.6740 C.ar  1 <1>   0.1770 
  3 C       -2.3770    -0.8660    -1.0190 C.ar  1 <1>   0.1770 
  4 C       -1.8460    -2.9410     0.0720 C.ar  1 <1>  -0.1500 
  5 CL      -1.8990     0.5240    -1.9640 Cl    1 <1>  -0.1770 
  6 C       -3.6950    -0.9810    -0.6180 C.ar  1 <1>  -0.1500 
  7 C       -3.1700    -3.0670     0.4750 C.ar  1 <1>  -0.1440 
  8 C       -4.0890    -2.0810     0.1290 C.ar  1 <1>  -0.1500 
  9 C       -3.6180    -4.2670     1.2930 C.3   1 <1>   0.4870 
 10 N       -3.7570    -5.4520     0.3980 N.4   1 <1>  -0.9590 
 11 C       -4.8750    -5.2730    -0.5770 C.3   1 <1>   0.3430 
 12 C       -4.1180    -6.6810     1.1560 C.3   1 <1>   0.3430 
 13 C       -6.1420    -5.7130     0.1670 C.3   1 <1>   0.2000 
 14 C       -5.6580    -6.7420     1.2040 C.3   1 <1>  -0.0800 
 15 O       -6.6560    -4.6160     0.8530 O.3   1 <1>  -0.6800 
 16 C       -6.2570    -8.1560     0.9910 C.3   1 <1>  -0.0550 
 17 S       -5.6870    -9.0580    -0.4590 S.o2  1 <1>   1.3330 
 18 O       -6.5670   -10.1720    -0.7060 O.2   1 <1>  -0.6500 
 19 O       -5.4300    -8.0700    -1.4830 O.2   1 <1>  -0.6500 
 20 N       -4.1830    -9.6690     0.0380 N.am  1 <1>  -0.8490 
 21 C       -3.3350   -10.0050    -1.1160 C.3   1 <1>   0.1160 
 22 C       -4.3040   -10.8730     0.8780 C.3   1 <1>   0.1160 
 23 H       -1.1030    -3.6760     0.3290 H     1 <1>   0.1500 
 24 H       -4.4010    -0.2140    -0.8880 H     1 <1>   0.1500 
 25 H       -5.1200    -2.1590     0.4400 H     1 <1>   0.1500 
 26 H       -4.5580    -4.0480     1.7740 H     1 <1>   0.0800 
 27 H       -2.8860    -4.4660     2.0590 H     1 <1>   0.0800 
 28 H       -2.8770    -5.5760    -0.1170 H     1 <1>   0.4500 
 29 H       -4.9600    -4.2590    -0.9310 H     1 <1>   0.0800 
 30 H       -4.7190    -5.9230    -1.4220 H     1 <1>   0.0800 
 31 H       -3.7270    -7.5320     0.6270 H     1 <1>   0.0800 
 32 H       -3.6940    -6.6740     2.1470 H     1 <1>   0.0800 
 33 H       -6.8940    -6.0770    -0.5140 H     1 <1>   0.0800 
 34 H       -5.9620    -6.4250     2.1870 H     1 <1>   0.0800 
 35 H       -7.5970    -4.7580     1.0930 H     1 <1>   0.4000 
 36 H       -7.3240    -8.0530     0.9200 H     1 <1>   0.0800 
 37 H       -6.0690    -8.7500     1.8640 H     1 <1>   0.0800 
 38 H       -2.3840   -10.3880    -0.7850 H     1 <1>   0.0800 
 39 H       -3.1540    -9.1290    -1.7160 H     1 <1>   0.0800 
 40 H       -3.8160   -10.7480    -1.7330 H     1 <1>   0.0800 
 41 H       -3.3320   -11.1920     1.2130 H     1 <1>   0.0800 
 42 H       -4.7590   -11.6790     0.3240 H     1 <1>   0.0800 
 43 H       -4.9090   -10.6730     1.7450 H     1 <1>   0.0800 
@<TRIPOS>BOND
  1   1   2  1   
  2   2   3  ar  
  3   2   4  ar  
  4   3   5  1   
  5   3   6  ar  
  6   4   7  ar  
  7   4  23  1   
  8   6   8  ar  
  9   6  24  1   
 10   7   8  ar  
 11   7   9  1   
 12   8  25  1   
 13   9  10  1   
 14   9  26  1   
 15   9  27  1   
 16  10  11  1   
 17  10  12  1   
 18  10  28  1   
 19  11  13  1   
 20  11  29  1   
 21  11  30  1   
 22  12  14  1   
 23  12  31  1   
 24  12  32  1   
 25  13  14  1   
 26  13  15  1   
 27  13  33  1   
 28  14  16  1   
 29  14  34  1   
 30  15  35  1   
 31  16  17  1   
 32  16  36  1   
 33  16  37  1   
 34  17  18  2   
 35  17  19  2   
 36  17  20  am  
 37  20  21  1   
 38  20  22  1   
 39  21  38  1   
 40  21  39  1   
 41  21  40  1   
 42  22  41  1   
 43  22  42  1   
 44  22  43  1   
@<TRIPOS>SUBSTRUCTURE
  1 ****  10 GROUP 4 **** **** 0

# MOE 2024.06 (io_trps.svl 2023.06)
