@<TRIPOS>MOLECULE
NONAME
59 61 1 0 0 
SMALL
USER_CHARGES


@<TRIPOS>ATOM
  1 O       -0.0160    -0.1030     0.4170 O.2   1 <1>  -0.5700 
  2 C        1.0640     0.4370     0.3410 C.2   1 <1>   0.5690 
  3 N        2.1320    -0.1660    -0.2760 N.am  1 <1>  -0.6600 
  4 C        1.2120     1.8060     0.9840 C.3   1 <1>  -0.0990 
  5 C        3.4680     0.4700    -0.4390 C.3   1 <1>   0.1400 
  6 C        1.9750    -1.4890    -0.9320 C.3   1 <1>   0.1400 
  7 C        2.4540     2.5760     0.5150 C.3   1 <1>  -0.1600 
  8 C        3.6670     1.6430     0.5260 C.3   1 <1>  -0.1600 
  9 C        2.2650    -2.6030     0.0720 C.3   1 <1>  -0.0990 
 10 C        1.7180    -3.9090    -0.4550 C.2   1 <1>   0.5690 
 11 O        2.2540    -4.3800    -1.4280 O.2   1 <1>  -0.5700 
 12 N        0.6140    -4.4660     0.1300 N.am  1 <1>  -0.6600 
 13 C        0.2400    -5.9050    -0.0230 C.3   1 <1>   0.3640 
 14 C       -0.6090    -3.6370     0.3390 C.3   1 <1>   0.1400 
 15 C        1.4370    -6.8640     0.0060 C.ar  1 <1>  -0.1430 
 16 C       -0.7280    -6.0500    -1.2190 C.3   1 <1>   0.2000 
 17 C       -1.5760    -3.8570    -0.8410 C.3   1 <1>   0.1200 
 18 C        1.8700    -7.3470     1.2310 C.ar  1 <1>  -0.1500 
 19 C        2.1020    -7.2810    -1.1390 C.ar  1 <1>  -0.1500 
 20 O       -1.8620    -5.2220    -1.0180 O.3   1 <1>  -0.5600 
 21 C       -1.2180    -7.4970    -1.3950 C.3   1 <1>   0.1200 
 22 C        2.9320    -8.2290     1.3320 C.ar  1 <1>   0.0820 
 23 C        3.1600    -8.1690    -1.0600 C.ar  1 <1>  -0.1500 
 24 O       -2.2830    -7.5160    -2.2800 O.3   1 <1>  -0.6800 
 25 O        3.2460    -8.6070     2.6030 O.3   1 <1>  -0.3630 
 26 C        3.5860    -8.6650     0.1690 C.ar  1 <1>   0.0820 
 27 C        4.5900    -8.8140     2.9790 C.3   1 <1>   0.0400 
 28 O        4.6060    -9.5690     0.2580 O.3   1 <1>  -0.3630 
 29 C        5.2400   -10.0970    -0.8860 C.3   1 <1>   0.0400 
 30 H        0.3290     2.3830     0.7770 H     1 <1>   0.0800 
 31 H        1.2650     1.6570     2.0470 H     1 <1>   0.0800 
 32 H        4.2390    -0.2630    -0.2690 H     1 <1>   0.0800 
 33 H        3.5560     0.8210    -1.4530 H     1 <1>   0.0800 
 34 H        0.9660    -1.5830    -1.2980 H     1 <1>   0.0800 
 35 H        2.6350    -1.5710    -1.7790 H     1 <1>   0.0800 
 36 H        2.2920     2.9430    -0.4840 H     1 <1>   0.0800 
 37 H        2.6250     3.4200     1.1610 H     1 <1>   0.0800 
 38 H        3.8280     1.2610     1.5200 H     1 <1>   0.0800 
 39 H        4.5490     2.1880     0.2400 H     1 <1>   0.0800 
 40 H        1.8180    -2.3810     1.0220 H     1 <1>   0.0800 
 41 H        3.3250    -2.7030     0.2080 H     1 <1>   0.0800 
 42 H       -0.3430    -6.1630     0.8430 H     1 <1>   0.0800 
 43 H       -1.0890    -3.9180     1.2600 H     1 <1>   0.0800 
 44 H       -0.3650    -2.5920     0.4040 H     1 <1>   0.0800 
 45 H       -0.2330    -5.7340    -2.1210 H     1 <1>   0.0800 
 46 H       -1.1480    -3.4770    -1.7530 H     1 <1>   0.0800 
 47 H       -2.5050    -3.3460    -0.6580 H     1 <1>   0.0800 
 48 H        1.3860    -7.0350     2.1390 H     1 <1>   0.1500 
 49 H        1.8100    -6.9060    -2.1050 H     1 <1>   0.1500 
 50 H       -1.5600    -7.8930    -0.4540 H     1 <1>   0.0800 
 51 H       -0.4430    -8.1350    -1.7820 H     1 <1>   0.0800 
 52 H        3.6360    -8.4560    -1.9770 H     1 <1>   0.1500 
 53 H       -2.8210    -6.7130    -2.1030 H     1 <1>   0.4000 
 54 H        4.6600    -8.7090     4.0460 H     1 <1>   0.0800 
 55 H        5.2090    -8.0800     2.4930 H     1 <1>   0.0800 
 56 H        4.8810    -9.8080     2.6910 H     1 <1>   0.0800 
 57 H        5.9810   -10.8050    -0.5590 H     1 <1>   0.0800 
 58 H        5.7140    -9.2950    -1.4230 H     1 <1>   0.0800 
 59 H        4.5060   -10.5920    -1.4950 H     1 <1>   0.0800 
@<TRIPOS>BOND
  1   1   2  2   
  2   2   3  am  
  3   2   4  1   
  4   3   5  1   
  5   3   6  1   
  6   4   7  1   
  7   4  30  1   
  8   4  31  1   
  9   5   8  1   
 10   5  32  1   
 11   5  33  1   
 12   6   9  1   
 13   6  34  1   
 14   6  35  1   
 15   7   8  1   
 16   7  36  1   
 17   7  37  1   
 18   8  38  1   
 19   8  39  1   
 20   9  10  1   
 21   9  40  1   
 22   9  41  1   
 23  10  11  2   
 24  10  12  am  
 25  12  13  1   
 26  12  14  1   
 27  13  15  1   
 28  13  16  1   
 29  13  42  1   
 30  14  17  1   
 31  14  43  1   
 32  14  44  1   
 33  15  18  ar  
 34  15  19  ar  
 35  16  20  1   
 36  16  21  1   
 37  16  45  1   
 38  17  20  1   
 39  17  46  1   
 40  17  47  1   
 41  18  22  ar  
 42  18  48  1   
 43  19  23  ar  
 44  19  49  1   
 45  21  24  1   
 46  21  50  1   
 47  21  51  1   
 48  22  25  1   
 49  22  26  ar  
 50  23  26  ar  
 51  23  52  1   
 52  24  53  1   
 53  25  27  1   
 54  26  28  1   
 55  27  54  1   
 56  27  55  1   
 57  27  56  1   
 58  28  29  1   
 59  29  57  1   
 60  29  58  1   
 61  29  59  1   
@<TRIPOS>SUBSTRUCTURE
  1 ****  10 GROUP 4 **** **** 0

# MOE 2024.06 (io_trps.svl 2023.06)
