@<TRIPOS>MOLECULE
NONAME
54 57 1 0 0 
SMALL
USER_CHARGES


@<TRIPOS>ATOM
  1 O       -2.3990     0.4610    -1.7750 O.2   1 <1>  -0.5700 
  2 C       -1.9470     0.5250    -0.6440 C.2   1 <1>   0.5440 
  3 N       -1.8800    -0.6330     0.0810 N.am  1 <1>  -0.7300 
  4 C       -1.5080     1.7950    -0.0650 C.ar  1 <1>   0.3960 
  5 C       -2.3900    -1.9510    -0.3570 C.3   1 <1>   0.2200 
  6 N       -1.0780     1.8290     1.1940 N.ar  1 <1>  -0.6200 
  7 C       -1.5390     2.9570    -0.8160 C.ar  1 <1>  -0.1500 
  8 C       -3.8400    -2.0840     0.0700 C.3   1 <1>  -0.0800 
  9 C       -1.7160    -3.0710     0.4330 C.3   1 <1>   0.1200 
 10 C       -0.7180     3.0120     1.6390 C.ar  1 <1>   0.7200 
 11 C       -1.1230     4.1330    -0.2420 C.ar  1 <1>   0.1660 
 12 C       -3.6970    -2.5800     1.5090 C.3   1 <1>   0.1200 
 13 C       -4.6010    -3.0830    -0.8220 C.3   1 <1>  -0.0160 
 14 O       -2.5000    -3.2970     1.5690 O.3   1 <1>  -0.5600 
 15 N       -0.7030     4.1640     1.0000 N.ar  1 <1>  -0.6200 
 16 N       -0.2870     3.0530     2.9000 N.pl3 1 <1>  -0.9000 
 17 C       -1.1400     5.4360    -1.0470 C.3   1 <1>   0.0630 
 18 C       -6.0850    -3.1210    -0.4710 C.ar  1 <1>  -0.1430 
 19 C        0.2750     6.0060    -1.2090 C.3   1 <1>  -0.2400 
 20 C       -2.0630     6.4770    -0.3990 C.3   1 <1>  -0.2400 
 21 C       -6.9800    -2.0960    -0.8580 C.ar  1 <1>   0.0000 
 22 C       -6.5930    -4.1670     0.2420 C.ar  1 <1>  -0.1500 
 23 C       -8.3350    -2.2240    -0.4640 C.ar  1 <1>   0.3100 
 24 C       -6.6150    -0.9560    -1.6120 C.ar  1 <1>  -0.1500 
 25 C       -7.9520    -4.1990     0.5760 C.ar  1 <1>   0.1600 
 26 N       -8.8030    -3.2780     0.2510 N.ar  1 <1>  -0.6200 
 27 C       -9.2460    -1.2190    -0.8280 C.ar  1 <1>  -0.1500 
 28 C       -7.5290     0.0050    -1.9510 C.ar  1 <1>  -0.1500 
 29 C       -8.8620    -0.1250    -1.5540 C.ar  1 <1>  -0.1500 
 30 H       -1.5910    -0.5650     1.0620 H     1 <1>   0.3700 
 31 H       -2.2480    -2.0620    -1.4190 H     1 <1>   0.0800 
 32 H       -1.8850     2.9280    -1.8320 H     1 <1>   0.1500 
 33 H       -4.3410    -1.1330     0.0450 H     1 <1>   0.0800 
 34 H       -0.7130    -2.8220     0.7300 H     1 <1>   0.0800 
 35 H       -1.7090    -3.9820    -0.1390 H     1 <1>   0.0800 
 36 H       -4.5070    -3.2130     1.8240 H     1 <1>   0.0800 
 37 H       -3.6100    -1.7470     2.1870 H     1 <1>   0.0800 
 38 H       -4.1770    -4.0660    -0.7090 H     1 <1>   0.0800 
 39 H       -4.4920    -2.8120    -1.8570 H     1 <1>   0.0800 
 40 H        0.0350     2.1760     3.2970 H     1 <1>   0.4000 
 41 H        0.2310     3.8910     3.1520 H     1 <1>   0.4000 
 42 H       -1.5240     5.2280    -2.0310 H     1 <1>   0.0800 
 43 H        0.6890     6.2570    -0.2480 H     1 <1>   0.0800 
 44 H        0.2580     6.8900    -1.8200 H     1 <1>   0.0800 
 45 H        0.9150     5.2780    -1.6750 H     1 <1>   0.0800 
 46 H       -1.7000     6.7410     0.5800 H     1 <1>   0.0800 
 47 H       -3.0560     6.0780    -0.2970 H     1 <1>   0.0800 
 48 H       -2.1090     7.3670    -1.0010 H     1 <1>   0.0800 
 49 H       -5.9730    -4.9830     0.5660 H     1 <1>   0.1500 
 50 H       -5.5960    -0.8320    -1.9310 H     1 <1>   0.1500 
 51 H       -8.3120    -5.0420     1.1400 H     1 <1>   0.1500 
 52 H      -10.2660    -1.3420    -0.5130 H     1 <1>   0.1500 
 53 H       -7.2340     0.8680    -2.5230 H     1 <1>   0.1500 
 54 H       -9.5720     0.6370    -1.8260 H     1 <1>   0.1500 
@<TRIPOS>BOND
  1   1   2  2   
  2   2   3  am  
  3   2   4  1   
  4   3   5  1   
  5   3  30  1   
  6   4   6  ar  
  7   4   7  ar  
  8   5   8  1   
  9   5   9  1   
 10   5  31  1   
 11   6  10  ar  
 12   7  11  ar  
 13   7  32  1   
 14   8  12  1   
 15   8  13  1   
 16   8  33  1   
 17   9  14  1   
 18   9  34  1   
 19   9  35  1   
 20  10  15  ar  
 21  10  16  1   
 22  11  15  ar  
 23  11  17  1   
 24  12  14  1   
 25  12  36  1   
 26  12  37  1   
 27  13  18  1   
 28  13  38  1   
 29  13  39  1   
 30  16  40  1   
 31  16  41  1   
 32  17  19  1   
 33  17  20  1   
 34  17  42  1   
 35  18  21  ar  
 36  18  22  ar  
 37  19  43  1   
 38  19  44  1   
 39  19  45  1   
 40  20  46  1   
 41  20  47  1   
 42  20  48  1   
 43  21  23  ar  
 44  21  24  ar  
 45  22  25  ar  
 46  22  49  1   
 47  23  26  ar  
 48  23  27  ar  
 49  24  28  ar  
 50  24  50  1   
 51  25  26  ar  
 52  25  51  1   
 53  27  29  ar  
 54  27  52  1   
 55  28  29  ar  
 56  28  53  1   
 57  29  54  1   
@<TRIPOS>SUBSTRUCTURE
  1 ****   2 GROUP 4 **** **** 0

# MOE 2024.06 (io_trps.svl 2023.06)
