@<TRIPOS>MOLECULE
NONAME
47 49 1 0 0 
SMALL
USER_CHARGES


@<TRIPOS>ATOM
  1 CL      -1.3790    -0.3660    -2.3340 Cl    1 <1>  -0.1770 
  2 C       -2.8160     0.0980    -1.4640 C.ar  1 <1>   0.1770 
  3 C       -4.0420    -0.4040    -1.8540 C.ar  1 <1>  -0.1500 
  4 C       -2.7150     0.9630    -0.3920 C.ar  1 <1>  -0.1500 
  5 C       -5.1800    -0.0350    -1.1600 C.ar  1 <1>  -0.1500 
  6 C       -3.8600     1.3260     0.2950 C.ar  1 <1>  -0.1500 
  7 C       -5.1200     0.8390    -0.0690 C.ar  1 <1>   0.0530 
  8 C       -6.2980     1.2310     0.6710 C.2   1 <1>   0.0870 
  9 O       -6.1840     1.7390     1.8740 O.3   1 <1>  -0.0190 
 10 C       -7.6290     1.1840     0.3970 C.2   1 <1>  -0.0860 
 11 N       -7.3350     2.0340     2.4200 N.2   1 <1>  -0.4100 
 12 C       -8.2150     1.7190     1.5440 C.2   1 <1>   0.3720 
 13 C       -8.3290     0.7160    -0.7540 C.2   1 <1>   0.7160 
 14 N       -9.5670     1.9020     1.7890 N.pl3 1 <1>  -0.8520 
 15 O       -8.3160     1.3930    -1.7660 O.2   1 <1>  -0.5700 
 16 N       -8.9900    -0.4960    -0.7650 N.am  1 <1>  -0.6600 
 17 C      -10.2690     2.8580     0.8850 C.3   1 <1>   0.2090 
 18 C       -9.0660    -1.3720     0.4350 C.3   1 <1>   0.2350 
 19 C       -9.6390    -1.0410    -1.9930 C.3   1 <1>   0.0600 
 20 C      -11.4120     2.1550     0.1540 C.3   1 <1>   0.1200 
 21 C       -7.8150    -2.2520     0.5160 C.3   1 <1>  -0.1950 
 22 O      -12.1830     3.1180    -0.4960 O.3   1 <1>  -0.5600 
 23 C       -7.6630    -3.4980    -0.3000 C.3   1 <1>  -0.2000 
 24 C       -7.8700    -3.5890     1.1860 C.3   1 <1>  -0.2000 
 25 C      -13.1970     2.5870    -1.2860 C.3   1 <1>   0.0400 
 26 H       -4.0990    -1.0760    -2.6920 H     1 <1>   0.1500 
 27 H       -1.7520     1.3440    -0.1030 H     1 <1>   0.1500 
 28 H       -6.1220    -0.4400    -1.4780 H     1 <1>   0.1500 
 29 H       -3.7740     2.0030     1.1270 H     1 <1>   0.1500 
 30 H       -9.6620     2.2260     2.7580 H     1 <1>   0.4000 
 31 H       -9.5840     3.2700     0.1630 H     1 <1>   0.0800 
 32 H      -10.6720     3.6630     1.4750 H     1 <1>   0.0800 
 33 H       -9.9450    -1.9900     0.3710 H     1 <1>   0.0800 
 34 H       -9.1540    -0.7810     1.3290 H     1 <1>   0.0800 
 35 H       -9.6380    -0.3140    -2.7870 H     1 <1>   0.0800 
 36 H      -10.6580    -1.3090    -1.7800 H     1 <1>   0.0800 
 37 H       -9.1050    -1.9120    -2.3290 H     1 <1>   0.0800 
 38 H      -12.0400     1.6350     0.8560 H     1 <1>   0.0800 
 39 H      -11.0200     1.4720    -0.5780 H     1 <1>   0.0800 
 40 H       -6.9300    -1.6740     0.7150 H     1 <1>   0.1000 
 41 H       -6.6930    -3.7300    -0.7040 H     1 <1>   0.1000 
 42 H       -8.4640    -3.8140    -0.9440 H     1 <1>   0.1000 
 43 H       -8.8120    -3.9630     1.5490 H     1 <1>   0.1000 
 44 H       -7.0430    -3.8910     1.8050 H     1 <1>   0.1000 
 45 H      -13.7380     3.4040    -1.7290 H     1 <1>   0.0800 
 46 H      -13.8590     2.0030    -0.6710 H     1 <1>   0.0800 
 47 H      -12.7610     1.9790    -2.0600 H     1 <1>   0.0800 
@<TRIPOS>BOND
  1   1   2  1   
  2   2   3  ar  
  3   2   4  ar  
  4   3   5  ar  
  5   3  26  1   
  6   4   6  ar  
  7   4  27  1   
  8   5   7  ar  
  9   5  28  1   
 10   6   7  ar  
 11   6  29  1   
 12   7   8  1   
 13   8   9  1   
 14   8  10  2   
 15   9  11  1   
 16  10  12  1   
 17  10  13  1   
 18  11  12  2   
 19  12  14  1   
 20  13  15  2   
 21  13  16  am  
 22  14  17  1   
 23  14  30  1   
 24  16  18  1   
 25  16  19  1   
 26  17  20  1   
 27  17  31  1   
 28  17  32  1   
 29  18  21  1   
 30  18  33  1   
 31  18  34  1   
 32  19  35  1   
 33  19  36  1   
 34  19  37  1   
 35  20  22  1   
 36  20  38  1   
 37  20  39  1   
 38  21  23  1   
 39  21  24  1   
 40  21  40  1   
 41  22  25  1   
 42  23  24  1   
 43  23  41  1   
 44  23  42  1   
 45  24  43  1   
 46  24  44  1   
 47  25  45  1   
 48  25  46  1   
 49  25  47  1   
@<TRIPOS>SUBSTRUCTURE
  1 ****  10 GROUP 4 **** **** 0

# MOE 2024.06 (io_trps.svl 2023.06)
