@<TRIPOS>MOLECULE
NONAME
42 44 1 0 0 
SMALL
USER_CHARGES


@<TRIPOS>ATOM
  1 O       -0.8170     1.8030    -0.2030 O.3   1 <1>  -0.5600 
  2 C        0.2620     1.6220    -1.0680 C.3   1 <1>   0.1200 
  3 C       -0.3980     1.7460     1.1280 C.3   1 <1>   0.1200 
  4 C        1.4950     2.0680    -0.2900 C.3   1 <1>   0.2890 
  5 C        1.1250     1.6240     1.1070 C.3   1 <1>  -0.1600 
  6 N        1.5810     3.5460    -0.3060 N.pl3 1 <1>  -0.8690 
  7 C        2.6310     4.3760    -0.3620 C.ar  1 <1>   0.4100 
  8 N        2.3220     5.6490    -0.4350 N.ar  1 <1>  -0.6200 
  9 C        3.9640     3.9290    -0.3350 C.ar  1 <1>  -0.1500 
 10 C        3.3080     6.5340    -0.4980 C.ar  1 <1>   0.7710 
 11 C        4.9600     4.8450    -0.3930 C.ar  1 <1>   0.2180 
 12 N        4.5970     6.1470    -0.4740 N.ar  1 <1>  -0.1790 
 13 N        3.0200     7.8620    -0.5800 N.pl3 1 <1>  -0.8380 
 14 C        6.4370     4.4900    -0.3670 C.3   1 <1>  -0.0970 
 15 C        3.9820     8.9880    -0.7950 C.3   1 <1>   0.2090 
 16 C        1.6160     8.3730    -0.4310 C.3   1 <1>   0.2090 
 17 C        3.9710     9.8990     0.4360 C.3   1 <1>  -0.1600 
 18 C        1.5440     9.2860     0.7970 C.3   1 <1>  -0.1600 
 19 C        2.5600    10.4360     0.7180 C.3   1 <1>  -0.1600 
 20 H        0.1070     2.1940    -1.9660 H     1 <1>   0.0800 
 21 H        0.3190     0.5740    -1.3050 H     1 <1>   0.0800 
 22 H       -0.8670     0.9030     1.6070 H     1 <1>   0.0800 
 23 H       -0.7100     2.6590     1.6070 H     1 <1>   0.0800 
 24 H        2.3960     1.6120    -0.6610 H     1 <1>   0.0800 
 25 H        1.3920     0.5920     1.2460 H     1 <1>   0.0800 
 26 H        1.5950     2.2130     1.8750 H     1 <1>   0.0800 
 27 H        0.6510     3.9820    -0.2890 H     1 <1>   0.4000 
 28 H        4.1610     2.8780    -0.2650 H     1 <1>   0.1500 
 29 H        5.2730     6.8980    -0.4960 H     1 <1>   0.4570 
 30 H        6.5660     3.4240    -0.3000 H     1 <1>   0.0800 
 31 H        6.9170     4.9400     0.4840 H     1 <1>   0.0800 
 32 H        6.9210     4.8300    -1.2650 H     1 <1>   0.0800 
 33 H        3.6700     9.5550    -1.6580 H     1 <1>   0.0800 
 34 H        4.9810     8.6410    -0.9820 H     1 <1>   0.0800 
 35 H        0.8990     7.5780    -0.3170 H     1 <1>   0.0800 
 36 H        1.3440     8.9290    -1.3130 H     1 <1>   0.0800 
 37 H        4.6390    10.7270     0.2750 H     1 <1>   0.0800 
 38 H        4.3270     9.3510     1.2910 H     1 <1>   0.0800 
 39 H        1.7280     8.6970     1.6790 H     1 <1>   0.0800 
 40 H        0.5510     9.6910     0.8790 H     1 <1>   0.0800 
 41 H        2.2700    11.1100    -0.0710 H     1 <1>   0.0800 
 42 H        2.5560    10.9900     1.6420 H     1 <1>   0.0800 
@<TRIPOS>BOND
  1   1   2  1   
  2   1   3  1   
  3   2   4  1   
  4   2  20  1   
  5   2  21  1   
  6   3   5  1   
  7   3  22  1   
  8   3  23  1   
  9   4   5  1   
 10   4   6  1   
 11   4  24  1   
 12   5  25  1   
 13   5  26  1   
 14   6   7  1   
 15   6  27  1   
 16   7   8  ar  
 17   7   9  ar  
 18   8  10  ar  
 19   9  11  ar  
 20   9  28  1   
 21  10  12  ar  
 22  10  13  1   
 23  11  12  ar  
 24  11  14  1   
 25  12  29  1   
 26  13  15  1   
 27  13  16  1   
 28  14  30  1   
 29  14  31  1   
 30  14  32  1   
 31  15  17  1   
 32  15  33  1   
 33  15  34  1   
 34  16  18  1   
 35  16  35  1   
 36  16  36  1   
 37  17  19  1   
 38  17  37  1   
 39  17  38  1   
 40  18  19  1   
 41  18  39  1   
 42  18  40  1   
 43  19  41  1   
 44  19  42  1   
@<TRIPOS>SUBSTRUCTURE
  1 ****   8 GROUP 4 **** **** 0

# MOE 2024.06 (io_trps.svl 2023.06)
