@<TRIPOS>MOLECULE
NONAME
54 57 1 0 0 
SMALL
USER_CHARGES


@<TRIPOS>ATOM
  1 O        2.4140     0.0750     2.3980 O.2   1 <1>  -0.5700 
  2 C        3.0590    -0.7020     1.7160 C.2   1 <1>   0.7150 
  3 N        4.4190    -0.4860     1.5900 N.am  1 <1>  -0.6600 
  4 C        2.3590    -1.7940     1.0800 C.2   1 <1>   0.0550 
  5 C        5.4110    -1.4910     1.1020 C.3   1 <1>   0.1400 
  6 C        5.0400     0.8120     1.9620 C.3   1 <1>   0.1400 
  7 O        2.8230    -2.4190     0.0200 O.3   1 <1>  -0.0190 
  8 C        1.1680    -2.3720     1.3560 C.2   1 <1>  -0.1500 
  9 C        5.8980    -1.2150    -0.3350 C.3   1 <1>   0.1100 
 10 C        5.0360     1.7720     0.7690 C.3   1 <1>  -0.1600 
 11 N        2.0390    -3.3620    -0.4030 N.2   1 <1>  -0.4100 
 12 C        1.0240    -3.3530     0.3880 C.2   1 <1>   0.2030 
 13 N        6.4200     0.1600    -0.5440 N.3   1 <1>  -0.8100 
 14 C        5.3040     1.1320    -0.5990 C.3   1 <1>   0.1100 
 15 C       -0.1600    -4.2950     0.2680 C.3   1 <1>  -0.0140 
 16 C        7.2180     0.2150    -1.8110 C.3   1 <1>   0.1710 
 17 C       -1.0630    -4.2080    -0.9250 C.3   1 <1>  -0.2000 
 18 C       -1.5630    -3.7860     0.4210 C.3   1 <1>  -0.2000 
 19 C        8.1170     1.4490    -1.9220 C.2   1 <1>   0.5690 
 20 O        8.5380     1.7820    -3.0060 O.2   1 <1>  -0.5700 
 21 N        8.3900     2.1060    -0.7640 N.am  1 <1>  -0.4930 
 22 C        9.1560     3.2700    -0.5220 C.2   1 <1>   0.0630 
 23 C        9.3500     3.8740     0.6700 C.2   1 <1>  -0.3320 
 24 C        9.8690     4.0480    -1.4350 C.2   1 <1>   0.1390 
 25 N       10.1420     4.9500     0.4320 N.pl3 1 <1>   0.3140 
 26 C        8.8260     3.4880     2.0460 C.3   1 <1>  -0.0600 
 27 N       10.4610     5.0560    -0.8680 N.2   1 <1>  -0.7070 
 28 C       10.6380     5.9240     1.4130 C.3   1 <1>   0.0160 
 29 H        4.9940    -2.4810     1.1520 H     1 <1>   0.0800 
 30 H        6.2650    -1.4880     1.7570 H     1 <1>   0.0800 
 31 H        6.0550     0.6430     2.2770 H     1 <1>   0.0800 
 32 H        4.5140     1.2560     2.7900 H     1 <1>   0.0800 
 33 H        0.4770    -2.1340     2.1430 H     1 <1>   0.1500 
 34 H        5.1010    -1.4190    -1.0290 H     1 <1>   0.0800 
 35 H        6.6820    -1.9240    -0.5390 H     1 <1>   0.0800 
 36 H        5.7630     2.5440     0.9450 H     1 <1>   0.0800 
 37 H        4.0770     2.2560     0.7280 H     1 <1>   0.0800 
 38 H        5.5250     1.9260    -1.2940 H     1 <1>   0.0800 
 39 H        4.4070     0.6490    -0.9510 H     1 <1>   0.0800 
 40 H        0.0650    -5.2780     0.6420 H     1 <1>   0.1000 
 41 H        6.5620     0.1820    -2.6630 H     1 <1>   0.0800 
 42 H        7.8670    -0.6410    -1.8640 H     1 <1>   0.0800 
 43 H       -1.4290    -5.1230    -1.3570 H     1 <1>   0.1000 
 44 H       -0.8530    -3.4560    -1.6660 H     1 <1>   0.1000 
 45 H       -1.7260    -2.7370     0.5960 H     1 <1>   0.1000 
 46 H       -2.2840    -4.4070     0.9240 H     1 <1>   0.1000 
 47 H        7.9050     1.6980     0.0390 H     1 <1>   0.3700 
 48 H        9.9230     3.8390    -2.4900 H     1 <1>   0.1500 
 49 H        8.2410     2.5890     1.9910 H     1 <1>   0.0800 
 50 H        8.2080     4.2750     2.4400 H     1 <1>   0.0800 
 51 H        9.6470     3.3170     2.7200 H     1 <1>   0.0800 
 52 H        9.8030     6.3930     1.8960 H     1 <1>   0.0800 
 53 H       11.2240     6.6670     0.9040 H     1 <1>   0.0800 
 54 H       11.2480     5.4170     2.1350 H     1 <1>   0.0800 
@<TRIPOS>BOND
  1   1   2  2   
  2   2   3  am  
  3   2   4  1   
  4   3   5  1   
  5   3   6  1   
  6   4   7  1   
  7   4   8  2   
  8   5   9  1   
  9   5  29  1   
 10   5  30  1   
 11   6  10  1   
 12   6  31  1   
 13   6  32  1   
 14   7  11  1   
 15   8  12  1   
 16   8  33  1   
 17   9  13  1   
 18   9  34  1   
 19   9  35  1   
 20  10  14  1   
 21  10  36  1   
 22  10  37  1   
 23  11  12  2   
 24  12  15  1   
 25  13  14  1   
 26  13  16  1   
 27  14  38  1   
 28  14  39  1   
 29  15  17  1   
 30  15  18  1   
 31  15  40  1   
 32  16  19  1   
 33  16  41  1   
 34  16  42  1   
 35  17  18  1   
 36  17  43  1   
 37  17  44  1   
 38  18  45  1   
 39  18  46  1   
 40  19  20  2   
 41  19  21  am  
 42  21  22  1   
 43  21  47  1   
 44  22  23  2   
 45  22  24  1   
 46  23  25  1   
 47  23  26  1   
 48  24  27  2   
 49  24  48  1   
 50  25  27  1   
 51  25  28  1   
 52  26  49  1   
 53  26  50  1   
 54  26  51  1   
 55  28  52  1   
 56  28  53  1   
 57  28  54  1   
@<TRIPOS>SUBSTRUCTURE
  1 ****  14 GROUP 4 **** **** 0

# MOE 2024.06 (io_trps.svl 2023.06)
