@<TRIPOS>MOLECULE
NONAME
52 55 1 0 0 
SMALL
USER_CHARGES


@<TRIPOS>ATOM
  1 O       -0.3700     0.2800    -0.3800 O.2   1 <1>  -0.5700 
  2 C       -1.4280     0.8580    -0.2960 C.2   1 <1>   0.5690 
  3 N       -2.6050     0.1660    -0.2300 N.am  1 <1>  -0.6600 
  4 C       -1.4550     2.3820    -0.2760 C.3   1 <1>  -0.0990 
  5 C       -3.9730     0.7390    -0.2170 C.3   1 <1>   0.1400 
  6 C       -2.6520    -1.3140    -0.2430 C.3   1 <1>   0.1400 
  7 C       -0.0710     3.0370    -0.1100 C.3   1 <1>  -0.1600 
  8 C       -4.9030    -0.4620    -0.3910 C.3   1 <1>   0.2000 
  9 C       -4.1030    -1.6750     0.0820 C.3   1 <1>  -0.0800 
 10 C       -0.1630     4.5680    -0.0750 C.3   1 <1>   0.0210 
 11 O       -6.0560    -0.3250     0.3640 O.3   1 <1>  -0.6800 
 12 C       -4.5730    -2.9890    -0.5610 C.3   1 <1>  -0.0170 
 13 C        1.1950     5.2300     0.0960 C.2   1 <1>  -0.1810 
 14 C       -3.7590    -4.1690    -0.0550 C.ar  1 <1>  -0.1440 
 15 C        1.3700     6.6320     0.1690 C.ar  1 <1>   0.0000 
 16 C        2.4210     4.6630     0.2040 C.2   1 <1>  -0.3020 
 17 C       -2.6770    -4.6690    -0.7520 C.ar  1 <1>  -0.1500 
 18 C       -4.0630    -4.8010     1.1330 C.ar  1 <1>  -0.1500 
 19 C        2.7340     6.8530     0.3230 C.ar  1 <1>  -0.1520 
 20 C        0.4980     7.7250     0.1180 C.ar  1 <1>  -0.1500 
 21 N        3.3670     5.6370     0.3430 N.pl3 1 <1>   0.0330 
 22 C       -1.9700    -5.7440    -0.2380 C.ar  1 <1>   0.1600 
 23 C       -3.2920    -5.8710     1.5570 C.ar  1 <1>   0.1600 
 24 C        3.2470     8.1490     0.4280 C.ar  1 <1>  -0.1500 
 25 C        1.0020     9.0010     0.2210 C.ar  1 <1>  -0.1500 
 26 N       -2.2520    -6.3570     0.9000 N.ar  1 <1>  -0.6200 
 27 C        2.3770     9.2130     0.3760 C.ar  1 <1>  -0.1500 
 28 H       -1.8950     2.7180    -1.1970 H     1 <1>   0.0800 
 29 H       -2.0840     2.6970     0.5360 H     1 <1>   0.0800 
 30 H       -4.1450     1.2240     0.7280 H     1 <1>   0.0800 
 31 H       -4.0990     1.4370    -1.0260 H     1 <1>   0.0800 
 32 H       -2.3770    -1.6590    -1.2250 H     1 <1>   0.0800 
 33 H       -1.9690    -1.7270     0.4810 H     1 <1>   0.0800 
 34 H        0.3790     2.6870     0.8040 H     1 <1>   0.0800 
 35 H        0.5640     2.7390    -0.9270 H     1 <1>   0.0800 
 36 H       -5.1830    -0.5560    -1.4260 H     1 <1>   0.0800 
 37 H       -4.1750    -1.7560     1.1530 H     1 <1>   0.0800 
 38 H       -0.7940     4.8720     0.7420 H     1 <1>   0.0800 
 39 H       -0.6030     4.9230    -0.9900 H     1 <1>   0.0800 
 40 H       -5.8420    -0.3060     1.3170 H     1 <1>   0.4000 
 41 H       -4.4920    -2.9240    -1.6320 H     1 <1>   0.0800 
 42 H       -5.6110    -3.1480    -0.3250 H     1 <1>   0.0800 
 43 H        2.6840     3.6190     0.1910 H     1 <1>   0.1500 
 44 H       -2.3740    -4.2360    -1.6870 H     1 <1>   0.1500 
 45 H       -4.8920    -4.4740     1.7330 H     1 <1>   0.1500 
 46 H       -0.5550     7.5510    -0.0010 H     1 <1>   0.1500 
 47 H        4.3760     5.4960     0.4440 H     1 <1>   0.2700 
 48 H       -1.1280    -6.1190    -0.7940 H     1 <1>   0.1500 
 49 H       -3.5440    -6.3520     2.4870 H     1 <1>   0.1500 
 50 H        4.3040     8.3020     0.5460 H     1 <1>   0.1500 
 51 H        0.3420     9.8500     0.1840 H     1 <1>   0.1500 
 52 H        2.7460    10.2210     0.4550 H     1 <1>   0.1500 
@<TRIPOS>BOND
  1   1   2  2   
  2   2   3  am  
  3   2   4  1   
  4   3   5  1   
  5   3   6  1   
  6   4   7  1   
  7   4  28  1   
  8   4  29  1   
  9   5   8  1   
 10   5  30  1   
 11   5  31  1   
 12   6   9  1   
 13   6  32  1   
 14   6  33  1   
 15   7  10  1   
 16   7  34  1   
 17   7  35  1   
 18   8   9  1   
 19   8  11  1   
 20   8  36  1   
 21   9  12  1   
 22   9  37  1   
 23  10  13  1   
 24  10  38  1   
 25  10  39  1   
 26  11  40  1   
 27  12  14  1   
 28  12  41  1   
 29  12  42  1   
 30  13  15  1   
 31  13  16  2   
 32  14  17  ar  
 33  14  18  ar  
 34  15  19  ar  
 35  15  20  ar  
 36  16  21  1   
 37  16  43  1   
 38  17  22  ar  
 39  17  44  1   
 40  18  23  ar  
 41  18  45  1   
 42  19  21  1   
 43  19  24  ar  
 44  20  25  ar  
 45  20  46  1   
 46  21  47  1   
 47  22  26  ar  
 48  22  48  1   
 49  23  26  ar  
 50  23  49  1   
 51  24  27  ar  
 52  24  50  1   
 53  25  27  ar  
 54  25  51  1   
 55  27  52  1   
@<TRIPOS>SUBSTRUCTURE
  1 ****   2 GROUP 4 **** **** 0

# MOE 2024.06 (io_trps.svl 2023.06)
