@<TRIPOS>MOLECULE
NONAME
42 43 1 0 0 
SMALL
USER_CHARGES


@<TRIPOS>ATOM
  1 O        2.9710    -1.6350     2.2270 O.co2 1 <1>  -0.9000 
  2 C        1.9620    -1.3700     1.5450 C.2   1 <1>   0.9060 
  3 O        0.8610    -1.1070     2.0290 O.co2 1 <1>  -0.9000 
  4 C        2.1580    -1.4420     0.0240 C.3   1 <1>   0.2370 
  5 N        3.5420    -2.0110    -0.2800 N.4   1 <1>  -0.9590 
  6 C        4.4370    -1.1530    -1.0910 C.3   1 <1>   0.4860 
  7 C        3.5350    -3.4370    -0.7220 C.3   1 <1>   0.5240 
  8 C        4.3230     0.3180    -0.7270 C.ar  1 <1>  -0.1440 
  9 C        2.4510    -4.2640    -0.0460 C.2   1 <1>   0.0460 
 10 C        4.9230     0.8590     0.4080 C.ar  1 <1>  -0.1430 
 11 C        3.5950     1.1420    -1.5770 C.ar  1 <1>  -0.1500 
 12 N        1.4580    -4.8070    -0.7760 N.2   1 <1>  -0.5650 
 13 C        2.2830    -4.5290     1.2680 C.2   1 <1>  -0.3020 
 14 C        4.7750     2.2130     0.6710 C.ar  1 <1>  -0.1500 
 15 C        5.7480     0.0340     1.3920 C.3   1 <1>  -0.0170 
 16 C        3.4560     2.4900    -1.3040 C.ar  1 <1>  -0.1500 
 17 C        0.6960    -5.3690     0.1060 C.2   1 <1>   0.0060 
 18 N        1.1460    -5.2330     1.3730 N.pl3 1 <1>   0.0330 
 19 C        4.0460     3.0260    -0.1770 C.ar  1 <1>  -0.1500 
 20 C        7.2170    -0.0120     0.9640 C.3   1 <1>  -0.2400 
 21 C       -0.5850    -6.1000    -0.2300 C.3   1 <1>  -0.0600 
 22 H        2.0480    -0.4470    -0.3620 H     1 <1>   0.0800 
 23 H        1.3820    -2.0630    -0.3870 H     1 <1>   0.0800 
 24 H        3.8940    -2.0080     0.7080 H     1 <1>   0.4500 
 25 H        4.1880    -1.2660    -2.1330 H     1 <1>   0.0800 
 26 H        5.4580    -1.4680    -0.9570 H     1 <1>   0.0800 
 27 H        4.4920    -3.8860    -0.5190 H     1 <1>   0.0800 
 28 H        3.3580    -3.4810    -1.7830 H     1 <1>   0.0800 
 29 H        3.1260     0.7440    -2.4590 H     1 <1>   0.1500 
 30 H        2.8710    -4.2330     2.1210 H     1 <1>   0.1500 
 31 H        5.2280     2.6440     1.5470 H     1 <1>   0.1500 
 32 H        5.3650    -0.9640     1.4840 H     1 <1>   0.0800 
 33 H        5.6760     0.4720     2.3730 H     1 <1>   0.0800 
 34 H        2.8870     3.1220    -1.9640 H     1 <1>   0.1500 
 35 H        0.6950    -5.5560     2.2340 H     1 <1>   0.2700 
 36 H        3.9390     4.0740     0.0440 H     1 <1>   0.1500 
 37 H        7.3170    -0.4630    -0.0060 H     1 <1>   0.0800 
 38 H        7.7890    -0.5810     1.6750 H     1 <1>   0.0800 
 39 H        7.6170     0.9860     0.9220 H     1 <1>   0.0800 
 40 H       -0.7450    -6.0870    -1.2930 H     1 <1>   0.0800 
 41 H       -1.4180    -5.6200     0.2500 H     1 <1>   0.0800 
 42 H       -0.5250    -7.1220     0.0980 H     1 <1>   0.0800 
@<TRIPOS>BOND
  1   1   2  ar  
  2   2   3  ar  
  3   2   4  1   
  4   4   5  1   
  5   4  22  1   
  6   4  23  1   
  7   5   6  1   
  8   5   7  1   
  9   5  24  1   
 10   6   8  1   
 11   6  25  1   
 12   6  26  1   
 13   7   9  1   
 14   7  27  1   
 15   7  28  1   
 16   8  10  ar  
 17   8  11  ar  
 18   9  12  1   
 19   9  13  2   
 20  10  14  ar  
 21  10  15  1   
 22  11  16  ar  
 23  11  29  1   
 24  12  17  2   
 25  13  18  1   
 26  13  30  1   
 27  14  19  ar  
 28  14  31  1   
 29  15  20  1   
 30  15  32  1   
 31  15  33  1   
 32  16  19  ar  
 33  16  34  1   
 34  17  18  1   
 35  17  21  1   
 36  18  35  1   
 37  19  36  1   
 38  20  37  1   
 39  20  38  1   
 40  20  39  1   
 41  21  40  1   
 42  21  41  1   
 43  21  42  1   
@<TRIPOS>SUBSTRUCTURE
  1 ****   5 GROUP 4 **** **** 0

# MOE 2024.06 (io_trps.svl 2023.06)
