@<TRIPOS>MOLECULE
NONAME
53 56 1 0 0 
SMALL
USER_CHARGES


@<TRIPOS>ATOM
  1 O       -3.3350    -2.9760     4.0950 O.2   1 <1>  -0.5750 
  2 C       -3.8350    -2.2720     3.2450 C.2   1 <1>   0.6860 
  3 N       -4.4400    -2.7870     2.1130 N.am  1 <1>  -0.4420 
  4 N       -3.7860    -0.9180     3.4160 N.am  1 <1>  -0.4950 
  5 C       -4.9630    -1.8870     1.2000 C.2   1 <1>   0.4210 
  6 C       -4.7920    -4.2300     1.9900 C.3   1 <1>   0.0520 
  7 C       -4.3380    -0.0210     2.5440 C.2   1 <1>   0.6990 
  8 N       -5.5920    -2.1770     0.0440 N.pl3 1 <1>  -0.7040 
  9 C       -4.9760    -0.5490     1.3740 C.2   1 <1>   0.2710 
 10 O       -4.2510     1.1670     2.7930 O.2   1 <1>  -0.5750 
 11 C       -6.1380    -1.0590    -0.4280 C.cat 1 <1>   1.0690 
 12 N       -5.7000    -0.0110     0.2940 N.pl3 1 <1>  -0.7670 
 13 N       -7.0320    -1.0340    -1.4470 N.pl3 1 <1>  -0.5960 
 14 C       -5.9150     1.4440     0.1070 C.3   1 <1>   0.2680 
 15 C       -7.1350    -2.1710    -2.4330 C.3   1 <1>   0.1600 
 16 C       -8.3090    -0.2670    -1.3360 C.3   1 <1>   0.1600 
 17 C       -8.5100    -2.8880    -2.3970 C.3   1 <1>   0.1930 
 18 C       -9.4730    -1.1620    -0.8540 C.3   1 <1>  -0.1670 
 19 O       -9.2870    -2.3650    -3.4300 O.3   1 <1>  -0.6840 
 20 C       -9.2360    -2.6960    -1.0370 C.3   1 <1>  -0.1140 
 21 C       -8.2950    -3.2480     0.0510 C.2   1 <1>   0.9040 
 22 C      -10.5650    -3.4990    -0.9920 C.3   1 <1>  -0.0250 
 23 O       -8.1470    -2.6670     1.1300 O.co2 1 <1>  -0.9030 
 24 O       -7.4730    -4.1300    -0.2430 O.co2 1 <1>  -0.9030 
 25 C      -11.5320    -3.0600     0.1040 C.ar  1 <1>  -0.1510 
 26 C      -11.2950    -3.3850     1.4300 C.ar  1 <1>  -0.1570 
 27 C      -12.6680    -2.3310    -0.2180 C.ar  1 <1>  -0.1570 
 28 C      -12.1760    -2.9860     2.4200 C.ar  1 <1>  -0.1570 
 29 C      -13.5520    -1.9320     0.7700 C.ar  1 <1>  -0.1570 
 30 C      -13.3060    -2.2600     2.0910 C.ar  1 <1>  -0.1570 
 31 H       -3.3460    -0.5700     4.2640 H     1 <1>   0.3640 
 32 H       -4.4180    -4.6200     1.0610 H     1 <1>   0.0720 
 33 H       -5.8650    -4.3420     2.0080 H     1 <1>   0.0720 
 34 H       -4.3720    -4.7990     2.8010 H     1 <1>   0.0720 
 35 H       -6.1230    -3.0650    -0.0730 H     1 <1>   0.4450 
 36 H       -5.0010     1.9780     0.3030 H     1 <1>   0.0720 
 37 H       -6.6720     1.7900     0.7900 H     1 <1>   0.0720 
 38 H       -6.2220     1.6520    -0.9030 H     1 <1>   0.0720 
 39 H       -6.9530    -1.7990    -3.4260 H     1 <1>   0.0720 
 40 H       -6.3730    -2.9020    -2.2290 H     1 <1>   0.0720 
 41 H       -8.2160     0.5620    -0.6600 H     1 <1>   0.0720 
 42 H       -8.5500     0.1260    -2.3100 H     1 <1>   0.0720 
 43 H       -8.3710    -3.9350    -2.6080 H     1 <1>   0.0720 
 44 H       -9.6790    -0.9470     0.1800 H     1 <1>   0.0720 
 45 H      -10.3520    -0.8660    -1.3980 H     1 <1>   0.0720 
 46 H      -10.1680    -2.7850    -3.4240 H     1 <1>   0.3940 
 47 H      -11.0800    -3.4140    -1.9300 H     1 <1>   0.0720 
 48 H      -10.3420    -4.5440    -0.8590 H     1 <1>   0.0720 
 49 H      -10.4160    -3.9440     1.7020 H     1 <1>   0.1430 
 50 H      -12.8710    -2.0670    -1.2400 H     1 <1>   0.1430 
 51 H      -11.9740    -3.2420     3.4450 H     1 <1>   0.1430 
 52 H      -14.4290    -1.3660     0.5110 H     1 <1>   0.1430 
 53 H      -13.9890    -1.9500     2.8620 H     1 <1>   0.1430 
@<TRIPOS>BOND
  1   1   2  2   
  2   2   3  am  
  3   2   4  am  
  4   3   5  1   
  5   3   6  1   
  6   4   7  am  
  7   4  31  1   
  8   5   8  1   
  9   5   9  2   
 10   6  32  1   
 11   6  33  1   
 12   6  34  1   
 13   7   9  1   
 14   7  10  2   
 15   8  11  ar  
 16   8  35  1   
 17   9  12  1   
 18  11  12  ar  
 19  11  13  ar  
 20  12  14  1   
 21  13  15  1   
 22  13  16  1   
 23  14  36  1   
 24  14  37  1   
 25  14  38  1   
 26  15  17  1   
 27  15  39  1   
 28  15  40  1   
 29  16  18  1   
 30  16  41  1   
 31  16  42  1   
 32  17  19  1   
 33  17  20  1   
 34  17  43  1   
 35  18  20  1   
 36  18  44  1   
 37  18  45  1   
 38  19  46  1   
 39  20  21  1   
 40  20  22  1   
 41  21  23  ar  
 42  21  24  ar  
 43  22  25  1   
 44  22  47  1   
 45  22  48  1   
 46  25  26  ar  
 47  25  27  ar  
 48  26  28  ar  
 49  26  49  1   
 50  27  29  ar  
 51  27  50  1   
 52  28  30  ar  
 53  28  51  1   
 54  29  30  ar  
 55  29  52  1   
 56  30  53  1   
@<TRIPOS>SUBSTRUCTURE
  1 ****  23 GROUP 4 **** **** 0

# MOE 2024.06 (io_trps.svl 2023.06)
