@<TRIPOS>MOLECULE
NONAME
38 39 1 0 0 
SMALL
USER_CHARGES


@<TRIPOS>ATOM
  1 O        0.0820    -0.3460    -0.6030 O.2   1 <1>  -0.5700 
  2 C        1.1080    -0.7970    -0.1180 C.2   1 <1>   0.7160 
  3 N        2.2110    -0.0040     0.0360 N.am  1 <1>  -0.4930 
  4 C        1.2110    -2.1790     0.3140 C.2   1 <1>   0.2030 
  5 C        2.4300     1.3590    -0.2780 C.2   1 <1>   0.0630 
  6 N        2.2910    -2.7290     0.8470 N.2   1 <1>  -0.7070 
  7 C        0.1810    -3.1240     0.2280 C.2   1 <1>  -0.1500 
  8 C        3.5730     2.0520    -0.0810 C.2   1 <1>  -0.3320 
  9 C        1.5510     2.2810    -0.8470 C.2   1 <1>   0.1390 
 10 N        1.9500    -4.0030     1.0940 N.pl3 1 <1>   0.3000 
 11 C        0.6810    -4.2700     0.7280 C.2   1 <1>  -0.3320 
 12 N        3.3400     3.3130    -0.5230 N.pl3 1 <1>   0.3140 
 13 C        4.8970     1.5880     0.5110 C.3   1 <1>  -0.0600 
 14 N        2.0920     3.4540    -0.9960 N.2   1 <1>  -0.7070 
 15 C        0.0060    -5.6240     0.8910 C.3   1 <1>   0.0200 
 16 C        4.2790     4.4430    -0.5210 C.3   1 <1>   0.0160 
 17 C        0.3330    -6.5990    -0.2550 C.3   1 <1>  -0.0800 
 18 C       -0.4970    -7.8800    -0.1080 C.3   1 <1>  -0.2400 
 19 C        1.8240    -6.9630    -0.3200 C.3   1 <1>  -0.2400 
 20 H        2.9940    -0.5090     0.4520 H     1 <1>   0.3700 
 21 H       -0.8010    -2.9250    -0.1670 H     1 <1>   0.1500 
 22 H        0.5380     2.0540    -1.1330 H     1 <1>   0.1500 
 23 H        2.6020    -4.6810     1.5110 H     1 <1>   0.2700 
 24 H        4.8470     0.5510     0.7900 H     1 <1>   0.0800 
 25 H        5.1320     2.1640     1.3880 H     1 <1>   0.0800 
 26 H        5.6860     1.7070    -0.2090 H     1 <1>   0.0800 
 27 H       -1.0590    -5.4630     0.9120 H     1 <1>   0.0800 
 28 H        0.2810    -6.0570     1.8370 H     1 <1>   0.0800 
 29 H        5.1340     4.1910    -1.1180 H     1 <1>   0.0800 
 30 H        4.5780     4.6500     0.4880 H     1 <1>   0.0800 
 31 H        3.7910     5.3050    -0.9360 H     1 <1>   0.0800 
 32 H        0.0590    -6.1270    -1.1850 H     1 <1>   0.0800 
 33 H       -0.2530    -8.3900     0.8080 H     1 <1>   0.0800 
 34 H       -0.3070    -8.5460    -0.9320 H     1 <1>   0.0800 
 35 H       -1.5480    -7.6490    -0.1030 H     1 <1>   0.0800 
 36 H        2.1600    -7.3660     0.6180 H     1 <1>   0.0800 
 37 H        2.4160    -6.1010    -0.5690 H     1 <1>   0.0800 
 38 H        1.9910    -7.7000    -1.0860 H     1 <1>   0.0800 
@<TRIPOS>BOND
  1   1   2  2   
  2   2   3  am  
  3   2   4  1   
  4   3   5  1   
  5   3  20  1   
  6   4   6  2   
  7   4   7  1   
  8   5   8  2   
  9   5   9  1   
 10   6  10  1   
 11   7  11  2   
 12   7  21  1   
 13   8  12  1   
 14   8  13  1   
 15   9  14  2   
 16   9  22  1   
 17  10  11  1   
 18  10  23  1   
 19  11  15  1   
 20  12  14  1   
 21  12  16  1   
 22  13  24  1   
 23  13  25  1   
 24  13  26  1   
 25  15  17  1   
 26  15  27  1   
 27  15  28  1   
 28  16  29  1   
 29  16  30  1   
 30  16  31  1   
 31  17  18  1   
 32  17  19  1   
 33  17  32  1   
 34  18  33  1   
 35  18  34  1   
 36  18  35  1   
 37  19  36  1   
 38  19  37  1   
 39  19  38  1   
@<TRIPOS>SUBSTRUCTURE
  1 ****   2 GROUP 4 **** **** 0

# MOE 2024.06 (io_trps.svl 2023.06)
