@<TRIPOS>MOLECULE
NONAME
48 49 1 0 0 
SMALL
USER_CHARGES


@<TRIPOS>ATOM
  1 O        0.0000     0.6770    -1.5810 O.3   1 <1>  -0.3630 
  2 C       -0.8880     0.1300    -0.7190 C.ar  1 <1>   0.0830 
  3 C        0.0370     2.0850    -1.7370 C.3   1 <1>   0.1200 
  4 C       -2.2550     0.1350    -1.0050 C.ar  1 <1>  -0.1440 
  5 C       -0.4130    -0.4280     0.4670 C.ar  1 <1>  -0.1440 
  6 C        0.7330     2.7430    -0.5340 C.3   1 <1>   0.3430 
  7 C       -3.1400    -0.3390    -0.0520 C.ar  1 <1>  -0.1500 
  8 C       -2.8210     0.6140    -2.3360 C.3   1 <1>  -0.0970 
  9 C       -1.3190    -0.9000     1.4010 C.ar  1 <1>  -0.1500 
 10 C        1.0740    -0.5570     0.7710 C.3   1 <1>  -0.0960 
 11 N       -0.1820     3.4860     0.4080 N.4   1 <1>  -0.9590 
 12 C       -2.6780    -0.8440     1.1490 C.ar  1 <1>  -0.1500 
 13 C        0.6250     4.2250     1.4340 C.3   1 <1>   0.4860 
 14 C       -1.2750     2.6560     0.9880 C.3   1 <1>   0.3430 
 15 C        1.3490     5.3950     0.7770 C.ar  1 <1>   0.1670 
 16 C       -2.2810     3.5250     1.7330 C.3   1 <1>  -0.2400 
 17 N        0.7230     6.0040    -0.2260 N.ar  1 <1>  -0.6200 
 18 C        2.6080     5.7650     1.2370 C.ar  1 <1>   0.1600 
 19 C        1.4380     7.0060    -0.7180 C.ar  1 <1>   0.1600 
 20 N        3.3190     6.7540     0.7330 N.ar  1 <1>  -0.6200 
 21 C        2.7000     7.3730    -0.2560 C.ar  1 <1>   0.1670 
 22 C        3.4480     8.5340    -0.8810 C.3   1 <1>  -0.0970 
 23 H       -0.9550     2.4660    -1.8880 H     1 <1>   0.0800 
 24 H        0.6160     2.2720    -2.6240 H     1 <1>   0.0800 
 25 H        1.4490     3.4460    -0.9270 H     1 <1>   0.0800 
 26 H        1.2810     1.9860     0.0000 H     1 <1>   0.0800 
 27 H       -4.2000    -0.3340    -0.2450 H     1 <1>   0.1500 
 28 H       -2.0960     0.5020    -3.1220 H     1 <1>   0.0800 
 29 H       -3.1180     1.6450    -2.2700 H     1 <1>   0.0800 
 30 H       -3.6820     0.0280    -2.6030 H     1 <1>   0.0800 
 31 H       -0.9750    -1.3280     2.3280 H     1 <1>   0.1500 
 32 H        1.6500    -0.6030    -0.1360 H     1 <1>   0.0800 
 33 H        1.2600    -1.4650     1.3170 H     1 <1>   0.0800 
 34 H        1.4110     0.2720     1.3640 H     1 <1>   0.0800 
 35 H       -0.6050     4.2550    -0.1410 H     1 <1>   0.4500 
 36 H       -3.3760    -1.2150     1.8810 H     1 <1>   0.1500 
 37 H        1.3300     3.5620     1.9070 H     1 <1>   0.0800 
 38 H       -0.0240     4.6280     2.1910 H     1 <1>   0.0800 
 39 H       -0.8720     1.8990     1.6420 H     1 <1>   0.0800 
 40 H       -1.8020     2.1590     0.1920 H     1 <1>   0.0800 
 41 H       -1.8750     3.9160     2.6470 H     1 <1>   0.0800 
 42 H       -3.1300     2.9190     1.9940 H     1 <1>   0.0800 
 43 H       -2.6300     4.3300     1.1100 H     1 <1>   0.0800 
 44 H        3.0570     5.2280     2.0560 H     1 <1>   0.1500 
 45 H        1.0040     7.5670    -1.5280 H     1 <1>   0.1500 
 46 H        2.8810     8.9840    -1.6750 H     1 <1>   0.0800 
 47 H        4.3850     8.1880    -1.2770 H     1 <1>   0.0800 
 48 H        3.6460     9.2790    -0.1320 H     1 <1>   0.0800 
@<TRIPOS>BOND
  1   1   2  1   
  2   1   3  1   
  3   2   4  ar  
  4   2   5  ar  
  5   3   6  1   
  6   3  23  1   
  7   3  24  1   
  8   4   7  ar  
  9   4   8  1   
 10   5   9  ar  
 11   5  10  1   
 12   6  11  1   
 13   6  25  1   
 14   6  26  1   
 15   7  12  ar  
 16   7  27  1   
 17   8  28  1   
 18   8  29  1   
 19   8  30  1   
 20   9  12  ar  
 21   9  31  1   
 22  10  32  1   
 23  10  33  1   
 24  10  34  1   
 25  11  13  1   
 26  11  14  1   
 27  11  35  1   
 28  12  36  1   
 29  13  15  1   
 30  13  37  1   
 31  13  38  1   
 32  14  16  1   
 33  14  39  1   
 34  14  40  1   
 35  15  17  ar  
 36  15  18  ar  
 37  16  41  1   
 38  16  42  1   
 39  16  43  1   
 40  17  19  ar  
 41  18  20  ar  
 42  18  44  1   
 43  19  21  ar  
 44  19  45  1   
 45  20  21  ar  
 46  21  22  1   
 47  22  46  1   
 48  22  47  1   
 49  22  48  1   
@<TRIPOS>SUBSTRUCTURE
  1 ****  11 GROUP 4 **** **** 0

# MOE 2024.06 (io_trps.svl 2023.06)
