@<TRIPOS>MOLECULE
NONAME
61 65 1 0 0 
SMALL
USER_CHARGES


@<TRIPOS>ATOM
  1 O       -1.9480     0.5010    -0.1490 O.3   1 <1>  -0.3630 
  2 C       -2.5880    -0.6190     0.2760 C.ar  1 <1>   0.0830 
  3 C       -0.5400     0.5720    -0.1750 C.3   1 <1>   0.0400 
  4 C       -3.9700    -0.5990     0.2380 C.ar  1 <1>  -0.1500 
  5 C       -1.9320    -1.7570     0.7370 C.ar  1 <1>  -0.1500 
  6 C       -4.7200    -1.6910     0.6530 C.ar  1 <1>   0.1000 
  7 C       -2.6680    -2.8540     1.1540 C.ar  1 <1>  -0.1500 
  8 N       -6.1120    -1.6270     0.6060 N.pl3 1 <1>  -0.8380 
  9 C       -4.0500    -2.8200     1.1130 C.ar  1 <1>  -0.1500 
 10 C       -6.7810    -0.8010     1.6230 C.3   1 <1>   0.2090 
 11 C       -6.8800    -2.7960     0.1480 C.3   1 <1>   0.2090 
 12 C       -8.0370    -0.2220     0.9810 C.3   1 <1>  -0.1600 
 13 C       -8.1430    -2.2720    -0.5300 C.3   1 <1>  -0.1600 
 14 C       -8.9360    -1.3260     0.3920 C.3   1 <1>   0.4230 
 15 N      -10.0740    -0.7180    -0.3800 N.4   1 <1>  -0.9590 
 16 C      -10.8210     0.3310     0.4080 C.3   1 <1>   0.3430 
 17 C      -11.0410    -1.7470    -0.8850 C.3   1 <1>   0.3430 
 18 C      -11.9010     1.0470    -0.4190 C.3   1 <1>   0.1430 
 19 C      -12.1090    -1.0980    -1.7700 C.3   1 <1>  -0.1600 
 20 C      -12.6400     1.9840     0.5050 C.ar  1 <1>   0.1670 
 21 C      -12.8680     0.0200    -1.0380 C.3   1 <1>  -0.1600 
 22 C      -11.3170     2.0180    -1.4810 C.3   1 <1>  -0.1600 
 23 N      -13.0780     1.6540     1.6950 N.ar  1 <1>  -0.6200 
 24 C      -12.7710     3.2290    -0.0300 C.ar  1 <1>  -0.1430 
 25 C      -12.1520     3.3130    -1.4020 C.3   1 <1>  -0.0170 
 26 C      -13.6660     2.6530     2.3390 C.ar  1 <1>   0.7200 
 27 C      -13.4100     4.1810     0.7280 C.ar  1 <1>   0.1600 
 28 N      -13.8660     3.8970     1.9270 N.ar  1 <1>  -0.6200 
 29 N      -14.1290     2.3690     3.5560 N.pl3 1 <1>  -0.9000 
 30 H       -0.2610     1.5380    -0.5530 H     1 <1>   0.0800 
 31 H       -0.1640    -0.1980    -0.8250 H     1 <1>   0.0800 
 32 H       -0.1660     0.4500     0.8260 H     1 <1>   0.0800 
 33 H       -4.4710     0.2780    -0.1240 H     1 <1>   0.1500 
 34 H       -0.8610    -1.8080     0.7800 H     1 <1>   0.1500 
 35 H       -2.1630    -3.7340     1.5120 H     1 <1>   0.1500 
 36 H       -4.6090    -3.6720     1.4480 H     1 <1>   0.1500 
 37 H       -6.1250    -0.0080     1.9440 H     1 <1>   0.0800 
 38 H       -7.0270    -1.4070     2.4790 H     1 <1>   0.0800 
 39 H       -7.1230    -3.4260     0.9870 H     1 <1>   0.0800 
 40 H       -6.2920    -3.3650    -0.5540 H     1 <1>   0.0800 
 41 H       -7.7270     0.4610     0.2100 H     1 <1>   0.0800 
 42 H       -8.5490     0.3250     1.7500 H     1 <1>   0.0800 
 43 H       -8.7300    -3.1270    -0.8050 H     1 <1>   0.0800 
 44 H       -7.8420    -1.7540    -1.4230 H     1 <1>   0.0800 
 45 H       -9.3300    -1.9050     1.2120 H     1 <1>   0.0800 
 46 H       -9.6550    -0.2550    -1.1950 H     1 <1>   0.4500 
 47 H      -10.1430     1.0810     0.7780 H     1 <1>   0.0800 
 48 H      -11.2950    -0.1300     1.2600 H     1 <1>   0.0800 
 49 H      -11.5190    -2.2360    -0.0500 H     1 <1>   0.0800 
 50 H      -10.5260    -2.4960    -1.4640 H     1 <1>   0.0800 
 51 H      -12.8110    -1.8540    -2.0750 H     1 <1>   0.0800 
 52 H      -11.6480    -0.7190    -2.6660 H     1 <1>   0.0800 
 53 H      -13.5510     0.5110    -1.7110 H     1 <1>   0.0800 
 54 H      -13.4600    -0.4200    -0.2510 H     1 <1>   0.0800 
 55 H      -11.3310     1.6140    -2.4780 H     1 <1>   0.0800 
 56 H      -10.3010     2.2660    -1.2270 H     1 <1>   0.0800 
 57 H      -12.9280     3.3150    -2.1490 H     1 <1>   0.0800 
 58 H      -11.5390     4.1910    -1.5120 H     1 <1>   0.0800 
 59 H      -13.5470     5.1820     0.3520 H     1 <1>   0.1500 
 60 H      -14.7770     3.0570     3.9320 H     1 <1>   0.4000 
 61 H      -14.3590     1.3970     3.7330 H     1 <1>   0.4000 
@<TRIPOS>BOND
  1   1   2  1   
  2   1   3  1   
  3   2   4  ar  
  4   2   5  ar  
  5   3  30  1   
  6   3  31  1   
  7   3  32  1   
  8   4   6  ar  
  9   4  33  1   
 10   5   7  ar  
 11   5  34  1   
 12   6   8  1   
 13   6   9  ar  
 14   7   9  ar  
 15   7  35  1   
 16   8  10  1   
 17   8  11  1   
 18   9  36  1   
 19  10  12  1   
 20  10  37  1   
 21  10  38  1   
 22  11  13  1   
 23  11  39  1   
 24  11  40  1   
 25  12  14  1   
 26  12  41  1   
 27  12  42  1   
 28  13  14  1   
 29  13  43  1   
 30  13  44  1   
 31  14  15  1   
 32  14  45  1   
 33  15  16  1   
 34  15  17  1   
 35  15  46  1   
 36  16  18  1   
 37  16  47  1   
 38  16  48  1   
 39  17  19  1   
 40  17  49  1   
 41  17  50  1   
 42  18  20  1   
 43  18  21  1   
 44  18  22  1   
 45  19  21  1   
 46  19  51  1   
 47  19  52  1   
 48  20  23  ar  
 49  20  24  ar  
 50  21  53  1   
 51  21  54  1   
 52  22  25  1   
 53  22  55  1   
 54  22  56  1   
 55  23  26  ar  
 56  24  25  1   
 57  24  27  ar  
 58  25  57  1   
 59  25  58  1   
 60  26  28  ar  
 61  26  29  1   
 62  27  28  ar  
 63  27  59  1   
 64  29  60  1   
 65  29  61  1   
@<TRIPOS>SUBSTRUCTURE
  1 ****  12 GROUP 4 **** **** 0

# MOE 2024.06 (io_trps.svl 2023.06)
