@<TRIPOS>MOLECULE
NONAME
51 53 1 0 0 
SMALL
USER_CHARGES


@<TRIPOS>ATOM
  1 CL      -1.0070     0.8420    -2.1320 Cl    1 <1>  -0.1770 
  2 C       -2.1970     1.5230    -1.0420 C.ar  1 <1>   0.1770 
  3 C       -1.9220     2.6080    -0.2060 C.ar  1 <1>   0.0830 
  4 C       -3.4550     0.9530    -1.0550 C.ar  1 <1>  -0.1500 
  5 O       -0.7230     3.2350    -0.1090 O.3   1 <1>  -0.3630 
  6 C       -2.9390     3.1110     0.5900 C.ar  1 <1>  -0.1500 
  7 C       -4.4520     1.4670    -0.2430 C.ar  1 <1>  -0.1500 
  8 C        0.4650     2.4850     0.0080 C.3   1 <1>   0.1200 
  9 C       -4.2130     2.5560     0.5900 C.ar  1 <1>  -0.0090 
 10 C        1.4510     3.2960     0.8420 C.3   1 <1>  -0.2400 
 11 S       -5.5360     3.2280     1.6360 S.o2  1 <1>   1.4470 
 12 O       -5.1080     4.4570     2.2690 O.2   1 <1>  -0.6500 
 13 O       -6.0710     2.1600     2.4520 O.2   1 <1>  -0.6500 
 14 N       -6.7320     3.6490     0.5120 N.am  1 <1>  -0.8490 
 15 C       -8.0310     3.8630     1.1720 C.3   1 <1>   0.1960 
 16 C       -6.3560     4.8210    -0.2830 C.3   1 <1>   0.1960 
 17 C       -9.1780     4.0990     0.1580 C.3   1 <1>   0.0000 
 18 C       -7.4000     5.0800    -1.3720 C.3   1 <1>  -0.1600 
 19 C      -10.4900     4.3330     0.9360 C.3   1 <1>   0.2000 
 20 C       -8.7970     5.2760    -0.7680 C.3   1 <1>  -0.1600 
 21 C       -9.4750     2.8090    -0.6290 C.3   1 <1>  -0.1600 
 22 O      -11.4320     4.9390     0.0970 O.3   1 <1>  -0.5600 
 23 C      -10.9930     2.9300     1.2980 C.3   1 <1>  -0.1600 
 24 C      -10.3930     1.9680     0.2630 C.3   1 <1>  -0.1600 
 25 C      -12.4350     5.6510     0.7500 C.3   1 <1>   0.0400 
 26 H       -3.6530     0.1150    -1.7000 H     1 <1>   0.1500 
 27 H       -2.7250     3.9550     1.2250 H     1 <1>   0.1500 
 28 H       -5.4340     1.0230    -0.2540 H     1 <1>   0.1500 
 29 H        0.2430     1.5460     0.4870 H     1 <1>   0.0800 
 30 H        0.8580     2.3150    -0.9790 H     1 <1>   0.0800 
 31 H        1.0480     3.4730     1.8230 H     1 <1>   0.0800 
 32 H        1.6560     4.2360     0.3620 H     1 <1>   0.0800 
 33 H        2.3740     2.7530     0.9430 H     1 <1>   0.0800 
 34 H       -8.2690     3.0010     1.7720 H     1 <1>   0.0800 
 35 H       -7.9540     4.7100     1.8340 H     1 <1>   0.0800 
 36 H       -6.2730     5.6880     0.3530 H     1 <1>   0.0800 
 37 H       -5.3990     4.6550    -0.7500 H     1 <1>   0.0800 
 38 H       -7.1240     5.9580    -1.9280 H     1 <1>   0.0800 
 39 H       -7.4070     4.2490    -2.0560 H     1 <1>   0.0800 
 40 H      -10.3350     4.9570     1.8000 H     1 <1>   0.0800 
 41 H       -9.5200     5.3810    -1.5590 H     1 <1>   0.0800 
 42 H       -8.8090     6.1890    -0.1970 H     1 <1>   0.0800 
 43 H      -10.0130     3.0600    -1.5270 H     1 <1>   0.0800 
 44 H       -8.5830     2.2740    -0.9030 H     1 <1>   0.0800 
 45 H      -10.6270     2.6650     2.2750 H     1 <1>   0.0800 
 46 H      -12.0670     2.8760     1.3100 H     1 <1>   0.0800 
 47 H       -9.8270     1.1990     0.7610 H     1 <1>   0.0800 
 48 H      -11.1660     1.5050    -0.3270 H     1 <1>   0.0800 
 49 H      -13.1070     6.0380     0.0040 H     1 <1>   0.0800 
 50 H      -11.9930     6.4660     1.2960 H     1 <1>   0.0800 
 51 H      -12.9710     4.9960     1.4130 H     1 <1>   0.0800 
@<TRIPOS>BOND
  1   1   2  1   
  2   2   3  ar  
  3   2   4  ar  
  4   3   5  1   
  5   3   6  ar  
  6   4   7  ar  
  7   4  26  1   
  8   5   8  1   
  9   6   9  ar  
 10   6  27  1   
 11   7   9  ar  
 12   7  28  1   
 13   8  10  1   
 14   8  29  1   
 15   8  30  1   
 16   9  11  1   
 17  10  31  1   
 18  10  32  1   
 19  10  33  1   
 20  11  12  2   
 21  11  13  2   
 22  11  14  am  
 23  14  15  1   
 24  14  16  1   
 25  15  17  1   
 26  15  34  1   
 27  15  35  1   
 28  16  18  1   
 29  16  36  1   
 30  16  37  1   
 31  17  19  1   
 32  17  20  1   
 33  17  21  1   
 34  18  20  1   
 35  18  38  1   
 36  18  39  1   
 37  19  22  1   
 38  19  23  1   
 39  19  40  1   
 40  20  41  1   
 41  20  42  1   
 42  21  24  1   
 43  21  43  1   
 44  21  44  1   
 45  22  25  1   
 46  23  24  1   
 47  23  45  1   
 48  23  46  1   
 49  24  47  1   
 50  24  48  1   
 51  25  49  1   
 52  25  50  1   
 53  25  51  1   
@<TRIPOS>SUBSTRUCTURE
  1 ****  14 GROUP 4 **** **** 0

# MOE 2024.06 (io_trps.svl 2023.06)
