@<TRIPOS>MOLECULE
NONAME
45 47 1 0 0 
SMALL
USER_CHARGES


@<TRIPOS>ATOM
  1 O        0.9290    -1.6160     0.7730 O.3   1 <1>  -0.3630 
  2 C        0.2890    -2.6930     0.2800 C.ar  1 <1>   0.0830 
  3 C        0.7030    -0.5400    -0.1320 C.3   1 <1>   0.4000 
  4 C        0.2030    -3.9990     0.7650 C.ar  1 <1>   0.0830 
  5 C       -0.3460    -2.3440    -0.8780 C.ar  1 <1>   0.0830 
  6 O       -0.1380    -1.0540    -1.1600 O.3   1 <1>  -0.3630 
  7 O        0.7820    -4.4710     1.9010 O.3   1 <1>  -0.3630 
  8 C       -0.5450    -4.9130     0.0320 C.ar  1 <1>  -0.1500 
  9 C       -1.0930    -3.2420    -1.6140 C.ar  1 <1>  -0.1500 
 10 C        1.6280    -3.6540     2.6800 C.3   1 <1>   0.0400 
 11 C       -1.1980    -4.5450    -1.1430 C.ar  1 <1>  -0.1430 
 12 C       -2.0290    -5.5720    -1.8860 C.3   1 <1>   0.4870 
 13 N       -3.2470    -5.8360    -1.0800 N.4   1 <1>  -0.9590 
 14 C       -3.9260    -7.0910    -1.5080 C.3   1 <1>   0.5240 
 15 C       -4.1600    -4.6570    -0.9480 C.3   1 <1>   0.3430 
 16 C       -3.2720    -8.2590    -0.7780 C.2   1 <1>   0.0460 
 17 C       -4.9270    -4.6490     0.3900 C.3   1 <1>   0.1200 
 18 N       -1.9290    -8.3560    -0.6700 N.2   1 <1>  -0.5650 
 19 C       -3.8740    -9.2910    -0.1460 C.2   1 <1>  -0.3020 
 20 O       -5.5810    -5.8590     0.5950 O.3   1 <1>  -0.6800 
 21 C       -1.7430    -9.4360     0.0150 C.2   1 <1>   0.0060 
 22 N       -2.8910   -10.0550     0.3650 N.pl3 1 <1>   0.0330 
 23 C       -0.3780    -9.9680     0.3990 C.3   1 <1>  -0.0600 
 24 H        1.6390    -0.2220    -0.5560 H     1 <1>   0.0800 
 25 H        0.2020     0.2640     0.3770 H     1 <1>   0.0800 
 26 H       -0.6020    -5.9250     0.3990 H     1 <1>   0.1500 
 27 H       -1.5670    -2.9100    -2.5210 H     1 <1>   0.1500 
 28 H        2.0010    -4.2410     3.5000 H     1 <1>   0.0800 
 29 H        1.0600    -2.8210     3.0550 H     1 <1>   0.0800 
 30 H        2.4460    -3.3160     2.0690 H     1 <1>   0.0800 
 31 H       -1.4500    -6.4740    -2.0030 H     1 <1>   0.0800 
 32 H       -2.2940    -5.2050    -2.8640 H     1 <1>   0.0800 
 33 H       -2.8960    -6.0800    -0.1430 H     1 <1>   0.4500 
 34 H       -3.8320    -7.2260    -2.5720 H     1 <1>   0.0800 
 35 H       -4.9710    -7.0660    -1.2540 H     1 <1>   0.0800 
 36 H       -4.8650    -4.6430    -1.7640 H     1 <1>   0.0800 
 37 H       -3.5860    -3.7470    -0.9990 H     1 <1>   0.0800 
 38 H       -5.6630    -3.8620     0.3890 H     1 <1>   0.0800 
 39 H       -4.2460    -4.4870     1.2080 H     1 <1>   0.0800 
 40 H       -4.9180    -9.5230    -0.0260 H     1 <1>   0.1500 
 41 H       -6.0790    -5.8490     1.4420 H     1 <1>   0.4000 
 42 H       -2.9830   -10.9220     0.9060 H     1 <1>   0.2700 
 43 H        0.3900    -9.3230     0.0090 H     1 <1>   0.0800 
 44 H       -0.2370   -10.9530    -0.0070 H     1 <1>   0.0800 
 45 H       -0.2830   -10.0070     1.4680 H     1 <1>   0.0800 
@<TRIPOS>BOND
  1   1   2  1   
  2   1   3  1   
  3   2   4  ar  
  4   2   5  ar  
  5   3   6  1   
  6   3  24  1   
  7   3  25  1   
  8   4   7  1   
  9   4   8  ar  
 10   5   6  1   
 11   5   9  ar  
 12   7  10  1   
 13   8  11  ar  
 14   8  26  1   
 15   9  11  ar  
 16   9  27  1   
 17  10  28  1   
 18  10  29  1   
 19  10  30  1   
 20  11  12  1   
 21  12  13  1   
 22  12  31  1   
 23  12  32  1   
 24  13  14  1   
 25  13  15  1   
 26  13  33  1   
 27  14  16  1   
 28  14  34  1   
 29  14  35  1   
 30  15  17  1   
 31  15  36  1   
 32  15  37  1   
 33  16  18  1   
 34  16  19  2   
 35  17  20  1   
 36  17  38  1   
 37  17  39  1   
 38  18  21  2   
 39  19  22  1   
 40  19  40  1   
 41  20  41  1   
 42  21  22  1   
 43  21  23  1   
 44  22  42  1   
 45  23  43  1   
 46  23  44  1   
 47  23  45  1   
@<TRIPOS>SUBSTRUCTURE
  1 ****   8 GROUP 4 **** **** 0

# MOE 2024.06 (io_trps.svl 2023.06)
