@<TRIPOS>MOLECULE
NONAME
55 58 1 0 0 
SMALL
USER_CHARGES


@<TRIPOS>ATOM
  1 O       -1.0090     0.1580    -1.5000 O.2   1 <1>  -0.5700 
  2 C       -1.7300     0.9590    -0.9550 C.2   1 <1>   0.5690 
  3 N       -1.3580     2.2540    -0.8140 N.am  1 <1>  -0.7300 
  4 C       -3.0920     0.5300    -0.4140 C.3   1 <1>  -0.0190 
  5 C       -0.0800     2.8000    -1.2910 C.3   1 <1>   0.2840 
  6 C       -3.0090    -0.7690     0.4100 C.3   1 <1>  -0.1600 
  7 C       -4.1130     0.3590    -1.5520 C.3   1 <1>  -0.1600 
  8 C       -0.0130     4.2550    -0.8670 C.ar  1 <1>  -0.1440 
  9 C       -4.3850    -1.1880     0.9310 C.3   1 <1>   0.2090 
 10 C       -5.4800    -0.0700    -1.0140 C.3   1 <1>   0.2090 
 11 C       -0.4900     5.2510    -1.7050 C.ar  1 <1>  -0.1500 
 12 C        0.5160     4.6010     0.3680 C.ar  1 <1>  -0.1500 
 13 N       -5.3330    -1.3070    -0.2030 N.pl3 1 <1>  -0.8380 
 14 C       -0.4360     6.5770    -1.3130 C.ar  1 <1>  -0.1500 
 15 C        0.5710     5.9270     0.7630 C.ar  1 <1>  -0.1500 
 16 C       -6.4650    -2.0630     0.0230 C.ar  1 <1>   0.4100 
 17 C        0.0920     6.9250    -0.0810 C.ar  1 <1>   0.0820 
 18 N       -7.6050    -1.4100     0.2150 N.ar  1 <1>  -0.6200 
 19 C       -6.3640    -3.4460     0.0520 C.ar  1 <1>  -0.1500 
 20 O        0.1080     8.2460     0.2260 O.3   1 <1>  -0.3620 
 21 C       -8.6650    -2.1640     0.4390 C.ar  1 <1>   0.1600 
 22 C       -7.4700    -4.2430     0.2900 C.ar  1 <1>   0.0530 
 23 C        0.6450     8.7110     1.4440 C.3   1 <1>   0.0400 
 24 C       -8.6560    -3.5430     0.4870 C.ar  1 <1>  -0.1500 
 25 C       -7.3900    -5.6850     0.3290 C.2   1 <1>   0.4250 
 26 O       -8.4560    -6.4160     0.5100 O.3   1 <1>  -0.0190 
 27 N       -6.3480    -6.4320     0.2050 N.2   1 <1>  -0.5650 
 28 N       -8.1460    -7.6600     0.5100 N.2   1 <1>  -0.4100 
 29 C       -6.8840    -7.6480     0.3260 C.2   1 <1>   0.3350 
 30 C       -6.0190    -8.8830     0.2430 C.3   1 <1>  -0.0590 
 31 H       -1.9640     2.9410    -0.3650 H     1 <1>   0.3700 
 32 H       -3.4480     1.3070     0.2380 H     1 <1>   0.0800 
 33 H       -0.0290     2.7130    -2.3630 H     1 <1>   0.0800 
 34 H        0.7350     2.2400    -0.8640 H     1 <1>   0.0800 
 35 H       -2.3400    -0.6310     1.2400 H     1 <1>   0.0800 
 36 H       -2.6150    -1.5640    -0.2000 H     1 <1>   0.0800 
 37 H       -3.7640    -0.3880    -2.2440 H     1 <1>   0.0800 
 38 H       -4.2190     1.2830    -2.0900 H     1 <1>   0.0800 
 39 H       -4.7580    -0.4560     1.6270 H     1 <1>   0.0800 
 40 H       -4.3070    -2.1320     1.4430 H     1 <1>   0.0800 
 41 H       -6.1530    -0.2580    -1.8340 H     1 <1>   0.0800 
 42 H       -5.9030     0.7080    -0.4010 H     1 <1>   0.0800 
 43 H       -0.9050     5.0000    -2.6660 H     1 <1>   0.1500 
 44 H        0.8860     3.8350     1.0280 H     1 <1>   0.1500 
 45 H       -0.8030     7.3520    -1.9600 H     1 <1>   0.1500 
 46 H        0.9870     6.1620     1.7230 H     1 <1>   0.1500 
 47 H       -5.4030    -3.8920    -0.1210 H     1 <1>   0.1500 
 48 H       -9.5970    -1.6480     0.5950 H     1 <1>   0.1500 
 49 H        0.5550     9.7820     1.4620 H     1 <1>   0.0800 
 50 H        1.6820     8.4300     1.4980 H     1 <1>   0.0800 
 51 H        0.0850     8.2840     2.2580 H     1 <1>   0.0800 
 52 H       -9.5720    -4.0730     0.6780 H     1 <1>   0.1500 
 53 H       -5.2770    -8.8550     1.0190 H     1 <1>   0.0800 
 54 H       -5.5290    -8.9150    -0.7120 H     1 <1>   0.0800 
 55 H       -6.6210    -9.7650     0.3610 H     1 <1>   0.0800 
@<TRIPOS>BOND
  1   1   2  2   
  2   2   3  am  
  3   2   4  1   
  4   3   5  1   
  5   3  31  1   
  6   4   6  1   
  7   4   7  1   
  8   4  32  1   
  9   5   8  1   
 10   5  33  1   
 11   5  34  1   
 12   6   9  1   
 13   6  35  1   
 14   6  36  1   
 15   7  10  1   
 16   7  37  1   
 17   7  38  1   
 18   8  11  ar  
 19   8  12  ar  
 20   9  13  1   
 21   9  39  1   
 22   9  40  1   
 23  10  13  1   
 24  10  41  1   
 25  10  42  1   
 26  11  14  ar  
 27  11  43  1   
 28  12  15  ar  
 29  12  44  1   
 30  13  16  1   
 31  14  17  ar  
 32  14  45  1   
 33  15  17  ar  
 34  15  46  1   
 35  16  18  ar  
 36  16  19  ar  
 37  17  20  1   
 38  18  21  ar  
 39  19  22  ar  
 40  19  47  1   
 41  20  23  1   
 42  21  24  ar  
 43  21  48  1   
 44  22  24  ar  
 45  22  25  1   
 46  23  49  1   
 47  23  50  1   
 48  23  51  1   
 49  24  52  1   
 50  25  26  1   
 51  25  27  2   
 52  26  28  1   
 53  27  29  1   
 54  28  29  2   
 55  29  30  1   
 56  30  53  1   
 57  30  54  1   
 58  30  55  1   
@<TRIPOS>SUBSTRUCTURE
  1 ****   4 GROUP 4 **** **** 0

# MOE 2024.06 (io_trps.svl 2023.06)
