@<TRIPOS>MOLECULE
NONAME
52 53 1 0 0 
SMALL
USER_CHARGES


@<TRIPOS>ATOM
  1 O       -0.7520     0.7120    -2.0190 O.co2 1 <1>  -0.9000 
  2 C       -1.2440     0.9980    -0.9210 C.2   1 <1>   0.9060 
  3 O       -2.0640     0.2430    -0.3750 O.co2 1 <1>  -0.9000 
  4 C       -0.8250     2.2810    -0.1900 C.3   1 <1>  -0.1060 
  5 C       -2.0960     2.9630     0.3580 C.3   1 <1>   0.2000 
  6 C       -0.2150     3.2650    -1.2240 C.3   1 <1>   0.1100 
  7 C        0.1450     1.8710     0.9670 C.3   1 <1>  -0.0170 
  8 O       -2.6980     2.1510     1.3020 O.3   1 <1>  -0.6800 
  9 C       -1.8450     4.3430     0.9880 C.3   1 <1>  -0.1600 
 10 N       -0.2670     4.7080    -0.8590 N.3   1 <1>  -0.8100 
 11 C        1.6390     1.8520     0.6400 C.ar  1 <1>  -0.1440 
 12 C       -0.5170     4.9770     0.5570 C.3   1 <1>   0.1100 
 13 C        0.9080     5.4260    -1.4330 C.3   1 <1>   0.1710 
 14 C        2.5160     2.6790     1.3270 C.ar  1 <1>  -0.1500 
 15 C        2.1400     0.9990    -0.3310 C.ar  1 <1>  -0.1500 
 16 C        1.0360     6.9310    -1.1180 C.2   1 <1>   0.5690 
 17 C        3.8700     2.6620     1.0410 C.ar  1 <1>  -0.1500 
 18 C        3.4920     0.9840    -0.6240 C.ar  1 <1>  -0.1500 
 19 O        0.3840     7.7020    -1.7890 O.2   1 <1>  -0.5700 
 20 N        1.8830     7.3950    -0.1300 N.am  1 <1>  -0.6600 
 21 C        4.3600     1.8160     0.0620 C.ar  1 <1>  -0.1500 
 22 C        2.7330     6.5170     0.7200 C.3   1 <1>   0.1400 
 23 C        1.8850     8.8440     0.2210 C.3   1 <1>   0.1400 
 24 C        4.0880     6.2860     0.0530 C.3   1 <1>  -0.2400 
 25 C        2.8670     9.6060    -0.6670 C.3   1 <1>  -0.2400 
 26 H       -2.7930     3.0750    -0.4560 H     1 <1>   0.0800 
 27 H       -0.7700     3.1690    -2.1430 H     1 <1>   0.0800 
 28 H        0.7900     2.9650    -1.4590 H     1 <1>   0.0800 
 29 H       -0.0080     2.5130     1.8120 H     1 <1>   0.0800 
 30 H       -0.1280     0.8890     1.3140 H     1 <1>   0.0800 
 31 H       -2.6950     1.2370     0.8900 H     1 <1>   0.4000 
 32 H       -2.6440     4.9970     0.6920 H     1 <1>   0.0800 
 33 H       -1.8560     4.2740     2.0610 H     1 <1>   0.0800 
 34 H        0.2920     4.5850     1.1440 H     1 <1>   0.0800 
 35 H       -0.5730     6.0380     0.7290 H     1 <1>   0.0800 
 36 H        1.8060     4.9210    -1.1320 H     1 <1>   0.0800 
 37 H        0.8510     5.3380    -2.5030 H     1 <1>   0.0800 
 38 H        2.1440     3.3350     2.0930 H     1 <1>   0.1500 
 39 H        1.4730     0.3450    -0.8700 H     1 <1>   0.1500 
 40 H        4.5430     3.3010     1.5830 H     1 <1>   0.1500 
 41 H        3.8610     0.3210    -1.3860 H     1 <1>   0.1500 
 42 H        5.4110     1.8000    -0.1650 H     1 <1>   0.1500 
 43 H        2.8740     6.9670     1.6870 H     1 <1>   0.0800 
 44 H        2.2450     5.5720     0.8760 H     1 <1>   0.0800 
 45 H        0.8960     9.2450     0.0760 H     1 <1>   0.0800 
 46 H        2.1420     8.9770     1.2570 H     1 <1>   0.0800 
 47 H        4.6320     7.2070    -0.0310 H     1 <1>   0.0800 
 48 H        3.9610     5.8570    -0.9240 H     1 <1>   0.0800 
 49 H        4.6700     5.6080     0.6480 H     1 <1>   0.0800 
 50 H        2.6210     9.4530    -1.7020 H     1 <1>   0.0800 
 51 H        3.8760     9.2890    -0.4850 H     1 <1>   0.0800 
 52 H        2.7990    10.6570    -0.4550 H     1 <1>   0.0800 
@<TRIPOS>BOND
  1   1   2  ar  
  2   2   3  ar  
  3   2   4  1   
  4   4   5  1   
  5   4   6  1   
  6   4   7  1   
  7   5   8  1   
  8   5   9  1   
  9   5  26  1   
 10   6  10  1   
 11   6  27  1   
 12   6  28  1   
 13   7  11  1   
 14   7  29  1   
 15   7  30  1   
 16   8  31  1   
 17   9  12  1   
 18   9  32  1   
 19   9  33  1   
 20  10  12  1   
 21  10  13  1   
 22  11  14  ar  
 23  11  15  ar  
 24  12  34  1   
 25  12  35  1   
 26  13  16  1   
 27  13  36  1   
 28  13  37  1   
 29  14  17  ar  
 30  14  38  1   
 31  15  18  ar  
 32  15  39  1   
 33  16  19  2   
 34  16  20  am  
 35  17  21  ar  
 36  17  40  1   
 37  18  21  ar  
 38  18  41  1   
 39  20  22  1   
 40  20  23  1   
 41  21  42  1   
 42  22  24  1   
 43  22  43  1   
 44  22  44  1   
 45  23  25  1   
 46  23  45  1   
 47  23  46  1   
 48  24  47  1   
 49  24  48  1   
 50  24  49  1   
 51  25  50  1   
 52  25  51  1   
 53  25  52  1   
@<TRIPOS>SUBSTRUCTURE
  1 ****  10 GROUP 4 **** **** 0

# MOE 2024.06 (io_trps.svl 2023.06)
