@<TRIPOS>MOLECULE
NONAME
49 50 1 0 0 
SMALL
USER_CHARGES


@<TRIPOS>ATOM
  1 O       -0.8860     0.6490    -0.7040 O.2   1 <1>  -0.5700 
  2 C       -0.3560     1.6940    -0.3970 C.2   1 <1>   0.5690 
  3 N       -0.9770     2.5910     0.4440 N.am  1 <1>  -0.6600 
  4 C        1.0100     1.9830    -1.0290 C.3   1 <1>   0.1810 
  5 C       -2.3110     2.2950     1.0480 C.3   1 <1>   0.1400 
  6 C       -0.3970     3.8920     0.8780 C.3   1 <1>   0.1400 
  7 O        2.0230     2.1900    -0.0750 O.3   1 <1>  -0.5600 
  8 C       -3.3430     3.4010     0.7210 C.3   1 <1>   0.0000 
  9 C       -1.3730     5.0270     0.5570 C.3   1 <1>  -0.1600 
 10 C        3.2900     2.3450    -0.6210 C.3   1 <1>   0.1200 
 11 C       -4.6790     3.0520     1.4100 C.3   1 <1>   0.2000 
 12 C       -2.7670     4.7720     1.1540 C.3   1 <1>  -0.1600 
 13 C       -3.7140     3.3690    -0.7730 C.3   1 <1>  -0.1600 
 14 C        4.2630     2.6090     0.5260 C.3   1 <1>  -0.1600 
 15 O       -5.4870     4.1930     1.4810 O.3   1 <1>  -0.5600 
 16 C       -5.3540     2.0370     0.4780 C.3   1 <1>  -0.1600 
 17 C       -4.7690     2.2680    -0.9220 C.3   1 <1>  -0.1600 
 18 C        5.6950     2.7970     0.0090 C.3   1 <1>  -0.1600 
 19 C       -6.4550     4.1700     2.4820 C.3   1 <1>   0.0400 
 20 C        6.6660     3.0630     1.1630 C.3   1 <1>  -0.2400 
 21 H        0.9340     2.8600    -1.6450 H     1 <1>   0.0800 
 22 H        1.2880     1.1440    -1.6410 H     1 <1>   0.0800 
 23 H       -2.6720     1.3420     0.7030 H     1 <1>   0.0800 
 24 H       -2.1880     2.2250     2.1140 H     1 <1>   0.0800 
 25 H       -0.2160     3.8540     1.9380 H     1 <1>   0.0800 
 26 H        0.5410     4.0860     0.3910 H     1 <1>   0.0800 
 27 H       -0.9820     5.9500     0.9460 H     1 <1>   0.0800 
 28 H       -1.4480     5.1320    -0.5110 H     1 <1>   0.0800 
 29 H        3.5550     1.4410    -1.1430 H     1 <1>   0.0800 
 30 H        3.2760     3.1770    -1.3050 H     1 <1>   0.0800 
 31 H       -4.5240     2.6680     2.4040 H     1 <1>   0.0800 
 32 H       -3.4310     5.5640     0.8550 H     1 <1>   0.0800 
 33 H       -2.6980     4.7970     2.2280 H     1 <1>   0.0800 
 34 H       -4.1630     4.3090    -1.0450 H     1 <1>   0.0800 
 35 H       -2.8660     3.1960    -1.4110 H     1 <1>   0.0800 
 36 H        3.9520     3.4940     1.0520 H     1 <1>   0.0800 
 37 H        4.2340     1.7750     1.2060 H     1 <1>   0.0800 
 38 H       -5.1020     1.0420     0.8000 H     1 <1>   0.0800 
 39 H       -6.4240     2.1360     0.4790 H     1 <1>   0.0800 
 40 H       -4.3080     1.3630    -1.2810 H     1 <1>   0.0800 
 41 H       -5.5330     2.5710    -1.6180 H     1 <1>   0.0800 
 42 H        6.0090     1.9130    -0.5200 H     1 <1>   0.0800 
 43 H        5.7270     3.6270    -0.6770 H     1 <1>   0.0800 
 44 H       -7.0250     5.0800     2.4130 H     1 <1>   0.0800 
 45 H       -5.9710     4.1180     3.4410 H     1 <1>   0.0800 
 46 H       -7.1040     3.3250     2.3370 H     1 <1>   0.0800 
 47 H        6.6660     2.2360     1.8520 H     1 <1>   0.0800 
 48 H        6.3840     3.9550     1.6940 H     1 <1>   0.0800 
 49 H        7.6640     3.1920     0.7830 H     1 <1>   0.0800 
@<TRIPOS>BOND
  1   1   2  2   
  2   2   3  am  
  3   2   4  1   
  4   3   5  1   
  5   3   6  1   
  6   4   7  1   
  7   4  21  1   
  8   4  22  1   
  9   5   8  1   
 10   5  23  1   
 11   5  24  1   
 12   6   9  1   
 13   6  25  1   
 14   6  26  1   
 15   7  10  1   
 16   8  11  1   
 17   8  12  1   
 18   8  13  1   
 19   9  12  1   
 20   9  27  1   
 21   9  28  1   
 22  10  14  1   
 23  10  29  1   
 24  10  30  1   
 25  11  15  1   
 26  11  16  1   
 27  11  31  1   
 28  12  32  1   
 29  12  33  1   
 30  13  17  1   
 31  13  34  1   
 32  13  35  1   
 33  14  18  1   
 34  14  36  1   
 35  14  37  1   
 36  15  19  1   
 37  16  17  1   
 38  16  38  1   
 39  16  39  1   
 40  17  40  1   
 41  17  41  1   
 42  18  20  1   
 43  18  42  1   
 44  18  43  1   
 45  19  44  1   
 46  19  45  1   
 47  19  46  1   
 48  20  47  1   
 49  20  48  1   
 50  20  49  1   
@<TRIPOS>SUBSTRUCTURE
  1 ****   3 GROUP 4 **** **** 0

# MOE 2024.06 (io_trps.svl 2023.06)
