@<TRIPOS>MOLECULE
NONAME
51 53 1 0 0 
SMALL
USER_CHARGES


@<TRIPOS>ATOM
  1 O       -3.0190     1.0960    -2.0530 O.2   1 <1>  -0.5700 
  2 C       -2.7070     1.1320    -0.8900 C.2   1 <1>   0.5690 
  3 N       -2.3420     0.0210    -0.2100 N.am  1 <1>  -0.7300 
  4 C       -2.7290     2.4580    -0.1570 C.3   1 <1>  -0.0990 
  5 C       -2.1840    -1.3280    -0.8010 C.3   1 <1>   0.2200 
  6 C       -1.3100     2.9680     0.1420 C.3   1 <1>  -0.1600 
  7 C       -3.3340    -2.2480    -0.4070 C.3   1 <1>  -0.0800 
  8 C       -1.0260    -2.0240    -0.1020 C.3   1 <1>   0.1200 
  9 C       -1.3380     4.3430     0.8070 C.3   1 <1>   0.1400 
 10 C       -2.9140    -2.7250     0.9910 C.3   1 <1>   0.1200 
 11 C       -4.7370    -1.6080    -0.4770 C.3   1 <1>  -0.0160 
 12 O       -1.5490    -2.4420     1.1210 O.3   1 <1>  -0.5600 
 13 N        0.0480     4.7600     1.0930 N.am  1 <1>  -0.7300 
 14 C       -5.9300    -2.5300    -0.2020 C.ar  1 <1>  -0.1440 
 15 C        0.8330     5.6290     0.4180 C.2   1 <1>   0.5690 
 16 C       -7.2290    -1.9740    -0.0860 C.ar  1 <1>   0.0000 
 17 C       -5.8250    -3.8870    -0.0650 C.ar  1 <1>  -0.1500 
 18 O        1.9510     5.8500     0.8010 O.2   1 <1>  -0.5700 
 19 C        0.3280     6.3290    -0.8200 C.3   1 <1>  -0.1790 
 20 C       -8.3060    -2.8510     0.1970 C.ar  1 <1>   0.3100 
 21 C       -7.5250    -0.5990    -0.2410 C.ar  1 <1>  -0.1500 
 22 C       -6.9570    -4.6640     0.2040 C.ar  1 <1>   0.1600 
 23 N       -8.1530    -4.1900     0.3400 N.ar  1 <1>  -0.6200 
 24 C       -9.5990    -2.3210     0.3340 C.ar  1 <1>  -0.1500 
 25 C       -8.7980    -0.1150    -0.1050 C.ar  1 <1>  -0.1500 
 26 C       -9.8500    -0.9840     0.1890 C.ar  1 <1>  -0.1500 
 27 H       -2.1050     0.0620     0.7840 H     1 <1>   0.3700 
 28 H       -3.2490     3.1720    -0.7710 H     1 <1>   0.0800 
 29 H       -3.2830     2.3390     0.7560 H     1 <1>   0.0800 
 30 H       -2.0460    -1.2650    -1.8680 H     1 <1>   0.0800 
 31 H       -0.7610     3.0340    -0.7820 H     1 <1>   0.0800 
 32 H       -0.8060     2.2690     0.7870 H     1 <1>   0.0800 
 33 H       -3.3070    -3.0900    -1.0740 H     1 <1>   0.0800 
 34 H       -0.1840    -1.3740     0.0630 H     1 <1>   0.0800 
 35 H       -0.7160    -2.8980    -0.6480 H     1 <1>   0.0800 
 36 H       -1.8900     4.3020     1.7310 H     1 <1>   0.0800 
 37 H       -1.8170     5.0580     0.1600 H     1 <1>   0.0800 
 38 H       -3.0600    -3.7830     1.1200 H     1 <1>   0.0800 
 39 H       -3.4340    -2.1890     1.7670 H     1 <1>   0.0800 
 40 H       -4.8630    -1.1790    -1.4570 H     1 <1>   0.0800 
 41 H       -4.7750    -0.8030     0.2360 H     1 <1>   0.0800 
 42 H        0.4950     4.3260     1.9040 H     1 <1>   0.3700 
 43 H       -4.8940    -4.4110    -0.1560 H     1 <1>   0.1500 
 44 H       -0.0090     5.6050    -1.5380 H     1 <1>   0.0800 
 45 H        1.1230     6.9060    -1.2570 H     1 <1>   0.0800 
 46 H       -0.4780     6.9880    -0.5610 H     1 <1>   0.0800 
 47 H       -6.7360     0.0910    -0.4770 H     1 <1>   0.1500 
 48 H       -6.8230    -5.7280     0.3070 H     1 <1>   0.1500 
 49 H      -10.3930    -3.0100     0.5560 H     1 <1>   0.1500 
 50 H       -9.0060     0.9340    -0.2260 H     1 <1>   0.1500 
 51 H      -10.8470    -0.5920     0.2950 H     1 <1>   0.1500 
@<TRIPOS>BOND
  1   1   2  2   
  2   2   3  am  
  3   2   4  1   
  4   3   5  1   
  5   3  27  1   
  6   4   6  1   
  7   4  28  1   
  8   4  29  1   
  9   5   7  1   
 10   5   8  1   
 11   5  30  1   
 12   6   9  1   
 13   6  31  1   
 14   6  32  1   
 15   7  10  1   
 16   7  11  1   
 17   7  33  1   
 18   8  12  1   
 19   8  34  1   
 20   8  35  1   
 21   9  13  1   
 22   9  36  1   
 23   9  37  1   
 24  10  12  1   
 25  10  38  1   
 26  10  39  1   
 27  11  14  1   
 28  11  40  1   
 29  11  41  1   
 30  13  15  am  
 31  13  42  1   
 32  14  16  ar  
 33  14  17  ar  
 34  15  18  2   
 35  15  19  1   
 36  16  20  ar  
 37  16  21  ar  
 38  17  22  ar  
 39  17  43  1   
 40  19  44  1   
 41  19  45  1   
 42  19  46  1   
 43  20  23  ar  
 44  20  24  ar  
 45  21  25  ar  
 46  21  47  1   
 47  22  23  ar  
 48  22  48  1   
 49  24  26  ar  
 50  24  49  1   
 51  25  26  ar  
 52  25  50  1   
 53  26  51  1   
@<TRIPOS>SUBSTRUCTURE
  1 ****   3 GROUP 4 **** **** 0

# MOE 2024.06 (io_trps.svl 2023.06)
