@<TRIPOS>MOLECULE
NONAME
54 57 1 0 0 
SMALL
USER_CHARGES


@<TRIPOS>ATOM
  1 O        2.2960    -0.3640     4.1740 O.3   1 <1>  -0.6800 
  2 C        2.0920    -1.0320     2.9750 C.3   1 <1>   0.2000 
  3 C        2.8610    -2.3530     3.0560 C.3   1 <1>  -0.0800 
  4 C        2.7900    -0.2110     1.8770 C.3   1 <1>   0.3430 
  5 C        4.2760    -1.9030     2.6670 C.3   1 <1>   0.3430 
  6 C        2.2930    -3.4880     2.1560 C.3   1 <1>  -0.0170 
  7 N        4.0780    -0.9160     1.5680 N.4   1 <1>  -0.9590 
  8 C        2.6730    -3.3340     0.6850 C.ar  1 <1>  -0.1440 
  9 C        5.2220    -0.0030     1.3070 C.3   1 <1>   0.4860 
 10 C        1.9590    -2.5070    -0.2160 C.ar  1 <1>   0.0000 
 11 C        3.8000    -3.9500     0.2200 C.ar  1 <1>  -0.1500 
 12 C        4.8540     0.9190     0.1680 C.ar  1 <1>  -0.1440 
 13 C        2.5710    -2.2210    -1.4600 C.ar  1 <1>   0.3100 
 14 C        0.6960    -1.9290     0.0490 C.ar  1 <1>  -0.1500 
 15 C        4.2810    -3.6610    -1.0600 C.ar  1 <1>   0.1600 
 16 C        4.8350     0.4900    -1.1400 C.ar  1 <1>   0.1600 
 17 C        4.5030     2.2280     0.3990 C.ar  1 <1>   0.1600 
 18 N        3.7350    -2.7930    -1.8500 N.ar  1 <1>  -0.6200 
 19 C        1.9640    -1.2930    -2.3190 C.ar  1 <1>  -0.1500 
 20 C        0.1200    -1.0420    -0.8190 C.ar  1 <1>  -0.1500 
 21 N        4.4760     1.2800    -2.1240 N.ar  1 <1>  -0.6200 
 22 N        4.1370     3.0330    -0.5680 N.ar  1 <1>  -0.6200 
 23 C        0.7680    -0.7050    -2.0100 C.ar  1 <1>  -0.1500 
 24 C        4.1410     2.5180    -1.7920 C.ar  1 <1>   0.4770 
 25 C        3.7130     3.4350    -2.9460 C.3   1 <1>   0.0630 
 26 C        4.5940     4.6920    -3.0430 C.3   1 <1>  -0.2400 
 27 C        2.2320     3.8330    -2.8340 C.3   1 <1>  -0.2400 
 28 H        1.7010    -0.6980     4.8790 H     1 <1>   0.4000 
 29 H        1.0320    -1.1320     2.8160 H     1 <1>   0.0800 
 30 H        2.8600    -2.7200     4.0680 H     1 <1>   0.0800 
 31 H        2.9650     0.7880     2.2390 H     1 <1>   0.0800 
 32 H        2.1800    -0.1590     0.9900 H     1 <1>   0.0800 
 33 H        4.8910    -2.7320     2.3570 H     1 <1>   0.0800 
 34 H        4.7310    -1.4140     3.5140 H     1 <1>   0.0800 
 35 H        1.2270    -3.5730     2.2770 H     1 <1>   0.0800 
 36 H        2.6980    -4.4220     2.5080 H     1 <1>   0.0800 
 37 H        3.9030    -1.4600     0.7050 H     1 <1>   0.4500 
 38 H        5.4410     0.5750     2.1900 H     1 <1>   0.0800 
 39 H        6.0990    -0.5730     1.0430 H     1 <1>   0.0800 
 40 H        4.3620    -4.6450     0.8200 H     1 <1>   0.1500 
 41 H        0.1610    -2.1950     0.9410 H     1 <1>   0.1500 
 42 H        5.1700    -4.1690    -1.4000 H     1 <1>   0.1500 
 43 H        5.1100    -0.5190    -1.4010 H     1 <1>   0.1500 
 44 H        4.5120     2.6370     1.3960 H     1 <1>   0.1500 
 45 H        2.4710    -1.0570    -3.2380 H     1 <1>   0.1500 
 46 H       -0.8400    -0.5980    -0.6090 H     1 <1>   0.1500 
 47 H        0.3120     0.0040    -2.6810 H     1 <1>   0.1500 
 48 H        3.8340     2.8850    -3.8640 H     1 <1>   0.0800 
 49 H        4.4860     5.2960    -2.1590 H     1 <1>   0.0800 
 50 H        4.3180     5.2790    -3.9000 H     1 <1>   0.0800 
 51 H        5.6270     4.4080    -3.1390 H     1 <1>   0.0800 
 52 H        2.0650     4.4070    -1.9390 H     1 <1>   0.0800 
 53 H        1.6190     2.9500    -2.7960 H     1 <1>   0.0800 
 54 H        1.9360     4.4210    -3.6840 H     1 <1>   0.0800 
@<TRIPOS>BOND
  1   1   2  1   
  2   1  28  1   
  3   2   3  1   
  4   2   4  1   
  5   2  29  1   
  6   3   5  1   
  7   3   6  1   
  8   3  30  1   
  9   4   7  1   
 10   4  31  1   
 11   4  32  1   
 12   5   7  1   
 13   5  33  1   
 14   5  34  1   
 15   6   8  1   
 16   6  35  1   
 17   6  36  1   
 18   7   9  1   
 19   7  37  1   
 20   8  10  ar  
 21   8  11  ar  
 22   9  12  1   
 23   9  38  1   
 24   9  39  1   
 25  10  13  ar  
 26  10  14  ar  
 27  11  15  ar  
 28  11  40  1   
 29  12  16  ar  
 30  12  17  ar  
 31  13  18  ar  
 32  13  19  ar  
 33  14  20  ar  
 34  14  41  1   
 35  15  18  ar  
 36  15  42  1   
 37  16  21  ar  
 38  16  43  1   
 39  17  22  ar  
 40  17  44  1   
 41  19  23  ar  
 42  19  45  1   
 43  20  23  ar  
 44  20  46  1   
 45  21  24  ar  
 46  22  24  ar  
 47  23  47  1   
 48  24  25  1   
 49  25  26  1   
 50  25  27  1   
 51  25  48  1   
 52  26  49  1   
 53  26  50  1   
 54  26  51  1   
 55  27  52  1   
 56  27  53  1   
 57  27  54  1   
@<TRIPOS>SUBSTRUCTURE
  1 ****   7 GROUP 4 **** **** 0

# MOE 2024.06 (io_trps.svl 2023.06)
