@<TRIPOS>MOLECULE
NONAME
45 48 1 0 0 
SMALL
USER_CHARGES


@<TRIPOS>ATOM
  1 F       -0.2500    -0.1410     0.8390 F     1 <1>  -0.3400 
  2 C        0.5310    -1.1440     0.4500 C.3   1 <1>   1.2010 
  3 F        0.9240    -0.8390    -0.7850 F     1 <1>  -0.3400 
  4 F        1.6260    -1.0800     1.2030 F     1 <1>  -0.3400 
  5 C       -0.1760    -2.5280     0.5240 C.2   1 <1>   0.1080 
  6 N       -0.6490    -3.1030     1.6100 N.2   1 <1>  -0.7070 
  7 C       -0.3920    -3.3360    -0.5870 C.2   1 <1>  -0.1500 
  8 N       -1.1660    -4.2670     1.1930 N.pl3 1 <1>   0.3000 
  9 C       -1.0210    -4.4550    -0.1360 C.2   1 <1>  -0.2370 
 10 C       -1.4800    -5.6120    -0.8410 C.2   1 <1>   0.7150 
 11 O       -1.7290    -5.5570    -2.0270 O.2   1 <1>  -0.5700 
 12 N       -1.6310    -6.7950    -0.1860 N.am  1 <1>  -0.7300 
 13 C       -2.0390    -8.0700    -0.8180 C.3   1 <1>   0.2200 
 14 C       -3.3120    -8.5640    -0.1500 C.3   1 <1>  -0.0800 
 15 C       -1.0470    -9.1520    -0.4190 C.3   1 <1>   0.1200 
 16 C       -2.7820    -9.3530     1.0590 C.3   1 <1>   0.1200 
 17 C       -4.1450    -9.4460    -1.1030 C.3   1 <1>  -0.0160 
 18 O       -1.4010    -9.4890     0.8850 O.3   1 <1>  -0.5600 
 19 C       -5.4480    -9.9000    -0.4510 C.ar  1 <1>  -0.1440 
 20 C       -6.5570    -9.0360    -0.2890 C.ar  1 <1>   0.0000 
 21 C       -5.5750   -11.1800     0.0050 C.ar  1 <1>  -0.1500 
 22 C       -7.7050    -9.5540     0.3590 C.ar  1 <1>   0.3100 
 23 C       -6.5990    -7.6940    -0.7350 C.ar  1 <1>  -0.1500 
 24 C       -6.7600   -11.5940     0.6240 C.ar  1 <1>   0.1600 
 25 N       -7.7890   -10.8300     0.8100 N.ar  1 <1>  -0.6200 
 26 C       -8.8160    -8.7160     0.5480 C.ar  1 <1>  -0.1500 
 27 C       -7.6990    -6.9040    -0.5380 C.ar  1 <1>  -0.1500 
 28 C       -8.8220    -7.4180     0.1140 C.ar  1 <1>  -0.1500 
 29 H       -0.1170    -3.1200    -1.6070 H     1 <1>   0.1500 
 30 H       -1.6370    -4.9150     1.8370 H     1 <1>   0.2700 
 31 H       -1.1880    -6.9370     0.7220 H     1 <1>   0.3700 
 32 H       -2.1260    -7.9660    -1.8870 H     1 <1>   0.0800 
 33 H       -3.9180    -7.7390     0.1790 H     1 <1>   0.0800 
 34 H       -0.0250    -8.8150    -0.4450 H     1 <1>   0.0800 
 35 H       -1.1600   -10.0280    -1.0330 H     1 <1>   0.0800 
 36 H       -3.2130   -10.3350     1.1360 H     1 <1>   0.0800 
 37 H       -2.9490    -8.8180     1.9780 H     1 <1>   0.0800 
 38 H       -3.5700   -10.3070    -1.3940 H     1 <1>   0.0800 
 39 H       -4.3710    -8.9040    -2.0050 H     1 <1>   0.0800 
 40 H       -4.7810   -11.8980    -0.0920 H     1 <1>   0.1500 
 41 H       -5.7510    -7.2770    -1.2460 H     1 <1>   0.1500 
 42 H       -6.8180   -12.6120     0.9710 H     1 <1>   0.1500 
 43 H       -9.6690    -9.1340     1.0490 H     1 <1>   0.1500 
 44 H       -7.7160    -5.8840    -0.8820 H     1 <1>   0.1500 
 45 H       -9.6820    -6.7880     0.2650 H     1 <1>   0.1500 
@<TRIPOS>BOND
  1   1   2  1   
  2   2   3  1   
  3   2   4  1   
  4   2   5  1   
  5   5   6  2   
  6   5   7  1   
  7   6   8  1   
  8   7   9  2   
  9   7  29  1   
 10   8   9  1   
 11   8  30  1   
 12   9  10  1   
 13  10  11  2   
 14  10  12  am  
 15  12  13  1   
 16  12  31  1   
 17  13  14  1   
 18  13  15  1   
 19  13  32  1   
 20  14  16  1   
 21  14  17  1   
 22  14  33  1   
 23  15  18  1   
 24  15  34  1   
 25  15  35  1   
 26  16  18  1   
 27  16  36  1   
 28  16  37  1   
 29  17  19  1   
 30  17  38  1   
 31  17  39  1   
 32  19  20  ar  
 33  19  21  ar  
 34  20  22  ar  
 35  20  23  ar  
 36  21  24  ar  
 37  21  40  1   
 38  22  25  ar  
 39  22  26  ar  
 40  23  27  ar  
 41  23  41  1   
 42  24  25  ar  
 43  24  42  1   
 44  26  28  ar  
 45  26  43  1   
 46  27  28  ar  
 47  27  44  1   
 48  28  45  1   
@<TRIPOS>SUBSTRUCTURE
  1 ****  12 GROUP 4 **** **** 0

# MOE 2024.06 (io_trps.svl 2023.06)
