@<TRIPOS>MOLECULE
NONAME
43 45 1 0 0 
SMALL
USER_CHARGES


@<TRIPOS>ATOM
  1 F        0.2330     1.9990     1.0530 F     1 <1>  -0.1900 
  2 C        1.4590     1.9070     0.6110 C.ar  1 <1>   0.1900 
  3 C        2.1080     3.0400     0.1370 C.ar  1 <1>  -0.1440 
  4 C        2.0470     0.6590     0.6450 C.ar  1 <1>  -0.1500 
  5 C        3.4370     2.9150    -0.3000 C.ar  1 <1>   0.0860 
  6 C        1.3670     4.3780     0.0860 C.3   1 <1>  -0.0970 
  7 C        3.3410     0.5270     0.1850 C.ar  1 <1>  -0.1500 
  8 C        4.2490     4.0330    -0.7550 C.2   1 <1>   0.5440 
  9 C        4.0160     1.6410    -0.2800 C.ar  1 <1>  -0.1500 
 10 O        5.0180     3.9190    -1.6910 O.2   1 <1>  -0.5700 
 11 N        4.3120     5.2200    -0.0680 N.am  1 <1>  -0.6600 
 12 C        4.9730     5.1830     1.2820 C.3   1 <1>   0.2200 
 13 C        4.3170     6.5030    -0.8410 C.3   1 <1>   0.1400 
 14 C        4.6090     6.3850     2.1690 C.3   1 <1>   0.1200 
 15 C        6.5130     5.0540     1.1290 C.3   1 <1>   0.3430 
 16 C        5.4590     7.4750    -0.4850 C.3   1 <1>  -0.0800 
 17 O        5.4780     7.4510     1.9320 O.3   1 <1>  -0.5600 
 18 N        6.9980     5.4330    -0.2470 N.4   1 <1>  -0.9590 
 19 C        5.1870     8.2340     0.8240 C.3   1 <1>   0.1200 
 20 C        6.8890     6.8950    -0.5450 C.3   1 <1>   0.3430 
 21 C        8.3680     4.9150    -0.5170 C.3   1 <1>   0.2630 
 22 H        1.4970    -0.1870     1.0190 H     1 <1>   0.1500 
 23 H        1.6150     4.9130    -0.8120 H     1 <1>   0.0800 
 24 H        1.6290     4.9790     0.9380 H     1 <1>   0.0800 
 25 H        0.3000     4.2390     0.0870 H     1 <1>   0.0800 
 26 H        3.8190    -0.4390     0.1880 H     1 <1>   0.1500 
 27 H        5.0220     1.5200    -0.6430 H     1 <1>   0.1500 
 28 H        4.6170     4.3090     1.8000 H     1 <1>   0.0800 
 29 H        4.3730     6.2810    -1.8950 H     1 <1>   0.0800 
 30 H        3.3730     6.9960    -0.6830 H     1 <1>   0.0800 
 31 H        4.7390     6.1120     3.2020 H     1 <1>   0.0800 
 32 H        3.5870     6.6950     2.0300 H     1 <1>   0.0800 
 33 H        6.7740     4.0270     1.3200 H     1 <1>   0.0800 
 34 H        7.0030     5.6560     1.8760 H     1 <1>   0.0800 
 35 H        5.4260     8.2390    -1.2410 H     1 <1>   0.0800 
 36 H        6.3310     4.9570    -0.8990 H     1 <1>   0.4500 
 37 H        4.1650     8.5690     0.8880 H     1 <1>   0.0800 
 38 H        5.8240     9.1000     0.8810 H     1 <1>   0.0800 
 39 H        7.5170     7.4490     0.1350 H     1 <1>   0.0800 
 40 H        7.2670     7.0610    -1.5400 H     1 <1>   0.0800 
 41 H        9.0800     5.3760     0.1480 H     1 <1>   0.0800 
 42 H        8.6520     5.1300    -1.5340 H     1 <1>   0.0800 
 43 H        8.3970     3.8470    -0.3730 H     1 <1>   0.0800 
@<TRIPOS>BOND
  1   1   2  1   
  2   2   3  ar  
  3   2   4  ar  
  4   3   5  ar  
  5   3   6  1   
  6   4   7  ar  
  7   4  22  1   
  8   5   8  1   
  9   5   9  ar  
 10   6  23  1   
 11   6  24  1   
 12   6  25  1   
 13   7   9  ar  
 14   7  26  1   
 15   8  10  2   
 16   8  11  am  
 17   9  27  1   
 18  11  12  1   
 19  11  13  1   
 20  12  14  1   
 21  12  15  1   
 22  12  28  1   
 23  13  16  1   
 24  13  29  1   
 25  13  30  1   
 26  14  17  1   
 27  14  31  1   
 28  14  32  1   
 29  15  18  1   
 30  15  33  1   
 31  15  34  1   
 32  16  19  1   
 33  16  20  1   
 34  16  35  1   
 35  17  19  1   
 36  18  20  1   
 37  18  21  1   
 38  18  36  1   
 39  19  37  1   
 40  19  38  1   
 41  20  39  1   
 42  20  40  1   
 43  21  41  1   
 44  21  42  1   
 45  21  43  1   
@<TRIPOS>SUBSTRUCTURE
  1 ****  11 GROUP 4 **** **** 0

# MOE 2024.06 (io_trps.svl 2023.06)
