@<TRIPOS>MOLECULE
NONAME
49 51 1 0 0 
SMALL
USER_CHARGES


@<TRIPOS>ATOM
  1 O       -1.0040     0.8200    -1.8410 O.2   1 <1>  -0.5700 
  2 C       -1.2010     1.5350    -0.8730 C.2   1 <1>   0.6160 
  3 N       -2.1940     1.1660     0.0150 N.am  1 <1>  -0.6600 
  4 C       -0.4420     2.7490    -0.7580 C.2   1 <1>   0.0290 
  5 C       -2.7480    -0.2200    -0.0220 C.3   1 <1>   0.1400 
  6 C       -2.7530     2.0850     1.0490 C.3   1 <1>   0.1400 
  7 C        0.2880     3.0150     0.4440 C.2   1 <1>   0.6160 
  8 C       -0.3710     3.6650    -1.7810 C.2   1 <1>  -0.1500 
  9 C       -3.9370    -0.3070    -0.9880 C.3   1 <1>   0.1400 
 10 C       -4.2860     2.0510     1.1450 C.3   1 <1>  -0.1600 
 11 O        0.3190     2.2800     1.4210 O.2   1 <1>  -0.5700 
 12 N        1.0020     4.1800     0.5310 N.am  1 <1>  -0.5390 
 13 C        0.3830     4.8480    -1.6410 C.2   1 <1>  -0.1500 
 14 N       -5.1580     0.3580    -0.4310 N.am  1 <1>  -0.6600 
 15 C       -5.0100     1.8210    -0.1860 C.3   1 <1>   0.1400 
 16 C        1.0610     5.0930    -0.4850 C.2   1 <1>  -0.0290 
 17 C       -6.3260    -0.2830    -0.0800 C.2   1 <1>   0.5690 
 18 C        1.8970     6.3350    -0.2530 C.3   1 <1>  -0.1020 
 19 O       -7.2320     0.3220     0.4470 O.2   1 <1>  -0.5700 
 20 C       -6.5150    -1.7890    -0.3280 C.3   1 <1>  -0.0190 
 21 C       -7.9610    -2.2950    -0.2820 C.3   1 <1>  -0.1600 
 22 C       -5.8160    -2.6740     0.7110 C.3   1 <1>  -0.1600 
 23 C       -7.8370    -3.8080    -0.1040 C.3   1 <1>  -0.1600 
 24 C       -6.5070    -4.0390     0.6220 C.3   1 <1>  -0.1600 
 25 H       -3.0450    -0.5320     0.9630 H     1 <1>   0.0800 
 26 H       -1.9790    -0.8940    -0.3580 H     1 <1>   0.0800 
 27 H       -2.4620     3.0940     0.8180 H     1 <1>   0.0800 
 28 H       -2.3260     1.8360     2.0070 H     1 <1>   0.0800 
 29 H       -0.8890     3.4870    -2.7090 H     1 <1>   0.1500 
 30 H       -4.1240    -1.3430    -1.1920 H     1 <1>   0.0800 
 31 H       -3.6700     0.1550    -1.9230 H     1 <1>   0.0800 
 32 H       -4.6040     2.9970     1.5440 H     1 <1>   0.0800 
 33 H       -4.5940     1.3040     1.8550 H     1 <1>   0.0800 
 34 H        1.5070     4.3040     1.4090 H     1 <1>   0.3700 
 35 H        0.4100     5.5400    -2.4650 H     1 <1>   0.1500 
 36 H       -4.4760     2.2820    -1.0000 H     1 <1>   0.0800 
 37 H       -5.9850     2.2780    -0.1410 H     1 <1>   0.0800 
 38 H        1.5190     6.8820     0.5920 H     1 <1>   0.0800 
 39 H        1.8710     6.9770    -1.1160 H     1 <1>   0.0800 
 40 H        2.9190     6.0600    -0.0640 H     1 <1>   0.0800 
 41 H       -6.1400    -2.0270    -1.3060 H     1 <1>   0.0800 
 42 H       -8.5090    -2.0300    -1.1690 H     1 <1>   0.0800 
 43 H       -8.4660    -1.8840     0.5760 H     1 <1>   0.0800 
 44 H       -5.9810    -2.2580     1.6910 H     1 <1>   0.0800 
 45 H       -4.7580    -2.7510     0.5400 H     1 <1>   0.0800 
 46 H       -7.8050    -4.2830    -1.0700 H     1 <1>   0.0800 
 47 H       -8.6690    -4.2040     0.4520 H     1 <1>   0.0800 
 48 H       -6.6700    -4.4410     1.6080 H     1 <1>   0.0800 
 49 H       -5.9010    -4.7300     0.0620 H     1 <1>   0.0800 
@<TRIPOS>BOND
  1   1   2  2   
  2   2   3  am  
  3   2   4  1   
  4   3   5  1   
  5   3   6  1   
  6   4   7  1   
  7   4   8  2   
  8   5   9  1   
  9   5  25  1   
 10   5  26  1   
 11   6  10  1   
 12   6  27  1   
 13   6  28  1   
 14   7  11  2   
 15   7  12  am  
 16   8  13  1   
 17   8  29  1   
 18   9  14  1   
 19   9  30  1   
 20   9  31  1   
 21  10  15  1   
 22  10  32  1   
 23  10  33  1   
 24  12  16  1   
 25  12  34  1   
 26  13  16  2   
 27  13  35  1   
 28  14  15  1   
 29  14  17  am  
 30  15  36  1   
 31  15  37  1   
 32  16  18  1   
 33  17  19  2   
 34  17  20  1   
 35  18  38  1   
 36  18  39  1   
 37  18  40  1   
 38  20  21  1   
 39  20  22  1   
 40  20  41  1   
 41  21  23  1   
 42  21  42  1   
 43  21  43  1   
 44  22  24  1   
 45  22  44  1   
 46  22  45  1   
 47  23  24  1   
 48  23  46  1   
 49  23  47  1   
 50  24  48  1   
 51  24  49  1   
@<TRIPOS>SUBSTRUCTURE
  1 ****   3 GROUP 4 **** **** 0

# MOE 2024.06 (io_trps.svl 2023.06)
