@<TRIPOS>MOLECULE
NONAME
48 50 1 0 0 
SMALL
USER_CHARGES


@<TRIPOS>ATOM
  1 F       -0.2400    -0.3410     0.3830 F     1 <1>  -0.1900 
  2 C       -0.3350    -1.6410     0.4930 C.ar  1 <1>   0.1900 
  3 C        0.6550    -2.4990     0.0010 C.ar  1 <1>   0.0830 
  4 C       -1.4720    -2.1230     1.1150 C.ar  1 <1>  -0.1500 
  5 O        1.8120    -2.1510    -0.6280 O.3   1 <1>  -0.3630 
  6 C        0.4610    -3.8630     0.1570 C.ar  1 <1>  -0.1500 
  7 C       -1.6440    -3.4900     1.2540 C.ar  1 <1>  -0.1500 
  8 C        2.2310    -0.8110    -0.7760 C.3   1 <1>   0.0400 
  9 C       -0.6800    -4.3650     0.7700 C.ar  1 <1>  -0.1430 
 10 C       -0.8780    -5.8630     0.9070 C.3   1 <1>   0.4870 
 11 N       -1.0890    -6.4520    -0.4460 N.4   1 <1>  -0.9590 
 12 C       -2.3430    -5.9220    -1.0760 C.3   1 <1>   0.3430 
 13 C       -1.2600    -7.9350    -0.3410 C.3   1 <1>   0.3430 
 14 C       -3.4260    -6.9530    -0.7540 C.3   1 <1>   0.2000 
 15 C       -2.6550    -8.2620    -0.8820 C.3   1 <1>  -0.0800 
 16 O       -3.8140    -6.7900     0.5810 O.3   1 <1>  -0.5600 
 17 C       -3.2990    -9.4880    -0.2050 C.3   1 <1>   0.0200 
 18 C       -4.9730    -6.0350     0.7700 C.3   1 <1>   0.0400 
 19 C       -2.3300   -10.6540    -0.1990 C.2   1 <1>  -0.0400 
 20 O       -1.6800   -10.9670    -1.2880 O.3   1 <1>  -0.0190 
 21 C       -1.9420   -11.4980     0.7690 C.2   1 <1>  -0.1500 
 22 N       -0.8650   -11.9600    -1.0970 N.2   1 <1>  -0.4100 
 23 C       -1.0080   -12.3100     0.1310 C.2   1 <1>   0.1080 
 24 C       -0.2590   -13.4520     0.7820 C.3   1 <1>  -0.0590 
 25 H       -2.2080    -1.4310     1.4860 H     1 <1>   0.1500 
 26 H        1.2300    -4.5200    -0.2110 H     1 <1>   0.1500 
 27 H       -2.5300    -3.8590     1.7440 H     1 <1>   0.1500 
 28 H        3.1970    -0.8120    -1.2480 H     1 <1>   0.0800 
 29 H        2.3030    -0.3560     0.1960 H     1 <1>   0.0800 
 30 H        1.5250    -0.2880    -1.3950 H     1 <1>   0.0800 
 31 H       -1.7320    -6.0640     1.5340 H     1 <1>   0.0800 
 32 H       -0.0060    -6.2970     1.3690 H     1 <1>   0.0800 
 33 H       -0.2780    -6.2080    -1.0280 H     1 <1>   0.4500 
 34 H       -2.6090    -4.9440    -0.7130 H     1 <1>   0.0800 
 35 H       -2.2130    -5.8760    -2.1450 H     1 <1>   0.0800 
 36 H       -0.5050    -8.4620    -0.9050 H     1 <1>   0.0800 
 37 H       -1.1980    -8.2440     0.6900 H     1 <1>   0.0800 
 38 H       -4.2830    -6.9040    -1.4080 H     1 <1>   0.0800 
 39 H       -2.5440    -8.4840    -1.9300 H     1 <1>   0.0800 
 40 H       -4.1890    -9.7710    -0.7400 H     1 <1>   0.0800 
 41 H       -3.5780    -9.2710     0.8110 H     1 <1>   0.0800 
 42 H       -5.1570    -5.9580     1.8280 H     1 <1>   0.0800 
 43 H       -5.8040    -6.5330     0.3000 H     1 <1>   0.0800 
 44 H       -4.8390    -5.0510     0.3550 H     1 <1>   0.0800 
 45 H       -2.2480   -11.5660     1.7970 H     1 <1>   0.1500 
 46 H        0.2730   -13.0990     1.6460 H     1 <1>   0.0800 
 47 H        0.4450   -13.8740     0.0880 H     1 <1>   0.0800 
 48 H       -0.9510   -14.2180     1.0810 H     1 <1>   0.0800 
@<TRIPOS>BOND
  1   1   2  1   
  2   2   3  ar  
  3   2   4  ar  
  4   3   5  1   
  5   3   6  ar  
  6   4   7  ar  
  7   4  25  1   
  8   5   8  1   
  9   6   9  ar  
 10   6  26  1   
 11   7   9  ar  
 12   7  27  1   
 13   8  28  1   
 14   8  29  1   
 15   8  30  1   
 16   9  10  1   
 17  10  11  1   
 18  10  31  1   
 19  10  32  1   
 20  11  12  1   
 21  11  13  1   
 22  11  33  1   
 23  12  14  1   
 24  12  34  1   
 25  12  35  1   
 26  13  15  1   
 27  13  36  1   
 28  13  37  1   
 29  14  15  1   
 30  14  16  1   
 31  14  38  1   
 32  15  17  1   
 33  15  39  1   
 34  16  18  1   
 35  17  19  1   
 36  17  40  1   
 37  17  41  1   
 38  18  42  1   
 39  18  43  1   
 40  18  44  1   
 41  19  20  1   
 42  19  21  2   
 43  20  22  1   
 44  21  23  1   
 45  21  45  1   
 46  22  23  2   
 47  23  24  1   
 48  24  46  1   
 49  24  47  1   
 50  24  48  1   
@<TRIPOS>SUBSTRUCTURE
  1 ****  11 GROUP 4 **** **** 0

# MOE 2024.06 (io_trps.svl 2023.06)
