@<TRIPOS>MOLECULE
NONAME
45 47 1 0 0 
SMALL
USER_CHARGES


@<TRIPOS>ATOM
  1 S        0.5850    -0.3350     0.7430 S.3   1 <1>  -0.3320 
  2 C       -1.0770    -0.9110     0.3790 C.ar  1 <1>   0.1020 
  3 C        1.5740    -0.5690    -0.8070 C.3   1 <1>   0.2500 
  4 C       -2.0170    -0.8570     1.3820 C.ar  1 <1>  -0.1500 
  5 C       -1.4630    -1.4040    -0.8500 C.ar  1 <1>  -0.1500 
  6 C        2.9970    -0.0970    -0.5890 C.2   1 <1>   0.2980 
  7 C       -3.2990    -1.2990     1.1110 C.ar  1 <1>   0.1600 
  8 C       -2.7740    -1.8180    -1.0070 C.ar  1 <1>   0.1600 
  9 O        3.7340    -0.6460     0.3290 O.3   1 <1>  -0.2800 
 10 N        3.6150     0.8110    -1.2370 N.2   1 <1>  -0.3380 
 11 N       -3.6970    -1.7770    -0.0580 N.ar  1 <1>  -0.6200 
 12 C        4.8670    -0.0190     0.2310 C.2   1 <1>   0.5620 
 13 N        4.8400     0.8670    -0.7060 N.2   1 <1>  -0.3380 
 14 N        5.9200    -0.3420     1.0760 N.pl3 1 <1>  -0.8220 
 15 C        7.1520     0.4900     1.0820 C.3   1 <1>   0.2090 
 16 C        5.7490    -1.2870     2.2120 C.3   1 <1>   0.1290 
 17 C        8.2080    -0.1700     0.1970 C.3   1 <1>  -0.1600 
 18 C        9.5930     0.4500     0.4020 C.3   1 <1>   0.2000 
 19 O        9.4880     1.8310     0.2370 O.3   1 <1>  -0.5600 
 20 C       10.6210    -0.1020    -0.5980 C.3   1 <1>  -0.1600 
 21 C       10.6550     2.5490     0.4980 C.3   1 <1>   0.1200 
 22 C       11.9690     0.6130    -0.4510 C.3   1 <1>  -0.1600 
 23 C       11.7500     2.1300    -0.4900 C.3   1 <1>  -0.1600 
 24 H        1.1010     0.0070    -1.5810 H     1 <1>   0.0800 
 25 H        1.5570    -1.6150    -1.0470 H     1 <1>   0.0800 
 26 H       -1.7570    -0.4790     2.3530 H     1 <1>   0.1500 
 27 H       -0.7870    -1.4740    -1.6770 H     1 <1>   0.1500 
 28 H       -4.0370    -1.2570     1.8950 H     1 <1>   0.1500 
 29 H       -3.0840    -2.2040    -1.9640 H     1 <1>   0.1500 
 30 H        7.5180     0.5850     2.0890 H     1 <1>   0.0800 
 31 H        6.9390     1.4810     0.7140 H     1 <1>   0.0800 
 32 H        4.9360    -1.9670     2.0240 H     1 <1>   0.0800 
 33 H        5.5420    -0.7360     3.1130 H     1 <1>   0.0800 
 34 H        6.6480    -1.8620     2.3470 H     1 <1>   0.0800 
 35 H        7.9150    -0.0650    -0.8320 H     1 <1>   0.0800 
 36 H        8.2650    -1.2180     0.4270 H     1 <1>   0.0800 
 37 H        9.9220     0.2630     1.4110 H     1 <1>   0.0800 
 38 H       10.2460     0.0380    -1.5970 H     1 <1>   0.0800 
 39 H       10.7500    -1.1580    -0.4390 H     1 <1>   0.0800 
 40 H       10.9540     2.3620     1.5150 H     1 <1>   0.0800 
 41 H       10.4280     3.5950     0.3870 H     1 <1>   0.0800 
 42 H       12.6360     0.3140    -1.2400 H     1 <1>   0.0800 
 43 H       12.4160     0.3420     0.4900 H     1 <1>   0.0800 
 44 H       12.6660     2.6400    -0.2530 H     1 <1>   0.0800 
 45 H       11.4510     2.4300    -1.4800 H     1 <1>   0.0800 
@<TRIPOS>BOND
  1   1   2  1   
  2   1   3  1   
  3   2   4  ar  
  4   2   5  ar  
  5   3   6  1   
  6   3  24  1   
  7   3  25  1   
  8   4   7  ar  
  9   4  26  1   
 10   5   8  ar  
 11   5  27  1   
 12   6   9  1   
 13   6  10  2   
 14   7  11  ar  
 15   7  28  1   
 16   8  11  ar  
 17   8  29  1   
 18   9  12  1   
 19  10  13  1   
 20  12  13  2   
 21  12  14  1   
 22  14  15  1   
 23  14  16  1   
 24  15  17  1   
 25  15  30  1   
 26  15  31  1   
 27  16  32  1   
 28  16  33  1   
 29  16  34  1   
 30  17  18  1   
 31  17  35  1   
 32  17  36  1   
 33  18  19  1   
 34  18  20  1   
 35  18  37  1   
 36  19  21  1   
 37  20  22  1   
 38  20  38  1   
 39  20  39  1   
 40  21  23  1   
 41  21  40  1   
 42  21  41  1   
 43  22  23  1   
 44  22  42  1   
 45  22  43  1   
 46  23  44  1   
 47  23  45  1   
@<TRIPOS>SUBSTRUCTURE
  1 ****  12 GROUP 4 **** **** 0

# MOE 2024.06 (io_trps.svl 2023.06)
