@<TRIPOS>MOLECULE
NONAME
41 42 1 0 0 
SMALL
USER_CHARGES


@<TRIPOS>ATOM
  1 S        0.3560    -1.1260     2.8300 S.3   1 <1>   0.1810 
  2 N        0.7890     0.4970     2.6870 N.2   1 <1>  -0.2210 
  3 C        1.3450    -1.5970     1.4920 C.2   1 <1>  -0.1400 
  4 N        1.6090     0.6580     1.7480 N.2   1 <1>  -0.2270 
  5 C        1.9600    -0.4870     1.0580 C.2   1 <1>   0.0460 
  6 C        1.3190    -3.0630     1.1260 C.3   1 <1>   0.5230 
  7 C        2.9810    -0.2750    -0.0660 C.3   1 <1>   0.1010 
  8 N       -0.0590    -3.4590     0.6960 N.4   1 <1>  -0.9590 
  9 C        3.1300    -1.4580    -1.0330 C.3   1 <1>  -0.2400 
 10 C        4.3550     0.0650     0.5260 C.3   1 <1>  -0.2400 
 11 C       -0.0950    -4.9480     0.4830 C.3   1 <1>   0.3430 
 12 C       -0.4990    -2.6870    -0.5020 C.3   1 <1>   0.3430 
 13 C       -1.4990    -5.5270     0.2580 C.3   1 <1>   0.0960 
 14 C       -1.8910    -2.1280    -0.2380 C.3   1 <1>  -0.2400 
 15 N       -1.3900    -6.9880     0.1220 N.pl3 1 <1>   0.3140 
 16 N       -0.2020    -7.5980    -0.0460 N.2   1 <1>  -0.7070 
 17 C       -2.4000    -7.8770     0.1420 C.2   1 <1>  -0.3020 
 18 C       -0.4870    -8.8630    -0.1300 C.2   1 <1>   0.1390 
 19 C       -1.8510    -9.1000    -0.0190 C.2   1 <1>  -0.1500 
 20 H        1.6160    -3.6430     1.9860 H     1 <1>   0.0800 
 21 H        2.0180    -3.2620     0.3340 H     1 <1>   0.0800 
 22 H        2.6500     0.5730    -0.6430 H     1 <1>   0.0800 
 23 H       -0.6860    -3.2060     1.4710 H     1 <1>   0.4500 
 24 H        3.5760    -2.3040    -0.5430 H     1 <1>   0.0800 
 25 H        3.7780    -1.1740    -1.8450 H     1 <1>   0.0800 
 26 H        2.1820    -1.7290    -1.4560 H     1 <1>   0.0800 
 27 H        4.7200    -0.7430     1.1330 H     1 <1>   0.0800 
 28 H        4.2880     0.9470     1.1390 H     1 <1>   0.0800 
 29 H        5.0670     0.2600    -0.2570 H     1 <1>   0.0800 
 30 H        0.3260    -5.4420     1.3460 H     1 <1>   0.0800 
 31 H        0.5180    -5.2050    -0.3670 H     1 <1>   0.0800 
 32 H       -0.5070    -3.3160    -1.3790 H     1 <1>   0.0800 
 33 H        0.1700    -1.8610    -0.6870 H     1 <1>   0.0800 
 34 H       -1.9310    -5.1460    -0.6480 H     1 <1>   0.0800 
 35 H       -2.1370    -5.3130     1.0940 H     1 <1>   0.0800 
 36 H       -2.6080    -2.9060    -0.0570 H     1 <1>   0.0800 
 37 H       -2.2160    -1.5760    -1.1020 H     1 <1>   0.0800 
 38 H       -1.8760    -1.4460     0.5940 H     1 <1>   0.0800 
 39 H       -3.4340    -7.6090     0.2650 H     1 <1>   0.1500 
 40 H        0.2530    -9.6350    -0.2710 H     1 <1>   0.1500 
 41 H       -2.3330   -10.0610    -0.0570 H     1 <1>   0.1500 
@<TRIPOS>BOND
  1   1   2  1   
  2   1   3  1   
  3   2   4  2   
  4   3   5  2   
  5   3   6  1   
  6   4   5  1   
  7   5   7  1   
  8   6   8  1   
  9   6  20  1   
 10   6  21  1   
 11   7   9  1   
 12   7  10  1   
 13   7  22  1   
 14   8  11  1   
 15   8  12  1   
 16   8  23  1   
 17   9  24  1   
 18   9  25  1   
 19   9  26  1   
 20  10  27  1   
 21  10  28  1   
 22  10  29  1   
 23  11  13  1   
 24  11  30  1   
 25  11  31  1   
 26  12  14  1   
 27  12  32  1   
 28  12  33  1   
 29  13  15  1   
 30  13  34  1   
 31  13  35  1   
 32  14  36  1   
 33  14  37  1   
 34  14  38  1   
 35  15  16  1   
 36  15  17  1   
 37  16  18  2   
 38  17  19  2   
 39  17  39  1   
 40  18  19  1   
 41  18  40  1   
 42  19  41  1   
@<TRIPOS>SUBSTRUCTURE
  1 ****   8 GROUP 4 **** **** 0

# MOE 2024.06 (io_trps.svl 2023.06)
