@<TRIPOS>MOLECULE
NONAME
37 40 1 0 0 
SMALL
USER_CHARGES


@<TRIPOS>ATOM
  1 S       -0.0410     0.6120    -0.1990 S.3   1 <1>  -0.2420 
  2 C        1.6190     0.0230    -0.1170 C.2   1 <1>   0.6410 
  3 C       -0.6790    -1.0460    -0.1680 C.2   1 <1>  -0.0490 
  4 N        2.6440     0.7940    -0.1050 N.2   1 <1>  -0.6610 
  5 N        1.6220    -1.3630    -0.0720 N.pl3 1 <1>  -0.1080 
  6 C        0.3290    -1.9370    -0.1010 C.2   1 <1>   0.2090 
  7 C        3.8240     0.1020    -0.0380 C.2   1 <1>   0.7810 
  8 N        2.7880    -2.0870    -0.0040 N.2   1 <1>  -0.4920 
  9 N        0.2650    -3.3340    -0.0570 N.am  1 <1>  -0.5390 
 10 O        4.8550     0.7640    -0.0210 O.2   1 <1>  -0.5700 
 11 C        3.8530    -1.3480     0.0110 C.2   1 <1>   0.3890 
 12 C       -0.8110    -4.1800    -0.0690 C.2   1 <1>   0.7150 
 13 C        5.1970    -2.0590     0.0850 C.3   1 <1>  -0.1790 
 14 O       -1.9310    -3.7060    -0.1280 O.2   1 <1>  -0.5700 
 15 C       -0.5960    -5.6070    -0.0140 C.2   1 <1>  -0.0450 
 16 S        1.0730    -6.1970    -0.0170 S.3   1 <1>  -0.0800 
 17 C       -1.4350    -6.6790     0.0270 C.2   1 <1>  -0.1810 
 18 C        0.5640    -7.8660     0.0390 C.2   1 <1>  -0.1100 
 19 C       -0.7770    -7.9500     0.0650 C.2   1 <1>  -0.1810 
 20 C       -2.9570    -6.5840    -0.0060 C.3   1 <1>   0.0210 
 21 C       -1.5490    -9.2580     0.1510 C.3   1 <1>   0.0210 
 22 C       -3.6480    -7.8930     0.3990 C.3   1 <1>  -0.1600 
 23 C       -3.0030    -9.0940    -0.3050 C.3   1 <1>  -0.1600 
 24 H       -1.7470    -1.1680    -0.2040 H     1 <1>   0.1500 
 25 H        1.1780    -3.7900    -0.0090 H     1 <1>   0.3700 
 26 H        5.7240    -1.7500     0.9690 H     1 <1>   0.0800 
 27 H        5.7890    -1.8070    -0.7770 H     1 <1>   0.0800 
 28 H        5.0650    -3.1250     0.1140 H     1 <1>   0.0800 
 29 H        1.3300    -8.6210     0.0560 H     1 <1>   0.1500 
 30 H       -3.2530    -6.3300    -1.0090 H     1 <1>   0.0800 
 31 H       -3.2920    -5.7930     0.6420 H     1 <1>   0.0800 
 32 H       -1.5400    -9.5860     1.1750 H     1 <1>   0.0800 
 33 H       -1.0610   -10.0100    -0.4430 H     1 <1>   0.0800 
 34 H       -4.6930    -7.8370     0.1470 H     1 <1>   0.0800 
 35 H       -3.5700    -8.0190     1.4650 H     1 <1>   0.0800 
 36 H       -3.5530    -9.9900    -0.0790 H     1 <1>   0.0800 
 37 H       -3.0290    -8.9430    -1.3710 H     1 <1>   0.0800 
@<TRIPOS>BOND
  1   1   2  1   
  2   1   3  1   
  3   2   4  2   
  4   2   5  1   
  5   3   6  2   
  6   3  24  1   
  7   4   7  1   
  8   5   6  1   
  9   5   8  1   
 10   6   9  1   
 11   7  10  2   
 12   7  11  1   
 13   8  11  2   
 14   9  12  am  
 15   9  25  1   
 16  11  13  1   
 17  12  14  2   
 18  12  15  1   
 19  13  26  1   
 20  13  27  1   
 21  13  28  1   
 22  15  16  1   
 23  15  17  2   
 24  16  18  1   
 25  17  19  1   
 26  17  20  1   
 27  18  19  2   
 28  18  29  1   
 29  19  21  1   
 30  20  22  1   
 31  20  30  1   
 32  20  31  1   
 33  21  23  1   
 34  21  32  1   
 35  21  33  1   
 36  22  23  1   
 37  22  34  1   
 38  22  35  1   
 39  23  36  1   
 40  23  37  1   
@<TRIPOS>SUBSTRUCTURE
  1 ****   9 GROUP 4 **** **** 0

# MOE 2024.06 (io_trps.svl 2023.06)
