@<TRIPOS>MOLECULE
NONAME
56 58 1 0 0 
SMALL
USER_CHARGES


@<TRIPOS>ATOM
  1 O        2.0260    -0.5300     2.3910 O.2   1 <1>  -0.5700 
  2 C        2.4290    -0.7540     1.2700 C.2   1 <1>   0.5690 
  3 N        2.8720     0.2730     0.4610 N.am  1 <1>  -0.6600 
  4 C        2.4480    -2.2110     0.8000 C.3   1 <1>   0.2370 
  5 C        3.2390     0.1050    -0.9830 C.3   1 <1>   0.1400 
  6 C        2.9240     1.6750     0.9750 C.3   1 <1>   0.1400 
  7 N        1.2530    -2.4600    -0.0320 N.pl3 1 <1>   0.3140 
  8 C        2.5390    -3.2510     1.9360 C.3   1 <1>  -0.2400 
  9 C        4.7330    -0.2040    -1.1600 C.3   1 <1>   0.1400 
 10 C        4.2540     2.3900     0.6850 C.3   1 <1>  -0.1600 
 11 N        1.3590    -2.9370    -1.2900 N.2   1 <1>  -0.7070 
 12 C       -0.0390    -2.2650     0.3050 C.2   1 <1>  -0.3020 
 13 N        5.6000     0.9650    -0.8170 N.am  1 <1>  -0.6600 
 14 C        5.4720     1.4660     0.5820 C.3   1 <1>   0.1400 
 15 C        0.1360    -3.0330    -1.7140 C.2   1 <1>   0.1390 
 16 C       -0.7870    -2.6240    -0.7580 C.2   1 <1>  -0.1810 
 17 C        6.4520     1.5070    -1.7520 C.2   1 <1>   0.5690 
 18 C       -2.2940    -2.5970    -0.9010 C.3   1 <1>  -0.0590 
 19 O        6.5400     1.0440    -2.8670 O.2   1 <1>  -0.5700 
 20 C        7.3100     2.7300    -1.4480 C.3   1 <1>   0.0440 
 21 C        8.5230     2.4070    -0.5720 C.ar  1 <1>  -0.1430 
 22 C        8.7840     3.0910     0.6150 C.ar  1 <1>   0.0820 
 23 C        9.3870     1.4030    -0.9840 C.ar  1 <1>  -0.1500 
 24 O        7.9180     4.0700     0.9940 O.3   1 <1>  -0.3630 
 25 C        9.9040     2.7530     1.3710 C.ar  1 <1>  -0.1500 
 26 C       10.4970     1.0730    -0.2280 C.ar  1 <1>  -0.1500 
 27 C        8.1690     4.8920     2.1120 C.3   1 <1>   0.0400 
 28 C       10.7550     1.7480     0.9500 C.ar  1 <1>  -0.1500 
 29 H        3.3060    -2.3480     0.1720 H     1 <1>   0.0800 
 30 H        2.9950     0.9980    -1.5310 H     1 <1>   0.0800 
 31 H        2.6650    -0.6910    -1.4200 H     1 <1>   0.0800 
 32 H        2.7780     1.6720     2.0420 H     1 <1>   0.0800 
 33 H        2.1120     2.2370     0.5460 H     1 <1>   0.0800 
 34 H        1.6840    -3.1770     2.5850 H     1 <1>   0.0800 
 35 H        3.4240    -3.0760     2.5200 H     1 <1>   0.0800 
 36 H        2.5880    -4.2440     1.5250 H     1 <1>   0.0800 
 37 H        4.8930    -0.4930    -2.1840 H     1 <1>   0.0800 
 38 H        5.0120    -1.0420    -0.5480 H     1 <1>   0.0800 
 39 H        4.4240     3.0880     1.4850 H     1 <1>   0.0800 
 40 H        4.1650     2.9720    -0.2150 H     1 <1>   0.0800 
 41 H       -0.3420    -1.8850     1.2650 H     1 <1>   0.1500 
 42 H        5.3820     0.6390     1.2660 H     1 <1>   0.0800 
 43 H        6.3530     2.0080     0.8640 H     1 <1>   0.0800 
 44 H       -0.1240    -3.3900    -2.6970 H     1 <1>   0.1500 
 45 H       -2.7450    -2.2320     0.0040 H     1 <1>   0.0800 
 46 H       -2.6620    -3.5880    -1.0970 H     1 <1>   0.0800 
 47 H       -2.5740    -1.9510    -1.7140 H     1 <1>   0.0800 
 48 H        6.6830     3.4810    -1.0100 H     1 <1>   0.0800 
 49 H        7.6670     3.1320    -2.3780 H     1 <1>   0.0800 
 50 H        9.1970     0.8700    -1.9010 H     1 <1>   0.1500 
 51 H       10.1330     3.2570     2.2900 H     1 <1>   0.1500 
 52 H       11.1580     0.2910    -0.5590 H     1 <1>   0.1500 
 53 H        7.3790     5.6180     2.1780 H     1 <1>   0.0800 
 54 H        9.1120     5.3900     1.9740 H     1 <1>   0.0800 
 55 H        8.1800     4.2830     2.9990 H     1 <1>   0.0800 
 56 H       11.6190     1.4900     1.5370 H     1 <1>   0.1500 
@<TRIPOS>BOND
  1   1   2  2   
  2   2   3  am  
  3   2   4  1   
  4   3   5  1   
  5   3   6  1   
  6   4   7  1   
  7   4   8  1   
  8   4  29  1   
  9   5   9  1   
 10   5  30  1   
 11   5  31  1   
 12   6  10  1   
 13   6  32  1   
 14   6  33  1   
 15   7  11  1   
 16   7  12  1   
 17   8  34  1   
 18   8  35  1   
 19   8  36  1   
 20   9  13  1   
 21   9  37  1   
 22   9  38  1   
 23  10  14  1   
 24  10  39  1   
 25  10  40  1   
 26  11  15  2   
 27  12  16  2   
 28  12  41  1   
 29  13  14  1   
 30  13  17  am  
 31  14  42  1   
 32  14  43  1   
 33  15  16  1   
 34  15  44  1   
 35  16  18  1   
 36  17  19  2   
 37  17  20  1   
 38  18  45  1   
 39  18  46  1   
 40  18  47  1   
 41  20  21  1   
 42  20  48  1   
 43  20  49  1   
 44  21  22  ar  
 45  21  23  ar  
 46  22  24  1   
 47  22  25  ar  
 48  23  26  ar  
 49  23  50  1   
 50  24  27  1   
 51  25  28  ar  
 52  25  51  1   
 53  26  28  ar  
 54  26  52  1   
 55  27  53  1   
 56  27  54  1   
 57  27  55  1   
 58  28  56  1   
@<TRIPOS>SUBSTRUCTURE
  1 ****   9 GROUP 4 **** **** 0

# MOE 2024.06 (io_trps.svl 2023.06)
