@<TRIPOS>MOLECULE
NONAME
43 44 1 0 0 
SMALL
USER_CHARGES


@<TRIPOS>ATOM
  1 CL      -0.0980    -3.1380    -3.9170 Cl    1 <1>  -0.1770 
  2 C       -0.4150    -3.8610    -2.3630 C.ar  1 <1>   0.1770 
  3 C        0.3110    -4.9680    -1.9720 C.ar  1 <1>  -0.1500 
  4 C       -1.3900    -3.3120    -1.5460 C.ar  1 <1>  -0.1500 
  5 C        0.0290    -5.5120    -0.7340 C.ar  1 <1>   0.1900 
  6 C       -1.6550    -3.8780    -0.3070 C.ar  1 <1>  -0.1500 
  7 F        0.7050    -6.5600    -0.3470 F     1 <1>  -0.1900 
  8 C       -0.9430    -4.9960     0.1110 C.ar  1 <1>  -0.1440 
  9 C       -1.2020    -5.6520     1.4530 C.3   1 <1>   0.4870 
 10 N       -1.9780    -6.9020     1.2410 N.4   1 <1>  -0.9590 
 11 C       -3.3120    -6.7090     0.5810 C.3   1 <1>   0.3430 
 12 C       -2.1750    -7.7330     2.4570 C.3   1 <1>   0.3430 
 13 C       -4.3070    -7.5950     1.3470 C.3   1 <1>   0.2000 
 14 C       -3.4600    -8.5340     2.2130 C.3   1 <1>  -0.0800 
 15 O       -5.0750    -6.7990     2.1880 O.3   1 <1>  -0.6800 
 16 C       -3.2150    -9.9230     1.5630 C.3   1 <1>  -0.0550 
 17 S       -2.4130    -9.9200    -0.0460 S.o2  1 <1>   1.3330 
 18 O       -1.1220    -9.2940     0.1470 O.2   1 <1>  -0.6500 
 19 O       -3.3210    -9.3140    -0.9910 O.2   1 <1>  -0.6500 
 20 N       -2.2070   -11.5590    -0.4090 N.am  1 <1>  -0.8490 
 21 C       -1.0310   -11.8090    -1.2510 C.3   1 <1>   0.1160 
 22 C       -3.3910   -12.1790    -1.0170 C.3   1 <1>   0.1160 
 23 H        1.0680    -5.3890    -2.6090 H     1 <1>   0.1500 
 24 H       -1.9320    -2.4450    -1.8850 H     1 <1>   0.1500 
 25 H       -2.4130    -3.4340     0.3180 H     1 <1>   0.1500 
 26 H       -1.7490    -4.9780     2.0910 H     1 <1>   0.0800 
 27 H       -0.2590    -5.8810     1.9230 H     1 <1>   0.0800 
 28 H       -1.4010    -7.4830     0.5920 H     1 <1>   0.4500 
 29 H       -3.6320    -5.6810     0.6140 H     1 <1>   0.0800 
 30 H       -3.2550    -7.0240    -0.4490 H     1 <1>   0.0800 
 31 H       -1.3280    -8.3800     2.6310 H     1 <1>   0.0800 
 32 H       -2.3130    -7.0950     3.3140 H     1 <1>   0.0800 
 33 H       -4.9840    -8.1090     0.6830 H     1 <1>   0.0800 
 34 H       -3.9500    -8.7190     3.1540 H     1 <1>   0.0800 
 35 H       -4.5630    -6.3730     2.9020 H     1 <1>   0.4000 
 36 H       -4.1600   -10.4230     1.4700 H     1 <1>   0.0800 
 37 H       -2.6190   -10.5130     2.2340 H     1 <1>   0.0800 
 38 H       -0.9180   -12.8650    -1.4300 H     1 <1>   0.0800 
 39 H       -0.1400   -11.4570    -0.7580 H     1 <1>   0.0800 
 40 H       -1.1280   -11.3000    -2.1960 H     1 <1>   0.0800 
 41 H       -3.2300   -13.2360    -1.1470 H     1 <1>   0.0800 
 42 H       -3.5970   -11.7370    -1.9790 H     1 <1>   0.0800 
 43 H       -4.2510   -12.0450    -0.3840 H     1 <1>   0.0800 
@<TRIPOS>BOND
  1   1   2  1   
  2   2   3  ar  
  3   2   4  ar  
  4   3   5  ar  
  5   3  23  1   
  6   4   6  ar  
  7   4  24  1   
  8   5   7  1   
  9   5   8  ar  
 10   6   8  ar  
 11   6  25  1   
 12   8   9  1   
 13   9  10  1   
 14   9  26  1   
 15   9  27  1   
 16  10  11  1   
 17  10  12  1   
 18  10  28  1   
 19  11  13  1   
 20  11  29  1   
 21  11  30  1   
 22  12  14  1   
 23  12  31  1   
 24  12  32  1   
 25  13  14  1   
 26  13  15  1   
 27  13  33  1   
 28  14  16  1   
 29  14  34  1   
 30  15  35  1   
 31  16  17  1   
 32  16  36  1   
 33  16  37  1   
 34  17  18  2   
 35  17  19  2   
 36  17  20  am  
 37  20  21  1   
 38  20  22  1   
 39  21  38  1   
 40  21  39  1   
 41  21  40  1   
 42  22  41  1   
 43  22  42  1   
 44  22  43  1   
@<TRIPOS>SUBSTRUCTURE
  1 ****  10 GROUP 4 **** **** 0

# MOE 2024.06 (io_trps.svl 2023.06)
