@<TRIPOS>MOLECULE
NONAME
51 54 1 0 0 
SMALL
USER_CHARGES


@<TRIPOS>ATOM
  1 O        1.1010    -0.0290     0.3330 O.3   1 <1>  -0.3630 
  2 C        1.5420    -1.1730    -0.2460 C.ar  1 <1>   0.0830 
  3 C        0.6310     0.9900    -0.5330 C.3   1 <1>   0.1200 
  4 C        1.7920    -1.2440    -1.6140 C.ar  1 <1>   0.0820 
  5 C        1.7370    -2.2870     0.5470 C.ar  1 <1>  -0.1500 
  6 C        1.5290     1.0960    -1.7740 C.3   1 <1>   0.1200 
  7 O        1.6300    -0.1620    -2.4150 O.3   1 <1>  -0.3630 
  8 C        2.2170    -2.4350    -2.1720 C.ar  1 <1>  -0.1500 
  9 C        2.1610    -3.4860    -0.0120 C.ar  1 <1>  -0.1430 
 10 C        2.4080    -3.5600    -1.3830 C.ar  1 <1>  -0.1430 
 11 C        2.3210    -4.6780     0.9170 C.3   1 <1>   0.4870 
 12 C        2.8830    -4.8300    -2.0770 C.3   1 <1>  -0.0960 
 13 N        1.1850    -5.6140     0.7230 N.4   1 <1>  -0.9590 
 14 C       -0.1790    -4.9900     0.7080 C.3   1 <1>   0.3430 
 15 C        1.1340    -6.7600     1.6580 C.3   1 <1>   0.3430 
 16 C       -1.0950    -5.9590     1.4740 C.3   1 <1>   0.2000 
 17 C       -0.3050    -7.2670     1.5370 C.3   1 <1>  -0.0800 
 18 O       -1.2960    -5.4950     2.7690 O.3   1 <1>  -0.6800 
 19 C       -0.5610    -8.1200     0.2650 C.3   1 <1>   0.0210 
 20 C        0.6930    -8.5810    -0.4600 C.2   1 <1>   0.1080 
 21 N        1.4370    -7.7840    -1.1710 N.2   1 <1>  -0.7070 
 22 C        1.1710    -9.8850    -0.4540 C.2   1 <1>  -0.1500 
 23 N        2.4040    -8.5880    -1.6720 N.pl3 1 <1>   0.3000 
 24 C        2.2690    -9.8570    -1.2370 C.2   1 <1>  -0.3320 
 25 C        3.2040   -10.9920    -1.6160 C.3   1 <1>  -0.0600 
 26 H       -0.3760     0.7470    -0.8220 H     1 <1>   0.0800 
 27 H        0.6270     1.9150     0.0150 H     1 <1>   0.0800 
 28 H        1.5450    -2.1920     1.6010 H     1 <1>   0.1500 
 29 H        2.5190     1.4100    -1.4950 H     1 <1>   0.0800 
 30 H        1.1230     1.7970    -2.4820 H     1 <1>   0.0800 
 31 H        2.3990    -2.4640    -3.2320 H     1 <1>   0.1500 
 32 H        2.3400    -4.3310     1.9370 H     1 <1>   0.0800 
 33 H        3.2530    -5.1780     0.7120 H     1 <1>   0.0800 
 34 H        3.4890    -4.5790    -2.9300 H     1 <1>   0.0800 
 35 H        2.0350    -5.3920    -2.4250 H     1 <1>   0.0800 
 36 H        3.4760    -5.4440    -1.4270 H     1 <1>   0.0800 
 37 H        1.3120    -6.0610    -0.2120 H     1 <1>   0.4500 
 38 H       -0.1840    -4.0220     1.1800 H     1 <1>   0.0800 
 39 H       -0.5130    -4.8860    -0.3120 H     1 <1>   0.0800 
 40 H        1.8550    -7.5190     1.3980 H     1 <1>   0.0800 
 41 H        1.3170    -6.4250     2.6650 H     1 <1>   0.0800 
 42 H       -2.0640    -6.0580     1.0130 H     1 <1>   0.0800 
 43 H       -0.5730    -7.8490     2.4020 H     1 <1>   0.0800 
 44 H       -0.4670    -5.3460     3.2630 H     1 <1>   0.4000 
 45 H       -1.1500    -7.5750    -0.4510 H     1 <1>   0.0800 
 46 H       -1.1410    -8.9860     0.5360 H     1 <1>   0.0800 
 47 H        0.7380   -10.7260     0.0610 H     1 <1>   0.1500 
 48 H        3.1330    -8.2580    -2.3180 H     1 <1>   0.2700 
 49 H        2.8840   -11.9070    -1.1490 H     1 <1>   0.0800 
 50 H        4.2070   -10.7780    -1.2920 H     1 <1>   0.0800 
 51 H        3.2030   -11.1370    -2.6820 H     1 <1>   0.0800 
@<TRIPOS>BOND
  1   1   2  1   
  2   1   3  1   
  3   2   4  ar  
  4   2   5  ar  
  5   3   6  1   
  6   3  26  1   
  7   3  27  1   
  8   4   7  1   
  9   4   8  ar  
 10   5   9  ar  
 11   5  28  1   
 12   6   7  1   
 13   6  29  1   
 14   6  30  1   
 15   8  10  ar  
 16   8  31  1   
 17   9  10  ar  
 18   9  11  1   
 19  10  12  1   
 20  11  13  1   
 21  11  32  1   
 22  11  33  1   
 23  12  34  1   
 24  12  35  1   
 25  12  36  1   
 26  13  14  1   
 27  13  15  1   
 28  13  37  1   
 29  14  16  1   
 30  14  38  1   
 31  14  39  1   
 32  15  17  1   
 33  15  40  1   
 34  15  41  1   
 35  16  17  1   
 36  16  18  1   
 37  16  42  1   
 38  17  19  1   
 39  17  43  1   
 40  18  44  1   
 41  19  20  1   
 42  19  45  1   
 43  19  46  1   
 44  20  21  2   
 45  20  22  1   
 46  21  23  1   
 47  22  24  2   
 48  22  47  1   
 49  23  24  1   
 50  23  48  1   
 51  24  25  1   
 52  25  49  1   
 53  25  50  1   
 54  25  51  1   
@<TRIPOS>SUBSTRUCTURE
  1 ****  13 GROUP 4 **** **** 0

# MOE 2024.06 (io_trps.svl 2023.06)
