@<TRIPOS>MOLECULE
NONAME
44 46 1 0 0 
SMALL
USER_CHARGES


@<TRIPOS>ATOM
  1 F       -0.5870    -0.6280    -0.0360 F     1 <1>  -0.3400 
  2 C       -1.6890    -1.2410    -0.4650 C.3   1 <1>   0.8560 
  3 F       -1.7230    -1.0100    -1.7750 F     1 <1>  -0.3400 
  4 N       -2.9120    -0.6480     0.1840 N.pl3 1 <1>   0.0480 
  5 C       -3.9560    -1.3770     0.7210 C.2   1 <1>  -0.2370 
  6 C       -3.2250     0.6780     0.3370 C.2   1 <1>  -0.3320 
  7 C       -4.0000    -2.8160     0.7210 C.2   1 <1>   0.7150 
  8 C       -4.8730    -0.4910     1.2260 C.2   1 <1>  -0.1500 
  9 C       -4.4170     0.7960     0.9760 C.2   1 <1>  -0.1500 
 10 C       -2.3550     1.8290    -0.1450 C.3   1 <1>  -0.0600 
 11 O       -2.9820    -3.4430     0.9500 O.2   1 <1>  -0.5700 
 12 N       -5.1500    -3.5070     0.4300 N.am  1 <1>  -0.6600 
 13 C       -6.3260    -2.9330    -0.2780 C.3   1 <1>   0.1400 
 14 C       -5.1890    -4.9930     0.3480 C.3   1 <1>   0.1400 
 15 C       -7.3150    -4.0930    -0.3830 C.3   1 <1>   0.2000 
 16 C       -6.4100    -5.3190    -0.5180 C.3   1 <1>  -0.0800 
 17 O       -8.0190    -4.1630     0.8100 O.3   1 <1>  -0.6800 
 18 C       -7.0650    -6.6710    -0.1850 C.3   1 <1>   0.0210 
 19 C       -6.0680    -7.8040    -0.3320 C.2   1 <1>   0.1080 
 20 N       -5.4640    -8.0700    -1.4490 N.2   1 <1>  -0.7070 
 21 C       -5.6830    -8.6640     0.6910 C.2   1 <1>  -0.1500 
 22 N       -4.6720    -9.1220    -1.1660 N.pl3 1 <1>   0.3000 
 23 C       -4.7850    -9.4980     0.1260 C.2   1 <1>  -0.3320 
 24 C       -4.0180   -10.6490     0.7480 C.3   1 <1>  -0.0600 
 25 H       -1.5680    -2.2950    -0.3100 H     1 <1>   0.0800 
 26 H       -5.7910    -0.7220     1.7380 H     1 <1>   0.1500 
 27 H       -4.9300     1.7020     1.2510 H     1 <1>   0.1500 
 28 H       -2.8520     2.7670     0.0250 H     1 <1>   0.0800 
 29 H       -2.1570     1.7340    -1.1980 H     1 <1>   0.0800 
 30 H       -1.4200     1.8400     0.3880 H     1 <1>   0.0800 
 31 H       -6.7590    -2.1030     0.2500 H     1 <1>   0.0800 
 32 H       -6.0230    -2.6160    -1.2610 H     1 <1>   0.0800 
 33 H       -4.2880    -5.3860    -0.0950 H     1 <1>   0.0800 
 34 H       -5.3000    -5.3960     1.3390 H     1 <1>   0.0800 
 35 H       -8.0160    -3.9840    -1.1930 H     1 <1>   0.0800 
 36 H       -6.0700    -5.3610    -1.5390 H     1 <1>   0.0800 
 37 H       -7.3810    -4.1080     1.5510 H     1 <1>   0.4000 
 38 H       -7.8870    -6.8480    -0.8550 H     1 <1>   0.0800 
 39 H       -7.4480    -6.6720     0.8190 H     1 <1>   0.0800 
 40 H       -6.0410    -8.6460     1.7050 H     1 <1>   0.1500 
 41 H       -4.0710    -9.5600    -1.8730 H     1 <1>   0.2700 
 42 H       -4.2800   -10.7490     1.7870 H     1 <1>   0.0800 
 43 H       -2.9590   -10.4720     0.6790 H     1 <1>   0.0800 
 44 H       -4.2540   -11.5700     0.2450 H     1 <1>   0.0800 
@<TRIPOS>BOND
  1   1   2  1   
  2   2   3  1   
  3   2   4  1   
  4   2  25  1   
  5   4   5  1   
  6   4   6  1   
  7   5   7  1   
  8   5   8  2   
  9   6   9  2   
 10   6  10  1   
 11   7  11  2   
 12   7  12  am  
 13   8   9  1   
 14   8  26  1   
 15   9  27  1   
 16  10  28  1   
 17  10  29  1   
 18  10  30  1   
 19  12  13  1   
 20  12  14  1   
 21  13  15  1   
 22  13  31  1   
 23  13  32  1   
 24  14  16  1   
 25  14  33  1   
 26  14  34  1   
 27  15  16  1   
 28  15  17  1   
 29  15  35  1   
 30  16  18  1   
 31  16  36  1   
 32  17  37  1   
 33  18  19  1   
 34  18  38  1   
 35  18  39  1   
 36  19  20  2   
 37  19  21  1   
 38  20  22  1   
 39  21  23  2   
 40  21  40  1   
 41  22  23  1   
 42  22  41  1   
 43  23  24  1   
 44  24  42  1   
 45  24  43  1   
 46  24  44  1   
@<TRIPOS>SUBSTRUCTURE
  1 ****  12 GROUP 4 **** **** 0

# MOE 2024.06 (io_trps.svl 2023.06)
