@<TRIPOS>MOLECULE
NONAME
54 57 1 0 0 
SMALL
USER_CHARGES


@<TRIPOS>ATOM
  1 O        2.7220    -0.1130     1.0310 O.3   1 <1>  -0.5600 
  2 C        3.0550    -0.8710    -0.1140 C.3   1 <1>   0.4240 
  3 C        1.3750    -0.0730     1.4050 C.3   1 <1>   0.1200 
  4 C        2.2100    -2.1530    -0.2320 C.ar  1 <1>  -0.1440 
  5 C        4.5470    -1.2130     0.0550 C.3   1 <1>  -0.1600 
  6 C        2.8870     0.0410    -1.3380 C.3   1 <1>  -0.1600 
  7 C        0.9310    -1.4740     1.8150 C.3   1 <1>  -0.0160 
  8 C        1.2110    -2.4450     0.6850 C.ar  1 <1>  -0.1440 
  9 C        2.4250    -3.0470    -1.2730 C.ar  1 <1>  -0.1500 
 10 C        5.4920    -0.0390    -0.2250 C.3   1 <1>   0.3430 
 11 C        3.6970     1.3400    -1.2300 C.3   1 <1>   0.3430 
 12 C        0.4680    -3.6090     0.5710 C.ar  1 <1>  -0.1500 
 13 C        1.6910    -4.2120    -1.4110 C.ar  1 <1>   0.0830 
 14 N        4.7400     1.2400    -0.1580 N.4   1 <1>  -0.9590 
 15 C        0.6930    -4.5110    -0.4670 C.ar  1 <1>   0.0830 
 16 O        2.0490    -4.9570    -2.4980 O.3   1 <1>  -0.3630 
 17 C        5.6010     2.4470    -0.0290 C.3   1 <1>   0.4860 
 18 O       -0.0370    -5.6610    -0.5670 O.3   1 <1>  -0.3630 
 19 C        1.3650    -6.1190    -2.9060 C.3   1 <1>   0.0400 
 20 C        4.7250     3.6530     0.2150 C.ar  1 <1>  -0.1430 
 21 C       -0.9650    -6.0610     0.4180 C.3   1 <1>   0.0400 
 22 C        4.0620     3.8360     1.4090 C.ar  1 <1>   0.1600 
 23 C        4.5400     4.6150    -0.7540 C.ar  1 <1>   0.1600 
 24 N        3.2650     4.8540     1.6130 N.ar  1 <1>  -0.6200 
 25 N        3.7470     5.6400    -0.5730 N.ar  1 <1>  -0.6200 
 26 C        3.1450     5.6960     0.6020 C.ar  1 <1>   0.7200 
 27 N        2.3290     6.7310     0.7940 N.pl3 1 <1>  -0.9000 
 28 H        0.7860     0.2910     0.5810 H     1 <1>   0.0800 
 29 H        1.2770     0.6080     2.2340 H     1 <1>   0.0800 
 30 H        4.8240    -2.0110    -0.6090 H     1 <1>   0.0800 
 31 H        4.7060    -1.5840     1.0520 H     1 <1>   0.0800 
 32 H        1.8480     0.2700    -1.4920 H     1 <1>   0.0800 
 33 H        3.2120    -0.4850    -2.2170 H     1 <1>   0.0800 
 34 H       -0.1200    -1.4590     2.0400 H     1 <1>   0.0800 
 35 H        1.4610    -1.7790     2.7000 H     1 <1>   0.0800 
 36 H        3.1790    -2.8590    -2.0150 H     1 <1>   0.1500 
 37 H        5.9240    -0.1500    -1.2070 H     1 <1>   0.0800 
 38 H        6.2910    -0.0470     0.5000 H     1 <1>   0.0800 
 39 H        3.0220     2.1470    -0.9900 H     1 <1>   0.0800 
 40 H        4.1540     1.5590    -2.1810 H     1 <1>   0.0800 
 41 H       -0.2890    -3.7950     1.3060 H     1 <1>   0.1500 
 42 H        4.1730     1.1500     0.7090 H     1 <1>   0.4500 
 43 H        6.1780     2.5870    -0.9290 H     1 <1>   0.0800 
 44 H        6.2830     2.3270     0.7980 H     1 <1>   0.0800 
 45 H        1.8050    -6.4640    -3.8240 H     1 <1>   0.0800 
 46 H        0.3290    -5.8770    -3.0650 H     1 <1>   0.0800 
 47 H        1.4720    -6.8710    -2.1450 H     1 <1>   0.0800 
 48 H       -1.3610    -7.0190     0.1330 H     1 <1>   0.0800 
 49 H       -1.7600    -5.3380     0.4630 H     1 <1>   0.0800 
 50 H       -0.4590    -6.1420     1.3640 H     1 <1>   0.0800 
 51 H        4.1760     3.1340     2.2190 H     1 <1>   0.1500 
 52 H        5.0430     4.5480    -1.7050 H     1 <1>   0.1500 
 53 H        2.4550     7.5200     0.1660 H     1 <1>   0.4000 
 54 H        2.1070     6.9490     1.7620 H     1 <1>   0.4000 
@<TRIPOS>BOND
  1   1   2  1   
  2   1   3  1   
  3   2   4  1   
  4   2   5  1   
  5   2   6  1   
  6   3   7  1   
  7   3  28  1   
  8   3  29  1   
  9   4   8  ar  
 10   4   9  ar  
 11   5  10  1   
 12   5  30  1   
 13   5  31  1   
 14   6  11  1   
 15   6  32  1   
 16   6  33  1   
 17   7   8  1   
 18   7  34  1   
 19   7  35  1   
 20   8  12  ar  
 21   9  13  ar  
 22   9  36  1   
 23  10  14  1   
 24  10  37  1   
 25  10  38  1   
 26  11  14  1   
 27  11  39  1   
 28  11  40  1   
 29  12  15  ar  
 30  12  41  1   
 31  13  15  ar  
 32  13  16  1   
 33  14  17  1   
 34  14  42  1   
 35  15  18  1   
 36  16  19  1   
 37  17  20  1   
 38  17  43  1   
 39  17  44  1   
 40  18  21  1   
 41  19  45  1   
 42  19  46  1   
 43  19  47  1   
 44  20  22  ar  
 45  20  23  ar  
 46  21  48  1   
 47  21  49  1   
 48  21  50  1   
 49  22  24  ar  
 50  22  51  1   
 51  23  25  ar  
 52  23  52  1   
 53  24  26  ar  
 54  25  26  ar  
 55  26  27  1   
 56  27  53  1   
 57  27  54  1   
@<TRIPOS>SUBSTRUCTURE
  1 ****   2 GROUP 4 **** **** 0

# MOE 2024.06 (io_trps.svl 2023.06)
