@<TRIPOS>MOLECULE
NONAME
45 47 1 0 0 
SMALL
USER_CHARGES


@<TRIPOS>ATOM
  1 O        2.5930     2.5590    -0.9160 O.3   1 <1>  -0.0190 
  2 N        3.3730     1.5240    -0.8770 N.2   1 <1>  -0.4100 
  3 C        1.3320     2.2200    -0.9060 C.2   1 <1>  -0.0400 
  4 C        2.6030     0.4950    -0.8650 C.2   1 <1>   0.1080 
  5 C        1.2650     0.8810    -0.8820 C.2   1 <1>  -0.1500 
  6 C        0.2700     3.3010    -0.9240 C.3   1 <1>   0.0200 
  7 C        3.0940    -0.9360    -0.8340 C.3   1 <1>  -0.0590 
  8 C        0.0850     3.9520     0.4650 C.3   1 <1>  -0.0800 
  9 C       -0.7100     5.2510     0.3710 C.3   1 <1>   0.2000 
 10 C        1.3940     4.4330     1.0990 C.3   1 <1>   0.3430 
 11 O       -1.1760     5.5580     1.6430 O.3   1 <1>  -0.6800 
 12 C        0.3510     6.2930    -0.0110 C.3   1 <1>   0.3430 
 13 N        1.6590     5.7830     0.5250 N.4   1 <1>  -0.9590 
 14 C        2.2420     6.7050     1.5340 C.3   1 <1>   0.4860 
 15 C        2.5340     8.0320     0.8620 C.ar  1 <1>  -0.1440 
 16 C        3.5540     8.1340    -0.0720 C.ar  1 <1>  -0.1500 
 17 C        1.7780     9.1550     1.1690 C.ar  1 <1>  -0.1500 
 18 C        3.8130     9.3360    -0.7080 C.ar  1 <1>   0.0820 
 19 C        2.0350    10.3610     0.5400 C.ar  1 <1>  -0.1500 
 20 O        4.8210     9.3350    -1.6130 O.3   1 <1>  -0.3630 
 21 C        3.0480    10.4560    -0.3980 C.ar  1 <1>  -0.1500 
 22 C        5.2210    10.5200    -2.2680 C.3   1 <1>   0.0400 
 23 H        0.4140     0.2240    -0.8760 H     1 <1>   0.1500 
 24 H        0.5490     4.0280    -1.6670 H     1 <1>   0.0800 
 25 H       -0.6630     2.8630    -1.2350 H     1 <1>   0.0800 
 26 H        2.7610    -1.4550    -1.7140 H     1 <1>   0.0800 
 27 H        2.7140    -1.4370     0.0370 H     1 <1>   0.0800 
 28 H        4.1690    -0.9570    -0.8060 H     1 <1>   0.0800 
 29 H       -0.3950     3.2380     1.1110 H     1 <1>   0.0800 
 30 H       -1.5430     5.2260    -0.3120 H     1 <1>   0.0800 
 31 H        2.2160     3.7560     0.9360 H     1 <1>   0.0800 
 32 H        1.2350     4.5250     2.1620 H     1 <1>   0.0800 
 33 H       -1.9880     5.0510     1.8600 H     1 <1>   0.4000 
 34 H        0.0920     7.2580     0.3940 H     1 <1>   0.0800 
 35 H        0.4120     6.3710    -1.0840 H     1 <1>   0.0800 
 36 H        2.3300     5.7090    -0.2510 H     1 <1>   0.4500 
 37 H        1.5490     6.8490     2.3470 H     1 <1>   0.0800 
 38 H        3.1570     6.2950     1.9290 H     1 <1>   0.0800 
 39 H        4.1710     7.2900    -0.3250 H     1 <1>   0.1500 
 40 H        0.9860     9.1070     1.8980 H     1 <1>   0.1500 
 41 H        1.4480    11.2310     0.7820 H     1 <1>   0.1500 
 42 H        3.2250    11.4030    -0.8720 H     1 <1>   0.1500 
 43 H        6.0480    10.2830    -2.9120 H     1 <1>   0.0800 
 44 H        5.5270    11.2410    -1.5310 H     1 <1>   0.0800 
 45 H        4.3980    10.8920    -2.8530 H     1 <1>   0.0800 
@<TRIPOS>BOND
  1   1   2  1   
  2   1   3  1   
  3   2   4  2   
  4   3   5  2   
  5   3   6  1   
  6   4   5  1   
  7   4   7  1   
  8   5  23  1   
  9   6   8  1   
 10   6  24  1   
 11   6  25  1   
 12   7  26  1   
 13   7  27  1   
 14   7  28  1   
 15   8   9  1   
 16   8  10  1   
 17   8  29  1   
 18   9  11  1   
 19   9  12  1   
 20   9  30  1   
 21  10  13  1   
 22  10  31  1   
 23  10  32  1   
 24  11  33  1   
 25  12  13  1   
 26  12  34  1   
 27  12  35  1   
 28  13  14  1   
 29  13  36  1   
 30  14  15  1   
 31  14  37  1   
 32  14  38  1   
 33  15  16  ar  
 34  15  17  ar  
 35  16  18  ar  
 36  16  39  1   
 37  17  19  ar  
 38  17  40  1   
 39  18  20  1   
 40  18  21  ar  
 41  19  21  ar  
 42  19  41  1   
 43  20  22  1   
 44  21  42  1   
 45  22  43  1   
 46  22  44  1   
 47  22  45  1   
@<TRIPOS>SUBSTRUCTURE
  1 ****  13 GROUP 4 **** **** 0

# MOE 2024.06 (io_trps.svl 2023.06)
