@<TRIPOS>MOLECULE
NONAME
46 49 1 0 0 
SMALL
USER_CHARGES


@<TRIPOS>ATOM
  1 S        0.6260    -0.3110    -0.5410 S.3   1 <1>  -0.0800 
  2 C        1.6670    -1.6690    -0.9730 C.ar  1 <1>   0.0400 
  3 C       -0.2640    -1.2870     0.6270 C.2   1 <1>  -0.1400 
  4 C        1.3270    -2.7900    -0.2290 C.ar  1 <1>   0.0000 
  5 C        2.6830    -1.6510    -1.9080 C.ar  1 <1>  -0.1500 
  6 C        0.2140    -2.5460     0.6590 C.2   1 <1>  -0.1810 
  7 C       -1.3800    -0.5610     1.3560 C.3   1 <1>  -0.0600 
  8 C        2.0790    -3.9480    -0.4340 C.ar  1 <1>  -0.1500 
  9 C        3.4030    -2.8140    -2.1050 C.ar  1 <1>  -0.1500 
 10 C       -0.3360    -3.6670     1.5110 C.3   1 <1>   0.5240 
 11 C        3.1010    -3.9550    -1.3680 C.ar  1 <1>  -0.1500 
 12 N       -0.9950    -4.6410     0.6070 N.4   1 <1>  -0.9590 
 13 C       -2.0710    -4.0550    -0.2610 C.3   1 <1>   0.3430 
 14 C       -1.5740    -5.8340     1.2630 C.3   1 <1>   0.3430 
 15 C       -3.1890    -5.1120    -0.3230 C.3   1 <1>   0.2000 
 16 C       -2.5400    -6.3900     0.2130 C.3   1 <1>  -0.0800 
 17 O       -4.2310    -4.7440     0.5200 O.3   1 <1>  -0.6800 
 18 C       -1.8350    -7.1470    -0.9440 C.3   1 <1>  -0.0170 
 19 C       -0.5910    -7.9150    -0.5210 C.ar  1 <1>   0.1670 
 20 N        0.5110    -7.1930    -0.3570 N.ar  1 <1>  -0.6200 
 21 C       -0.6480    -9.2950    -0.3370 C.ar  1 <1>   0.1600 
 22 C        1.5490    -7.9520    -0.0250 C.ar  1 <1>   0.1600 
 23 N        0.3820   -10.0400     0.0200 N.ar  1 <1>  -0.6200 
 24 C        1.4850    -9.3270     0.1600 C.ar  1 <1>   0.1600 
 25 H        2.9020    -0.7540    -2.4600 H     1 <1>   0.1500 
 26 H       -1.8820    -1.2080     2.0500 H     1 <1>   0.0800 
 27 H       -2.0980    -0.1860     0.6480 H     1 <1>   0.0800 
 28 H       -0.9730     0.2740     1.9000 H     1 <1>   0.0800 
 29 H        1.8820    -4.8400     0.1290 H     1 <1>   0.1500 
 30 H        4.2020    -2.8380    -2.8270 H     1 <1>   0.1500 
 31 H       -1.0490    -3.2730     2.2160 H     1 <1>   0.0800 
 32 H        0.4670    -4.1380     2.0550 H     1 <1>   0.0800 
 33 H        3.6780    -4.8490    -1.5300 H     1 <1>   0.1500 
 34 H       -0.2570    -5.0010    -0.0250 H     1 <1>   0.4500 
 35 H       -2.4550    -3.1340     0.1460 H     1 <1>   0.0800 
 36 H       -1.6750    -3.8670    -1.2460 H     1 <1>   0.0800 
 37 H       -0.8160    -6.5480     1.5440 H     1 <1>   0.0800 
 38 H       -2.1250    -5.5410     2.1420 H     1 <1>   0.0800 
 39 H       -3.5960    -5.2150    -1.3160 H     1 <1>   0.0800 
 40 H       -3.2600    -7.0460     0.6710 H     1 <1>   0.0800 
 41 H       -4.0010    -4.7670     1.4680 H     1 <1>   0.4000 
 42 H       -1.5300    -6.4620    -1.7160 H     1 <1>   0.0800 
 43 H       -2.5400    -7.8210    -1.4000 H     1 <1>   0.0800 
 44 H       -1.5810    -9.8090    -0.4920 H     1 <1>   0.1500 
 45 H        2.5000    -7.4670     0.1090 H     1 <1>   0.1500 
 46 H        2.3810    -9.8580     0.4330 H     1 <1>   0.1500 
@<TRIPOS>BOND
  1   1   2  1   
  2   1   3  1   
  3   2   4  ar  
  4   2   5  ar  
  5   3   6  2   
  6   3   7  1   
  7   4   6  1   
  8   4   8  ar  
  9   5   9  ar  
 10   5  25  1   
 11   6  10  1   
 12   7  26  1   
 13   7  27  1   
 14   7  28  1   
 15   8  11  ar  
 16   8  29  1   
 17   9  11  ar  
 18   9  30  1   
 19  10  12  1   
 20  10  31  1   
 21  10  32  1   
 22  11  33  1   
 23  12  13  1   
 24  12  14  1   
 25  12  34  1   
 26  13  15  1   
 27  13  35  1   
 28  13  36  1   
 29  14  16  1   
 30  14  37  1   
 31  14  38  1   
 32  15  16  1   
 33  15  17  1   
 34  15  39  1   
 35  16  18  1   
 36  16  40  1   
 37  17  41  1   
 38  18  19  1   
 39  18  42  1   
 40  18  43  1   
 41  19  20  ar  
 42  19  21  ar  
 43  20  22  ar  
 44  21  23  ar  
 45  21  44  1   
 46  22  24  ar  
 47  22  45  1   
 48  23  24  ar  
 49  24  46  1   
@<TRIPOS>SUBSTRUCTURE
  1 ****  12 GROUP 4 **** **** 0

# MOE 2024.06 (io_trps.svl 2023.06)
