@<TRIPOS>MOLECULE
NONAME
42 43 1 0 0 
SMALL
USER_CHARGES


@<TRIPOS>ATOM
  1 CL      -1.3300    -1.2210    -2.0020 Cl    1 <1>  -0.1770 
  2 C       -0.6200    -2.7340    -1.5070 C.ar  1 <1>   0.1770 
  3 C        0.5100    -2.7230    -0.7120 C.ar  1 <1>  -0.1500 
  4 C       -1.1950    -3.9190    -1.9160 C.ar  1 <1>  -0.1500 
  5 C        1.1010    -3.9160    -0.3120 C.ar  1 <1>  -0.1440 
  6 C       -0.6240    -5.1140    -1.5170 C.ar  1 <1>  -0.1500 
  7 C        0.5110    -5.1130    -0.7210 C.ar  1 <1>  -0.1500 
  8 C        2.3610    -3.8320     0.5630 C.3   1 <1>   0.3640 
  9 N        3.3620    -2.9570    -0.1150 N.am  1 <1>  -0.6600 
 10 C        3.0540    -5.1930     0.8430 C.3   1 <1>   0.3430 
 11 C        3.9990    -1.9730     0.5830 C.2   1 <1>   0.7800 
 12 C        3.8230    -3.4250    -1.4620 C.3   1 <1>   0.1400 
 13 N        4.0590    -5.6160    -0.2190 N.4   1 <1>  -0.9060 
 14 O        3.8540    -1.8640     1.7820 O.2   1 <1>  -0.5700 
 15 O        4.8130    -1.1760    -0.1060 O.3   1 <1>  -0.4300 
 16 C        3.8180    -4.9700    -1.5610 C.3   1 <1>   0.3430 
 17 C        5.5500    -0.0760     0.3890 C.3   1 <1>   0.2800 
 18 C        6.2760     0.4990    -0.8280 C.3   1 <1>  -0.2400 
 19 C        4.6010     0.9840     0.9590 C.3   1 <1>  -0.2400 
 20 C        6.5840    -0.5500     1.4180 C.3   1 <1>  -0.2400 
 21 H        0.9180    -1.7710    -0.4140 H     1 <1>   0.1500 
 22 H       -2.0770    -3.9020    -2.5340 H     1 <1>   0.1500 
 23 H       -1.0720    -6.0440    -1.8260 H     1 <1>   0.1500 
 24 H        0.9010    -6.0730    -0.4370 H     1 <1>   0.1500 
 25 H        2.0610    -3.4060     1.5070 H     1 <1>   0.0800 
 26 H        2.2990    -5.9490     0.9670 H     1 <1>   0.0800 
 27 H        3.5650    -5.1100     1.7890 H     1 <1>   0.0800 
 28 H        4.8210    -3.0680    -1.6530 H     1 <1>   0.0800 
 29 H        3.1820    -3.0130    -2.2230 H     1 <1>   0.0800 
 30 H        4.0990    -6.6400    -0.3000 H     1 <1>   0.4500 
 31 H        4.9850    -5.3030     0.1030 H     1 <1>   0.4500 
 32 H        4.5660    -5.2840    -2.2720 H     1 <1>   0.0800 
 33 H        2.8590    -5.2830    -1.9410 H     1 <1>   0.0800 
 34 H        5.5670     0.8140    -1.5720 H     1 <1>   0.0800 
 35 H        6.9330    -0.2360    -1.2570 H     1 <1>   0.0800 
 36 H        6.8650     1.3510    -0.5420 H     1 <1>   0.0800 
 37 H        3.8490     1.2440     0.2360 H     1 <1>   0.0800 
 38 H        5.1530     1.8730     1.2070 H     1 <1>   0.0800 
 39 H        4.1250     0.6400     1.8580 H     1 <1>   0.0800 
 40 H        7.1920    -1.3350     1.0080 H     1 <1>   0.0800 
 41 H        6.1090    -0.8960     2.3170 H     1 <1>   0.0800 
 42 H        7.2260     0.2680     1.6900 H     1 <1>   0.0800 
@<TRIPOS>BOND
  1   1   2  1   
  2   2   3  ar  
  3   2   4  ar  
  4   3   5  ar  
  5   3  21  1   
  6   4   6  ar  
  7   4  22  1   
  8   5   7  ar  
  9   5   8  1   
 10   6   7  ar  
 11   6  23  1   
 12   7  24  1   
 13   8   9  1   
 14   8  10  1   
 15   8  25  1   
 16   9  11  am  
 17   9  12  1   
 18  10  13  1   
 19  10  26  1   
 20  10  27  1   
 21  11  14  2   
 22  11  15  1   
 23  12  16  1   
 24  12  28  1   
 25  12  29  1   
 26  13  16  1   
 27  13  30  1   
 28  13  31  1   
 29  15  17  1   
 30  16  32  1   
 31  16  33  1   
 32  17  18  1   
 33  17  19  1   
 34  17  20  1   
 35  18  34  1   
 36  18  35  1   
 37  18  36  1   
 38  19  37  1   
 39  19  38  1   
 40  19  39  1   
 41  20  40  1   
 42  20  41  1   
 43  20  42  1   
@<TRIPOS>SUBSTRUCTURE
  1 ****   9 GROUP 4 **** **** 0

# MOE 2024.06 (io_trps.svl 2023.06)
