@<TRIPOS>MOLECULE
NONAME
54 58 1 0 0 
SMALL
USER_CHARGES


@<TRIPOS>ATOM
  1 CL      -0.1790     1.1330    -1.2210 Cl    1 <1>  -0.1230 
  2 C        0.7450     2.5690    -0.8160 C.2   1 <1>   0.1230 
  3 C        0.3000     3.6300    -0.0430 C.2   1 <1>   0.1390 
  4 C        2.0040     2.8650    -1.1830 C.2   1 <1>  -0.3020 
  5 N        1.2220     4.5420     0.0740 N.2   1 <1>  -0.7070 
  6 N        2.2760     4.0680    -0.6320 N.pl3 1 <1>   0.3140 
  7 C        3.5400     4.8180    -0.7560 C.3   1 <1>   0.0960 
  8 C        3.9560     5.3910     0.6040 C.3   1 <1>   0.1100 
  9 N        5.2500     6.1020     0.5190 N.3   1 <1>  -0.8100 
 10 C        5.3770     7.0800     1.6270 C.3   1 <1>   0.1100 
 11 C        6.4110     5.1770     0.5380 C.3   1 <1>   0.1100 
 12 C        6.7130     7.8610     1.5790 C.3   1 <1>   0.3430 
 13 C        7.7650     5.9270     0.4980 C.3   1 <1>   0.3430 
 14 N        7.5700     7.4180     0.4240 N.4   1 <1>  -0.9590 
 15 C        8.8000     8.2280     0.1760 C.3   1 <1>   0.5030 
 16 C        9.7960     8.1080     1.3490 C.3   1 <1>  -0.1600 
 17 C        9.4890     7.7440    -1.1220 C.3   1 <1>  -0.1600 
 18 C        8.4170     9.7150    -0.0090 C.3   1 <1>  -0.1600 
 19 C       11.0550     8.9540     1.0650 C.3   1 <1>  -0.0800 
 20 C       10.7460     8.5850    -1.4150 C.3   1 <1>  -0.0800 
 21 C        9.6670    10.5670    -0.2960 C.3   1 <1>  -0.0800 
 22 C       11.7230     8.4560    -0.2300 C.3   1 <1>  -0.1600 
 23 C       10.6490    10.4280     0.8820 C.3   1 <1>  -0.1600 
 24 C       10.3420    10.0590    -1.5820 C.3   1 <1>  -0.1600 
 25 H       -0.6780     3.6930     0.4020 H     1 <1>   0.1500 
 26 H        2.6910     2.3030    -1.7860 H     1 <1>   0.1500 
 27 H        3.3870     5.6190    -1.4540 H     1 <1>   0.0800 
 28 H        4.2930     4.1530    -1.1320 H     1 <1>   0.0800 
 29 H        4.0090     4.6040     1.3390 H     1 <1>   0.0800 
 30 H        3.1900     6.0850     0.9120 H     1 <1>   0.0800 
 31 H        5.2980     6.5740     2.5750 H     1 <1>   0.0800 
 32 H        4.5660     7.7870     1.5730 H     1 <1>   0.0800 
 33 H        6.3620     4.5170    -0.3120 H     1 <1>   0.0800 
 34 H        6.3770     4.5630     1.4230 H     1 <1>   0.0800 
 35 H        7.2400     7.7180     2.5070 H     1 <1>   0.0800 
 36 H        6.4820     8.9080     1.4920 H     1 <1>   0.0800 
 37 H        8.3150     5.5780    -0.3590 H     1 <1>   0.0800 
 38 H        8.3360     5.6750     1.3760 H     1 <1>   0.0800 
 39 H        6.9510     7.5390    -0.3900 H     1 <1>   0.4500 
 40 H       10.0970     7.0860     1.4880 H     1 <1>   0.0800 
 41 H        9.3500     8.4580     2.2620 H     1 <1>   0.0800 
 42 H        8.8120     7.8240    -1.9530 H     1 <1>   0.0800 
 43 H        9.8040     6.7210    -1.0360 H     1 <1>   0.0800 
 44 H        7.9590    10.1110     0.8770 H     1 <1>   0.0800 
 45 H        7.7250     9.8210    -0.8260 H     1 <1>   0.0800 
 46 H       11.7480     8.8680     1.8860 H     1 <1>   0.0800 
 47 H       11.2210     8.2360    -2.3170 H     1 <1>   0.0800 
 48 H        9.3890    11.6010    -0.4180 H     1 <1>   0.0800 
 49 H       12.0330     7.4320    -0.1160 H     1 <1>   0.0800 
 50 H       12.6080     9.0380    -0.4270 H     1 <1>   0.0800 
 51 H       11.5260    11.0240     0.6930 H     1 <1>   0.0800 
 52 H       10.1980    10.8020     1.7860 H     1 <1>   0.0800 
 53 H        9.6740    10.1680    -2.4190 H     1 <1>   0.0800 
 54 H       11.2160    10.6530    -1.7910 H     1 <1>   0.0800 
@<TRIPOS>BOND
  1   1   2  1   
  2   2   3  1   
  3   2   4  2   
  4   3   5  2   
  5   3  25  1   
  6   4   6  1   
  7   4  26  1   
  8   5   6  1   
  9   6   7  1   
 10   7   8  1   
 11   7  27  1   
 12   7  28  1   
 13   8   9  1   
 14   8  29  1   
 15   8  30  1   
 16   9  10  1   
 17   9  11  1   
 18  10  12  1   
 19  10  31  1   
 20  10  32  1   
 21  11  13  1   
 22  11  33  1   
 23  11  34  1   
 24  12  14  1   
 25  12  35  1   
 26  12  36  1   
 27  13  14  1   
 28  13  37  1   
 29  13  38  1   
 30  14  15  1   
 31  14  39  1   
 32  15  16  1   
 33  15  17  1   
 34  15  18  1   
 35  16  19  1   
 36  16  40  1   
 37  16  41  1   
 38  17  20  1   
 39  17  42  1   
 40  17  43  1   
 41  18  21  1   
 42  18  44  1   
 43  18  45  1   
 44  19  22  1   
 45  19  23  1   
 46  19  46  1   
 47  20  22  1   
 48  20  24  1   
 49  20  47  1   
 50  21  23  1   
 51  21  24  1   
 52  21  48  1   
 53  22  49  1   
 54  22  50  1   
 55  23  51  1   
 56  23  52  1   
 57  24  53  1   
 58  24  54  1   
@<TRIPOS>SUBSTRUCTURE
  1 ****   9 GROUP 4 **** **** 0

# MOE 2024.06 (io_trps.svl 2023.06)
