@<TRIPOS>MOLECULE
NONAME
26 28 1 0 0 
SMALL
USER_CHARGES


@<TRIPOS>ATOM
  1 O       -2.2130     2.0180     2.6270 O.co2 1 <1>  -0.9000 
  2 C       -1.8830     1.5130     1.5460 C.2   1 <1>   0.8710 
  3 O       -1.1700     0.5050     1.4900 O.co2 1 <1>  -0.9000 
  4 C       -2.2800     2.1800     0.2450 C.3   1 <1>  -0.0710 
  5 C       -3.5540     3.0700     0.1760 C.3   1 <1>   0.1080 
  6 C       -3.2290     1.3020    -0.6220 C.3   1 <1>   0.2580 
  7 C       -3.5140     4.5700     0.4660 C.ar  1 <1>  -0.1080 
  8 C       -4.6590     2.2110     0.7680 C.3   1 <1>   0.1200 
  9 C       -3.5550     2.6490    -1.3220 C.3   1 <1>   0.0000 
 10 O       -4.3800     1.0130     0.1210 O.3   1 <1>  -0.5380 
 11 C       -4.2660     5.4520    -0.2990 C.ar  1 <1>  -0.1500 
 12 C       -2.7370     5.0710     1.4980 C.ar  1 <1>  -0.1500 
 13 C       -4.2330     6.8120    -0.0410 C.ar  1 <1>  -0.1500 
 14 C       -2.7020     6.4300     1.7590 C.ar  1 <1>  -0.1500 
 15 C       -3.4500     7.3030     0.9880 C.ar  1 <1>  -0.1500 
 16 H       -1.4180     2.5680    -0.2800 H     1 <1>   0.0000 
 17 H       -2.8420     0.4840    -1.2030 H     1 <1>   0.0000 
 18 H       -5.6420     2.5470     0.4940 H     1 <1>   0.0800 
 19 H       -4.5680     2.0800     1.8330 H     1 <1>   0.0800 
 20 H       -2.7690     3.0650    -1.9350 H     1 <1>   0.0000 
 21 H       -4.5170     2.6660    -1.8040 H     1 <1>   0.0000 
 22 H       -4.8810     5.0830    -1.0990 H     1 <1>   0.1500 
 23 H       -2.1550     4.4010     2.1090 H     1 <1>   0.1500 
 24 H       -4.8180     7.4870    -0.6410 H     1 <1>   0.1500 
 25 H       -2.0920     6.7990     2.5640 H     1 <1>   0.1500 
 26 H       -3.4220     8.3590     1.1920 H     1 <1>   0.1500 
@<TRIPOS>BOND
  1   1   2  ar  
  2   2   3  ar  
  3   2   4  1   
  4   4   5  1   
  5   4   6  1   
  6   4  16  1   
  7   5   7  1   
  8   5   8  1   
  9   5   9  1   
 10   6   9  1   
 11   6  10  1   
 12   6  17  1   
 13   7  11  ar  
 14   7  12  ar  
 15   8  10  1   
 16   8  18  1   
 17   8  19  1   
 18   9  20  1   
 19   9  21  1   
 20  11  13  ar  
 21  11  22  1   
 22  12  14  ar  
 23  12  23  1   
 24  13  15  ar  
 25  13  24  1   
 26  14  15  ar  
 27  14  25  1   
 28  15  26  1   
@<TRIPOS>SUBSTRUCTURE
  1 ****   5 GROUP 4 **** **** 0

# MOE 2024.06 (io_trps.svl 2023.06)
