@<TRIPOS>MOLECULE
NONAME
46 49 1 0 0 
SMALL
USER_CHARGES


@<TRIPOS>ATOM
  1 O        0.1150    -0.4570     0.1290 O.2   1 <1>  -0.5700 
  2 C       -0.4380     0.4860    -0.3880 C.2   1 <1>   0.5690 
  3 N       -1.7190     0.8400    -0.0420 N.am  1 <1>  -0.6600 
  4 C        0.3560     1.2650    -1.4290 C.3   1 <1>   0.0440 
  5 C       -2.4100     2.0890    -0.5170 C.3   1 <1>   0.1400 
  6 C       -2.4450     0.0350     0.9890 C.3   1 <1>   0.1400 
  7 C        0.8540     2.6160    -0.9200 C.ar  1 <1>  -0.1440 
  8 C       -3.1800     2.7770     0.6250 C.3   1 <1>   0.1440 
  9 C       -3.9490     0.3320     0.9810 C.3   1 <1>  -0.1600 
 10 C        1.3540     2.7550     0.3690 C.ar  1 <1>   0.1600 
 11 C        0.8140     3.7280    -1.7380 C.ar  1 <1>  -0.1500 
 12 C       -3.7390     4.0840     0.0860 C.ar  1 <1>   0.1660 
 13 C       -4.2790     1.8270     1.1730 C.3   1 <1>  -0.1600 
 14 C       -2.2120     3.2730     1.7400 C.3   1 <1>  -0.1600 
 15 N        1.7910     3.8900     0.8940 N.ar  1 <1>  -0.6200 
 16 C        1.2770     4.9140    -1.2110 C.ar  1 <1>  -0.1500 
 17 N       -4.7510     4.1980    -0.7470 N.ar  1 <1>  -0.6200 
 18 C       -3.0400     5.1600     0.5450 C.ar  1 <1>  -0.1430 
 19 C       -1.9100     4.7530     1.4550 C.3   1 <1>  -0.0170 
 20 C        1.7490     4.9400     0.0900 C.ar  1 <1>   0.1600 
 21 C       -5.0470     5.4450    -1.0860 C.ar  1 <1>   0.4770 
 22 C       -3.4310     6.4070     0.1270 C.ar  1 <1>   0.1600 
 23 N       -4.4460     6.5620    -0.6970 N.ar  1 <1>  -0.6200 
 24 C       -6.2150     5.6190    -2.0270 C.3   1 <1>  -0.0970 
 25 H       -0.2590     1.3940    -2.2990 H     1 <1>   0.0800 
 26 H        1.2050     0.6760    -1.7220 H     1 <1>   0.0800 
 27 H       -3.1030     1.8280    -1.2980 H     1 <1>   0.0800 
 28 H       -1.7070     2.7890    -0.9250 H     1 <1>   0.0800 
 29 H       -2.0350     0.2630     1.9580 H     1 <1>   0.0800 
 30 H       -2.2840    -1.0130     0.8000 H     1 <1>   0.0800 
 31 H       -4.4330    -0.2450     1.7490 H     1 <1>   0.0800 
 32 H       -4.3460    -0.0010     0.0380 H     1 <1>   0.0800 
 33 H        1.3970     1.8870     1.0070 H     1 <1>   0.1500 
 34 H        0.4410     3.6810    -2.7470 H     1 <1>   0.1500 
 35 H       -5.2070     2.0190     0.6640 H     1 <1>   0.0800 
 36 H       -4.4590     2.0270     2.2140 H     1 <1>   0.0800 
 37 H       -1.3040     2.7000     1.7960 H     1 <1>   0.0800 
 38 H       -2.6940     3.2200     2.6990 H     1 <1>   0.0800 
 39 H        1.2740     5.8130    -1.8010 H     1 <1>   0.1500 
 40 H       -0.9730     4.8530     0.9360 H     1 <1>   0.0800 
 41 H       -1.8910     5.3360     2.3590 H     1 <1>   0.0800 
 42 H        2.1120     5.8710     0.4890 H     1 <1>   0.1500 
 43 H       -2.9090     7.2850     0.4660 H     1 <1>   0.1500 
 44 H       -6.3730     4.7210    -2.5940 H     1 <1>   0.0800 
 45 H       -6.0220     6.4310    -2.7030 H     1 <1>   0.0800 
 46 H       -7.0980     5.8370    -1.4570 H     1 <1>   0.0800 
@<TRIPOS>BOND
  1   1   2  2   
  2   2   3  am  
  3   2   4  1   
  4   3   5  1   
  5   3   6  1   
  6   4   7  1   
  7   4  25  1   
  8   4  26  1   
  9   5   8  1   
 10   5  27  1   
 11   5  28  1   
 12   6   9  1   
 13   6  29  1   
 14   6  30  1   
 15   7  10  ar  
 16   7  11  ar  
 17   8  12  1   
 18   8  13  1   
 19   8  14  1   
 20   9  13  1   
 21   9  31  1   
 22   9  32  1   
 23  10  15  ar  
 24  10  33  1   
 25  11  16  ar  
 26  11  34  1   
 27  12  17  ar  
 28  12  18  ar  
 29  13  35  1   
 30  13  36  1   
 31  14  19  1   
 32  14  37  1   
 33  14  38  1   
 34  15  20  ar  
 35  16  20  ar  
 36  16  39  1   
 37  17  21  ar  
 38  18  19  1   
 39  18  22  ar  
 40  19  40  1   
 41  19  41  1   
 42  20  42  1   
 43  21  23  ar  
 44  21  24  1   
 45  22  23  ar  
 46  22  43  1   
 47  24  44  1   
 48  24  45  1   
 49  24  46  1   
@<TRIPOS>SUBSTRUCTURE
  1 ****   5 GROUP 4 **** **** 0

# MOE 2024.06 (io_trps.svl 2023.06)
