@<TRIPOS>MOLECULE
NONAME
50 52 1 0 0 
SMALL
USER_CHARGES


@<TRIPOS>ATOM
  1 O       -0.2140     0.8950    -1.2090 O.2   1 <1>  -0.5700 
  2 C       -1.1890     1.3920    -0.6950 C.2   1 <1>   0.5690 
  3 N       -1.6920     2.5900    -1.1190 N.am  1 <1>  -0.6600 
  4 C       -1.8240     0.6570     0.4710 C.3   1 <1>  -0.0990 
  5 C       -2.8440     3.2760    -0.4780 C.3   1 <1>   0.1400 
  6 C       -1.0380     3.3540    -2.2380 C.3   1 <1>   0.2010 
  7 C       -1.6550     1.4030     1.8060 C.3   1 <1>  -0.1600 
  8 C       -2.4970     3.6980     0.9540 C.3   1 <1>  -0.1600 
  9 C       -0.4150     4.6820    -1.7980 C.2   1 <1>   0.5690 
 10 C       -2.6380     2.5680     1.9870 C.3   1 <1>  -0.1600 
 11 O       -0.9720     5.7060    -2.1220 O.2   1 <1>  -0.5700 
 12 N        0.7430     4.7140    -1.0660 N.am  1 <1>  -0.6600 
 13 C        1.4150     5.9760    -0.6560 C.3   1 <1>   0.1400 
 14 C        1.5120     3.5500    -0.5770 C.3   1 <1>   0.1400 
 15 C        2.8580     5.5800    -0.3100 C.3   1 <1>   0.4240 
 16 C        2.6570     4.1590     0.2310 C.3   1 <1>  -0.1600 
 17 O        3.5570     5.4360    -1.4960 O.3   1 <1>  -0.6800 
 18 C        3.6190     6.5710     0.6070 C.ar  1 <1>  -0.1440 
 19 C        3.7050     7.9440     0.3380 C.ar  1 <1>  -0.1440 
 20 C        4.2600     6.0940     1.7510 C.ar  1 <1>  -0.1500 
 21 C        4.3720     8.7840     1.2200 C.ar  1 <1>  -0.1500 
 22 C        3.1140     8.6090    -0.9010 C.3   1 <1>  -0.0970 
 23 C        4.9260     6.9380     2.6190 C.ar  1 <1>  -0.1500 
 24 C        4.9780     8.2900     2.3570 C.ar  1 <1>  -0.1500 
 25 H       -1.3440    -0.3020     0.5520 H     1 <1>   0.0800 
 26 H       -2.8620     0.4760     0.2630 H     1 <1>   0.0800 
 27 H       -3.7050     2.6300    -0.4830 H     1 <1>   0.0800 
 28 H       -3.0950     4.1560    -1.0480 H     1 <1>   0.0800 
 29 H       -1.7770     3.5600    -2.9900 H     1 <1>   0.0800 
 30 H       -0.2730     2.7590    -2.7030 H     1 <1>   0.0800 
 31 H       -0.6430     1.7600     1.8930 H     1 <1>   0.0800 
 32 H       -1.8180     0.7020     2.6070 H     1 <1>   0.0800 
 33 H       -3.1790     4.4810     1.2350 H     1 <1>   0.0800 
 34 H       -1.5060     4.1180     0.9830 H     1 <1>   0.0800 
 35 H       -2.4830     2.9880     2.9660 H     1 <1>   0.0800 
 36 H       -3.6460     2.1900     1.9630 H     1 <1>   0.0800 
 37 H        0.9240     6.3670     0.2180 H     1 <1>   0.0800 
 38 H        1.3680     6.7010    -1.4470 H     1 <1>   0.0800 
 39 H        1.8870     2.9810    -1.4120 H     1 <1>   0.0800 
 40 H        0.9010     2.9190     0.0450 H     1 <1>   0.0800 
 41 H        3.5530     3.5670     0.1810 H     1 <1>   0.0800 
 42 H        2.3300     4.2080     1.2540 H     1 <1>   0.0800 
 43 H        2.9830     4.9540    -2.1190 H     1 <1>   0.4000 
 44 H        4.2650     5.0490     1.9970 H     1 <1>   0.1500 
 45 H        4.4300     9.8400     1.0230 H     1 <1>   0.1500 
 46 H        3.2790     8.0060    -1.7740 H     1 <1>   0.0800 
 47 H        3.5810     9.5600    -1.0820 H     1 <1>   0.0800 
 48 H        2.0610     8.7750    -0.7670 H     1 <1>   0.0800 
 49 H        5.4060     6.5420     3.4960 H     1 <1>   0.1500 
 50 H        5.4920     8.9540     3.0290 H     1 <1>   0.1500 
@<TRIPOS>BOND
  1   1   2  2   
  2   2   3  am  
  3   2   4  1   
  4   3   5  1   
  5   3   6  1   
  6   4   7  1   
  7   4  25  1   
  8   4  26  1   
  9   5   8  1   
 10   5  27  1   
 11   5  28  1   
 12   6   9  1   
 13   6  29  1   
 14   6  30  1   
 15   7  10  1   
 16   7  31  1   
 17   7  32  1   
 18   8  10  1   
 19   8  33  1   
 20   8  34  1   
 21   9  11  2   
 22   9  12  am  
 23  10  35  1   
 24  10  36  1   
 25  12  13  1   
 26  12  14  1   
 27  13  15  1   
 28  13  37  1   
 29  13  38  1   
 30  14  16  1   
 31  14  39  1   
 32  14  40  1   
 33  15  16  1   
 34  15  17  1   
 35  15  18  1   
 36  16  41  1   
 37  16  42  1   
 38  17  43  1   
 39  18  19  ar  
 40  18  20  ar  
 41  19  21  ar  
 42  19  22  1   
 43  20  23  ar  
 44  20  44  1   
 45  21  24  ar  
 46  21  45  1   
 47  22  46  1   
 48  22  47  1   
 49  22  48  1   
 50  23  24  ar  
 51  23  49  1   
 52  24  50  1   
@<TRIPOS>SUBSTRUCTURE
  1 ****  12 GROUP 4 **** **** 0

# MOE 2024.06 (io_trps.svl 2023.06)
