@<TRIPOS>MOLECULE
NONAME
67 70 1 0 0 
SMALL
USER_CHARGES


@<TRIPOS>ATOM
  1 O       -0.2470    -0.0310    -0.4050 O.2   1 <1>  -0.5700 
  2 C        0.3670    -1.0230    -0.7190 C.2   1 <1>   0.5690 
  3 N        1.4110    -0.9450    -1.6050 N.am  1 <1>  -0.6600 
  4 C       -0.1230    -2.3130    -0.0780 C.3   1 <1>  -0.0990 
  5 C        2.1960    -2.1210    -2.0970 C.3   1 <1>   0.1400 
  6 C        1.8160     0.3750    -2.2180 C.3   1 <1>   0.2010 
  7 C        0.7360    -3.5710    -0.2060 C.3   1 <1>   0.1200 
  8 C        2.9150    -2.9290    -0.9800 C.3   1 <1>   0.2800 
  9 C        3.2320     0.8290    -1.8380 C.2   1 <1>   0.5690 
 10 O        2.0610    -3.2580     0.0870 O.3   1 <1>  -0.5600 
 11 C        4.0540    -2.1050    -0.3640 C.3   1 <1>  -0.1600 
 12 C        3.4980    -4.2370    -1.5410 C.3   1 <1>  -0.1600 
 13 O        4.1280     0.5120    -2.5890 O.2   1 <1>  -0.5700 
 14 N        3.4860     1.5500    -0.6950 N.am  1 <1>  -0.6600 
 15 C        4.8740    -2.9200     0.6360 C.3   1 <1>   0.1100 
 16 C        4.3380    -4.9810    -0.5000 C.3   1 <1>   0.1100 
 17 C        2.4860     1.8940     0.3600 C.3   1 <1>   0.1400 
 18 C        4.8690     1.9550    -0.3080 C.3   1 <1>   0.1400 
 19 N        5.4300    -4.1110    -0.0350 N.3   1 <1>  -0.8100 
 20 C        2.9420     1.3530     1.7260 C.3   1 <1>   0.1200 
 21 C        5.2110     1.4100     1.0880 C.3   1 <1>   0.1200 
 22 C        6.3540    -4.8520     0.8690 C.3   1 <1>   0.2540 
 23 O        4.2410     1.7870     2.0260 O.3   1 <1>  -0.5600 
 24 C        7.7440    -4.1980     0.9550 C.cat 1 <1>   0.6560 
 25 N        8.1460    -3.2910     0.0850 N.pl3 1 <1>  -0.7000 
 26 N        8.7090    -4.4210     1.8510 N.pl3 1 <1>  -0.7640 
 27 C        9.4090    -2.9010     0.4100 C.2   1 <1>   0.1820 
 28 C        9.7660    -3.6030     1.5120 C.2   1 <1>   0.1820 
 29 C        8.6900    -5.3630     3.0050 C.3   1 <1>   0.2740 
 30 C       10.1380    -1.8620    -0.4180 C.3   1 <1>  -0.0720 
 31 C       11.0600    -3.5770     2.3060 C.3   1 <1>  -0.0720 
 32 H       -1.0990    -2.5250    -0.4730 H     1 <1>   0.0800 
 33 H       -0.2510    -2.1150     0.9700 H     1 <1>   0.0800 
 34 H        2.9430    -1.7870    -2.7960 H     1 <1>   0.0800 
 35 H        1.5410    -2.7650    -2.6550 H     1 <1>   0.0800 
 36 H        1.1190     1.1490    -1.9560 H     1 <1>   0.0800 
 37 H        1.7760     0.2790    -3.2880 H     1 <1>   0.0800 
 38 H        0.6590    -4.0190    -1.1800 H     1 <1>   0.0800 
 39 H        0.4120    -4.2970     0.5200 H     1 <1>   0.0800 
 40 H        3.6380    -1.2480     0.1290 H     1 <1>   0.0800 
 41 H        4.7080    -1.7500    -1.1390 H     1 <1>   0.0800 
 42 H        4.1260    -4.0150    -2.3850 H     1 <1>   0.0800 
 43 H        2.7080    -4.8760    -1.8900 H     1 <1>   0.0800 
 44 H        4.2450    -3.2150     1.4610 H     1 <1>   0.0800 
 45 H        5.6670    -2.3010     1.0200 H     1 <1>   0.0800 
 46 H        4.7450    -5.8690    -0.9550 H     1 <1>   0.0800 
 47 H        3.7150    -5.2760     0.3300 H     1 <1>   0.0800 
 48 H        1.5190     1.4940     0.1330 H     1 <1>   0.0800 
 49 H        2.3910     2.9640     0.4220 H     1 <1>   0.0800 
 50 H        4.9330     3.0290    -0.2950 H     1 <1>   0.0800 
 51 H        5.5880     1.5900    -1.0200 H     1 <1>   0.0800 
 52 H        2.9230     0.2780     1.7340 H     1 <1>   0.0800 
 53 H        2.2890     1.7120     2.5010 H     1 <1>   0.0800 
 54 H        6.1550     1.8050     1.4180 H     1 <1>   0.0800 
 55 H        5.2710     0.3370     1.0700 H     1 <1>   0.0800 
 56 H        6.4980    -5.8480     0.4890 H     1 <1>   0.0800 
 57 H        5.9230    -4.9260     1.8510 H     1 <1>   0.0800 
 58 H        7.5330    -2.9850    -0.6810 H     1 <1>   0.4500 
 59 H        7.7600    -5.9020     3.0450 H     1 <1>   0.0800 
 60 H        8.8120    -4.8160     3.9240 H     1 <1>   0.0800 
 61 H        9.4940    -6.0730     2.9100 H     1 <1>   0.0800 
 62 H        9.5870    -0.9380    -0.4130 H     1 <1>   0.0800 
 63 H       10.2320    -2.2040    -1.4330 H     1 <1>   0.0800 
 64 H       11.1210    -1.6770    -0.0270 H     1 <1>   0.0800 
 65 H       11.5160    -4.5510     2.3000 H     1 <1>   0.0800 
 66 H       10.8620    -3.2880     3.3230 H     1 <1>   0.0800 
 67 H       11.7550    -2.8760     1.8840 H     1 <1>   0.0800 
@<TRIPOS>BOND
  1   1   2  2   
  2   2   3  am  
  3   2   4  1   
  4   3   5  1   
  5   3   6  1   
  6   4   7  1   
  7   4  32  1   
  8   4  33  1   
  9   5   8  1   
 10   5  34  1   
 11   5  35  1   
 12   6   9  1   
 13   6  36  1   
 14   6  37  1   
 15   7  10  1   
 16   7  38  1   
 17   7  39  1   
 18   8  10  1   
 19   8  11  1   
 20   8  12  1   
 21   9  13  2   
 22   9  14  am  
 23  11  15  1   
 24  11  40  1   
 25  11  41  1   
 26  12  16  1   
 27  12  42  1   
 28  12  43  1   
 29  14  17  1   
 30  14  18  1   
 31  15  19  1   
 32  15  44  1   
 33  15  45  1   
 34  16  19  1   
 35  16  46  1   
 36  16  47  1   
 37  17  20  1   
 38  17  48  1   
 39  17  49  1   
 40  18  21  1   
 41  18  50  1   
 42  18  51  1   
 43  19  22  1   
 44  20  23  1   
 45  20  52  1   
 46  20  53  1   
 47  21  23  1   
 48  21  54  1   
 49  21  55  1   
 50  22  24  1   
 51  22  56  1   
 52  22  57  1   
 53  24  25  ar  
 54  24  26  ar  
 55  25  27  1   
 56  25  58  1   
 57  26  28  1   
 58  26  29  1   
 59  27  28  2   
 60  27  30  1   
 61  28  31  1   
 62  29  59  1   
 63  29  60  1   
 64  29  61  1   
 65  30  62  1   
 66  30  63  1   
 67  30  64  1   
 68  31  65  1   
 69  31  66  1   
 70  31  67  1   
@<TRIPOS>SUBSTRUCTURE
  1 ****  11 GROUP 4 **** **** 0

# MOE 2024.06 (io_trps.svl 2023.06)
