@<TRIPOS>MOLECULE
NONAME
53 55 1 0 0 
SMALL
USER_CHARGES


@<TRIPOS>ATOM
  1 O        0.9170     1.2850     0.6750 O.co2 1 <1>  -0.9000 
  2 C        0.7470     1.6940    -0.4810 C.2   1 <1>   0.9060 
  3 O        0.8980     0.9640    -1.4680 O.co2 1 <1>  -0.9000 
  4 C        0.2630     3.1210    -0.6970 C.3   1 <1>   0.0140 
  5 O        1.2910     4.0910    -0.4940 O.3   1 <1>  -0.3630 
  6 C        0.9070     5.3140    -0.0660 C.ar  1 <1>   0.0830 
  7 C        1.3280     5.8450     1.1620 C.ar  1 <1>   0.0820 
  8 C        0.1000     6.0710    -0.9020 C.ar  1 <1>  -0.1500 
  9 O        2.1140     5.2220     2.0840 O.3   1 <1>  -0.3630 
 10 C        0.9430     7.1310     1.5010 C.ar  1 <1>  -0.1500 
 11 C       -0.2700     7.3550    -0.5480 C.ar  1 <1>  -0.1500 
 12 C        2.1920     3.8100     2.1550 C.3   1 <1>   0.0400 
 13 C        0.1730     7.9040     0.6460 C.ar  1 <1>  -0.1430 
 14 C       -0.1560     9.3430     1.0120 C.3   1 <1>   0.2530 
 15 N        0.8980    10.2580     0.5310 N.3   1 <1>  -0.8100 
 16 C        2.1860    10.2760     1.3000 C.3   1 <1>   0.1900 
 17 C        0.8910    10.5300    -0.9230 C.3   1 <1>   0.1100 
 18 C        2.8020    11.6850     1.2990 C.3   1 <1>   0.1200 
 19 C        3.2470     9.2280     0.8700 C.3   1 <1>   0.3430 
 20 C        2.2630    10.8250    -1.5540 C.3   1 <1>  -0.0800 
 21 O        3.5840    11.9110     0.1650 O.3   1 <1>  -0.5600 
 22 N        2.9780     8.6370    -0.4740 N.4   1 <1>  -0.9590 
 23 C        2.8950    12.1200    -1.0220 C.3   1 <1>   0.1200 
 24 C        3.2420     9.6340    -1.5540 C.3   1 <1>   0.3430 
 25 C        3.8900     7.4310    -0.6600 C.3   1 <1>   0.2370 
 26 C        5.3850     7.7750    -0.7190 C.2   1 <1>   0.9060 
 27 O        5.8710     8.0530    -1.8200 O.co2 1 <1>  -0.9000 
 28 O        6.0000     7.9010     0.3450 O.co2 1 <1>  -0.9000 
 29 H       -0.5310     3.3080     0.0000 H     1 <1>   0.0800 
 30 H       -0.0990     3.2160    -1.7010 H     1 <1>   0.0800 
 31 H       -0.2280     5.6510    -1.8370 H     1 <1>   0.1500 
 32 H        1.2680     7.5210     2.4480 H     1 <1>   0.1500 
 33 H       -0.9000     7.9210    -1.2110 H     1 <1>   0.1500 
 34 H        2.6670     3.5410     3.0790 H     1 <1>   0.0800 
 35 H        2.7770     3.4420     1.3300 H     1 <1>   0.0800 
 36 H        1.1990     3.3960     2.1220 H     1 <1>   0.0800 
 37 H       -0.2540     9.4350     2.0810 H     1 <1>   0.0800 
 38 H       -1.1000     9.6240     0.5770 H     1 <1>   0.0800 
 39 H        1.9470    10.0740     2.3290 H     1 <1>   0.0800 
 40 H        0.4620     9.6980    -1.4480 H     1 <1>   0.0800 
 41 H        0.2430    11.3730    -1.0950 H     1 <1>   0.0800 
 42 H        3.4620    11.7780     2.1430 H     1 <1>   0.0800 
 43 H        2.0440    12.4440     1.3760 H     1 <1>   0.0800 
 44 H        3.2590     8.4360     1.6000 H     1 <1>   0.0800 
 45 H        4.2290     9.6750     0.8820 H     1 <1>   0.0800 
 46 H        2.0630    11.0280    -2.5900 H     1 <1>   0.0800 
 47 H        1.9880     8.3510    -0.4680 H     1 <1>   0.4500 
 48 H        2.1580    12.8900    -0.8710 H     1 <1>   0.0800 
 49 H        3.6190    12.4820    -1.7320 H     1 <1>   0.0800 
 50 H        4.2530    10.0020    -1.4650 H     1 <1>   0.0800 
 51 H        3.1720     9.1300    -2.5030 H     1 <1>   0.0800 
 52 H        3.7480     6.7380     0.1500 H     1 <1>   0.0800 
 53 H        3.6440     6.9270    -1.5760 H     1 <1>   0.0800 
@<TRIPOS>BOND
  1   1   2  ar  
  2   2   3  ar  
  3   2   4  1   
  4   4   5  1   
  5   4  29  1   
  6   4  30  1   
  7   5   6  1   
  8   6   7  ar  
  9   6   8  ar  
 10   7   9  1   
 11   7  10  ar  
 12   8  11  ar  
 13   8  31  1   
 14   9  12  1   
 15  10  13  ar  
 16  10  32  1   
 17  11  13  ar  
 18  11  33  1   
 19  12  34  1   
 20  12  35  1   
 21  12  36  1   
 22  13  14  1   
 23  14  15  1   
 24  14  37  1   
 25  14  38  1   
 26  15  16  1   
 27  15  17  1   
 28  16  18  1   
 29  16  19  1   
 30  16  39  1   
 31  17  20  1   
 32  17  40  1   
 33  17  41  1   
 34  18  21  1   
 35  18  42  1   
 36  18  43  1   
 37  19  22  1   
 38  19  44  1   
 39  19  45  1   
 40  20  23  1   
 41  20  24  1   
 42  20  46  1   
 43  21  23  1   
 44  22  24  1   
 45  22  25  1   
 46  22  47  1   
 47  23  48  1   
 48  23  49  1   
 49  24  50  1   
 50  24  51  1   
 51  25  26  1   
 52  25  52  1   
 53  25  53  1   
 54  26  27  ar  
 55  26  28  ar  
@<TRIPOS>SUBSTRUCTURE
  1 ****  22 GROUP 4 **** **** 0

# MOE 2024.06 (io_trps.svl 2023.06)
