@<TRIPOS>MOLECULE
NONAME
55 58 1 0 0 
SMALL
USER_CHARGES


@<TRIPOS>ATOM
  1 S       -0.0700     0.4870    -1.2930 S.o2  1 <1>   1.5010 
  2 O       -1.0630     1.5310    -1.4280 O.2   1 <1>  -0.6500 
  3 O        0.7850     0.1720    -2.4160 O.2   1 <1>  -0.6500 
  4 N       -0.9050    -0.9320    -0.8840 N.am  1 <1>  -0.8490 
  5 C        0.9540     0.7670     0.1540 C.2   1 <1>  -0.0630 
  6 C       -1.5460    -1.5330    -2.0580 C.3   1 <1>   0.1960 
  7 C       -1.8950    -0.7030     0.1730 C.3   1 <1>   0.1960 
  8 C        1.8050    -0.0540     0.7900 C.2   1 <1>  -0.0400 
  9 C        1.0590     1.9200     0.9060 C.2   1 <1>   0.1080 
 10 C       -2.1150    -2.9030    -1.6880 C.3   1 <1>  -0.1600 
 11 C       -2.4650    -2.0430     0.6380 C.3   1 <1>  -0.1600 
 12 O        2.3620     0.5240     1.8320 O.3   1 <1>  -0.0190 
 13 C        2.1910    -1.4890     0.4840 C.3   1 <1>  -0.0600 
 14 N        1.8780     1.7440     1.8750 N.2   1 <1>  -0.4100 
 15 C        0.3360     3.2310     0.6660 C.3   1 <1>  -0.0590 
 16 C       -3.1110    -2.8050    -0.5280 C.3   1 <1>   0.4240 
 17 O       -4.1750    -2.0250    -1.0210 O.3   1 <1>  -0.5600 
 18 C       -3.5800    -4.2090    -0.0930 C.ar  1 <1>  -0.1430 
 19 C       -5.4100    -2.1410    -0.3860 C.3   1 <1>   0.1200 
 20 C       -4.9210    -4.5660    -0.1280 C.ar  1 <1>  -0.1430 
 21 C       -2.6610    -5.1490     0.3530 C.ar  1 <1>  -0.1500 
 22 C       -5.9460    -3.5540    -0.6000 C.3   1 <1>  -0.0170 
 23 C       -5.3240    -5.8310     0.2680 C.ar  1 <1>  -0.1500 
 24 C       -3.0440    -6.4190     0.7480 C.ar  1 <1>   0.0820 
 25 C       -4.4020    -6.7730     0.7180 C.ar  1 <1>   0.0820 
 26 O       -2.0150    -7.2230     1.1450 O.3   1 <1>  -0.3630 
 27 O       -4.7980    -8.0100     1.1400 O.3   1 <1>  -0.3630 
 28 C       -2.0650    -8.6200     0.9660 C.3   1 <1>   0.0400 
 29 C       -6.1570    -8.3590     1.2790 C.3   1 <1>   0.0400 
 30 H       -0.8230    -1.6640    -2.8460 H     1 <1>   0.0800 
 31 H       -2.3290    -0.8870    -2.4250 H     1 <1>   0.0800 
 32 H       -2.6890    -0.0680    -0.1900 H     1 <1>   0.0800 
 33 H       -1.4310    -0.2150     1.0130 H     1 <1>   0.0800 
 34 H       -1.2950    -3.5440    -1.4250 H     1 <1>   0.0800 
 35 H       -2.6070    -3.3380    -2.5380 H     1 <1>   0.0800 
 36 H       -3.1810    -1.8900     1.4220 H     1 <1>   0.0800 
 37 H       -1.6620    -2.6240     1.0510 H     1 <1>   0.0800 
 38 H        1.7040    -1.8360    -0.4090 H     1 <1>   0.0800 
 39 H        1.9080    -2.1240     1.3030 H     1 <1>   0.0800 
 40 H        3.2550    -1.5550     0.3430 H     1 <1>   0.0800 
 41 H        0.5200     3.5770    -0.3340 H     1 <1>   0.0800 
 42 H        0.6850     3.9760     1.3580 H     1 <1>   0.0800 
 43 H       -0.7220     3.1000     0.8050 H     1 <1>   0.0800 
 44 H       -6.0750    -1.4160    -0.8230 H     1 <1>   0.0800 
 45 H       -5.2930    -1.9260     0.6610 H     1 <1>   0.0800 
 46 H       -1.6140    -4.9110     0.4010 H     1 <1>   0.1500 
 47 H       -6.1500    -3.7050    -1.6450 H     1 <1>   0.0800 
 48 H       -6.8640    -3.6700    -0.0540 H     1 <1>   0.0800 
 49 H       -6.3690    -6.0640     0.2200 H     1 <1>   0.1500 
 50 H       -1.0610    -9.0000     1.0110 H     1 <1>   0.0800 
 51 H       -2.5010    -8.8370     0.0060 H     1 <1>   0.0800 
 52 H       -2.6520    -9.0500     1.7580 H     1 <1>   0.0800 
 53 H       -6.2070    -9.3530     1.6860 H     1 <1>   0.0800 
 54 H       -6.6240    -8.3390     0.3100 H     1 <1>   0.0800 
 55 H       -6.6290    -7.6650     1.9520 H     1 <1>   0.0800 
@<TRIPOS>BOND
  1   1   2  2   
  2   1   3  2   
  3   1   4  am  
  4   1   5  1   
  5   4   6  1   
  6   4   7  1   
  7   5   8  2   
  8   5   9  1   
  9   6  10  1   
 10   6  30  1   
 11   6  31  1   
 12   7  11  1   
 13   7  32  1   
 14   7  33  1   
 15   8  12  1   
 16   8  13  1   
 17   9  14  2   
 18   9  15  1   
 19  10  16  1   
 20  10  34  1   
 21  10  35  1   
 22  11  16  1   
 23  11  36  1   
 24  11  37  1   
 25  12  14  1   
 26  13  38  1   
 27  13  39  1   
 28  13  40  1   
 29  15  41  1   
 30  15  42  1   
 31  15  43  1   
 32  16  17  1   
 33  16  18  1   
 34  17  19  1   
 35  18  20  ar  
 36  18  21  ar  
 37  19  22  1   
 38  19  44  1   
 39  19  45  1   
 40  20  22  1   
 41  20  23  ar  
 42  21  24  ar  
 43  21  46  1   
 44  22  47  1   
 45  22  48  1   
 46  23  25  ar  
 47  23  49  1   
 48  24  25  ar  
 49  24  26  1   
 50  25  27  1   
 51  26  28  1   
 52  27  29  1   
 53  28  50  1   
 54  28  51  1   
 55  28  52  1   
 56  29  53  1   
 57  29  54  1   
 58  29  55  1   
@<TRIPOS>SUBSTRUCTURE
  1 ****  11 GROUP 4 **** **** 0

# MOE 2024.06 (io_trps.svl 2023.06)
