@<TRIPOS>MOLECULE
NONAME
48 50 1 0 0 
SMALL
USER_CHARGES


@<TRIPOS>ATOM
  1 CL      -1.5180    -0.8320    -1.9020 Cl    1 <1>  -0.1770 
  2 C       -2.2250     0.4730    -0.9770 C.ar  1 <1>   0.1770 
  3 C       -3.1450     0.2050     0.0310 C.ar  1 <1>  -0.1440 
  4 C       -1.8350     1.7610    -1.2850 C.ar  1 <1>  -0.1500 
  5 C       -3.6630     1.2730     0.7620 C.ar  1 <1>  -0.1440 
  6 C       -3.5440    -1.2330     0.3210 C.3   1 <1>   0.4870 
  7 C       -2.3680     2.8150    -0.5700 C.ar  1 <1>  -0.1500 
  8 C       -3.2730     2.5680     0.4470 C.ar  1 <1>  -0.1500 
  9 C       -4.6500     1.0840     1.9090 C.3   1 <1>  -0.0970 
 10 N       -4.1710    -1.8910    -0.8740 N.4   1 <1>  -0.9590 
 11 C       -5.6200    -1.6540    -1.1520 C.3   1 <1>   0.4230 
 12 C       -3.8860    -3.3570    -0.8460 C.3   1 <1>   0.2630 
 13 C       -6.5550    -1.8930     0.0320 C.3   1 <1>  -0.1600 
 14 C       -5.9530    -0.2470    -1.6300 C.3   1 <1>  -0.1600 
 15 C       -7.8610    -1.1930    -0.3720 C.3   1 <1>  -0.0800 
 16 C       -7.4660    -0.1170    -1.4120 C.3   1 <1>  -0.0800 
 17 C       -8.6700    -0.6740     0.8350 C.3   1 <1>   0.1400 
 18 C       -7.9010     1.3100    -1.0250 C.3   1 <1>  -0.0990 
 19 N       -9.6660     0.3280     0.3890 N.am  1 <1>  -0.6600 
 20 C       -9.3220     1.3070    -0.5030 C.2   1 <1>   0.5690 
 21 C      -11.0210     0.2450     0.9980 C.3   1 <1>   0.0600 
 22 O      -10.0860     2.1590    -0.8860 O.2   1 <1>  -0.5700 
 23 H       -1.1230     1.9380    -2.0720 H     1 <1>   0.1500 
 24 H       -4.2060    -1.2800     1.1670 H     1 <1>   0.0800 
 25 H       -2.6460    -1.7660     0.5870 H     1 <1>   0.0800 
 26 H       -2.0760     3.8270    -0.7980 H     1 <1>   0.1500 
 27 H       -3.6700     3.4050     0.9970 H     1 <1>   0.1500 
 28 H       -4.7720     2.0010     2.4590 H     1 <1>   0.0800 
 29 H       -4.2960     0.3400     2.6000 H     1 <1>   0.0800 
 30 H       -5.6130     0.7980     1.5310 H     1 <1>   0.0800 
 31 H       -3.6560    -1.5010    -1.6790 H     1 <1>   0.4500 
 32 H       -5.9290    -2.3230    -1.9400 H     1 <1>   0.0800 
 33 H       -4.3770    -3.8210    -0.0060 H     1 <1>   0.0800 
 34 H       -2.8240    -3.5310    -0.7660 H     1 <1>   0.0800 
 35 H       -4.2380    -3.8240    -1.7520 H     1 <1>   0.0800 
 36 H       -6.7200    -2.9420     0.2050 H     1 <1>   0.0800 
 37 H       -6.1750    -1.4350     0.9240 H     1 <1>   0.0800 
 38 H       -5.4540     0.4960    -1.0440 H     1 <1>   0.0800 
 39 H       -5.7000    -0.1090    -2.6670 H     1 <1>   0.0800 
 40 H       -8.4820    -1.9130    -0.8790 H     1 <1>   0.0800 
 41 H       -7.9690    -0.3650    -2.3330 H     1 <1>   0.0800 
 42 H       -8.0210    -0.2020     1.5520 H     1 <1>   0.0800 
 43 H       -9.1660    -1.4980     1.3210 H     1 <1>   0.0800 
 44 H       -7.8360     1.9610    -1.8790 H     1 <1>   0.0800 
 45 H       -7.2730     1.7100    -0.2510 H     1 <1>   0.0800 
 46 H      -11.4740    -0.6990     0.7540 H     1 <1>   0.0800 
 47 H      -11.6530     1.0340     0.6250 H     1 <1>   0.0800 
 48 H      -10.9480     0.3420     2.0670 H     1 <1>   0.0800 
@<TRIPOS>BOND
  1   1   2  1   
  2   2   3  ar  
  3   2   4  ar  
  4   3   5  ar  
  5   3   6  1   
  6   4   7  ar  
  7   4  23  1   
  8   5   8  ar  
  9   5   9  1   
 10   6  10  1   
 11   6  24  1   
 12   6  25  1   
 13   7   8  ar  
 14   7  26  1   
 15   8  27  1   
 16   9  28  1   
 17   9  29  1   
 18   9  30  1   
 19  10  11  1   
 20  10  12  1   
 21  10  31  1   
 22  11  13  1   
 23  11  14  1   
 24  11  32  1   
 25  12  33  1   
 26  12  34  1   
 27  12  35  1   
 28  13  15  1   
 29  13  36  1   
 30  13  37  1   
 31  14  16  1   
 32  14  38  1   
 33  14  39  1   
 34  15  16  1   
 35  15  17  1   
 36  15  40  1   
 37  16  18  1   
 38  16  41  1   
 39  17  19  1   
 40  17  42  1   
 41  17  43  1   
 42  18  20  1   
 43  18  44  1   
 44  18  45  1   
 45  19  20  am  
 46  19  21  1   
 47  20  22  2   
 48  21  46  1   
 49  21  47  1   
 50  21  48  1   
@<TRIPOS>SUBSTRUCTURE
  1 ****  14 GROUP 4 **** **** 0

# MOE 2024.06 (io_trps.svl 2023.06)
