@<TRIPOS>MOLECULE
NONAME
45 47 1 0 0 
SMALL
USER_CHARGES


@<TRIPOS>ATOM
  1 O       -2.3180     0.5740    -1.3770 O.2   1 <1>  -0.5700 
  2 C       -2.1780     0.8750    -0.2160 C.2   1 <1>   0.5690 
  3 N       -2.0850    -0.0700     0.7540 N.am  1 <1>  -0.7300 
  4 C       -2.0980     2.3470     0.1960 C.3   1 <1>  -0.0190 
  5 C       -2.1030    -1.5300     0.5020 C.3   1 <1>   0.2840 
  6 C       -2.6000     3.3140    -0.8980 C.3   1 <1>  -0.1600 
  7 C       -0.6610     2.7210     0.6340 C.3   1 <1>  -0.1600 
  8 C       -3.4290    -2.1920     0.8990 C.ar  1 <1>  -0.1440 
  9 C       -2.6490     4.7790    -0.4140 C.3   1 <1>   0.2000 
 10 C       -0.3700     4.2360     0.5970 C.3   1 <1>  -0.1600 
 11 C       -3.7410    -3.4880     0.4490 C.ar  1 <1>   0.2870 
 12 C       -4.3430    -1.5280     1.7000 C.ar  1 <1>  -0.1500 
 13 O       -2.3470     5.6200    -1.5000 O.3   1 <1>  -0.5600 
 14 C       -1.6500     5.0630     0.7390 C.3   1 <1>   0.2000 
 15 N       -4.8980    -4.0950     0.7440 N.ar  1 <1>  -0.6200 
 16 N       -2.8340    -4.2430    -0.3670 N.pl3 1 <1>   0.5930 
 17 C       -5.5210    -2.1700     2.0060 C.ar  1 <1>  -0.1500 
 18 C       -3.3800     5.8010    -2.4190 C.3   1 <1>   0.0400 
 19 O       -1.3020     6.3970     0.7220 O.3   1 <1>  -0.6800 
 20 C       -5.7470    -3.4350     1.5060 C.ar  1 <1>   0.1600 
 21 N       -1.4940    -4.3160    -0.2300 N.2   1 <1>  -0.7070 
 22 C       -3.1580    -5.0450    -1.3970 C.2   1 <1>   0.0360 
 23 C       -1.1450    -5.1270    -1.1700 C.2   1 <1>   0.3660 
 24 N       -2.1360    -5.6090    -1.9300 N.2   1 <1>  -0.5650 
 25 H       -1.9420     0.2040     1.7250 H     1 <1>   0.3700 
 26 H       -2.7500     2.4630     1.0440 H     1 <1>   0.0800 
 27 H       -1.9150    -1.7020    -0.5450 H     1 <1>   0.0800 
 28 H       -1.2970    -1.9840     1.0550 H     1 <1>   0.0800 
 29 H       -3.5820     3.0130    -1.2170 H     1 <1>   0.0800 
 30 H       -1.9360     3.2370    -1.7430 H     1 <1>   0.0800 
 31 H       -0.4950     2.3520     1.6310 H     1 <1>   0.0800 
 32 H        0.0490     2.2300    -0.0110 H     1 <1>   0.0800 
 33 H       -3.6370     5.0190    -0.0580 H     1 <1>   0.0800 
 34 H        0.0860     4.4790    -0.3480 H     1 <1>   0.0800 
 35 H        0.3220     4.4920     1.3810 H     1 <1>   0.0800 
 36 H       -4.1690    -0.5390     2.0830 H     1 <1>   0.1500 
 37 H       -2.1070     4.8540     1.6910 H     1 <1>   0.0800 
 38 H       -6.2610    -1.6930     2.6230 H     1 <1>   0.1500 
 39 H       -3.0370     6.4830    -3.1760 H     1 <1>   0.0800 
 40 H       -4.2350     6.2190    -1.9160 H     1 <1>   0.0800 
 41 H       -3.6290     4.8580    -2.8720 H     1 <1>   0.0800 
 42 H       -1.3440     6.6700    -0.2230 H     1 <1>   0.4000 
 43 H       -6.6750    -3.9280     1.7460 H     1 <1>   0.1500 
 44 H       -4.1790    -5.1740    -1.7070 H     1 <1>   0.1500 
 45 H       -0.1230    -5.4180    -1.3570 H     1 <1>   0.1500 
@<TRIPOS>BOND
  1   1   2  2   
  2   2   3  am  
  3   2   4  1   
  4   3   5  1   
  5   3  25  1   
  6   4   6  1   
  7   4   7  1   
  8   4  26  1   
  9   5   8  1   
 10   5  27  1   
 11   5  28  1   
 12   6   9  1   
 13   6  29  1   
 14   6  30  1   
 15   7  10  1   
 16   7  31  1   
 17   7  32  1   
 18   8  11  ar  
 19   8  12  ar  
 20   9  13  1   
 21   9  14  1   
 22   9  33  1   
 23  10  14  1   
 24  10  34  1   
 25  10  35  1   
 26  11  15  ar  
 27  11  16  1   
 28  12  17  ar  
 29  12  36  1   
 30  13  18  1   
 31  14  19  1   
 32  14  37  1   
 33  15  20  ar  
 34  16  21  1   
 35  16  22  1   
 36  17  20  ar  
 37  17  38  1   
 38  18  39  1   
 39  18  40  1   
 40  18  41  1   
 41  19  42  1   
 42  20  43  1   
 43  21  23  2   
 44  22  24  2   
 45  22  44  1   
 46  23  24  1   
 47  23  45  1   
@<TRIPOS>SUBSTRUCTURE
  1 ****   3 GROUP 4 **** **** 0

# MOE 2024.06 (io_trps.svl 2023.06)
