@<TRIPOS>MOLECULE
NONAME
59 63 1 0 0 
SMALL
USER_CHARGES


@<TRIPOS>ATOM
  1 O       -0.7400    -0.5160     1.2930 O.2   1 <1>  -0.5700 
  2 C       -1.6450     0.2850     1.1560 C.2   1 <1>   0.7160 
  3 N       -2.7810     0.0970     1.8730 N.am  1 <1>  -0.7300 
  4 C       -1.5510     1.3900     0.2470 C.2   1 <1>  -0.0860 
  5 C       -3.2190    -1.1760     2.4600 C.3   1 <1>   0.2840 
  6 C       -2.6310     2.1510    -0.2280 C.2   1 <1>   0.3720 
  7 C       -0.4760     1.9810    -0.3460 C.2   1 <1>   0.0870 
  8 C       -4.4020    -1.6500     1.6380 C.ar  1 <1>  -0.1440 
  9 N       -2.2320     3.0920    -1.0080 N.2   1 <1>  -0.4100 
 10 N       -3.9830     1.9170     0.0710 N.pl3 1 <1>  -0.8210 
 11 O       -0.9340     2.9760    -1.0630 O.3   1 <1>  -0.0190 
 12 C        0.9440     1.7400    -0.3170 C.ar  1 <1>   0.0530 
 13 C       -4.1920    -2.4820     0.5440 C.ar  1 <1>  -0.1500 
 14 C       -5.6900    -1.2240     1.9540 C.ar  1 <1>  -0.1500 
 15 C       -4.6550     1.0170    -0.9070 C.3   1 <1>   0.2090 
 16 C       -4.8370     3.1250     0.2650 C.3   1 <1>   0.2090 
 17 C        1.8340     2.7980    -0.1320 C.ar  1 <1>  -0.1500 
 18 C        1.4890     0.4680    -0.4890 C.ar  1 <1>  -0.1500 
 19 C       -5.2770    -2.8650    -0.2210 C.ar  1 <1>  -0.1430 
 20 C       -6.7710    -1.6160     1.1800 C.ar  1 <1>  -0.1500 
 21 C       -6.0810     1.5290    -1.0280 C.3   1 <1>  -0.1600 
 22 C       -5.9560     3.0200    -0.7620 C.3   1 <1>  -0.1600 
 23 C        3.2000     2.5940    -0.1080 C.ar  1 <1>  -0.1500 
 24 C        2.8540     0.2540    -0.4640 C.ar  1 <1>  -0.1500 
 25 C       -6.5380    -2.4330     0.0910 C.ar  1 <1>   0.0830 
 26 C       -5.3600    -3.7370    -1.4380 C.3   1 <1>  -0.0170 
 27 C        3.7250     1.3230    -0.2710 C.ar  1 <1>   0.0830 
 28 O       -7.4720    -2.8810    -0.7610 O.3   1 <1>  -0.3620 
 29 C       -6.8630    -3.6570    -1.7820 C.3   1 <1>   0.2000 
 30 O        5.0730     1.2030    -0.2320 O.3   1 <1>  -0.3630 
 31 C       -7.5550    -5.0180    -1.8230 C.3   1 <1>  -0.2400 
 32 C        5.7040    -0.0530    -0.3490 C.3   1 <1>   0.0400 
 33 H       -3.5570     0.7030     1.5680 H     1 <1>   0.3700 
 34 H       -3.5080    -1.0200     3.4840 H     1 <1>   0.0800 
 35 H       -2.4240    -1.9030     2.4350 H     1 <1>   0.0800 
 36 H       -3.2010    -2.8160     0.2900 H     1 <1>   0.1500 
 37 H       -5.8530    -0.5790     2.8000 H     1 <1>   0.1500 
 38 H       -4.6380    -0.0030    -0.5680 H     1 <1>   0.0800 
 39 H       -4.1600     1.0810    -1.8630 H     1 <1>   0.0800 
 40 H       -4.2840     4.0420     0.1460 H     1 <1>   0.0800 
 41 H       -5.2480     3.0960     1.2600 H     1 <1>   0.0800 
 42 H        1.4450     3.7930    -0.0040 H     1 <1>   0.1500 
 43 H        0.8300    -0.3680    -0.6460 H     1 <1>   0.1500 
 44 H       -7.7730    -1.2980     1.4060 H     1 <1>   0.1500 
 45 H       -6.6840     1.0630    -0.2680 H     1 <1>   0.0800 
 46 H       -6.5030     1.3140    -1.9940 H     1 <1>   0.0800 
 47 H       -5.6510     3.5290    -1.6590 H     1 <1>   0.0800 
 48 H       -6.8720     3.4550    -0.4030 H     1 <1>   0.0800 
 49 H        3.8730     3.4200     0.0380 H     1 <1>   0.1500 
 50 H        3.2210    -0.7460    -0.5950 H     1 <1>   0.1500 
 51 H       -5.0540    -4.7420    -1.2090 H     1 <1>   0.0800 
 52 H       -4.7610    -3.3480    -2.2410 H     1 <1>   0.0800 
 53 H       -7.0060    -3.1300    -2.7100 H     1 <1>   0.0800 
 54 H       -7.4520    -5.5170    -0.8760 H     1 <1>   0.0800 
 55 H       -7.1170    -5.6320    -2.5890 H     1 <1>   0.0800 
 56 H       -8.6000    -4.8890    -2.0440 H     1 <1>   0.0800 
 57 H        6.7660     0.0990    -0.2760 H     1 <1>   0.0800 
 58 H        5.4600    -0.4780    -1.3060 H     1 <1>   0.0800 
 59 H        5.3680    -0.6870     0.4530 H     1 <1>   0.0800 
@<TRIPOS>BOND
  1   1   2  2   
  2   2   3  am  
  3   2   4  1   
  4   3   5  1   
  5   3  33  1   
  6   4   6  1   
  7   4   7  2   
  8   5   8  1   
  9   5  34  1   
 10   5  35  1   
 11   6   9  2   
 12   6  10  1   
 13   7  11  1   
 14   7  12  1   
 15   8  13  ar  
 16   8  14  ar  
 17   9  11  1   
 18  10  15  1   
 19  10  16  1   
 20  12  17  ar  
 21  12  18  ar  
 22  13  19  ar  
 23  13  36  1   
 24  14  20  ar  
 25  14  37  1   
 26  15  21  1   
 27  15  38  1   
 28  15  39  1   
 29  16  22  1   
 30  16  40  1   
 31  16  41  1   
 32  17  23  ar  
 33  17  42  1   
 34  18  24  ar  
 35  18  43  1   
 36  19  25  ar  
 37  19  26  1   
 38  20  25  ar  
 39  20  44  1   
 40  21  22  1   
 41  21  45  1   
 42  21  46  1   
 43  22  47  1   
 44  22  48  1   
 45  23  27  ar  
 46  23  49  1   
 47  24  27  ar  
 48  24  50  1   
 49  25  28  1   
 50  26  29  1   
 51  26  51  1   
 52  26  52  1   
 53  27  30  1   
 54  28  29  1   
 55  29  31  1   
 56  29  53  1   
 57  30  32  1   
 58  31  54  1   
 59  31  55  1   
 60  31  56  1   
 61  32  57  1   
 62  32  58  1   
 63  32  59  1   
@<TRIPOS>SUBSTRUCTURE
  1 ****   2 GROUP 4 **** **** 0

# MOE 2024.06 (io_trps.svl 2023.06)
