@<TRIPOS>MOLECULE
NONAME
48 50 1 0 0 
SMALL
USER_CHARGES


@<TRIPOS>ATOM
  1 CL       0.7330    -0.8340    -0.7330 Cl    1 <1>  -0.1770 
  2 C       -0.3640    -2.1740    -0.5240 C.ar  1 <1>   0.1770 
  3 C        0.1320    -3.4060    -0.1460 C.ar  1 <1>  -0.1500 
  4 C       -1.7160    -1.9900    -0.7380 C.ar  1 <1>  -0.1500 
  5 C       -0.7430    -4.4650     0.0180 C.ar  1 <1>  -0.1500 
  6 C       -2.5800    -3.0570    -0.5720 C.ar  1 <1>  -0.1500 
  7 C       -2.1190    -4.3210    -0.1890 C.ar  1 <1>   0.0530 
  8 C       -3.0120    -5.4450    -0.0150 C.2   1 <1>   0.0870 
  9 O       -2.5370    -6.6690    -0.0060 O.3   1 <1>  -0.0190 
 10 C       -4.3540    -5.5490     0.1550 C.2   1 <1>  -0.2330 
 11 N       -3.4660    -7.5740     0.1560 N.2   1 <1>  -0.4100 
 12 C       -4.5740    -6.9210     0.2530 C.2   1 <1>   0.3720 
 13 C       -5.3390    -4.5210     0.2400 C.2   1 <1>   1.0330 
 14 N       -5.8150    -7.5420     0.4370 N.pl3 1 <1>  -0.8210 
 15 O       -5.4870    -3.8650     1.2840 O.co2 1 <1>  -0.9000 
 16 O       -5.9840    -4.1860    -0.7720 O.co2 1 <1>  -0.9000 
 17 C       -6.7570    -7.4170    -0.7000 C.3   1 <1>   0.2090 
 18 C       -5.8100    -8.8910     1.0450 C.3   1 <1>   0.2090 
 19 C       -8.1760    -7.7110    -0.2050 C.3   1 <1>  -0.1600 
 20 C       -7.2150    -9.1900     1.5750 C.3   1 <1>  -0.1600 
 21 C       -8.3170    -9.0890     0.4920 C.3   1 <1>   0.0000 
 22 C       -9.6870    -9.1500     1.2130 C.3   1 <1>   0.1200 
 23 C       -8.1850   -10.2190    -0.5730 C.3   1 <1>  -0.1600 
 24 O      -10.7400    -9.0440     0.3140 O.3   1 <1>  -0.6800 
 25 C       -8.3660   -11.6590    -0.0590 C.3   1 <1>  -0.1600 
 26 C       -8.2050   -12.6670    -1.2010 C.3   1 <1>  -0.2400 
 27 H        1.1870    -3.5300     0.0170 H     1 <1>   0.1500 
 28 H       -2.0910    -1.0260    -1.0290 H     1 <1>   0.1500 
 29 H       -0.3560    -5.4240     0.3170 H     1 <1>   0.1500 
 30 H       -3.6310    -2.9010    -0.7440 H     1 <1>   0.1500 
 31 H       -6.4710    -8.0990    -1.4800 H     1 <1>   0.0800 
 32 H       -6.7240    -6.4240    -1.1080 H     1 <1>   0.0800 
 33 H       -5.1050    -8.9090     1.8590 H     1 <1>   0.0800 
 34 H       -5.5030    -9.6190     0.3150 H     1 <1>   0.0800 
 35 H       -8.8460    -7.6390    -1.0410 H     1 <1>   0.0800 
 36 H       -8.4350    -6.9250     0.4840 H     1 <1>   0.0800 
 37 H       -7.4130    -8.4710     2.3510 H     1 <1>   0.0800 
 38 H       -7.2180   -10.1570     2.0400 H     1 <1>   0.0800 
 39 H       -9.7760    -8.3410     1.9170 H     1 <1>   0.0800 
 40 H       -9.8020   -10.0760     1.7480 H     1 <1>   0.0800 
 41 H       -7.2240   -10.1560    -1.0500 H     1 <1>   0.0800 
 42 H       -8.9190   -10.0500    -1.3420 H     1 <1>   0.0800 
 43 H      -10.6540    -8.2140    -0.1930 H     1 <1>   0.4000 
 44 H       -9.3480   -11.7780     0.3650 H     1 <1>   0.0800 
 45 H       -7.6390   -11.8840     0.7000 H     1 <1>   0.0800 
 46 H       -8.9380   -12.4860    -1.9670 H     1 <1>   0.0800 
 47 H       -8.3390   -13.6680    -0.8290 H     1 <1>   0.0800 
 48 H       -7.2230   -12.5920    -1.6340 H     1 <1>   0.0800 
@<TRIPOS>BOND
  1   1   2  1   
  2   2   3  ar  
  3   2   4  ar  
  4   3   5  ar  
  5   3  27  1   
  6   4   6  ar  
  7   4  28  1   
  8   5   7  ar  
  9   5  29  1   
 10   6   7  ar  
 11   6  30  1   
 12   7   8  1   
 13   8   9  1   
 14   8  10  2   
 15   9  11  1   
 16  10  12  1   
 17  10  13  1   
 18  11  12  2   
 19  12  14  1   
 20  13  15  ar  
 21  13  16  ar  
 22  14  17  1   
 23  14  18  1   
 24  17  19  1   
 25  17  31  1   
 26  17  32  1   
 27  18  20  1   
 28  18  33  1   
 29  18  34  1   
 30  19  21  1   
 31  19  35  1   
 32  19  36  1   
 33  20  21  1   
 34  20  37  1   
 35  20  38  1   
 36  21  22  1   
 37  21  23  1   
 38  22  24  1   
 39  22  39  1   
 40  22  40  1   
 41  23  25  1   
 42  23  41  1   
 43  23  42  1   
 44  24  43  1   
 45  25  26  1   
 46  25  44  1   
 47  25  45  1   
 48  26  46  1   
 49  26  47  1   
 50  26  48  1   
@<TRIPOS>SUBSTRUCTURE
  1 ****  12 GROUP 4 **** **** 0

# MOE 2024.06 (io_trps.svl 2023.06)
