@<TRIPOS>MOLECULE
NONAME
44 46 1 0 0 
SMALL
USER_CHARGES


@<TRIPOS>ATOM
  1 O       -3.5330     2.5300    -1.5780 O.2   1 <1>  -0.5700 
  2 C       -2.8800     2.1380    -0.6410 C.2   1 <1>   0.5690 
  3 N       -2.4580     0.8510    -0.5560 N.am  1 <1>  -0.7300 
  4 C       -2.5350     3.1090     0.4650 C.3   1 <1>   0.1570 
  5 C       -2.6450    -0.2020    -1.5790 C.3   1 <1>   0.2200 
  6 N       -1.1320     2.9230     0.8450 N.pl3 1 <1>   0.3140 
  7 C       -3.4360    -1.3770    -1.0220 C.3   1 <1>  -0.0800 
  8 C       -1.3040    -0.8680    -1.8600 C.3   1 <1>   0.1200 
  9 N       -0.7530     1.9380     1.7010 N.2   1 <1>  -0.7070 
 10 C       -0.0610     3.6130     0.3680 C.2   1 <1>  -0.0680 
 11 C       -2.3600    -2.2010    -0.3100 C.3   1 <1>   0.1200 
 12 C       -4.6430    -1.0150    -0.1370 C.3   1 <1>  -0.0160 
 13 O       -1.1290    -1.8180    -0.8510 O.3   1 <1>  -0.5600 
 14 C        0.5350     2.0450     1.7640 C.2   1 <1>   0.1080 
 15 N       -0.1010     4.6650    -0.5590 N.pl3 1 <1>  -0.8840 
 16 C        1.0260     3.0700     0.9620 C.2   1 <1>  -0.1500 
 17 C       -5.3940    -2.2650     0.2940 C.ar  1 <1>  -0.1440 
 18 C        1.3800     1.1310     2.6210 C.3   1 <1>  -0.0590 
 19 C       -5.1990    -2.8470     1.5310 C.ar  1 <1>  -0.1500 
 20 C       -6.3100    -2.8840    -0.5320 C.ar  1 <1>  -0.1500 
 21 C       -5.9050    -3.9890     1.8690 C.ar  1 <1>   0.1600 
 22 C       -6.9640    -4.0250    -0.0970 C.ar  1 <1>   0.1600 
 23 N       -6.7820    -4.5940     1.0840 N.ar  1 <1>  -0.6200 
 24 H       -1.8110     0.6010     0.2100 H     1 <1>   0.3700 
 25 H       -3.1550     2.9200     1.3190 H     1 <1>   0.0800 
 26 H       -2.6820     4.1180     0.1330 H     1 <1>   0.0800 
 27 H       -3.0880     0.2100    -2.4710 H     1 <1>   0.0800 
 28 H       -3.7890    -1.9600    -1.8540 H     1 <1>   0.0800 
 29 H       -0.4840    -0.1720    -1.8490 H     1 <1>   0.0800 
 30 H       -1.3300    -1.3920    -2.8000 H     1 <1>   0.0800 
 31 H       -2.4980    -3.2590    -0.4600 H     1 <1>   0.0800 
 32 H       -2.3300    -1.9830     0.7430 H     1 <1>   0.0800 
 33 H       -5.3070    -0.3710    -0.6860 H     1 <1>   0.0800 
 34 H       -4.3210    -0.4760     0.7370 H     1 <1>   0.0800 
 35 H       -0.6940     4.5040    -1.3820 H     1 <1>   0.4000 
 36 H        0.8250     4.9860    -0.8640 H     1 <1>   0.4000 
 37 H        2.0550     3.3510     0.8470 H     1 <1>   0.1500 
 38 H        2.4160     1.4020     2.5530 H     1 <1>   0.0800 
 39 H        1.2580     0.1160     2.2900 H     1 <1>   0.0800 
 40 H        1.0620     1.2050     3.6440 H     1 <1>   0.0800 
 41 H       -4.5050    -2.4240     2.2340 H     1 <1>   0.1500 
 42 H       -6.5210    -2.4910    -1.5100 H     1 <1>   0.1500 
 43 H       -5.7400    -4.4290     2.8380 H     1 <1>   0.1500 
 44 H       -7.6750    -4.4940    -0.7550 H     1 <1>   0.1500 
@<TRIPOS>BOND
  1   1   2  2   
  2   2   3  am  
  3   2   4  1   
  4   3   5  1   
  5   3  24  1   
  6   4   6  1   
  7   4  25  1   
  8   4  26  1   
  9   5   7  1   
 10   5   8  1   
 11   5  27  1   
 12   6   9  1   
 13   6  10  1   
 14   7  11  1   
 15   7  12  1   
 16   7  28  1   
 17   8  13  1   
 18   8  29  1   
 19   8  30  1   
 20   9  14  2   
 21  10  15  1   
 22  10  16  2   
 23  11  13  1   
 24  11  31  1   
 25  11  32  1   
 26  12  17  1   
 27  12  33  1   
 28  12  34  1   
 29  14  16  1   
 30  14  18  1   
 31  15  35  1   
 32  15  36  1   
 33  16  37  1   
 34  17  19  ar  
 35  17  20  ar  
 36  18  38  1   
 37  18  39  1   
 38  18  40  1   
 39  19  21  ar  
 40  19  41  1   
 41  20  22  ar  
 42  20  42  1   
 43  21  23  ar  
 44  21  43  1   
 45  22  23  ar  
 46  22  44  1   
@<TRIPOS>SUBSTRUCTURE
  1 ****   3 GROUP 4 **** **** 0

# MOE 2024.06 (io_trps.svl 2023.06)
