@<TRIPOS>MOLECULE
NONAME
57 59 1 0 0 
SMALL
USER_CHARGES


@<TRIPOS>ATOM
  1 S        0.5020     0.6280    -0.8770 S.o2  1 <1>   1.3330 
  2 O        0.5640    -0.4080    -1.8830 O.2   1 <1>  -0.6500 
  3 O       -0.6660     1.4750    -0.7870 O.2   1 <1>  -0.6500 
  4 N        0.7050    -0.1080     0.6420 N.am  1 <1>  -0.8490 
  5 C        1.9590     1.6580    -1.0510 C.3   1 <1>  -0.0550 
  6 C        0.3000     0.7500     1.7610 C.3   1 <1>   0.1160 
  7 C        0.0070    -1.3940     0.7280 C.3   1 <1>   0.1160 
  8 C        3.2820     0.8790    -1.2120 C.3   1 <1>  -0.0800 
  9 C        4.4890     1.7460    -1.5350 C.3   1 <1>   0.2200 
 10 C        3.7410     0.1110     0.0350 C.3   1 <1>   0.1200 
 11 N        4.4750     2.9820    -0.7230 N.am  1 <1>  -0.7300 
 12 C        5.6200     0.8500    -1.0520 C.3   1 <1>   0.1200 
 13 O        5.1320     0.2420     0.1050 O.3   1 <1>  -0.5600 
 14 C        4.0920     4.2140    -1.1560 C.2   1 <1>   0.5690 
 15 O        3.7010     4.3550    -2.2920 O.2   1 <1>  -0.5700 
 16 C        4.1690     5.4000    -0.1600 C.3   1 <1>   0.2040 
 17 C        5.5930     5.3840     0.4510 C.ar  1 <1>  -0.1440 
 18 C        3.9540     6.7880    -0.8290 C.3   1 <1>  -0.1600 
 19 C        3.0650     5.2190     0.9190 C.3   1 <1>  -0.1600 
 20 C        5.8560     5.2730     1.8150 C.ar  1 <1>  -0.1500 
 21 C        6.6800     5.4640    -0.4140 C.ar  1 <1>  -0.1500 
 22 C        2.5180     7.0560    -1.3210 C.3   1 <1>  -0.1600 
 23 C        1.6430     5.3910     0.3620 C.3   1 <1>  -0.1600 
 24 C        7.1550     5.2470     2.2900 C.ar  1 <1>  -0.1500 
 25 C        7.9800     5.4390     0.0580 C.ar  1 <1>  -0.1500 
 26 C        1.4750     6.7930    -0.2300 C.3   1 <1>  -0.1600 
 27 C        8.2200     5.3300     1.4140 C.ar  1 <1>  -0.1500 
 28 H        1.8310     2.2750    -1.9200 H     1 <1>   0.0800 
 29 H        2.0260     2.3120    -0.2050 H     1 <1>   0.0800 
 30 H        0.5330     0.2710     2.6970 H     1 <1>   0.0800 
 31 H       -0.7590     0.9460     1.7230 H     1 <1>   0.0800 
 32 H        0.8260     1.6880     1.7210 H     1 <1>   0.0800 
 33 H        0.1620    -1.8410     1.6950 H     1 <1>   0.0800 
 34 H        0.3870    -2.0720    -0.0190 H     1 <1>   0.0800 
 35 H       -1.0500    -1.2590     0.5650 H     1 <1>   0.0800 
 36 H        3.1640     0.1650    -2.0090 H     1 <1>   0.0800 
 37 H        4.5680     1.9790    -2.5840 H     1 <1>   0.0800 
 38 H        3.4880    -0.9340    -0.0240 H     1 <1>   0.0800 
 39 H        3.3330     0.5320     0.9370 H     1 <1>   0.0800 
 40 H        4.9040     2.8850     0.2030 H     1 <1>   0.3700 
 41 H        6.5190     1.3970    -0.8250 H     1 <1>   0.0800 
 42 H        5.8290     0.0760    -1.7690 H     1 <1>   0.0800 
 43 H        4.2110     7.5500    -0.1140 H     1 <1>   0.0800 
 44 H        4.6230     6.8950    -1.6630 H     1 <1>   0.0800 
 45 H        3.1520     4.2500     1.3750 H     1 <1>   0.0800 
 46 H        3.1970     5.9610     1.6870 H     1 <1>   0.0800 
 47 H        5.0690     5.2030     2.5410 H     1 <1>   0.1500 
 48 H        6.5240     5.5440    -1.4770 H     1 <1>   0.1500 
 49 H        2.4400     8.0770    -1.6520 H     1 <1>   0.0800 
 50 H        2.3000     6.4320    -2.1710 H     1 <1>   0.0800 
 51 H        1.4440     4.6560    -0.3980 H     1 <1>   0.0800 
 52 H        0.9250     5.2510     1.1520 H     1 <1>   0.0800 
 53 H        7.3390     5.1610     3.3470 H     1 <1>   0.1500 
 54 H        8.8040     5.5040    -0.6310 H     1 <1>   0.1500 
 55 H        0.4870     6.8940    -0.6460 H     1 <1>   0.0800 
 56 H        1.5810     7.5280     0.5490 H     1 <1>   0.0800 
 57 H        9.2300     5.3100     1.7850 H     1 <1>   0.1500 
@<TRIPOS>BOND
  1   1   2  2   
  2   1   3  2   
  3   1   4  am  
  4   1   5  1   
  5   4   6  1   
  6   4   7  1   
  7   5   8  1   
  8   5  28  1   
  9   5  29  1   
 10   6  30  1   
 11   6  31  1   
 12   6  32  1   
 13   7  33  1   
 14   7  34  1   
 15   7  35  1   
 16   8   9  1   
 17   8  10  1   
 18   8  36  1   
 19   9  11  1   
 20   9  12  1   
 21   9  37  1   
 22  10  13  1   
 23  10  38  1   
 24  10  39  1   
 25  11  14  am  
 26  11  40  1   
 27  12  13  1   
 28  12  41  1   
 29  12  42  1   
 30  14  15  2   
 31  14  16  1   
 32  16  17  1   
 33  16  18  1   
 34  16  19  1   
 35  17  20  ar  
 36  17  21  ar  
 37  18  22  1   
 38  18  43  1   
 39  18  44  1   
 40  19  23  1   
 41  19  45  1   
 42  19  46  1   
 43  20  24  ar  
 44  20  47  1   
 45  21  25  ar  
 46  21  48  1   
 47  22  26  1   
 48  22  49  1   
 49  22  50  1   
 50  23  26  1   
 51  23  51  1   
 52  23  52  1   
 53  24  27  ar  
 54  24  53  1   
 55  25  27  ar  
 56  25  54  1   
 57  26  55  1   
 58  26  56  1   
 59  27  57  1   
@<TRIPOS>SUBSTRUCTURE
  1 ****  11 GROUP 4 **** **** 0

# MOE 2024.06 (io_trps.svl 2023.06)
