@<TRIPOS>MOLECULE
NONAME
56 59 1 0 0 
SMALL
USER_CHARGES


@<TRIPOS>ATOM
  1 O       -2.9710    -2.1550    -1.6020 O.2   1 <1>  -0.5700 
  2 C       -2.2370    -1.9100    -0.6760 C.2   1 <1>   0.5690 
  3 N       -1.3660    -2.8640    -0.2210 N.am  1 <1>  -0.6600 
  4 C       -2.3330    -0.5580     0.0240 C.3   1 <1>  -0.0190 
  5 C       -1.4520    -3.3200     1.2040 C.3   1 <1>   0.2200 
  6 C       -0.7440    -3.7860    -1.2100 C.3   1 <1>   0.1400 
  7 C       -3.6040    -0.3900     0.8840 C.3   1 <1>  -0.0220 
  8 C       -2.2940     0.6520    -0.9360 C.3   1 <1>  -0.0220 
  9 C       -0.2560    -4.2050     1.6450 C.3   1 <1>   0.1200 
 10 C       -2.8310    -4.0010     1.4370 C.3   1 <1>   0.3430 
 11 C       -1.1720    -5.2400    -0.9940 C.3   1 <1>  -0.0800 
 12 C       -3.9310     1.0710     0.7100 C.2   1 <1>  -0.2880 
 13 C       -3.2280     1.6300    -0.2670 C.2   1 <1>  -0.2880 
 14 O       -0.4400    -5.5620     1.3340 O.3   1 <1>  -0.5600 
 15 N       -3.0050    -5.3280     0.7530 N.4   1 <1>  -0.9590 
 16 C       -0.2340    -5.9560     0.0060 C.3   1 <1>   0.1200 
 17 C       -2.6870    -5.3540    -0.7120 C.3   1 <1>   0.3430 
 18 C       -4.2930    -5.9900     1.0750 C.3   1 <1>   0.4860 
 19 C       -4.2050    -7.4400     0.6380 C.ar  1 <1>  -0.1430 
 20 C       -3.2330    -8.2720     1.1760 C.ar  1 <1>  -0.1500 
 21 C       -5.0800    -7.9440    -0.3160 C.ar  1 <1>  -0.1500 
 22 C       -3.1320    -9.5800     0.7450 C.ar  1 <1>   0.0830 
 23 C       -4.9830    -9.2610    -0.7390 C.ar  1 <1>  -0.1500 
 24 O       -2.1740   -10.3640     1.2600 O.3   1 <1>  -0.5330 
 25 C       -4.0010   -10.0940    -0.2110 C.ar  1 <1>   0.0830 
 26 O       -3.8320   -11.3970    -0.5750 O.3   1 <1>  -0.3630 
 27 C       -4.7180   -12.0220    -1.4790 C.3   1 <1>   0.0400 
 28 H       -1.4860    -0.4450     0.6760 H     1 <1>   0.0800 
 29 H       -1.4190    -2.4390     1.8200 H     1 <1>   0.0800 
 30 H       -1.0290    -3.4840    -2.2060 H     1 <1>   0.0800 
 31 H        0.3280    -3.6960    -1.1560 H     1 <1>   0.0800 
 32 H       -4.4210    -0.9810     0.5070 H     1 <1>   0.0800 
 33 H       -3.4160    -0.6250     1.9170 H     1 <1>   0.0800 
 34 H       -1.2980     1.0500    -1.0210 H     1 <1>   0.0800 
 35 H       -2.6740     0.4070    -1.9130 H     1 <1>   0.0800 
 36 H       -0.1670    -4.1550     2.7160 H     1 <1>   0.0800 
 37 H        0.6730    -3.8580     1.2240 H     1 <1>   0.0800 
 38 H       -3.6040    -3.3270     1.1090 H     1 <1>   0.0800 
 39 H       -2.9520    -4.1440     2.4980 H     1 <1>   0.0800 
 40 H       -1.0060    -5.7210    -1.9410 H     1 <1>   0.0800 
 41 H       -4.6770     1.5220     1.3430 H     1 <1>   0.1500 
 42 H       -3.2590     2.6460    -0.6250 H     1 <1>   0.1500 
 43 H       -2.2540    -5.9170     1.1620 H     1 <1>   0.4500 
 44 H        0.8000    -5.7810    -0.2410 H     1 <1>   0.0800 
 45 H       -0.4050    -7.0200    -0.0350 H     1 <1>   0.0800 
 46 H       -3.0210    -6.2920    -1.1260 H     1 <1>   0.0800 
 47 H       -3.2150    -4.5650    -1.2240 H     1 <1>   0.0800 
 48 H       -4.4760    -5.9520     2.1360 H     1 <1>   0.0800 
 49 H       -5.1030    -5.4950     0.5650 H     1 <1>   0.0800 
 50 H       -2.5410    -7.9320     1.9270 H     1 <1>   0.1500 
 51 H       -5.8480    -7.3200    -0.7430 H     1 <1>   0.1500 
 52 H       -5.6770    -9.6190    -1.4770 H     1 <1>   0.1500 
 53 H       -2.2460   -11.2630     0.8780 H     1 <1>   0.4500 
 54 H       -4.4120   -13.0470    -1.5930 H     1 <1>   0.0800 
 55 H       -4.6630   -11.5190    -2.4290 H     1 <1>   0.0800 
 56 H       -5.7150   -11.9820    -1.0780 H     1 <1>   0.0800 
@<TRIPOS>BOND
  1   1   2  2   
  2   2   3  am  
  3   2   4  1   
  4   3   5  1   
  5   3   6  1   
  6   4   7  1   
  7   4   8  1   
  8   4  28  1   
  9   5   9  1   
 10   5  10  1   
 11   5  29  1   
 12   6  11  1   
 13   6  30  1   
 14   6  31  1   
 15   7  12  1   
 16   7  32  1   
 17   7  33  1   
 18   8  13  1   
 19   8  34  1   
 20   8  35  1   
 21   9  14  1   
 22   9  36  1   
 23   9  37  1   
 24  10  15  1   
 25  10  38  1   
 26  10  39  1   
 27  11  16  1   
 28  11  17  1   
 29  11  40  1   
 30  12  13  2   
 31  12  41  1   
 32  13  42  1   
 33  14  16  1   
 34  15  17  1   
 35  15  18  1   
 36  15  43  1   
 37  16  44  1   
 38  16  45  1   
 39  17  46  1   
 40  17  47  1   
 41  18  19  1   
 42  18  48  1   
 43  18  49  1   
 44  19  20  ar  
 45  19  21  ar  
 46  20  22  ar  
 47  20  50  1   
 48  21  23  ar  
 49  21  51  1   
 50  22  24  1   
 51  22  25  ar  
 52  23  25  ar  
 53  23  52  1   
 54  24  53  1   
 55  25  26  1   
 56  26  27  1   
 57  27  54  1   
 58  27  55  1   
 59  27  56  1   
@<TRIPOS>SUBSTRUCTURE
  1 ****  15 GROUP 4 **** **** 0

# MOE 2024.06 (io_trps.svl 2023.06)
