@<TRIPOS>MOLECULE
NONAME
64 67 1 0 0 
SMALL
USER_CHARGES


@<TRIPOS>ATOM
  1 O       -1.7020     1.2880     2.8760 O.2   1 <1>  -0.5700 
  2 C       -2.3880     1.3710     1.8850 C.2   1 <1>   0.5690 
  3 N       -3.5380     0.6410     1.7330 N.am  1 <1>  -0.6600 
  4 C       -1.9280     2.3240     0.7850 C.3   1 <1>  -0.0990 
  5 C       -4.4430     0.6690     0.5490 C.3   1 <1>   0.1400 
  6 C       -4.0070    -0.2900     2.8010 C.3   1 <1>   0.1400 
  7 C       -0.6280     3.0770     1.1330 C.3   1 <1>  -0.1600 
  8 C       -4.5280    -0.7370    -0.0500 C.3   1 <1>  -0.1600 
  9 C       -4.1050    -1.7080     2.2320 C.3   1 <1>  -0.1600 
 10 C       -0.1880     4.0130     0.0100 C.3   1 <1>   0.3430 
 11 C       -5.0040    -1.7680     0.9880 C.3   1 <1>   0.4240 
 12 N        1.0020     4.7930     0.4400 N.4   1 <1>  -0.9590 
 13 O       -6.2810    -1.3760     1.4330 O.3   1 <1>  -0.5600 
 14 C       -5.0150    -3.1940     0.3980 C.ar  1 <1>  -0.1440 
 15 C        1.3670     5.8690    -0.5120 C.3   1 <1>   0.3430 
 16 C        2.2330     3.9820     0.6260 C.3   1 <1>   0.3430 
 17 C       -7.3800    -1.7650     0.6690 C.3   1 <1>   0.1200 
 18 C       -6.1950    -3.9150     0.2730 C.ar  1 <1>  -0.1440 
 19 C       -3.8350    -3.7880    -0.0320 C.ar  1 <1>  -0.1500 
 20 C        2.8030     6.2220    -0.1520 C.3   1 <1>  -0.1600 
 21 C        3.3670     4.9970     0.5740 C.3   1 <1>  -0.1600 
 22 C       -7.5000    -3.2850     0.7150 C.3   1 <1>  -0.0170 
 23 C       -6.1860    -5.1980    -0.2500 C.ar  1 <1>  -0.1500 
 24 C       -3.8070    -5.0640    -0.5700 C.ar  1 <1>   0.0820 
 25 C       -5.0020    -5.7960    -0.6700 C.ar  1 <1>   0.0820 
 26 O       -2.5670    -5.4840    -0.9560 O.3   1 <1>  -0.3630 
 27 O       -4.9900    -7.0730    -1.1570 O.3   1 <1>  -0.3620 
 28 C       -2.3850    -6.4690    -1.9480 C.3   1 <1>   0.0400 
 29 C       -6.1010    -7.9330    -1.0310 C.3   1 <1>   0.0400 
 30 H       -2.7150     3.0350     0.6120 H     1 <1>   0.0800 
 31 H       -1.7790     1.7480    -0.1100 H     1 <1>   0.0800 
 32 H       -4.0950     1.3550    -0.2000 H     1 <1>   0.0800 
 33 H       -5.4220     0.9900     0.8650 H     1 <1>   0.0800 
 34 H       -4.9730     0.0330     3.1520 H     1 <1>   0.0800 
 35 H       -3.3320    -0.2860     3.6400 H     1 <1>   0.0800 
 36 H        0.1410     2.3490     1.3280 H     1 <1>   0.0800 
 37 H       -0.7950     3.6460     2.0320 H     1 <1>   0.0800 
 38 H       -3.5530    -1.0120    -0.4080 H     1 <1>   0.0800 
 39 H       -5.1860    -0.7390    -0.8970 H     1 <1>   0.0800 
 40 H       -4.4960    -2.3740     2.9800 H     1 <1>   0.0800 
 41 H       -3.1130    -2.0400     1.9930 H     1 <1>   0.0800 
 42 H       -0.9970     4.6880    -0.2220 H     1 <1>   0.0800 
 43 H        0.0420     3.4420    -0.8760 H     1 <1>   0.0800 
 44 H        0.7950     5.2390     1.3450 H     1 <1>   0.4500 
 45 H        0.7120     6.7210    -0.4260 H     1 <1>   0.0800 
 46 H        1.3330     5.4900    -1.5220 H     1 <1>   0.0800 
 47 H        2.3370     3.2840    -0.1890 H     1 <1>   0.0800 
 48 H        2.2200     3.4440     1.5610 H     1 <1>   0.0800 
 49 H       -7.2520    -1.4170    -0.3410 H     1 <1>   0.0800 
 50 H       -8.2560    -1.3050     1.0930 H     1 <1>   0.0800 
 51 H       -2.9020    -3.2620     0.0410 H     1 <1>   0.1500 
 52 H        2.8150     7.0810     0.4970 H     1 <1>   0.0800 
 53 H        3.3670     6.4570    -1.0380 H     1 <1>   0.0800 
 54 H        4.2170     4.5820     0.0590 H     1 <1>   0.0800 
 55 H        3.6690     5.2570     1.5740 H     1 <1>   0.0800 
 56 H       -8.3030    -3.5950     0.0710 H     1 <1>   0.0800 
 57 H       -7.7310    -3.5950     1.7190 H     1 <1>   0.0800 
 58 H       -7.1210    -5.7180    -0.3240 H     1 <1>   0.1500 
 59 H       -1.3660    -6.4200    -2.2860 H     1 <1>   0.0800 
 60 H       -3.0550    -6.2730    -2.7660 H     1 <1>   0.0800 
 61 H       -2.5780    -7.4350    -1.5170 H     1 <1>   0.0800 
 62 H       -5.8090    -8.9070    -1.3790 H     1 <1>   0.0800 
 63 H       -6.9060    -7.5560    -1.6360 H     1 <1>   0.0800 
 64 H       -6.3860    -7.9870     0.0050 H     1 <1>   0.0800 
@<TRIPOS>BOND
  1   1   2  2   
  2   2   3  am  
  3   2   4  1   
  4   3   5  1   
  5   3   6  1   
  6   4   7  1   
  7   4  30  1   
  8   4  31  1   
  9   5   8  1   
 10   5  32  1   
 11   5  33  1   
 12   6   9  1   
 13   6  34  1   
 14   6  35  1   
 15   7  10  1   
 16   7  36  1   
 17   7  37  1   
 18   8  11  1   
 19   8  38  1   
 20   8  39  1   
 21   9  11  1   
 22   9  40  1   
 23   9  41  1   
 24  10  12  1   
 25  10  42  1   
 26  10  43  1   
 27  11  13  1   
 28  11  14  1   
 29  12  15  1   
 30  12  16  1   
 31  12  44  1   
 32  13  17  1   
 33  14  18  ar  
 34  14  19  ar  
 35  15  20  1   
 36  15  45  1   
 37  15  46  1   
 38  16  21  1   
 39  16  47  1   
 40  16  48  1   
 41  17  22  1   
 42  17  49  1   
 43  17  50  1   
 44  18  22  1   
 45  18  23  ar  
 46  19  24  ar  
 47  19  51  1   
 48  20  21  1   
 49  20  52  1   
 50  20  53  1   
 51  21  54  1   
 52  21  55  1   
 53  22  56  1   
 54  22  57  1   
 55  23  25  ar  
 56  23  58  1   
 57  24  25  ar  
 58  24  26  1   
 59  25  27  1   
 60  26  28  1   
 61  27  29  1   
 62  28  59  1   
 63  28  60  1   
 64  28  61  1   
 65  29  62  1   
 66  29  63  1   
 67  29  64  1   
@<TRIPOS>SUBSTRUCTURE
  1 ****   8 GROUP 4 **** **** 0

# MOE 2024.06 (io_trps.svl 2023.06)
