@<TRIPOS>MOLECULE
NONAME
47 49 1 0 0 
SMALL
USER_CHARGES


@<TRIPOS>ATOM
  1 CL      -1.1950     1.0080     1.9740 Cl    1 <1>  -0.1770 
  2 C       -2.3290     1.6090     0.7870 C.ar  1 <1>   0.1770 
  3 C       -2.2630     2.9130     0.3270 C.ar  1 <1>   0.1900 
  4 C       -3.3100     0.7590     0.3080 C.ar  1 <1>  -0.1500 
  5 F       -1.3420     3.7210     0.7790 F     1 <1>  -0.1900 
  6 C       -3.1620     3.3890    -0.6090 C.ar  1 <1>  -0.1500 
  7 C       -4.2270     1.2220    -0.6300 C.ar  1 <1>  -0.1440 
  8 C       -4.1450     2.5350    -1.0860 C.ar  1 <1>  -0.1500 
  9 C       -5.3170     0.2980    -1.1480 C.3   1 <1>   0.4870 
 10 N       -6.6220     0.7360    -0.5950 N.4   1 <1>  -0.9590 
 11 C       -6.7070     0.6940     0.8870 C.3   1 <1>   0.3430 
 12 C       -7.7910     0.0720    -1.2320 C.3   1 <1>   0.3430 
 13 C       -7.8910     1.5470     1.3530 C.3   1 <1>  -0.1600 
 14 C       -9.1070     0.5370    -0.5930 C.3   1 <1>  -0.1600 
 15 C       -8.9600     1.8080     0.2690 C.3   1 <1>   0.2800 
 16 O       -8.4150     2.7960    -0.5880 O.3   1 <1>  -0.5600 
 17 C      -10.2960     2.2640     0.9350 C.3   1 <1>   0.2000 
 18 C       -9.1160     3.9960    -0.7790 C.3   1 <1>   0.1200 
 19 O      -10.8920     1.2080     1.6310 O.3   1 <1>  -0.6800 
 20 C      -11.2970     2.9600    -0.0370 C.3   1 <1>   0.2800 
 21 C      -10.5560     3.6750    -1.1790 C.3   1 <1>  -0.1600 
 22 O      -11.9410     3.9310     0.7020 O.3   1 <1>  -0.6800 
 23 C      -12.4200     2.0720    -0.5940 C.3   1 <1>  -0.2400 
 24 H       -3.3370    -0.2520     0.6770 H     1 <1>   0.1500 
 25 H       -3.0870     4.4060    -0.9530 H     1 <1>   0.1500 
 26 H       -4.8420     2.9100    -1.8190 H     1 <1>   0.1500 
 27 H       -5.1120    -0.7190    -0.8540 H     1 <1>   0.0800 
 28 H       -5.3380     0.3450    -2.2250 H     1 <1>   0.0800 
 29 H       -6.7480     1.7420    -0.8190 H     1 <1>   0.4500 
 30 H       -6.8430    -0.3250     1.2110 H     1 <1>   0.0800 
 31 H       -5.8020     1.0750     1.3320 H     1 <1>   0.0800 
 32 H       -7.8090     0.3210    -2.2810 H     1 <1>   0.0800 
 33 H       -7.7090    -1.0000    -1.1420 H     1 <1>   0.0800 
 34 H       -7.5330     2.4870     1.7320 H     1 <1>   0.0800 
 35 H       -8.3380     1.0330     2.1860 H     1 <1>   0.0800 
 36 H       -9.4820    -0.2640     0.0190 H     1 <1>   0.0800 
 37 H       -9.8300     0.6930    -1.3700 H     1 <1>   0.0800 
 38 H      -10.0240     2.9880     1.6840 H     1 <1>   0.0800 
 39 H       -9.0790     4.5750     0.1300 H     1 <1>   0.0800 
 40 H       -8.6210     4.5470    -1.5600 H     1 <1>   0.0800 
 41 H      -11.7030     1.5450     2.0690 H     1 <1>   0.4000 
 42 H      -10.5190     3.0470    -2.0510 H     1 <1>   0.0800 
 43 H      -11.0700     4.5770    -1.4590 H     1 <1>   0.0800 
 44 H      -12.6620     4.3270     0.1760 H     1 <1>   0.4000 
 45 H      -12.0110     1.2320    -1.1230 H     1 <1>   0.0800 
 46 H      -13.0370     2.6250    -1.2790 H     1 <1>   0.0800 
 47 H      -13.0380     1.6920     0.1990 H     1 <1>   0.0800 
@<TRIPOS>BOND
  1   1   2  1   
  2   2   3  ar  
  3   2   4  ar  
  4   3   5  1   
  5   3   6  ar  
  6   4   7  ar  
  7   4  24  1   
  8   6   8  ar  
  9   6  25  1   
 10   7   8  ar  
 11   7   9  1   
 12   8  26  1   
 13   9  10  1   
 14   9  27  1   
 15   9  28  1   
 16  10  11  1   
 17  10  12  1   
 18  10  29  1   
 19  11  13  1   
 20  11  30  1   
 21  11  31  1   
 22  12  14  1   
 23  12  32  1   
 24  12  33  1   
 25  13  15  1   
 26  13  34  1   
 27  13  35  1   
 28  14  15  1   
 29  14  36  1   
 30  14  37  1   
 31  15  16  1   
 32  15  17  1   
 33  16  18  1   
 34  17  19  1   
 35  17  20  1   
 36  17  38  1   
 37  18  21  1   
 38  18  39  1   
 39  18  40  1   
 40  19  41  1   
 41  20  21  1   
 42  20  22  1   
 43  20  23  1   
 44  21  42  1   
 45  21  43  1   
 46  22  44  1   
 47  23  45  1   
 48  23  46  1   
 49  23  47  1   
@<TRIPOS>SUBSTRUCTURE
  1 ****  10 GROUP 4 **** **** 0

# MOE 2024.06 (io_trps.svl 2023.06)
