@<TRIPOS>MOLECULE
NONAME
50 52 1 0 0 
SMALL
USER_CHARGES


@<TRIPOS>ATOM
  1 O        1.7940     0.0550    -2.2150 O.2   1 <1>  -0.5700 
  2 C        1.8170    -0.3590    -1.0750 C.2   1 <1>   0.5440 
  3 N        1.7270     0.5530    -0.0390 N.am  1 <1>  -0.6600 
  4 C        2.0270    -1.7640    -0.8170 C.ar  1 <1>   0.0860 
  5 C        2.2890     0.2780     1.3150 C.3   1 <1>   0.1400 
  6 C        1.2970     1.9570    -0.2830 C.3   1 <1>   0.1400 
  7 C        3.2150    -2.4050    -1.1520 C.ar  1 <1>   0.1660 
  8 C        1.0770    -2.5500    -0.1760 C.ar  1 <1>   0.1660 
  9 C        3.8280     0.3710     1.2930 C.3   1 <1>   0.3430 
 10 C        2.4640     2.9370    -0.1160 C.3   1 <1>  -0.1600 
 11 N        3.4630    -3.6480    -0.8130 N.ar  1 <1>  -0.6200 
 12 C        4.3250    -1.7280    -1.9420 C.3   1 <1>  -0.0960 
 13 N        1.3120    -3.7950     0.1700 N.ar  1 <1>  -0.6200 
 14 C       -0.3100    -2.0350     0.1810 C.3   1 <1>  -0.0970 
 15 N        4.3800     1.7290     0.9250 N.4   1 <1>  -0.9590 
 16 C        3.8440     2.3150    -0.3470 C.3   1 <1>   0.3430 
 17 C        2.4940    -4.2770    -0.1720 C.ar  1 <1>   0.4700 
 18 C        5.8850     1.7510     0.9630 C.3   1 <1>   0.3430 
 19 C        6.5980     0.7160     0.0650 C.3   1 <1>  -0.0800 
 20 C        8.0640     0.7200     0.4690 C.3   1 <1>   0.1200 
 21 C        6.7320     1.1360    -1.4010 C.3   1 <1>  -0.1600 
 22 O        8.5520     1.8570    -0.1480 O.3   1 <1>  -0.5600 
 23 C        8.0300     1.9450    -1.4340 C.3   1 <1>   0.1200 
 24 H        2.0030    -0.7090     1.6330 H     1 <1>   0.0800 
 25 H        1.8860     0.9720     2.0330 H     1 <1>   0.0800 
 26 H        0.4980     2.2120     0.3940 H     1 <1>   0.0800 
 27 H        0.9000     2.0470    -1.2810 H     1 <1>   0.0800 
 28 H        4.1870    -0.3650     0.5940 H     1 <1>   0.0800 
 29 H        4.1960     0.0940     2.2670 H     1 <1>   0.0800 
 30 H        2.4170     3.4110     0.8480 H     1 <1>   0.0800 
 31 H        2.3230     3.7170    -0.8440 H     1 <1>   0.0800 
 32 H        4.3230    -0.6630    -1.8170 H     1 <1>   0.0800 
 33 H        4.1950    -1.9500    -2.9860 H     1 <1>   0.0800 
 34 H        5.2830    -2.1080    -1.6330 H     1 <1>   0.0800 
 35 H       -0.5920    -1.1910    -0.4210 H     1 <1>   0.0800 
 36 H       -0.3420    -1.7580     1.2180 H     1 <1>   0.0800 
 37 H       -1.0350    -2.8120     0.0160 H     1 <1>   0.0800 
 38 H        4.0750     2.3790     1.6620 H     1 <1>   0.4500 
 39 H        4.5100     3.0940    -0.6800 H     1 <1>   0.0800 
 40 H        3.7910     1.5670    -1.1230 H     1 <1>   0.0800 
 41 H        2.6880    -5.3020     0.1020 H     1 <1>   0.1500 
 42 H        6.1980     1.5710     1.9780 H     1 <1>   0.0800 
 43 H        6.2420     2.7340     0.6980 H     1 <1>   0.0800 
 44 H        6.2000    -0.2740     0.1840 H     1 <1>   0.0800 
 45 H        8.5910    -0.1320     0.0720 H     1 <1>   0.0800 
 46 H        8.2290     0.7900     1.5310 H     1 <1>   0.0800 
 47 H        5.9140     1.7060    -1.7930 H     1 <1>   0.0800 
 48 H        6.8610     0.2680    -2.0250 H     1 <1>   0.0800 
 49 H        7.8650     2.9850    -1.6630 H     1 <1>   0.0800 
 50 H        8.7460     1.5270    -2.1230 H     1 <1>   0.0800 
@<TRIPOS>BOND
  1   1   2  2   
  2   2   3  am  
  3   2   4  1   
  4   3   5  1   
  5   3   6  1   
  6   4   7  ar  
  7   4   8  ar  
  8   5   9  1   
  9   5  24  1   
 10   5  25  1   
 11   6  10  1   
 12   6  26  1   
 13   6  27  1   
 14   7  11  ar  
 15   7  12  1   
 16   8  13  ar  
 17   8  14  1   
 18   9  15  1   
 19   9  28  1   
 20   9  29  1   
 21  10  16  1   
 22  10  30  1   
 23  10  31  1   
 24  11  17  ar  
 25  12  32  1   
 26  12  33  1   
 27  12  34  1   
 28  13  17  ar  
 29  14  35  1   
 30  14  36  1   
 31  14  37  1   
 32  15  16  1   
 33  15  18  1   
 34  15  38  1   
 35  16  39  1   
 36  16  40  1   
 37  17  41  1   
 38  18  19  1   
 39  18  42  1   
 40  18  43  1   
 41  19  20  1   
 42  19  21  1   
 43  19  44  1   
 44  20  22  1   
 45  20  45  1   
 46  20  46  1   
 47  21  23  1   
 48  21  47  1   
 49  21  48  1   
 50  22  23  1   
 51  23  49  1   
 52  23  50  1   
@<TRIPOS>SUBSTRUCTURE
  1 ****   9 GROUP 4 **** **** 0

# MOE 2024.06 (io_trps.svl 2023.06)
