@<TRIPOS>MOLECULE
NONAME
48 50 1 0 0 
SMALL
USER_CHARGES


@<TRIPOS>ATOM
  1 O        0.5870     0.5310     0.8560 O.3   1 <1>  -0.0190 
  2 N        1.3740    -0.4490     0.5170 N.2   1 <1>  -0.4100 
  3 C        0.8000     1.6020     0.1370 C.2   1 <1>  -0.0400 
  4 C        2.1060    -0.0030    -0.4390 C.2   1 <1>   0.1080 
  5 C        1.7820     1.3180    -0.7340 C.2   1 <1>  -0.1500 
  6 C       -0.0380     2.8400     0.4050 C.3   1 <1>   0.0200 
  7 C        3.1710    -0.8140    -1.1420 C.3   1 <1>  -0.0590 
  8 C        0.4480     4.0770    -0.3730 C.3   1 <1>  -0.0800 
  9 C       -0.4530     5.3030    -0.2480 C.3   1 <1>   0.2000 
 10 C        1.8100     4.5900     0.0920 C.3   1 <1>   0.2090 
 11 O       -0.8580     5.4340     1.0870 O.3   1 <1>  -0.5600 
 12 C        0.4760     6.4610    -0.6380 C.3   1 <1>   0.2090 
 13 N        1.8680     6.0310    -0.3000 N.pl3 1 <1>  -0.8380 
 14 C       -2.0050     6.1980     1.2900 C.3   1 <1>   0.0400 
 15 C        2.9470     6.8140    -0.0360 C.ar  1 <1>   0.4100 
 16 N        3.8770     6.2320     0.7360 N.ar  1 <1>  -0.6200 
 17 C        3.1390     8.1470    -0.4830 C.ar  1 <1>  -0.1440 
 18 C        4.8840     6.9260     1.1520 C.ar  1 <1>   0.5280 
 19 C        4.2130     8.8520     0.0070 C.ar  1 <1>   0.2180 
 20 C        2.2090     8.7810    -1.5240 C.3   1 <1>  -0.0970 
 21 N        5.0690     8.2150     0.8290 N.ar  1 <1>  -0.1790 
 22 C        5.9010     6.2490     2.0470 C.3   1 <1>  -0.0970 
 23 C        4.5320    10.3080    -0.3130 C.3   1 <1>  -0.0970 
 24 H        2.2390     1.9230    -1.4930 H     1 <1>   0.1500 
 25 H       -1.0570     2.6250     0.1360 H     1 <1>   0.0800 
 26 H       -0.0180     3.0440     1.4620 H     1 <1>   0.0800 
 27 H        4.1120    -0.2980    -1.0970 H     1 <1>   0.0800 
 28 H        2.8950    -0.9630    -2.1700 H     1 <1>   0.0800 
 29 H        3.2760    -1.7720    -0.6670 H     1 <1>   0.0800 
 30 H        0.5250     3.8280    -1.4160 H     1 <1>   0.0800 
 31 H       -1.3210     5.2310    -0.8810 H     1 <1>   0.0800 
 32 H        2.6180     4.0390    -0.3560 H     1 <1>   0.0800 
 33 H        1.8810     4.5180     1.1650 H     1 <1>   0.0800 
 34 H        0.2070     7.3620    -0.1170 H     1 <1>   0.0800 
 35 H        0.4030     6.6110    -1.7000 H     1 <1>   0.0800 
 36 H       -2.2000     6.2300     2.3470 H     1 <1>   0.0800 
 37 H       -2.8350     5.7350     0.7850 H     1 <1>   0.0800 
 38 H       -1.8450     7.1970     0.9230 H     1 <1>   0.0800 
 39 H        2.6710     9.6000    -2.0440 H     1 <1>   0.0800 
 40 H        1.3090     9.1410    -1.0580 H     1 <1>   0.0800 
 41 H        1.9580     8.0580    -2.2780 H     1 <1>   0.0800 
 42 H        5.8800     8.7010     1.2060 H     1 <1>   0.4570 
 43 H        5.6140     5.2270     2.2220 H     1 <1>   0.0800 
 44 H        5.9550     6.7480     2.9970 H     1 <1>   0.0800 
 45 H        6.8700     6.2510     1.5820 H     1 <1>   0.0800 
 46 H        3.6310    10.8770    -0.4580 H     1 <1>   0.0800 
 47 H        5.1260    10.3670    -1.2090 H     1 <1>   0.0800 
 48 H        5.0730    10.7740     0.4910 H     1 <1>   0.0800 
@<TRIPOS>BOND
  1   1   2  1   
  2   1   3  1   
  3   2   4  2   
  4   3   5  2   
  5   3   6  1   
  6   4   5  1   
  7   4   7  1   
  8   5  24  1   
  9   6   8  1   
 10   6  25  1   
 11   6  26  1   
 12   7  27  1   
 13   7  28  1   
 14   7  29  1   
 15   8   9  1   
 16   8  10  1   
 17   8  30  1   
 18   9  11  1   
 19   9  12  1   
 20   9  31  1   
 21  10  13  1   
 22  10  32  1   
 23  10  33  1   
 24  11  14  1   
 25  12  13  1   
 26  12  34  1   
 27  12  35  1   
 28  13  15  1   
 29  14  36  1   
 30  14  37  1   
 31  14  38  1   
 32  15  16  ar  
 33  15  17  ar  
 34  16  18  ar  
 35  17  19  ar  
 36  17  20  1   
 37  18  21  ar  
 38  18  22  1   
 39  19  21  ar  
 40  19  23  1   
 41  20  39  1   
 42  20  40  1   
 43  20  41  1   
 44  21  42  1   
 45  22  43  1   
 46  22  44  1   
 47  22  45  1   
 48  23  46  1   
 49  23  47  1   
 50  23  48  1   
@<TRIPOS>SUBSTRUCTURE
  1 ****  10 GROUP 4 **** **** 0

# MOE 2024.06 (io_trps.svl 2023.06)
