@<TRIPOS>MOLECULE
NONAME
49 51 1 0 0 
SMALL
USER_CHARGES


@<TRIPOS>ATOM
  1 CL       0.7760     0.5650     2.2510 Cl    1 <1>  -0.1770 
  2 C        1.7380    -0.6440     1.4410 C.ar  1 <1>   0.1770 
  3 C        2.7480    -0.2460     0.5900 C.ar  1 <1>  -0.1500 
  4 C        1.4620    -1.9780     1.6630 C.ar  1 <1>  -0.1500 
  5 C        3.5160    -1.2050    -0.0640 C.ar  1 <1>   0.0830 
  6 C        2.2230    -2.9450     1.0240 C.ar  1 <1>  -0.1440 
  7 O        4.4900    -0.8480    -0.9490 O.3   1 <1>  -0.3620 
  8 C        3.2610    -2.5680     0.1740 C.ar  1 <1>   0.0830 
  9 C        1.9130    -4.4130     1.2530 C.3   1 <1>   0.4870 
 10 C        4.7670     0.5010    -1.2640 C.3   1 <1>   0.0400 
 11 O        3.9660    -3.5900    -0.3980 O.3   1 <1>  -0.3630 
 12 N        1.5540    -5.0270    -0.0510 N.4   1 <1>  -0.9590 
 13 C        5.3690    -3.4910    -0.5580 C.3   1 <1>   0.0400 
 14 C        0.2570    -4.4850    -0.5630 C.3   1 <1>   0.3430 
 15 C        1.4020    -6.5070     0.0660 C.3   1 <1>   0.3430 
 16 C       -0.7950    -5.5300    -0.1830 C.3   1 <1>   0.2000 
 17 C       -0.0290    -6.8400    -0.3740 C.3   1 <1>  -0.0800 
 18 O       -1.1150    -5.3600     1.1630 O.3   1 <1>  -0.6800 
 19 C       -0.6030    -8.0810     0.3340 C.3   1 <1>  -0.0170 
 20 C        0.3350    -9.2640     0.1590 C.ar  1 <1>  -0.1430 
 21 C        1.0950    -9.7540     1.2030 C.ar  1 <1>  -0.1500 
 22 C        0.4800    -9.9060    -1.0550 C.ar  1 <1>  -0.1500 
 23 C        1.9530   -10.8190     0.9840 C.ar  1 <1>   0.1600 
 24 C        1.3690   -10.9620    -1.1690 C.ar  1 <1>   0.1600 
 25 N        2.1140   -11.4250    -0.1800 N.ar  1 <1>  -0.6200 
 26 H        2.9040     0.8070     0.4560 H     1 <1>   0.1500 
 27 H        0.6580    -2.2380     2.3310 H     1 <1>   0.1500 
 28 H        1.1000    -4.5220     1.9530 H     1 <1>   0.0800 
 29 H        2.7880    -4.8960     1.6580 H     1 <1>   0.0800 
 30 H        5.5610     0.5190    -1.9890 H     1 <1>   0.0800 
 31 H        5.0790     1.0140    -0.3710 H     1 <1>   0.0800 
 32 H        3.8840     0.9530    -1.6810 H     1 <1>   0.0800 
 33 H        2.3300    -4.7630    -0.6830 H     1 <1>   0.4500 
 34 H        5.7790    -4.4840    -0.5960 H     1 <1>   0.0800 
 35 H        5.7870    -2.9520     0.2740 H     1 <1>   0.0800 
 36 H        5.5800    -2.9810    -1.4810 H     1 <1>   0.0800 
 37 H        0.0190    -3.5200    -0.1470 H     1 <1>   0.0800 
 38 H        0.3030    -4.4050    -1.6360 H     1 <1>   0.0800 
 39 H        2.1200    -7.0270    -0.5490 H     1 <1>   0.0800 
 40 H        1.5390    -6.8120     1.0910 H     1 <1>   0.0800 
 41 H       -1.6920    -5.4510    -0.7750 H     1 <1>   0.0800 
 42 H        0.0090    -7.0480    -1.4290 H     1 <1>   0.0800 
 43 H       -1.9600    -5.8060     1.3840 H     1 <1>   0.4000 
 44 H       -1.5670    -8.3270    -0.0790 H     1 <1>   0.0800 
 45 H       -0.7370    -7.8930     1.3860 H     1 <1>   0.0800 
 46 H        1.0300    -9.3300     2.1890 H     1 <1>   0.1500 
 47 H       -0.0870    -9.6030    -1.9160 H     1 <1>   0.1500 
 48 H        2.5380   -11.1940     1.8080 H     1 <1>   0.1500 
 49 H        1.4710   -11.4530    -2.1220 H     1 <1>   0.1500 
@<TRIPOS>BOND
  1   1   2  1   
  2   2   3  ar  
  3   2   4  ar  
  4   3   5  ar  
  5   3  26  1   
  6   4   6  ar  
  7   4  27  1   
  8   5   7  1   
  9   5   8  ar  
 10   6   8  ar  
 11   6   9  1   
 12   7  10  1   
 13   8  11  1   
 14   9  12  1   
 15   9  28  1   
 16   9  29  1   
 17  10  30  1   
 18  10  31  1   
 19  10  32  1   
 20  11  13  1   
 21  12  14  1   
 22  12  15  1   
 23  12  33  1   
 24  13  34  1   
 25  13  35  1   
 26  13  36  1   
 27  14  16  1   
 28  14  37  1   
 29  14  38  1   
 30  15  17  1   
 31  15  39  1   
 32  15  40  1   
 33  16  17  1   
 34  16  18  1   
 35  16  41  1   
 36  17  19  1   
 37  17  42  1   
 38  18  43  1   
 39  19  20  1   
 40  19  44  1   
 41  19  45  1   
 42  20  21  ar  
 43  20  22  ar  
 44  21  23  ar  
 45  21  46  1   
 46  22  24  ar  
 47  22  47  1   
 48  23  25  ar  
 49  23  48  1   
 50  24  25  ar  
 51  24  49  1   
@<TRIPOS>SUBSTRUCTURE
  1 ****  12 GROUP 4 **** **** 0

# MOE 2024.06 (io_trps.svl 2023.06)
