@<TRIPOS>MOLECULE
NONAME
56 58 1 0 0 
SMALL
USER_CHARGES


@<TRIPOS>ATOM
  1 F       -1.4240     0.3700    -0.9780 F     1 <1>  -0.1900 
  2 C       -2.1720    -0.6480    -0.6040 C.ar  1 <1>   0.1900 
  3 C       -3.2160    -0.5000     0.3090 C.ar  1 <1>   0.4100 
  4 C       -1.9080    -1.8850    -1.1220 C.ar  1 <1>   0.1600 
  5 N       -3.9210    -1.5590     0.6640 N.ar  1 <1>  -0.6200 
  6 N       -3.5780     0.7160     0.8890 N.pl3 1 <1>  -0.8380 
  7 N       -2.6140    -2.9430    -0.7770 N.ar  1 <1>  -0.6200 
  8 C       -3.5760    -2.7100     0.1110 C.ar  1 <1>   0.7200 
  9 C       -4.2860     0.7510     2.1990 C.3   1 <1>   0.1290 
 10 C       -3.6860     1.9580     0.0770 C.3   1 <1>   0.1290 
 11 N       -4.3300    -3.7580     0.5170 N.pl3 1 <1>  -0.8690 
 12 C       -4.4920    -4.9860    -0.2820 C.3   1 <1>   0.2090 
 13 C       -5.4440    -5.9320     0.4550 C.3   1 <1>  -0.1600 
 14 C       -5.7160    -7.2610    -0.3010 C.3   1 <1>   0.1430 
 15 C       -4.3570    -7.9350    -0.6090 C.ar  1 <1>  -0.1430 
 16 C       -6.5500    -8.2210     0.5820 C.3   1 <1>  -0.1600 
 17 C       -6.5550    -7.0150    -1.5750 C.3   1 <1>  -0.1600 
 18 C       -3.8760    -8.1320    -1.9030 C.ar  1 <1>  -0.1500 
 19 C       -3.5540    -8.3570     0.4470 C.ar  1 <1>  -0.1500 
 20 C       -8.0770    -7.9610     0.6040 C.3   1 <1>   0.2800 
 21 C       -7.9740    -6.4940    -1.2950 C.3   1 <1>   0.1200 
 22 C       -2.6480    -8.7290    -2.1280 C.ar  1 <1>  -0.1500 
 23 C       -2.3250    -8.9550     0.2260 C.ar  1 <1>  -0.1500 
 24 O       -8.3740    -6.7320     0.0230 O.3   1 <1>  -0.5600 
 25 C       -8.8740    -9.0570    -0.1190 C.3   1 <1>  -0.2400 
 26 C       -8.5810    -7.8500     2.0430 C.3   1 <1>  -0.2400 
 27 C       -1.8700    -9.1430    -1.0640 C.ar  1 <1>  -0.1500 
 28 H       -1.1060    -2.0120    -1.8280 H     1 <1>   0.1500 
 29 H       -3.9840    -0.0860     2.8060 H     1 <1>   0.0800 
 30 H       -5.3490     0.6970     2.0390 H     1 <1>   0.0800 
 31 H       -4.0470     1.6590     2.7230 H     1 <1>   0.0800 
 32 H       -3.5980     1.7320    -0.9720 H     1 <1>   0.0800 
 33 H       -2.9020     2.6400     0.3560 H     1 <1>   0.0800 
 34 H       -4.6400     2.4270     0.2430 H     1 <1>   0.0800 
 35 H       -5.1550    -3.4440     1.0240 H     1 <1>   0.4000 
 36 H       -3.5280    -5.4500    -0.4160 H     1 <1>   0.0800 
 37 H       -4.8840    -4.7240    -1.2500 H     1 <1>   0.0800 
 38 H       -6.3640    -5.4140     0.6440 H     1 <1>   0.0800 
 39 H       -5.0030    -6.1530     1.4100 H     1 <1>   0.0800 
 40 H       -6.1680    -8.2040     1.5850 H     1 <1>   0.0800 
 41 H       -6.3900    -9.2260     0.2340 H     1 <1>   0.0800 
 42 H       -6.6570    -7.9450    -2.1040 H     1 <1>   0.0800 
 43 H       -6.0650    -6.3300    -2.2410 H     1 <1>   0.0800 
 44 H       -4.4360    -7.8260    -2.7660 H     1 <1>   0.1500 
 45 H       -3.8730    -8.2200     1.4640 H     1 <1>   0.1500 
 46 H       -8.6890    -6.9490    -1.9570 H     1 <1>   0.0800 
 47 H       -8.0090    -5.4280    -1.4390 H     1 <1>   0.0800 
 48 H       -2.2970    -8.8710    -3.1340 H     1 <1>   0.1500 
 49 H       -1.7240    -9.2710     1.0600 H     1 <1>   0.1500 
 50 H       -8.5160    -9.2030    -1.1210 H     1 <1>   0.0800 
 51 H       -9.9170    -8.7980    -0.1490 H     1 <1>   0.0800 
 52 H       -8.7720    -9.9900     0.4040 H     1 <1>   0.0800 
 53 H       -8.0730    -7.0510     2.5520 H     1 <1>   0.0800 
 54 H       -8.4010    -8.7660     2.5750 H     1 <1>   0.0800 
 55 H       -9.6370    -7.6500     2.0520 H     1 <1>   0.0800 
 56 H       -0.9150    -9.6060    -1.2390 H     1 <1>   0.1500 
@<TRIPOS>BOND
  1   1   2  1   
  2   2   3  ar  
  3   2   4  ar  
  4   3   5  ar  
  5   3   6  1   
  6   4   7  ar  
  7   4  28  1   
  8   5   8  ar  
  9   6   9  1   
 10   6  10  1   
 11   7   8  ar  
 12   8  11  1   
 13   9  29  1   
 14   9  30  1   
 15   9  31  1   
 16  10  32  1   
 17  10  33  1   
 18  10  34  1   
 19  11  12  1   
 20  11  35  1   
 21  12  13  1   
 22  12  36  1   
 23  12  37  1   
 24  13  14  1   
 25  13  38  1   
 26  13  39  1   
 27  14  15  1   
 28  14  16  1   
 29  14  17  1   
 30  15  18  ar  
 31  15  19  ar  
 32  16  20  1   
 33  16  40  1   
 34  16  41  1   
 35  17  21  1   
 36  17  42  1   
 37  17  43  1   
 38  18  22  ar  
 39  18  44  1   
 40  19  23  ar  
 41  19  45  1   
 42  20  24  1   
 43  20  25  1   
 44  20  26  1   
 45  21  24  1   
 46  21  46  1   
 47  21  47  1   
 48  22  27  ar  
 49  22  48  1   
 50  23  27  ar  
 51  23  49  1   
 52  25  50  1   
 53  25  51  1   
 54  25  52  1   
 55  26  53  1   
 56  26  54  1   
 57  26  55  1   
 58  27  56  1   
@<TRIPOS>SUBSTRUCTURE
  1 ****  12 GROUP 4 **** **** 0

# MOE 2024.06 (io_trps.svl 2023.06)
