@<TRIPOS>MOLECULE
NONAME
46 48 1 0 0 
SMALL
USER_CHARGES


@<TRIPOS>ATOM
  1 O       -1.4820    -0.2680     2.1230 O.2   1 <1>  -0.5700 
  2 C       -1.7080     0.2800     1.0600 C.2   1 <1>   0.7160 
  3 N       -2.5800    -0.3080     0.1800 N.am  1 <1>  -0.6600 
  4 C       -1.0960     1.5500     0.7510 C.2   1 <1>  -0.0860 
  5 C       -2.6340    -1.8080     0.1320 C.3   1 <1>   0.3640 
  6 C       -3.8240     0.4280    -0.1810 C.3   1 <1>   0.1400 
  7 C       -0.9580     2.1800    -0.4470 C.2   1 <1>  -0.0100 
  8 C       -0.4780     2.4250     1.6680 C.2   1 <1>  -0.1500 
  9 C       -1.2500    -2.3040    -0.2990 C.ar  1 <1>  -0.1440 
 10 C       -3.7160    -2.3930    -0.8290 C.3   1 <1>   0.2000 
 11 C       -4.5790    -0.2630    -1.3160 C.3   1 <1>   0.1200 
 12 O       -0.3410     3.3300    -0.3180 O.3   1 <1>  -0.2800 
 13 C       -0.0450     3.4840     0.9550 C.2   1 <1>  -0.0100 
 14 C       -0.5420    -3.1800     0.5120 C.ar  1 <1>  -0.1500 
 15 C       -0.6840    -1.8920    -1.5000 C.ar  1 <1>  -0.1500 
 16 O       -4.8510    -1.5750    -0.9470 O.3   1 <1>  -0.5600 
 17 C       -4.2320    -3.7730    -0.3870 C.3   1 <1>   0.1200 
 18 C        0.7030    -3.6520     0.1310 C.ar  1 <1>   0.0830 
 19 C        0.5670    -2.3460    -1.8820 C.ar  1 <1>  -0.1500 
 20 O       -3.1990    -4.6840    -0.1930 O.3   1 <1>  -0.6800 
 21 O        1.3170    -4.5380     0.9520 O.3   1 <1>  -0.3630 
 22 C        1.2730    -3.2150    -1.0690 C.ar  1 <1>   0.0830 
 23 C        1.4010    -5.8620     0.4760 C.3   1 <1>   0.0400 
 24 O        2.5040    -3.6020    -1.4860 O.3   1 <1>  -0.3630 
 25 C        3.5920    -3.2000    -0.6810 C.3   1 <1>   0.0400 
 26 H       -2.8440    -2.1670     1.1260 H     1 <1>   0.0800 
 27 H       -4.4650     0.4790     0.6830 H     1 <1>   0.0800 
 28 H       -3.5850     1.4350    -0.4750 H     1 <1>   0.0800 
 29 H       -1.2700     1.8640    -1.4260 H     1 <1>   0.1500 
 30 H       -0.3920     2.2360     2.7240 H     1 <1>   0.1500 
 31 H       -3.3030    -2.4890    -1.8180 H     1 <1>   0.0800 
 32 H       -4.0070    -0.2590    -2.2280 H     1 <1>   0.0800 
 33 H       -5.5190     0.2310    -1.4910 H     1 <1>   0.0800 
 34 H        0.4760     4.3740     1.2650 H     1 <1>   0.1500 
 35 H       -0.9540    -3.5100     1.4490 H     1 <1>   0.1500 
 36 H       -1.2110    -1.2060    -2.1390 H     1 <1>   0.1500 
 37 H       -4.8930    -4.1760    -1.1350 H     1 <1>   0.0800 
 38 H       -4.7630    -3.6870     0.5450 H     1 <1>   0.0800 
 39 H        1.0060    -2.0230    -2.8080 H     1 <1>   0.1500 
 40 H       -2.6240    -4.7490    -0.9830 H     1 <1>   0.4000 
 41 H        1.8590    -6.4650     1.2390 H     1 <1>   0.0800 
 42 H        1.9990    -5.8800    -0.4170 H     1 <1>   0.0800 
 43 H        0.4070    -6.2190     0.2700 H     1 <1>   0.0800 
 44 H        4.5010    -3.4320    -1.2050 H     1 <1>   0.0800 
 45 H        3.5610    -3.7320     0.2520 H     1 <1>   0.0800 
 46 H        3.5240    -2.1400    -0.5090 H     1 <1>   0.0800 
@<TRIPOS>BOND
  1   1   2  2   
  2   2   3  am  
  3   2   4  1   
  4   3   5  1   
  5   3   6  1   
  6   4   7  2   
  7   4   8  1   
  8   5   9  1   
  9   5  10  1   
 10   5  26  1   
 11   6  11  1   
 12   6  27  1   
 13   6  28  1   
 14   7  12  1   
 15   7  29  1   
 16   8  13  2   
 17   8  30  1   
 18   9  14  ar  
 19   9  15  ar  
 20  10  16  1   
 21  10  17  1   
 22  10  31  1   
 23  11  16  1   
 24  11  32  1   
 25  11  33  1   
 26  12  13  1   
 27  13  34  1   
 28  14  18  ar  
 29  14  35  1   
 30  15  19  ar  
 31  15  36  1   
 32  17  20  1   
 33  17  37  1   
 34  17  38  1   
 35  18  21  1   
 36  18  22  ar  
 37  19  22  ar  
 38  19  39  1   
 39  20  40  1   
 40  21  23  1   
 41  22  24  1   
 42  23  41  1   
 43  23  42  1   
 44  23  43  1   
 45  24  25  1   
 46  25  44  1   
 47  25  45  1   
 48  25  46  1   
@<TRIPOS>SUBSTRUCTURE
  1 ****   9 GROUP 4 **** **** 0

# MOE 2024.06 (io_trps.svl 2023.06)
