@<TRIPOS>MOLECULE
NONAME
48 49 1 0 0 
SMALL
USER_CHARGES


@<TRIPOS>ATOM
  1 S       -0.5770    -0.3130     0.0520 S.3   1 <1>  -0.0800 
  2 C       -1.0150    -2.0130     0.1260 C.2   1 <1>  -0.1400 
  3 C       -1.1740    -0.0390     1.6790 C.2   1 <1>  -0.1100 
  4 C       -1.5710    -2.3000     1.3200 C.2   1 <1>  -0.1500 
  5 C       -0.7080    -2.8380    -1.1120 C.3   1 <1>   0.3200 
  6 C       -1.6600    -1.1780     2.2030 C.2   1 <1>  -0.1500 
  7 N       -1.0930    -4.2370    -0.8750 N.am  1 <1>  -0.7300 
  8 C       -1.7520    -5.0350    -1.7470 C.2   1 <1>   0.5690 
  9 O       -1.9690    -4.7020    -2.8870 O.2   1 <1>  -0.5700 
 10 C       -2.2370    -6.3980    -1.2430 C.3   1 <1>   0.1710 
 11 N       -2.6790    -6.3950     0.1850 N.3   1 <1>  -0.8100 
 12 C       -2.8080    -7.7500     0.7840 C.3   1 <1>   0.1100 
 13 C       -3.8780    -5.5730     0.3590 C.3   1 <1>   0.1100 
 14 C       -4.2130    -8.4720     0.5280 C.3   1 <1>   0.0000 
 15 C       -4.5410    -5.9780     1.6610 C.3   1 <1>  -0.1600 
 16 C       -4.9510    -7.4630     1.5570 C.3   1 <1>   0.2000 
 17 C       -5.6010    -9.2430     0.3210 C.3   1 <1>   0.1200 
 18 C       -3.5240    -9.4540    -0.5460 C.3   1 <1>  -0.1600 
 19 O       -4.9010    -7.9940     2.8410 O.3   1 <1>  -0.6800 
 20 O       -6.3300    -8.6680    -0.7250 O.3   1 <1>  -0.6800 
 21 C       -2.9030   -10.7150     0.1010 C.3   1 <1>  -0.1600 
 22 C       -2.2400   -11.6040    -0.9550 C.3   1 <1>  -0.2400 
 23 H       -1.0950     0.9590     2.0730 H     1 <1>   0.1500 
 24 H       -1.9300    -3.2650     1.6320 H     1 <1>   0.1500 
 25 H        0.3450    -2.7920    -1.3260 H     1 <1>   0.0800 
 26 H       -1.2490    -2.4440    -1.9560 H     1 <1>   0.0800 
 27 H       -2.0850    -1.2800     3.1870 H     1 <1>   0.1500 
 28 H       -1.0230    -4.5650     0.0910 H     1 <1>   0.3700 
 29 H       -1.4160    -7.0830    -1.3580 H     1 <1>   0.0800 
 30 H       -3.0410    -6.7340    -1.8740 H     1 <1>   0.0800 
 31 H       -1.9220    -8.3010     0.5140 H     1 <1>   0.0800 
 32 H       -2.6470    -7.6500     1.8440 H     1 <1>   0.0800 
 33 H       -3.6100    -4.5300     0.3780 H     1 <1>   0.0800 
 34 H       -4.5630    -5.7350    -0.4580 H     1 <1>   0.0800 
 35 H       -5.4140    -5.3690     1.8190 H     1 <1>   0.0800 
 36 H       -3.8590    -5.7990     2.4740 H     1 <1>   0.0800 
 37 H       -6.0030    -7.3490     1.3450 H     1 <1>   0.0800 
 38 H       -6.2440    -9.2770     1.1880 H     1 <1>   0.0800 
 39 H       -5.5140   -10.2920     0.0910 H     1 <1>   0.0800 
 40 H       -4.1750    -9.7820    -1.3430 H     1 <1>   0.0800 
 41 H       -2.7670    -8.9830    -1.1480 H     1 <1>   0.0800 
 42 H       -3.9900    -7.9570     3.1860 H     1 <1>   0.4000 
 43 H       -6.5520    -7.7380    -0.5320 H     1 <1>   0.4000 
 44 H       -2.1640   -10.4460     0.8360 H     1 <1>   0.0800 
 45 H       -3.6580   -11.2900     0.6090 H     1 <1>   0.0800 
 46 H       -1.4510   -11.0720    -1.4580 H     1 <1>   0.0800 
 47 H       -2.9630   -11.9240    -1.6850 H     1 <1>   0.0800 
 48 H       -1.8180   -12.4770    -0.4890 H     1 <1>   0.0800 
@<TRIPOS>BOND
  1   1   2  1   
  2   1   3  1   
  3   2   4  2   
  4   2   5  1   
  5   3   6  2   
  6   3  23  1   
  7   4   6  1   
  8   4  24  1   
  9   5   7  1   
 10   5  25  1   
 11   5  26  1   
 12   6  27  1   
 13   7   8  am  
 14   7  28  1   
 15   8   9  2   
 16   8  10  1   
 17  10  11  1   
 18  10  29  1   
 19  10  30  1   
 20  11  12  1   
 21  11  13  1   
 22  12  14  1   
 23  12  31  1   
 24  12  32  1   
 25  13  15  1   
 26  13  33  1   
 27  13  34  1   
 28  14  16  1   
 29  14  17  1   
 30  14  18  1   
 31  15  16  1   
 32  15  35  1   
 33  15  36  1   
 34  16  19  1   
 35  16  37  1   
 36  17  20  1   
 37  17  38  1   
 38  17  39  1   
 39  18  21  1   
 40  18  40  1   
 41  18  41  1   
 42  19  42  1   
 43  20  43  1   
 44  21  22  1   
 45  21  44  1   
 46  21  45  1   
 47  22  46  1   
 48  22  47  1   
 49  22  48  1   
@<TRIPOS>SUBSTRUCTURE
  1 ****  11 GROUP 4 **** **** 0

# MOE 2024.06 (io_trps.svl 2023.06)
