@<TRIPOS>MOLECULE
NONAME
62 64 1 0 0 
SMALL
USER_CHARGES


@<TRIPOS>ATOM
  1 O        3.7280     3.9270     0.1810 O.co2 1 <1>  -0.9000 
  2 C        3.1520     3.2310     1.0310 C.2   1 <1>   0.9060 
  3 O        3.4390     3.4190     2.2130 O.co2 1 <1>  -0.9000 
  4 C        2.5090     1.9000     0.6060 C.3   1 <1>  -0.1060 
  5 C        3.2340     0.8130     1.4380 C.3   1 <1>   0.2000 
  6 C        2.8080     1.5860    -0.9020 C.3   1 <1>  -0.1600 
  7 C        0.9920     1.9400     0.9030 C.3   1 <1>  -0.0160 
  8 O        2.8130    -0.4550     1.0400 O.3   1 <1>  -0.6800 
  9 C        4.7700     0.8990     1.2220 C.3   1 <1>   0.3430 
 10 C        4.2630     1.1380    -1.1740 C.3   1 <1>   0.3430 
 11 C        0.2500     2.9560     0.0460 C.ar  1 <1>  -0.1440 
 12 N        5.1380     1.6110    -0.0640 N.4   1 <1>  -0.9590 
 13 C        0.2190     4.2930     0.4140 C.ar  1 <1>  -0.1500 
 14 C       -0.4050     2.5570    -1.1100 C.ar  1 <1>  -0.1500 
 15 C        6.5740     1.7670    -0.4090 C.3   1 <1>   0.3430 
 16 C       -0.4490     5.2200    -0.3670 C.ar  1 <1>  -0.1500 
 17 C       -1.0740     3.4830    -1.8920 C.ar  1 <1>  -0.1500 
 18 C        7.4700     2.4620     0.6610 C.3   1 <1>   0.0000 
 19 C       -1.0950     4.8160    -1.5220 C.ar  1 <1>  -0.1500 
 20 C        6.7920     3.5620     1.5430 C.3   1 <1>   0.3430 
 21 C        8.7150     3.0160    -0.0660 C.3   1 <1>  -0.2400 
 22 C        8.0070     1.3890     1.6350 C.3   1 <1>  -0.2400 
 23 N        6.1710     4.7650     0.9070 N.4   1 <1>  -0.9590 
 24 C        6.9540     5.6370     0.0060 C.3   1 <1>   0.3430 
 25 C        5.6020     5.6540     1.9460 C.3   1 <1>   0.3430 
 26 C        6.2360     6.9820     0.0220 C.3   1 <1>  -0.1600 
 27 C        5.2470     6.9190     1.1870 C.3   1 <1>  -0.1600 
 28 H        3.0150     0.9130     2.4890 H     1 <1>   0.0800 
 29 H        2.5870     2.4520    -1.5040 H     1 <1>   0.0800 
 30 H        2.1560     0.8050    -1.2510 H     1 <1>   0.0800 
 31 H        0.5570     0.9710     0.7390 H     1 <1>   0.0800 
 32 H        0.8390     2.1850     1.9410 H     1 <1>   0.0800 
 33 H        1.8730    -0.5910     1.2780 H     1 <1>   0.4000 
 34 H        5.1830    -0.0960     1.2380 H     1 <1>   0.0800 
 35 H        5.1760     1.4500     2.0510 H     1 <1>   0.0800 
 36 H        4.5900     1.5430    -2.1180 H     1 <1>   0.0800 
 37 H        4.3030     0.0620    -1.2250 H     1 <1>   0.0800 
 38 H        4.7820     2.5850     0.0520 H     1 <1>   0.4500 
 39 H        0.7190     4.6220     1.3090 H     1 <1>   0.1500 
 40 H       -0.4000     1.5250    -1.4090 H     1 <1>   0.1500 
 41 H        6.9920     0.8000    -0.6380 H     1 <1>   0.0800 
 42 H        6.6280     2.3550    -1.3100 H     1 <1>   0.0800 
 43 H       -0.4630     6.2550    -0.0750 H     1 <1>   0.1500 
 44 H       -1.5780     3.1680    -2.7880 H     1 <1>   0.1500 
 45 H       -1.6120     5.5370    -2.1290 H     1 <1>   0.1500 
 46 H        7.5380     3.9110     2.2390 H     1 <1>   0.0800 
 47 H        6.0270     3.0880     2.1360 H     1 <1>   0.0800 
 48 H        9.3410     3.5720     0.6120 H     1 <1>   0.0800 
 49 H        8.4470     3.6530    -0.8870 H     1 <1>   0.0800 
 50 H        9.3080     2.2130    -0.4720 H     1 <1>   0.0800 
 51 H        8.7500     1.8100     2.2920 H     1 <1>   0.0800 
 52 H        8.4700     0.5770     1.1000 H     1 <1>   0.0800 
 53 H        7.2320     0.9760     2.2540 H     1 <1>   0.0800 
 54 H        5.2850     4.4880     0.4160 H     1 <1>   0.4500 
 55 H        7.9540     5.7570     0.3910 H     1 <1>   0.0800 
 56 H        6.9940     5.2330    -0.9910 H     1 <1>   0.0800 
 57 H        4.7300     5.2190     2.4100 H     1 <1>   0.0800 
 58 H        6.3440     5.8710     2.6980 H     1 <1>   0.0800 
 59 H        6.9490     7.7770     0.1530 H     1 <1>   0.0800 
 60 H        5.7130     7.1360    -0.9060 H     1 <1>   0.0800 
 61 H        4.2400     6.8220     0.8150 H     1 <1>   0.0800 
 62 H        5.3000     7.7850     1.8230 H     1 <1>   0.0800 
@<TRIPOS>BOND
  1   1   2  ar  
  2   2   3  ar  
  3   2   4  1   
  4   4   5  1   
  5   4   6  1   
  6   4   7  1   
  7   5   8  1   
  8   5   9  1   
  9   5  28  1   
 10   6  10  1   
 11   6  29  1   
 12   6  30  1   
 13   7  11  1   
 14   7  31  1   
 15   7  32  1   
 16   8  33  1   
 17   9  12  1   
 18   9  34  1   
 19   9  35  1   
 20  10  12  1   
 21  10  36  1   
 22  10  37  1   
 23  11  13  ar  
 24  11  14  ar  
 25  12  15  1   
 26  12  38  1   
 27  13  16  ar  
 28  13  39  1   
 29  14  17  ar  
 30  14  40  1   
 31  15  18  1   
 32  15  41  1   
 33  15  42  1   
 34  16  19  ar  
 35  16  43  1   
 36  17  19  ar  
 37  17  44  1   
 38  18  20  1   
 39  18  21  1   
 40  18  22  1   
 41  19  45  1   
 42  20  23  1   
 43  20  46  1   
 44  20  47  1   
 45  21  48  1   
 46  21  49  1   
 47  21  50  1   
 48  22  51  1   
 49  22  52  1   
 50  22  53  1   
 51  23  24  1   
 52  23  25  1   
 53  23  54  1   
 54  24  26  1   
 55  24  55  1   
 56  24  56  1   
 57  25  27  1   
 58  25  57  1   
 59  25  58  1   
 60  26  27  1   
 61  26  59  1   
 62  26  60  1   
 63  27  61  1   
 64  27  62  1   
@<TRIPOS>SUBSTRUCTURE
  1 ****   1 GROUP 4 **** **** 0

# MOE 2024.06 (io_trps.svl 2023.06)
