@<TRIPOS>MOLECULE
NONAME
33 34 1 0 0 
SMALL
USER_CHARGES


@<TRIPOS>ATOM
  1 O       -1.1610     0.5520    -1.7680 O.co2 1 <1>  -0.9000 
  2 C       -1.9670     1.4920    -1.6030 C.2   1 <1>   1.0330 
  3 O       -2.6600     1.8150    -2.5840 O.co2 1 <1>  -0.9000 
  4 C       -2.3270     1.8940    -0.2350 C.2   1 <1>   0.0560 
  5 N       -2.4730     3.1010     0.2890 N.2   1 <1>  -0.7070 
  6 C       -2.6120     0.9220     0.7390 C.2   1 <1>  -0.1810 
  7 N       -2.8300     2.9080     1.5640 N.pl3 1 <1>   0.3000 
  8 C       -2.9260     1.5990     1.8640 C.2   1 <1>  -0.3020 
  9 C       -2.5380    -0.5710     0.4830 C.3   1 <1>   0.5240 
 10 N       -3.8540    -1.0450    -0.0410 N.4   1 <1>  -0.9590 
 11 C       -3.9640    -2.5210     0.1660 C.3   1 <1>   0.3430 
 12 C       -4.0110    -0.6500    -1.4850 C.3   1 <1>   0.2630 
 13 C       -5.3610    -3.0680    -0.1490 C.3   1 <1>   0.0960 
 14 N       -5.4130    -4.4850     0.2350 N.pl3 1 <1>   0.3140 
 15 N       -4.7020    -4.9610     1.2730 N.2   1 <1>  -0.7070 
 16 C       -6.1390    -5.4580    -0.3490 C.2   1 <1>  -0.3020 
 17 C       -4.9950    -6.2260     1.3250 C.2   1 <1>   0.1390 
 18 C       -5.8910    -6.5970     0.3310 C.2   1 <1>  -0.1500 
 19 H       -2.9980     3.6960     2.2020 H     1 <1>   0.2700 
 20 H       -3.2000     1.2470     2.8420 H     1 <1>   0.1500 
 21 H       -2.3210    -1.0610     1.4170 H     1 <1>   0.0800 
 22 H       -1.7430    -0.8090    -0.2050 H     1 <1>   0.0800 
 23 H       -4.5530    -0.5320     0.5110 H     1 <1>   0.4500 
 24 H       -3.7390    -2.7470     1.1970 H     1 <1>   0.0800 
 25 H       -3.2390    -3.0280    -0.4510 H     1 <1>   0.0800 
 26 H       -3.1240    -0.9010    -2.0480 H     1 <1>   0.0800 
 27 H       -4.1620     0.4150    -1.5650 H     1 <1>   0.0800 
 28 H       -4.8600    -1.1350    -1.9340 H     1 <1>   0.0800 
 29 H       -5.5750    -2.9910    -1.1980 H     1 <1>   0.0800 
 30 H       -6.1060    -2.5450     0.4200 H     1 <1>   0.0800 
 31 H       -6.7810    -5.2980    -1.1960 H     1 <1>   0.1500 
 32 H       -4.5860    -6.9040     2.0580 H     1 <1>   0.1500 
 33 H       -6.2850    -7.5850     0.1680 H     1 <1>   0.1500 
@<TRIPOS>BOND
  1   1   2  ar  
  2   2   3  ar  
  3   2   4  1   
  4   4   5  2   
  5   4   6  1   
  6   5   7  1   
  7   6   8  2   
  8   6   9  1   
  9   7   8  1   
 10   7  19  1   
 11   8  20  1   
 12   9  10  1   
 13   9  21  1   
 14   9  22  1   
 15  10  11  1   
 16  10  12  1   
 17  10  23  1   
 18  11  13  1   
 19  11  24  1   
 20  11  25  1   
 21  12  26  1   
 22  12  27  1   
 23  12  28  1   
 24  13  14  1   
 25  13  29  1   
 26  13  30  1   
 27  14  15  1   
 28  14  16  1   
 29  15  17  2   
 30  16  18  2   
 31  16  31  1   
 32  17  18  1   
 33  17  32  1   
 34  18  33  1   
@<TRIPOS>SUBSTRUCTURE
  1 ****  10 GROUP 4 **** **** 0

# MOE 2024.06 (io_trps.svl 2023.06)
