@<TRIPOS>MOLECULE
NONAME
46 48 1 0 0 
SMALL
USER_CHARGES


@<TRIPOS>ATOM
  1 S        1.0190     2.1580     1.0090 S.3   1 <1>  -0.0800 
  2 C        1.6940     0.8400     0.0910 C.2   1 <1>  -0.1400 
  3 C        0.1280     2.6570    -0.4080 C.2   1 <1>   0.2280 
  4 C        1.2090     0.9020    -1.1630 C.2   1 <1>   0.0460 
  5 C        2.6500    -0.0730     0.8450 C.3   1 <1>   0.2900 
  6 N        0.3180     1.9290    -1.4330 N.2   1 <1>  -0.5650 
  7 C        1.5200    -0.0170    -2.3290 C.3   1 <1>  -0.0590 
  8 N        2.5800    -1.4720     0.3780 N.3   1 <1>  -0.8100 
  9 C        3.6330    -2.3070     0.9900 C.3   1 <1>   0.2530 
 10 C        1.2240    -2.0530     0.5830 C.3   1 <1>   0.2900 
 11 C        5.0240    -1.7710     0.6820 C.ar  1 <1>  -0.1440 
 12 C        0.9940    -3.3660    -0.1610 C.2   1 <1>   0.2980 
 13 C        5.9020    -1.4480     1.7060 C.ar  1 <1>  -0.1500 
 14 C        5.4250    -1.6010    -0.6350 C.ar  1 <1>  -0.1500 
 15 O        1.4130    -4.4860     0.3360 O.3   1 <1>  -0.2800 
 16 N        0.3870    -3.5300    -1.2750 N.2   1 <1>  -0.3380 
 17 C        7.1640    -0.9580     1.4160 C.ar  1 <1>  -0.1500 
 18 C        6.6860    -1.1120    -0.9260 C.ar  1 <1>  -0.1500 
 19 C        1.0430    -5.3690    -0.5360 C.2   1 <1>   0.2980 
 20 N        0.4210    -4.8400    -1.5210 N.2   1 <1>  -0.3380 
 21 C        7.5570    -0.7900     0.1000 C.ar  1 <1>  -0.1500 
 22 C        1.3750    -6.8420    -0.2980 C.3   1 <1>   0.1000 
 23 C        1.1090    -7.7090    -1.5390 C.3   1 <1>  -0.2400 
 24 C        0.5850    -7.3900     0.8990 C.3   1 <1>  -0.2400 
 25 H       -0.5030     3.5220    -0.3130 H     1 <1>   0.1500 
 26 H        2.4240    -0.0390     1.8970 H     1 <1>   0.0800 
 27 H        3.6430     0.3200     0.7080 H     1 <1>   0.0800 
 28 H        2.3110    -0.7000    -2.0880 H     1 <1>   0.0800 
 29 H        1.8220     0.5690    -3.1770 H     1 <1>   0.0800 
 30 H        0.6420    -0.5790    -2.5900 H     1 <1>   0.0800 
 31 H        3.5810    -3.3060     0.5950 H     1 <1>   0.0800 
 32 H        3.4840    -2.3610     2.0550 H     1 <1>   0.0800 
 33 H        0.4780    -1.3670     0.2240 H     1 <1>   0.0800 
 34 H        1.0440    -2.2070     1.6320 H     1 <1>   0.0800 
 35 H        5.6110    -1.5740     2.7340 H     1 <1>   0.1500 
 36 H        4.7460    -1.8470    -1.4340 H     1 <1>   0.1500 
 37 H        7.8420    -0.7080     2.2130 H     1 <1>   0.1500 
 38 H        6.9870    -0.9810    -1.9510 H     1 <1>   0.1500 
 39 H        8.5370    -0.4090    -0.1260 H     1 <1>   0.1500 
 40 H        2.4250    -6.9020    -0.0700 H     1 <1>   0.0800 
 41 H        0.0650    -7.6830    -1.7980 H     1 <1>   0.0800 
 42 H        1.3960    -8.7290    -1.3560 H     1 <1>   0.0800 
 43 H        1.6760    -7.3390    -2.3750 H     1 <1>   0.0800 
 44 H       -0.4720    -7.3280     0.7060 H     1 <1>   0.0800 
 45 H        0.8060    -6.8180     1.7830 H     1 <1>   0.0800 
 46 H        0.8450    -8.4170     1.0830 H     1 <1>   0.0800 
@<TRIPOS>BOND
  1   1   2  1   
  2   1   3  1   
  3   2   4  2   
  4   2   5  1   
  5   3   6  2   
  6   3  25  1   
  7   4   6  1   
  8   4   7  1   
  9   5   8  1   
 10   5  26  1   
 11   5  27  1   
 12   7  28  1   
 13   7  29  1   
 14   7  30  1   
 15   8   9  1   
 16   8  10  1   
 17   9  11  1   
 18   9  31  1   
 19   9  32  1   
 20  10  12  1   
 21  10  33  1   
 22  10  34  1   
 23  11  13  ar  
 24  11  14  ar  
 25  12  15  1   
 26  12  16  2   
 27  13  17  ar  
 28  13  35  1   
 29  14  18  ar  
 30  14  36  1   
 31  15  19  1   
 32  16  20  1   
 33  17  21  ar  
 34  17  37  1   
 35  18  21  ar  
 36  18  38  1   
 37  19  20  2   
 38  19  22  1   
 39  21  39  1   
 40  22  23  1   
 41  22  24  1   
 42  22  40  1   
 43  23  41  1   
 44  23  42  1   
 45  23  43  1   
 46  24  44  1   
 47  24  45  1   
 48  24  46  1   
@<TRIPOS>SUBSTRUCTURE
  1 ****   8 GROUP 4 **** **** 0

# MOE 2024.06 (io_trps.svl 2023.06)
