@<TRIPOS>MOLECULE
NONAME
44 45 1 0 0 
SMALL
USER_CHARGES


@<TRIPOS>ATOM
  1 CL       0.0020     0.0450     0.4570 Cl    1 <1>  -0.1230 
  2 C       -1.6600     0.6190     0.4600 C.2   1 <1>   0.1230 
  3 C       -2.8180    -0.1620     0.5650 C.2   1 <1>   0.2030 
  4 C       -2.0390     1.9040     0.3410 C.2   1 <1>  -0.3320 
  5 N       -3.8740     0.6410     0.5000 N.2   1 <1>  -0.7070 
  6 C       -2.8240    -1.6130     0.7220 C.2   1 <1>   0.7160 
  7 N       -3.3880     1.8850     0.3710 N.pl3 1 <1>   0.3140 
  8 C       -1.1850     3.1550     0.1960 C.3   1 <1>  -0.0600 
  9 O       -1.8760    -2.1870     1.2310 O.2   1 <1>  -0.5700 
 10 N       -3.8810    -2.4070     0.3110 N.am  1 <1>  -0.6600 
 11 C       -4.2840     3.0470     0.2790 C.3   1 <1>   0.0160 
 12 C       -5.0980    -1.9290    -0.3890 C.3   1 <1>   0.1400 
 13 C       -3.9180    -3.8770     0.5000 C.3   1 <1>   0.1400 
 14 C       -5.8210    -3.2040    -0.8170 C.3   1 <1>   0.2000 
 15 C       -5.3550    -4.2810     0.1590 C.3   1 <1>  -0.0800 
 16 O       -7.1980    -3.0700    -0.7510 O.3   1 <1>  -0.6800 
 17 C       -5.4970    -5.6960    -0.4270 C.3   1 <1>  -0.0550 
 18 S       -5.0450    -6.9900     0.7250 S.o2  1 <1>   1.3330 
 19 O       -3.6130    -6.9680     0.9210 O.2   1 <1>  -0.6500 
 20 O       -5.9270    -6.8930     1.8660 O.2   1 <1>  -0.6500 
 21 N       -5.4300    -8.4050    -0.1300 N.am  1 <1>  -0.8490 
 22 C       -5.8120    -9.5070     0.7590 C.3   1 <1>   0.1160 
 23 C       -4.3670    -8.8450    -1.0400 C.3   1 <1>   0.1160 
 24 H       -0.1400     2.8980     0.2000 H     1 <1>   0.0800 
 25 H       -1.3700     3.8300     1.0130 H     1 <1>   0.0800 
 26 H       -1.4070     3.6540    -0.7310 H     1 <1>   0.0800 
 27 H       -4.0760     3.7180     1.0910 H     1 <1>   0.0800 
 28 H       -5.3030     2.7130     0.3400 H     1 <1>   0.0800 
 29 H       -4.1230     3.5430    -0.6600 H     1 <1>   0.0800 
 30 H       -5.6970    -1.3570     0.2980 H     1 <1>   0.0800 
 31 H       -4.8340    -1.3280    -1.2410 H     1 <1>   0.0800 
 32 H       -3.2110    -4.3330    -0.1730 H     1 <1>   0.0800 
 33 H       -3.6600    -4.1400     1.5130 H     1 <1>   0.0800 
 34 H       -5.5520    -3.4490    -1.8310 H     1 <1>   0.0800 
 35 H       -5.9290    -4.2120     1.0670 H     1 <1>   0.0800 
 36 H       -7.4740    -2.8320     0.1560 H     1 <1>   0.4000 
 37 H       -4.8950    -5.7780    -1.3110 H     1 <1>   0.0800 
 38 H       -6.5210    -5.8410    -0.7150 H     1 <1>   0.0800 
 39 H       -6.0650   -10.3810     0.1840 H     1 <1>   0.0800 
 40 H       -6.6750    -9.2280     1.3420 H     1 <1>   0.0800 
 41 H       -5.0030    -9.7440     1.4300 H     1 <1>   0.0800 
 42 H       -4.7030    -9.6880    -1.6200 H     1 <1>   0.0800 
 43 H       -3.4880    -9.1300    -0.4840 H     1 <1>   0.0800 
 44 H       -4.1040    -8.0510    -1.7170 H     1 <1>   0.0800 
@<TRIPOS>BOND
  1   1   2  1   
  2   2   3  1   
  3   2   4  2   
  4   3   5  2   
  5   3   6  1   
  6   4   7  1   
  7   4   8  1   
  8   5   7  1   
  9   6   9  2   
 10   6  10  am  
 11   7  11  1   
 12   8  24  1   
 13   8  25  1   
 14   8  26  1   
 15  10  12  1   
 16  10  13  1   
 17  11  27  1   
 18  11  28  1   
 19  11  29  1   
 20  12  14  1   
 21  12  30  1   
 22  12  31  1   
 23  13  15  1   
 24  13  32  1   
 25  13  33  1   
 26  14  15  1   
 27  14  16  1   
 28  14  34  1   
 29  15  17  1   
 30  15  35  1   
 31  16  36  1   
 32  17  18  1   
 33  17  37  1   
 34  17  38  1   
 35  18  19  2   
 36  18  20  2   
 37  18  21  am  
 38  21  22  1   
 39  21  23  1   
 40  22  39  1   
 41  22  40  1   
 42  22  41  1   
 43  23  42  1   
 44  23  43  1   
 45  23  44  1   
@<TRIPOS>SUBSTRUCTURE
  1 ****  10 GROUP 4 **** **** 0

# MOE 2024.06 (io_trps.svl 2023.06)
