@<TRIPOS>MOLECULE
NONAME
42 44 1 0 0 
SMALL
USER_CHARGES


@<TRIPOS>ATOM
  1 O       -2.3910     1.1250    -1.6920 O.2   1 <1>  -0.5700 
  2 C       -2.1800     1.1200    -0.5050 C.2   1 <1>   0.5690 
  3 N       -2.2170    -0.0210     0.2230 N.am  1 <1>  -0.7300 
  4 C       -1.8650     2.4240     0.1920 C.3   1 <1>  -0.0990 
  5 C       -2.5110    -1.3600    -0.3340 C.3   1 <1>   0.2200 
  6 C       -0.4890     2.9510    -0.2250 C.3   1 <1>   0.0210 
  7 C       -3.9450    -1.7350    -0.0020 C.3   1 <1>  -0.0800 
  8 C       -1.7280    -2.4190     0.4340 C.3   1 <1>   0.1200 
  9 C       -0.1790     4.2500     0.4940 C.2   1 <1>  -0.1810 
 10 C       -3.8120    -2.3150     1.4110 C.3   1 <1>   0.1200 
 11 C       -4.5060    -2.7610    -1.0050 C.3   1 <1>  -0.0170 
 12 O       -2.4750    -2.6920     1.5810 O.3   1 <1>  -0.5600 
 13 C        0.2380     4.3960     1.8140 C.2   1 <1>   0.1390 
 14 C       -0.2440     5.5090     0.0140 C.2   1 <1>  -0.3020 
 15 C       -5.9530    -3.1100    -0.6930 C.ar  1 <1>  -0.1440 
 16 N        0.4170     5.6400     2.1380 N.2   1 <1>  -0.7070 
 17 N        0.1190     6.3290     1.0200 N.pl3 1 <1>   0.3000 
 18 C       -6.9850    -2.2370    -0.9730 C.ar  1 <1>  -0.1500 
 19 C       -6.3120    -4.3120    -0.1170 C.ar  1 <1>  -0.1500 
 20 C       -8.2880    -2.5950    -0.6680 C.ar  1 <1>   0.1600 
 21 C       -7.6470    -4.5720     0.1490 C.ar  1 <1>   0.1600 
 22 N       -8.6430    -3.7420    -0.1120 N.ar  1 <1>  -0.6200 
 23 H       -2.0760    -0.0090     1.2350 H     1 <1>   0.3700 
 24 H       -2.6170     3.1440    -0.0760 H     1 <1>   0.0800 
 25 H       -1.8970     2.2880     1.2570 H     1 <1>   0.0800 
 26 H       -2.2980    -1.3810    -1.3910 H     1 <1>   0.0800 
 27 H       -0.4770     3.1200    -1.2880 H     1 <1>   0.0800 
 28 H        0.2700     2.2240     0.0050 H     1 <1>   0.0800 
 29 H       -4.5820    -0.8680    -0.0050 H     1 <1>   0.0800 
 30 H       -0.7430    -2.0890     0.7110 H     1 <1>   0.0800 
 31 H       -1.6600    -3.3300    -0.1350 H     1 <1>   0.0800 
 32 H       -4.4400    -3.1720     1.5770 H     1 <1>   0.0800 
 33 H       -4.0330    -1.5650     2.1510 H     1 <1>   0.0800 
 34 H       -3.9100    -3.6560    -0.9990 H     1 <1>   0.0800 
 35 H       -4.4610    -2.3480    -1.9990 H     1 <1>   0.0800 
 36 H        0.3980     3.5800     2.4990 H     1 <1>   0.1500 
 37 H       -0.5220     5.8610    -0.9620 H     1 <1>   0.1500 
 38 H        0.1740     7.3540     0.9790 H     1 <1>   0.2700 
 39 H       -6.7890    -1.2820    -1.4260 H     1 <1>   0.1500 
 40 H       -5.5690    -5.0480     0.1300 H     1 <1>   0.1500 
 41 H       -9.0790    -1.9010    -0.8940 H     1 <1>   0.1500 
 42 H       -7.9080    -5.5150     0.5990 H     1 <1>   0.1500 
@<TRIPOS>BOND
  1   1   2  2   
  2   2   3  am  
  3   2   4  1   
  4   3   5  1   
  5   3  23  1   
  6   4   6  1   
  7   4  24  1   
  8   4  25  1   
  9   5   7  1   
 10   5   8  1   
 11   5  26  1   
 12   6   9  1   
 13   6  27  1   
 14   6  28  1   
 15   7  10  1   
 16   7  11  1   
 17   7  29  1   
 18   8  12  1   
 19   8  30  1   
 20   8  31  1   
 21   9  13  1   
 22   9  14  2   
 23  10  12  1   
 24  10  32  1   
 25  10  33  1   
 26  11  15  1   
 27  11  34  1   
 28  11  35  1   
 29  13  16  2   
 30  13  36  1   
 31  14  17  1   
 32  14  37  1   
 33  15  18  ar  
 34  15  19  ar  
 35  16  17  1   
 36  17  38  1   
 37  18  20  ar  
 38  18  39  1   
 39  19  21  ar  
 40  19  40  1   
 41  20  22  ar  
 42  20  41  1   
 43  21  22  ar  
 44  21  42  1   
@<TRIPOS>SUBSTRUCTURE
  1 ****   3 GROUP 4 **** **** 0

# MOE 2024.06 (io_trps.svl 2023.06)
