@<TRIPOS>MOLECULE
NONAME
45 47 1 0 0 
SMALL
USER_CHARGES


@<TRIPOS>ATOM
  1 CL      -0.1640     0.3650    -0.4930 Cl    1 <1>  -0.1770 
  2 C       -1.8400     0.6960    -0.1440 C.ar  1 <1>   0.1770 
  3 C       -2.8100     0.3410    -1.0610 C.ar  1 <1>  -0.1500 
  4 C       -2.1790     1.3100     1.0450 C.ar  1 <1>  -0.1500 
  5 C       -4.1390     0.6050    -0.7790 C.ar  1 <1>  -0.1500 
  6 C       -3.5110     1.5670     1.3170 C.ar  1 <1>  -0.1500 
  7 C       -4.5220     1.2180     0.4170 C.ar  1 <1>   0.0530 
  8 C       -5.9050     1.4890     0.7270 C.2   1 <1>   0.0870 
  9 O       -6.2250     2.4770     1.5280 O.3   1 <1>  -0.0190 
 10 C       -7.0710     0.8890     0.3740 C.2   1 <1>  -0.0860 
 11 N       -7.5140     2.5820     1.7280 N.2   1 <1>  -0.4100 
 12 C       -8.0400     1.6480     1.0290 C.2   1 <1>   0.3720 
 13 C       -7.3820    -0.2600    -0.4070 C.2   1 <1>   0.7160 
 14 N       -9.4140     1.4560     0.9840 N.pl3 1 <1>  -0.8520 
 15 O       -7.3000    -0.2190    -1.6200 O.2   1 <1>  -0.5700 
 16 N       -7.8490    -1.4060     0.1880 N.am  1 <1>  -0.6600 
 17 C      -10.0220     1.8300    -0.3290 C.3   1 <1>   0.2090 
 18 C       -7.8420    -1.6650     1.6630 C.3   1 <1>   0.1400 
 19 C       -8.9750    -2.1610    -0.4230 C.3   1 <1>   0.1400 
 20 C      -11.5480     1.8770    -0.2290 C.3   1 <1>   0.1200 
 21 C       -9.0540    -2.5620     1.9380 C.3   1 <1>   0.2600 
 22 C       -9.9640    -2.3640     0.7270 C.3   1 <1>   0.2000 
 23 O      -12.0540     2.3340    -1.4430 O.3   1 <1>  -0.5600 
 24 F       -8.6330    -3.8250     1.9180 F     1 <1>  -0.3400 
 25 O      -10.7080    -1.1930     0.9020 O.3   1 <1>  -0.6800 
 26 C      -13.4440     2.3620    -1.4990 C.3   1 <1>   0.0400 
 27 H       -2.5250    -0.1330    -1.9830 H     1 <1>   0.1500 
 28 H       -1.4080     1.5810     1.7440 H     1 <1>   0.1500 
 29 H       -4.8820     0.3360    -1.5080 H     1 <1>   0.1500 
 30 H       -3.7720     2.0460     2.2460 H     1 <1>   0.1500 
 31 H       -9.8120     2.0760     1.7010 H     1 <1>   0.4000 
 32 H       -9.6590     2.8000    -0.6270 H     1 <1>   0.0800 
 33 H       -9.7410     1.1100    -1.0790 H     1 <1>   0.0800 
 34 H       -6.9260    -2.1450     1.9650 H     1 <1>   0.0800 
 35 H       -7.9580    -0.7450     2.2050 H     1 <1>   0.0800 
 36 H       -9.4260    -1.6320    -1.2460 H     1 <1>   0.0800 
 37 H       -8.6090    -3.1130    -0.7690 H     1 <1>   0.0800 
 38 H      -11.8550     2.5590     0.5440 H     1 <1>   0.0800 
 39 H      -11.9430     0.8930    -0.0410 H     1 <1>   0.0800 
 40 H       -9.5300    -2.4050     2.8880 H     1 <1>   0.0800 
 41 H      -10.6470    -3.1810     0.5740 H     1 <1>   0.0800 
 42 H      -10.1130    -0.4000     0.9150 H     1 <1>   0.4000 
 43 H      -13.7320     2.7300    -2.4680 H     1 <1>   0.0800 
 44 H      -13.8190     3.0200    -0.7350 H     1 <1>   0.0800 
 45 H      -13.8260     1.3640    -1.3620 H     1 <1>   0.0800 
@<TRIPOS>BOND
  1   1   2  1   
  2   2   3  ar  
  3   2   4  ar  
  4   3   5  ar  
  5   3  27  1   
  6   4   6  ar  
  7   4  28  1   
  8   5   7  ar  
  9   5  29  1   
 10   6   7  ar  
 11   6  30  1   
 12   7   8  1   
 13   8   9  1   
 14   8  10  2   
 15   9  11  1   
 16  10  12  1   
 17  10  13  1   
 18  11  12  2   
 19  12  14  1   
 20  13  15  2   
 21  13  16  am  
 22  14  17  1   
 23  14  31  1   
 24  16  18  1   
 25  16  19  1   
 26  17  20  1   
 27  17  32  1   
 28  17  33  1   
 29  18  21  1   
 30  18  34  1   
 31  18  35  1   
 32  19  22  1   
 33  19  36  1   
 34  19  37  1   
 35  20  23  1   
 36  20  38  1   
 37  20  39  1   
 38  21  22  1   
 39  21  24  1   
 40  21  40  1   
 41  22  25  1   
 42  22  41  1   
 43  23  26  1   
 44  25  42  1   
 45  26  43  1   
 46  26  44  1   
 47  26  45  1   
@<TRIPOS>SUBSTRUCTURE
  1 ****  10 GROUP 4 **** **** 0

# MOE 2024.06 (io_trps.svl 2023.06)
