@<TRIPOS>MOLECULE
NONAME
49 52 1 0 0 
SMALL
USER_CHARGES


@<TRIPOS>ATOM
  1 F        0.4320     1.0210     2.2100 F     1 <1>  -0.1900 
  2 C        0.3860     2.2310     1.7230 C.ar  1 <1>   0.1900 
  3 C        1.4930     2.7190     1.0580 C.ar  1 <1>  -0.1500 
  4 C       -0.7630     2.9750     1.8900 C.ar  1 <1>  -0.1500 
  5 C        1.4560     4.0060     0.5350 C.ar  1 <1>  -0.1440 
  6 C       -0.7970     4.2570     1.3720 C.ar  1 <1>  -0.1500 
  7 C        0.3030     4.7750     0.7000 C.ar  1 <1>  -0.1430 
  8 C        2.6790     4.5310    -0.2060 C.3   1 <1>   0.5670 
  9 C        0.2190     6.2020     0.1710 C.3   1 <1>  -0.0160 
 10 N        2.6730     6.0190    -0.1680 N.4   1 <1>  -0.9590 
 11 C        2.6990     3.9930    -1.6400 C.3   1 <1>  -0.2400 
 12 C        1.4000     6.5830    -0.7250 C.3   1 <1>   0.3430 
 13 C        3.9030     6.6290    -0.7520 C.3   1 <1>   0.4860 
 14 C        3.9020     8.1140    -0.4810 C.ar  1 <1>  -0.1430 
 15 C        3.6270     9.0230    -1.4750 C.ar  1 <1>   0.1600 
 16 C        4.1640     8.6240     0.7690 C.ar  1 <1>   0.1600 
 17 N        3.5790    10.3080    -1.2470 N.ar  1 <1>  -0.6200 
 18 N        4.1220     9.9050     1.0190 N.ar  1 <1>  -0.6200 
 19 C        3.8280    10.7110    -0.0010 C.ar  1 <1>   0.7200 
 20 N        3.7750    12.0620     0.2530 N.pl3 1 <1>  -0.8380 
 21 C        3.6560    13.0830    -0.8380 C.3   1 <1>   0.2090 
 22 C        4.2030    12.6550     1.5600 C.3   1 <1>   0.2090 
 23 C        2.8860    14.3260    -0.3580 C.3   1 <1>   0.1200 
 24 C        3.3990    13.9240     1.8890 C.3   1 <1>   0.1200 
 25 O        3.4330    14.8350     0.8260 O.3   1 <1>  -0.5600 
 26 H        2.3560     2.0840     0.9610 H     1 <1>   0.1500 
 27 H       -1.6060     2.5580     2.4120 H     1 <1>   0.1500 
 28 H       -1.6890     4.8480     1.5010 H     1 <1>   0.1500 
 29 H        3.5580     4.1710     0.3050 H     1 <1>   0.0800 
 30 H        0.1820     6.8800     1.0050 H     1 <1>   0.0800 
 31 H       -0.6930     6.3300    -0.3860 H     1 <1>   0.0800 
 32 H        2.6540     6.2510     0.8320 H     1 <1>   0.4500 
 33 H        1.8080     4.2610    -2.1760 H     1 <1>   0.0800 
 34 H        2.7350     2.9180    -1.6070 H     1 <1>   0.0800 
 35 H        3.5660     4.3230    -2.1800 H     1 <1>   0.0800 
 36 H        1.4530     7.6580    -0.7850 H     1 <1>   0.0800 
 37 H        1.2330     6.2000    -1.7190 H     1 <1>   0.0800 
 38 H        3.9350     6.4550    -1.8150 H     1 <1>   0.0800 
 39 H        4.7820     6.1870    -0.3100 H     1 <1>   0.0800 
 40 H        3.4350     8.7000    -2.4850 H     1 <1>   0.1500 
 41 H        4.4120     7.9760     1.5930 H     1 <1>   0.1500 
 42 H        3.1440    12.6770    -1.6920 H     1 <1>   0.0800 
 43 H        4.6420    13.3780    -1.1520 H     1 <1>   0.0800 
 44 H        5.2490    12.9030     1.5090 H     1 <1>   0.0800 
 45 H        4.0680    11.9520     2.3630 H     1 <1>   0.0800 
 46 H        1.8530    14.0800    -0.1830 H     1 <1>   0.0800 
 47 H        2.9350    15.1000    -1.1020 H     1 <1>   0.0800 
 48 H        3.8150    14.4120     2.7520 H     1 <1>   0.0800 
 49 H        2.3730    13.6730     2.0950 H     1 <1>   0.0800 
@<TRIPOS>BOND
  1   1   2  1   
  2   2   3  ar  
  3   2   4  ar  
  4   3   5  ar  
  5   3  26  1   
  6   4   6  ar  
  7   4  27  1   
  8   5   7  ar  
  9   5   8  1   
 10   6   7  ar  
 11   6  28  1   
 12   7   9  1   
 13   8  10  1   
 14   8  11  1   
 15   8  29  1   
 16   9  12  1   
 17   9  30  1   
 18   9  31  1   
 19  10  12  1   
 20  10  13  1   
 21  10  32  1   
 22  11  33  1   
 23  11  34  1   
 24  11  35  1   
 25  12  36  1   
 26  12  37  1   
 27  13  14  1   
 28  13  38  1   
 29  13  39  1   
 30  14  15  ar  
 31  14  16  ar  
 32  15  17  ar  
 33  15  40  1   
 34  16  18  ar  
 35  16  41  1   
 36  17  19  ar  
 37  18  19  ar  
 38  19  20  1   
 39  20  21  1   
 40  20  22  1   
 41  21  23  1   
 42  21  42  1   
 43  21  43  1   
 44  22  24  1   
 45  22  44  1   
 46  22  45  1   
 47  23  25  1   
 48  23  46  1   
 49  23  47  1   
 50  24  25  1   
 51  24  48  1   
 52  24  49  1   
@<TRIPOS>SUBSTRUCTURE
  1 ****  14 GROUP 4 **** **** 0

# MOE 2024.06 (io_trps.svl 2023.06)
