@<TRIPOS>MOLECULE
NONAME
47 50 1 0 0 
SMALL
USER_CHARGES


@<TRIPOS>ATOM
  1 O        3.0350     0.5310    -1.6700 O.2   1 <1>  -0.5700 
  2 C        2.0650     0.1160    -1.0710 C.2   1 <1>   0.5690 
  3 N        0.9190     0.8510    -1.0520 N.am  1 <1>  -0.7300 
  4 C        2.1190    -1.2240    -0.2890 C.3   1 <1>   0.2040 
  5 C        0.7030     2.1600    -1.7130 C.3   1 <1>   0.3200 
  6 C        0.8530    -1.3550     0.5900 C.ar  1 <1>  -0.1440 
  7 C        3.4030    -1.3290     0.5610 C.3   1 <1>  -0.1600 
  8 C        2.2990    -2.4130    -1.2530 C.3   1 <1>  -0.1600 
  9 C        1.4840     3.2520    -1.0030 C.2   1 <1>   0.0070 
 10 C        0.7920    -0.7210     1.8270 C.ar  1 <1>  -0.1500 
 11 C       -0.2690    -2.0560     0.1570 C.ar  1 <1>  -0.1500 
 12 C        4.5050    -1.8890    -0.3470 C.3   1 <1>  -0.1600 
 13 C        3.7960    -2.5120    -1.5510 C.3   1 <1>  -0.1600 
 14 N        2.7960     3.1890    -0.8400 N.pl3 1 <1>   0.0330 
 15 N        1.0010     4.3310    -0.4920 N.2   1 <1>  -0.3380 
 16 C       -0.3440    -0.7970     2.6130 C.ar  1 <1>  -0.1500 
 17 C       -1.4060    -2.1350     0.9420 C.ar  1 <1>  -0.1500 
 18 C        3.1100     4.3050    -0.1750 C.2   1 <1>   0.1330 
 19 N        2.0270     5.0010     0.0320 N.2   1 <1>  -0.3380 
 20 C       -1.4450    -1.5070     2.1720 C.ar  1 <1>  -0.1500 
 21 C        4.4480     4.6540     0.2430 C.ar  1 <1>   0.0530 
 22 C        5.5570     3.8430     0.0290 C.ar  1 <1>  -0.1500 
 23 C        4.7230     5.8430     0.9030 C.ar  1 <1>  -0.1500 
 24 C        6.8080     4.2400     0.4600 C.ar  1 <1>   0.1600 
 25 C        6.0110     6.1490     1.2950 C.ar  1 <1>   0.1600 
 26 N        7.0640     5.3750     1.0900 N.ar  1 <1>  -0.6200 
 27 H        0.1640     0.5410    -0.4290 H     1 <1>   0.3700 
 28 H       -0.3450     2.4010    -1.6990 H     1 <1>   0.0800 
 29 H        1.0260     2.1000    -2.7380 H     1 <1>   0.0800 
 30 H        3.2390    -2.0290     1.3620 H     1 <1>   0.0800 
 31 H        3.6860    -0.3810     0.9820 H     1 <1>   0.0800 
 32 H        1.7230    -2.2960    -2.1540 H     1 <1>   0.0800 
 33 H        1.9980    -3.3210    -0.7580 H     1 <1>   0.0800 
 34 H        1.6270    -0.1510     2.1960 H     1 <1>   0.1500 
 35 H       -0.2810    -2.5490    -0.7990 H     1 <1>   0.1500 
 36 H        5.0950    -2.6200     0.1790 H     1 <1>   0.0800 
 37 H        5.1520    -1.0960    -0.6810 H     1 <1>   0.0800 
 38 H        4.0280    -1.9440    -2.4360 H     1 <1>   0.0800 
 39 H        4.0970    -3.5340    -1.7060 H     1 <1>   0.0800 
 40 H        3.3930     2.4120    -1.1450 H     1 <1>   0.2700 
 41 H       -0.3720    -0.3030     3.5690 H     1 <1>   0.1500 
 42 H       -2.2630    -2.6870     0.5940 H     1 <1>   0.1500 
 43 H       -2.3290    -1.5680     2.7830 H     1 <1>   0.1500 
 44 H        5.4580     2.8990    -0.4730 H     1 <1>   0.1500 
 45 H        3.9240     6.5320     1.1110 H     1 <1>   0.1500 
 46 H        7.6480     3.5910     0.2800 H     1 <1>   0.1500 
 47 H        6.1870     7.0810     1.8060 H     1 <1>   0.1500 
@<TRIPOS>BOND
  1   1   2  2   
  2   2   3  am  
  3   2   4  1   
  4   3   5  1   
  5   3  27  1   
  6   4   6  1   
  7   4   7  1   
  8   4   8  1   
  9   5   9  1   
 10   5  28  1   
 11   5  29  1   
 12   6  10  ar  
 13   6  11  ar  
 14   7  12  1   
 15   7  30  1   
 16   7  31  1   
 17   8  13  1   
 18   8  32  1   
 19   8  33  1   
 20   9  14  1   
 21   9  15  2   
 22  10  16  ar  
 23  10  34  1   
 24  11  17  ar  
 25  11  35  1   
 26  12  13  1   
 27  12  36  1   
 28  12  37  1   
 29  13  38  1   
 30  13  39  1   
 31  14  18  1   
 32  14  40  1   
 33  15  19  1   
 34  16  20  ar  
 35  16  41  1   
 36  17  20  ar  
 37  17  42  1   
 38  18  19  2   
 39  18  21  1   
 40  20  43  1   
 41  21  22  ar  
 42  21  23  ar  
 43  22  24  ar  
 44  22  44  1   
 45  23  25  ar  
 46  23  45  1   
 47  24  26  ar  
 48  24  46  1   
 49  25  26  ar  
 50  25  47  1   
@<TRIPOS>SUBSTRUCTURE
  1 ****   2 GROUP 4 **** **** 0

# MOE 2024.06 (io_trps.svl 2023.06)
