@<TRIPOS>MOLECULE
NONAME
44 46 1 0 0 
SMALL
USER_CHARGES


@<TRIPOS>ATOM
  1 O       -1.9310     0.6910    -1.5220 O.2   1 <1>  -0.5700 
  2 C       -1.9990     0.8730    -0.3240 C.2   1 <1>   0.7160 
  3 N       -2.0640    -0.2140     0.4920 N.am  1 <1>  -0.7300 
  4 C       -2.0150     2.1960     0.2460 C.2   1 <1>  -0.0860 
  5 C       -2.0050    -1.6300     0.0620 C.3   1 <1>   0.2200 
  6 C       -1.3460     3.3200    -0.2200 C.2   1 <1>   0.1080 
  7 C       -2.6370     2.6980     1.3370 C.2   1 <1>  -0.0400 
  8 C       -3.3850    -2.2750     0.0910 C.3   1 <1>  -0.0800 
  9 C       -1.3050    -2.4330     1.1500 C.3   1 <1>   0.1200 
 10 N       -1.5690     4.3230     0.5440 N.2   1 <1>  -0.4100 
 11 C       -0.4530     3.4040    -1.4490 C.3   1 <1>   0.0210 
 12 O       -2.3660     3.9670     1.5220 O.3   1 <1>  -0.0190 
 13 C       -3.5790     2.0460     2.3330 C.3   1 <1>  -0.0600 
 14 C       -3.5400    -2.6970     1.5570 C.3   1 <1>   0.1200 
 15 C       -4.5440    -1.4180    -0.4510 C.3   1 <1>  -0.0160 
 16 O       -2.2730    -2.6000     2.1400 O.3   1 <1>  -0.5600 
 17 C        0.8950     2.7130    -1.2150 C.3   1 <1>  -0.2400 
 18 C       -5.8440    -2.2070    -0.4560 C.ar  1 <1>  -0.1440 
 19 C       -6.1470    -3.0960    -1.4670 C.ar  1 <1>  -0.1500 
 20 C       -6.7860    -2.0800     0.5460 C.ar  1 <1>  -0.1500 
 21 C       -7.3390    -3.8000    -1.4270 C.ar  1 <1>   0.1600 
 22 C       -7.9480    -2.8320     0.4910 C.ar  1 <1>   0.1600 
 23 N       -8.2460    -3.6910    -0.4700 N.ar  1 <1>  -0.6200 
 24 H       -2.0740    -0.0840     1.5040 H     1 <1>   0.3700 
 25 H       -1.5190    -1.7230    -0.8950 H     1 <1>   0.0800 
 26 H       -3.3360    -3.1750    -0.4960 H     1 <1>   0.0800 
 27 H       -0.4460    -1.9300     1.5580 H     1 <1>   0.0800 
 28 H       -1.0260    -3.4080     0.7900 H     1 <1>   0.0800 
 29 H       -0.9530     2.9610    -2.2910 H     1 <1>   0.0800 
 30 H       -0.2820     4.4400    -1.6820 H     1 <1>   0.0800 
 31 H       -3.8480     1.0530     2.0310 H     1 <1>   0.0800 
 32 H       -4.4770     2.6320     2.4100 H     1 <1>   0.0800 
 33 H       -3.1120     2.0060     3.3010 H     1 <1>   0.0800 
 34 H       -3.8890    -3.7130     1.6430 H     1 <1>   0.0800 
 35 H       -4.1990    -2.0400     2.0970 H     1 <1>   0.0800 
 36 H       -4.3160    -1.1030    -1.4550 H     1 <1>   0.0800 
 37 H       -4.6700    -0.5310     0.1430 H     1 <1>   0.0800 
 38 H        0.7520     1.6640    -1.0260 H     1 <1>   0.0800 
 39 H        1.3930     3.1550    -0.3700 H     1 <1>   0.0800 
 40 H        1.5200     2.8240    -2.0820 H     1 <1>   0.0800 
 41 H       -5.4680    -3.2480    -2.2860 H     1 <1>   0.1500 
 42 H       -6.6310    -1.4050     1.3670 H     1 <1>   0.1500 
 43 H       -7.5580    -4.4890    -2.2240 H     1 <1>   0.1500 
 44 H       -8.6720    -2.7210     1.2810 H     1 <1>   0.1500 
@<TRIPOS>BOND
  1   1   2  2   
  2   2   3  am  
  3   2   4  1   
  4   3   5  1   
  5   3  24  1   
  6   4   6  1   
  7   4   7  2   
  8   5   8  1   
  9   5   9  1   
 10   5  25  1   
 11   6  10  2   
 12   6  11  1   
 13   7  12  1   
 14   7  13  1   
 15   8  14  1   
 16   8  15  1   
 17   8  26  1   
 18   9  16  1   
 19   9  27  1   
 20   9  28  1   
 21  10  12  1   
 22  11  17  1   
 23  11  29  1   
 24  11  30  1   
 25  13  31  1   
 26  13  32  1   
 27  13  33  1   
 28  14  16  1   
 29  14  34  1   
 30  14  35  1   
 31  15  18  1   
 32  15  36  1   
 33  15  37  1   
 34  17  38  1   
 35  17  39  1   
 36  17  40  1   
 37  18  19  ar  
 38  18  20  ar  
 39  19  21  ar  
 40  19  41  1   
 41  20  22  ar  
 42  20  42  1   
 43  21  23  ar  
 44  21  43  1   
 45  22  23  ar  
 46  22  44  1   
@<TRIPOS>SUBSTRUCTURE
  1 ****   3 GROUP 4 **** **** 0

# MOE 2024.06 (io_trps.svl 2023.06)
