@<TRIPOS>MOLECULE
NONAME
53 56 1 0 0 
SMALL
USER_CHARGES


@<TRIPOS>ATOM
  1 O       -0.4660    -0.7530     0.2080 O.2   1 <1>  -0.5700 
  2 C       -1.3680    -0.0310     0.5860 C.2   1 <1>   0.7160 
  3 N       -2.3720    -0.5960     1.2970 N.am  1 <1>  -0.7300 
  4 C       -1.4190     1.3600     0.2470 C.2   1 <1>  -0.0860 
  5 C       -2.6970    -2.0230     1.3160 C.3   1 <1>   0.4000 
  6 C       -2.5500     2.1860     0.3300 C.2   1 <1>   0.3720 
  7 C       -0.4500     2.2080    -0.1980 C.2   1 <1>   0.0870 
  8 C       -3.7790    -2.2740     0.2650 C.2   1 <1>   0.0060 
  9 C       -3.1540    -2.3750     2.7300 C.3   1 <1>  -0.2400 
 10 N       -2.2680     3.3950    -0.0070 N.2   1 <1>  -0.4100 
 11 N       -3.8380     1.7740     0.7100 N.pl3 1 <1>  -0.8210 
 12 O       -1.0020     3.3880    -0.3190 O.3   1 <1>  -0.0190 
 13 C        0.9450     2.0530    -0.5190 C.ar  1 <1>   0.0530 
 14 N       -5.0490    -2.2560     0.4860 N.2   1 <1>  -0.5650 
 15 N       -3.5210    -2.5180    -1.0320 N.pl3 1 <1>   0.3140 
 16 C       -4.6280     1.0920    -0.3690 C.3   1 <1>   0.2090 
 17 C       -4.6750     2.7980     1.4210 C.3   1 <1>   0.2090 
 18 C        1.4060     1.0310    -1.3470 C.ar  1 <1>  -0.1500 
 19 C        1.8870     2.9510    -0.0180 C.ar  1 <1>  -0.1500 
 20 C       -5.5450    -2.5080    -0.7290 C.2   1 <1>   0.3660 
 21 N       -4.6770    -2.6630    -1.6690 N.2   1 <1>  -0.7070 
 22 C       -2.2330    -2.6390    -1.7590 C.3   1 <1>   0.0960 
 23 C       -5.3890     2.0970    -1.2510 C.3   1 <1>   0.1200 
 24 C       -5.4620     3.6980     0.4470 C.3   1 <1>   0.1200 
 25 C        2.7480     0.9020    -1.6520 C.ar  1 <1>  -0.1500 
 26 C        3.2310     2.8290    -0.3200 C.ar  1 <1>  -0.1500 
 27 C       -2.0080    -1.4530    -2.7080 C.3   1 <1>  -0.2400 
 28 O       -6.1930     2.9320    -0.4680 O.3   1 <1>  -0.5600 
 29 C        3.6650     1.8020    -1.1390 C.ar  1 <1>  -0.1500 
 30 H       -3.1810     0.0190     1.4660 H     1 <1>   0.3700 
 31 H       -1.8220    -2.6060     1.0900 H     1 <1>   0.0800 
 32 H       -4.0110    -1.7870     3.0080 H     1 <1>   0.0800 
 33 H       -2.3580    -2.2010     3.4300 H     1 <1>   0.0800 
 34 H       -3.4280    -3.4130     2.7720 H     1 <1>   0.0800 
 35 H       -5.3390     0.4230     0.0840 H     1 <1>   0.0800 
 36 H       -3.9760     0.5020    -0.9890 H     1 <1>   0.0800 
 37 H       -4.0460     3.4130     2.0420 H     1 <1>   0.0800 
 38 H       -5.3730     2.2920     2.0660 H     1 <1>   0.0800 
 39 H        0.7050     0.3280    -1.7580 H     1 <1>   0.1500 
 40 H        1.5580     3.7540     0.6180 H     1 <1>   0.1500 
 41 H       -6.6100    -2.5720    -0.8890 H     1 <1>   0.1500 
 42 H       -2.2620    -3.5510    -2.3270 H     1 <1>   0.0800 
 43 H       -1.4250    -2.7100    -1.0570 H     1 <1>   0.0800 
 44 H       -6.0300     1.5740    -1.9380 H     1 <1>   0.0800 
 45 H       -4.7000     2.7050    -1.8120 H     1 <1>   0.0800 
 46 H       -4.7940     4.3410    -0.0990 H     1 <1>   0.0800 
 47 H       -6.1580     4.3110     0.9910 H     1 <1>   0.0800 
 48 H        3.0810     0.1010    -2.2890 H     1 <1>   0.1500 
 49 H        3.9400     3.5330     0.0800 H     1 <1>   0.1500 
 50 H       -2.7880    -1.4180    -3.4490 H     1 <1>   0.0800 
 51 H       -1.0650    -1.5670    -3.2120 H     1 <1>   0.0800 
 52 H       -1.9920    -0.5270    -2.1650 H     1 <1>   0.0800 
 53 H        4.7100     1.7040    -1.3750 H     1 <1>   0.1500 
@<TRIPOS>BOND
  1   1   2  2   
  2   2   3  am  
  3   2   4  1   
  4   3   5  1   
  5   3  30  1   
  6   4   6  1   
  7   4   7  2   
  8   5   8  1   
  9   5   9  1   
 10   5  31  1   
 11   6  10  2   
 12   6  11  1   
 13   7  12  1   
 14   7  13  1   
 15   8  14  2   
 16   8  15  1   
 17   9  32  1   
 18   9  33  1   
 19   9  34  1   
 20  10  12  1   
 21  11  16  1   
 22  11  17  1   
 23  13  18  ar  
 24  13  19  ar  
 25  14  20  1   
 26  15  21  1   
 27  15  22  1   
 28  16  23  1   
 29  16  35  1   
 30  16  36  1   
 31  17  24  1   
 32  17  37  1   
 33  17  38  1   
 34  18  25  ar  
 35  18  39  1   
 36  19  26  ar  
 37  19  40  1   
 38  20  21  2   
 39  20  41  1   
 40  22  27  1   
 41  22  42  1   
 42  22  43  1   
 43  23  28  1   
 44  23  44  1   
 45  23  45  1   
 46  24  28  1   
 47  24  46  1   
 48  24  47  1   
 49  25  29  ar  
 50  25  48  1   
 51  26  29  ar  
 52  26  49  1   
 53  27  50  1   
 54  27  51  1   
 55  27  52  1   
 56  29  53  1   
@<TRIPOS>SUBSTRUCTURE
  1 ****   4 GROUP 4 **** **** 0

# MOE 2024.06 (io_trps.svl 2023.06)
