@<TRIPOS>MOLECULE
NONAME
53 55 1 0 0 
SMALL
USER_CHARGES


@<TRIPOS>ATOM
  1 O       -2.0980     1.6580    -1.9880 O.2   1 <1>  -0.5700 
  2 C       -2.8810     2.2350    -1.2690 C.2   1 <1>   0.5690 
  3 N       -2.6660     3.5310    -0.8690 N.am  1 <1>  -0.6600 
  4 C       -4.1080     1.4240    -0.8270 C.3   1 <1>  -0.0190 
  5 C       -1.4010     4.2240    -1.2680 C.3   1 <1>   0.2840 
  6 C       -3.5950     4.3650    -0.0560 C.3   1 <1>   0.1400 
  7 C       -3.6770     0.2630     0.0890 C.3   1 <1>  -0.1600 
  8 C       -4.8740     0.8700    -2.0450 C.3   1 <1>  -0.1600 
  9 C       -0.4480     4.2980    -0.0850 C.ar  1 <1>  -0.1440 
 10 C       -3.4600     4.0350     1.4310 C.3   1 <1>  -0.2400 
 11 C       -4.8490    -0.6350     0.4740 C.3   1 <1>   0.3430 
 12 C       -6.0290    -0.0420    -1.6360 C.3   1 <1>   0.3430 
 13 C        0.1620     3.1430     0.3810 C.ar  1 <1>  -0.1500 
 14 C       -0.1780     5.5080     0.5380 C.ar  1 <1>  -0.1500 
 15 N       -5.5190    -1.1320    -0.7620 N.4   1 <1>  -0.9590 
 16 C        1.0270     3.1940     1.4600 C.ar  1 <1>  -0.1500 
 17 C        0.6860     5.5600     1.6180 C.ar  1 <1>  -0.1500 
 18 C       -6.5460    -2.1730    -0.4610 C.3   1 <1>   0.5230 
 19 C        1.2890     4.4030     2.0800 C.ar  1 <1>  -0.1500 
 20 C       -5.8530    -3.4690    -0.0650 C.2   1 <1>   0.0060 
 21 N       -6.4510    -4.5200     0.5060 N.pl3 1 <1>   0.0330 
 22 N       -4.5960    -3.6930    -0.2490 N.2   1 <1>  -0.3380 
 23 C       -5.4550    -5.3910     0.6570 C.2   1 <1>   0.0060 
 24 N       -4.3440    -4.9140     0.2160 N.2   1 <1>  -0.3380 
 25 C       -5.6170    -6.7670     1.2710 C.3   1 <1>  -0.0600 
 26 H       -4.7820     2.0480    -0.2760 H     1 <1>   0.0800 
 27 H       -1.6300     5.2120    -1.6250 H     1 <1>   0.0800 
 28 H       -0.9150     3.7020    -2.0740 H     1 <1>   0.0800 
 29 H       -4.6080     4.2110    -0.3820 H     1 <1>   0.0800 
 30 H       -3.3690     5.4070    -0.2050 H     1 <1>   0.0800 
 31 H       -3.2270     0.6590     0.9830 H     1 <1>   0.0800 
 32 H       -2.9260    -0.3350    -0.4010 H     1 <1>   0.0800 
 33 H       -4.2040     0.3170    -2.6820 H     1 <1>   0.0800 
 34 H       -5.2580     1.6900    -2.6260 H     1 <1>   0.0800 
 35 H       -3.6920     3.0060     1.6270 H     1 <1>   0.0800 
 36 H       -4.1340     4.6500     1.9990 H     1 <1>   0.0800 
 37 H       -2.4610     4.2370     1.7730 H     1 <1>   0.0800 
 38 H       -5.5490    -0.0800     1.0770 H     1 <1>   0.0800 
 39 H       -4.4800    -1.4670     1.0550 H     1 <1>   0.0800 
 40 H       -6.4820    -0.4580    -2.5220 H     1 <1>   0.0800 
 41 H       -6.7730     0.5330    -1.1090 H     1 <1>   0.0800 
 42 H       -0.0390     2.2010    -0.1000 H     1 <1>   0.1500 
 43 H       -0.6400     6.4150     0.1890 H     1 <1>   0.1500 
 44 H       -4.7810    -1.6510    -1.2710 H     1 <1>   0.4500 
 45 H        1.4950     2.2930     1.8150 H     1 <1>   0.1500 
 46 H        0.8910     6.5000     2.0990 H     1 <1>   0.1500 
 47 H       -7.1430    -2.3600    -1.3380 H     1 <1>   0.0800 
 48 H       -7.1920    -1.8380     0.3330 H     1 <1>   0.0800 
 49 H        1.9610     4.4430     2.9190 H     1 <1>   0.1500 
 50 H       -7.4290    -4.6650     0.7730 H     1 <1>   0.2700 
 51 H       -6.3100    -7.3530     0.6960 H     1 <1>   0.0800 
 52 H       -5.9700    -6.6860     2.2830 H     1 <1>   0.0800 
 53 H       -4.6680    -7.2750     1.2810 H     1 <1>   0.0800 
@<TRIPOS>BOND
  1   1   2  2   
  2   2   3  am  
  3   2   4  1   
  4   3   5  1   
  5   3   6  1   
  6   4   7  1   
  7   4   8  1   
  8   4  26  1   
  9   5   9  1   
 10   5  27  1   
 11   5  28  1   
 12   6  10  1   
 13   6  29  1   
 14   6  30  1   
 15   7  11  1   
 16   7  31  1   
 17   7  32  1   
 18   8  12  1   
 19   8  33  1   
 20   8  34  1   
 21   9  13  ar  
 22   9  14  ar  
 23  10  35  1   
 24  10  36  1   
 25  10  37  1   
 26  11  15  1   
 27  11  38  1   
 28  11  39  1   
 29  12  15  1   
 30  12  40  1   
 31  12  41  1   
 32  13  16  ar  
 33  13  42  1   
 34  14  17  ar  
 35  14  43  1   
 36  15  18  1   
 37  15  44  1   
 38  16  19  ar  
 39  16  45  1   
 40  17  19  ar  
 41  17  46  1   
 42  18  20  1   
 43  18  47  1   
 44  18  48  1   
 45  19  49  1   
 46  20  21  1   
 47  20  22  2   
 48  21  23  1   
 49  21  50  1   
 50  22  24  1   
 51  23  24  2   
 52  23  25  1   
 53  25  51  1   
 54  25  52  1   
 55  25  53  1   
@<TRIPOS>SUBSTRUCTURE
  1 ****   7 GROUP 4 **** **** 0

# MOE 2024.06 (io_trps.svl 2023.06)
