@<TRIPOS>MOLECULE
NONAME
43 44 1 0 0 
SMALL
USER_CHARGES


@<TRIPOS>ATOM
  1 CL      -2.6390     0.0740     3.2750 Cl    1 <1>  -0.1770 
  2 C       -2.3680     0.4470     1.5900 C.ar  1 <1>   0.1770 
  3 C       -2.5280    -0.5430     0.6270 C.ar  1 <1>  -0.1440 
  4 C       -1.9920     1.7400     1.2610 C.ar  1 <1>  -0.1500 
  5 C       -2.2820    -0.2190    -0.7020 C.ar  1 <1>  -0.1500 
  6 C       -2.9410    -1.9540     1.0200 C.3   1 <1>   0.4870 
  7 C       -1.7590     2.0640    -0.0650 C.ar  1 <1>  -0.1500 
  8 C       -1.9090     1.0750    -1.0200 C.ar  1 <1>   0.1900 
  9 N       -4.4040    -2.1420     0.8850 N.4   1 <1>  -0.9590 
 10 F       -1.6920     1.3710    -2.2720 F     1 <1>  -0.1900 
 11 C       -4.9690    -1.9590    -0.4890 C.3   1 <1>   0.3430 
 12 C       -5.2240    -1.4590     1.9400 C.3   1 <1>   0.3430 
 13 C       -6.3820    -2.5840    -0.6100 C.3   1 <1>   0.2000 
 14 C       -6.7290    -1.5000     1.6010 C.3   1 <1>  -0.1600 
 15 O       -6.2720    -3.8030    -1.2550 O.3   1 <1>  -0.6800 
 16 C       -7.0880    -2.7630     0.7710 C.3   1 <1>  -0.1060 
 17 C       -6.5180    -3.9670     1.5580 C.2   1 <1>   0.9060 
 18 C       -8.6250    -2.9360     0.6150 C.3   1 <1>  -0.1600 
 19 O       -6.8730    -4.1400     2.7210 O.co2 1 <1>  -0.9000 
 20 O       -5.5430    -4.5850     1.0940 O.co2 1 <1>  -0.9000 
 21 C       -9.3940    -1.7480     0.0050 C.3   1 <1>  -0.1600 
 22 C      -10.8910    -2.0580    -0.0680 C.3   1 <1>  -0.2400 
 23 H       -1.8800     2.4800     2.0340 H     1 <1>   0.1500 
 24 H       -2.3680    -0.9450    -1.4920 H     1 <1>   0.1500 
 25 H       -2.6440    -2.1570     2.0360 H     1 <1>   0.0800 
 26 H       -2.4330    -2.6610     0.3850 H     1 <1>   0.0800 
 27 H       -1.4660     3.0580    -0.3570 H     1 <1>   0.1500 
 28 H       -4.5730    -3.1690     1.0650 H     1 <1>   0.4500 
 29 H       -5.0370    -0.9050    -0.6960 H     1 <1>   0.0800 
 30 H       -4.3290    -2.4130    -1.2260 H     1 <1>   0.0800 
 31 H       -5.0700    -1.9680     2.8800 H     1 <1>   0.0800 
 32 H       -4.9140    -0.4340     2.0570 H     1 <1>   0.0800 
 33 H       -6.9580    -1.9530    -1.2610 H     1 <1>   0.0800 
 34 H       -7.2830    -1.5010     2.5250 H     1 <1>   0.0800 
 35 H       -6.9940    -0.6050     1.0700 H     1 <1>   0.0800 
 36 H       -5.9650    -4.4620    -0.5650 H     1 <1>   0.4000 
 37 H       -8.8050    -3.8130     0.0160 H     1 <1>   0.0800 
 38 H       -9.0400    -3.1390     1.5890 H     1 <1>   0.0800 
 39 H       -9.2580    -0.8680     0.6070 H     1 <1>   0.0800 
 40 H       -9.0440    -1.5410    -0.9900 H     1 <1>   0.0800 
 41 H      -11.2830    -2.2480     0.9160 H     1 <1>   0.0800 
 42 H      -11.0660    -2.9240    -0.6820 H     1 <1>   0.0800 
 43 H      -11.4220    -1.2240    -0.4920 H     1 <1>   0.0800 
@<TRIPOS>BOND
  1   1   2  1   
  2   2   3  ar  
  3   2   4  ar  
  4   3   5  ar  
  5   3   6  1   
  6   4   7  ar  
  7   4  23  1   
  8   5   8  ar  
  9   5  24  1   
 10   6   9  1   
 11   6  25  1   
 12   6  26  1   
 13   7   8  ar  
 14   7  27  1   
 15   8  10  1   
 16   9  11  1   
 17   9  12  1   
 18   9  28  1   
 19  11  13  1   
 20  11  29  1   
 21  11  30  1   
 22  12  14  1   
 23  12  31  1   
 24  12  32  1   
 25  13  15  1   
 26  13  16  1   
 27  13  33  1   
 28  14  16  1   
 29  14  34  1   
 30  14  35  1   
 31  15  36  1   
 32  16  17  1   
 33  16  18  1   
 34  17  19  ar  
 35  17  20  ar  
 36  18  21  1   
 37  18  37  1   
 38  18  38  1   
 39  21  22  1   
 40  21  39  1   
 41  21  40  1   
 42  22  41  1   
 43  22  42  1   
 44  22  43  1   
@<TRIPOS>SUBSTRUCTURE
  1 ****   9 GROUP 4 **** **** 0

# MOE 2024.06 (io_trps.svl 2023.06)
