@<TRIPOS>MOLECULE
NONAME
47 48 1 0 0 
SMALL
USER_CHARGES


@<TRIPOS>ATOM
  1 F        1.4300    -0.0880    -1.0830 F     1 <1>  -0.1900 
  2 C        2.2320     0.9240    -0.8840 C.ar  1 <1>   0.1900 
  3 C        3.4370     0.7040    -0.2470 C.ar  1 <1>  -0.1500 
  4 C        1.8430     2.1760    -1.3190 C.ar  1 <1>  -0.1500 
  5 C        4.2810     1.7830    -0.0410 C.ar  1 <1>  -0.1500 
  6 C        2.6970     3.2460    -1.1070 C.ar  1 <1>  -0.1500 
  7 C        3.9180     3.0540    -0.4700 C.ar  1 <1>  -0.1430 
  8 C        4.8580     4.2330    -0.2460 C.3   1 <1>   0.2540 
  9 N        5.2150     4.3640     1.1790 N.3   1 <1>  -0.8100 
 10 C        6.3620     5.2970     1.3770 C.3   1 <1>   0.1710 
 11 C        4.0510     4.7420     1.9960 C.3   1 <1>   0.0300 
 12 C        6.2950     6.7280     0.7880 C.2   1 <1>   0.5690 
 13 O        5.2190     7.2150     0.5180 O.2   1 <1>  -0.5700 
 14 N        7.4540     7.4390     0.5760 N.am  1 <1>  -0.6600 
 15 C        7.4260     8.6880    -0.2550 C.3   1 <1>   0.2200 
 16 C        8.8110     6.9980     1.0030 C.3   1 <1>   0.1400 
 17 C        8.7700     8.8960    -0.9910 C.3   1 <1>  -0.1600 
 18 C        7.0480     9.8810     0.6310 C.3   1 <1>  -0.0990 
 19 C        9.6480     6.6370    -0.2340 C.3   1 <1>  -0.1600 
 20 C        9.3850     7.5620    -1.4380 C.3   1 <1>  -0.1600 
 21 C        7.0080    11.1830    -0.1390 C.2   1 <1>   0.5690 
 22 O        6.5230    11.2320    -1.2390 O.2   1 <1>  -0.5700 
 23 N        7.5180    12.2950     0.4180 N.am  1 <1>  -0.8000 
 24 H        3.7050    -0.2830     0.0810 H     1 <1>   0.1500 
 25 H        0.8960     2.3080    -1.8090 H     1 <1>   0.1500 
 26 H        5.2230     1.6430     0.4610 H     1 <1>   0.1500 
 27 H        2.4090     4.2290    -1.4370 H     1 <1>   0.1500 
 28 H        4.3970     5.1410    -0.5960 H     1 <1>   0.0800 
 29 H        5.7500     4.0680    -0.8240 H     1 <1>   0.0800 
 30 H        7.2220     4.8160     0.9490 H     1 <1>   0.0800 
 31 H        6.5460     5.3880     2.4310 H     1 <1>   0.0800 
 32 H        3.2950     3.9780     1.9360 H     1 <1>   0.0800 
 33 H        3.6290     5.6720     1.6550 H     1 <1>   0.0800 
 34 H        4.3410     4.8460     3.0270 H     1 <1>   0.0800 
 35 H        6.6600     8.5710    -1.0070 H     1 <1>   0.0800 
 36 H        8.7710     6.1670     1.6830 H     1 <1>   0.0800 
 37 H        9.2830     7.8130     1.5250 H     1 <1>   0.0800 
 38 H        9.4650     9.4130    -0.3520 H     1 <1>   0.0800 
 39 H        8.6040     9.5210    -1.8520 H     1 <1>   0.0800 
 40 H        7.7500     9.9640     1.4380 H     1 <1>   0.0800 
 41 H        6.0700     9.7160     1.0420 H     1 <1>   0.0800 
 42 H        9.4450     5.6200    -0.5190 H     1 <1>   0.0800 
 43 H       10.6880     6.6900     0.0380 H     1 <1>   0.0800 
 44 H       10.2990     7.7340    -1.9800 H     1 <1>   0.0800 
 45 H        8.6920     7.0780    -2.1070 H     1 <1>   0.0800 
 46 H        7.4680    13.1730    -0.1010 H     1 <1>   0.3700 
 47 H        7.9060    12.3410     1.3580 H     1 <1>   0.3700 
@<TRIPOS>BOND
  1   1   2  1   
  2   2   3  ar  
  3   2   4  ar  
  4   3   5  ar  
  5   3  24  1   
  6   4   6  ar  
  7   4  25  1   
  8   5   7  ar  
  9   5  26  1   
 10   6   7  ar  
 11   6  27  1   
 12   7   8  1   
 13   8   9  1   
 14   8  28  1   
 15   8  29  1   
 16   9  10  1   
 17   9  11  1   
 18  10  12  1   
 19  10  30  1   
 20  10  31  1   
 21  11  32  1   
 22  11  33  1   
 23  11  34  1   
 24  12  13  2   
 25  12  14  am  
 26  14  15  1   
 27  14  16  1   
 28  15  17  1   
 29  15  18  1   
 30  15  35  1   
 31  16  19  1   
 32  16  36  1   
 33  16  37  1   
 34  17  20  1   
 35  17  38  1   
 36  17  39  1   
 37  18  21  1   
 38  18  40  1   
 39  18  41  1   
 40  19  20  1   
 41  19  42  1   
 42  19  43  1   
 43  20  44  1   
 44  20  45  1   
 45  21  22  2   
 46  21  23  am  
 47  23  46  1   
 48  23  47  1   
@<TRIPOS>SUBSTRUCTURE
  1 ****  12 GROUP 4 **** **** 0

# MOE 2024.06 (io_trps.svl 2023.06)
