@<TRIPOS>MOLECULE
NONAME
49 51 1 0 0 
SMALL
USER_CHARGES


@<TRIPOS>ATOM
  1 O        0.6170    -0.0750     0.5810 O.3   1 <1>  -0.6800 
  2 C        1.7460    -0.2160    -0.2140 C.3   1 <1>   0.2000 
  3 C        2.5180    -1.4760     0.1710 C.3   1 <1>  -0.0800 
  4 C        2.7330     0.9260     0.0170 C.3   1 <1>   0.2090 
  5 C        3.9580    -1.1620    -0.2440 C.3   1 <1>   0.2090 
  6 C        1.9580    -2.7600    -0.4670 C.3   1 <1>  -0.0170 
  7 N        4.0820     0.3190    -0.1840 N.pl3 1 <1>  -0.8380 
  8 C        2.7580    -3.9920    -0.0700 C.ar  1 <1>   0.1660 
  9 C        5.2270     1.0420    -0.2560 C.ar  1 <1>   0.4100 
 10 N        3.8850    -4.2070    -0.7330 N.ar  1 <1>  -0.6200 
 11 C        2.2900    -4.8310     0.9400 C.ar  1 <1>   0.1600 
 12 N        5.1330     2.3500    -0.1040 N.ar  1 <1>  -0.6200 
 13 C        6.4680     0.4200    -0.4860 C.ar  1 <1>  -0.1500 
 14 C        4.4960    -5.3100    -0.3300 C.ar  1 <1>   0.1600 
 15 N        2.9030    -5.9280     1.3490 N.ar  1 <1>  -0.6200 
 16 C        6.2400     3.0750    -0.1540 C.ar  1 <1>   0.7710 
 17 C        7.5890     1.1770    -0.5450 C.ar  1 <1>   0.2180 
 18 C        4.0210    -6.1420     0.6770 C.ar  1 <1>   0.1600 
 19 N        7.4400     2.5100    -0.3740 N.ar  1 <1>  -0.1790 
 20 N        6.1690     4.4260     0.0170 N.pl3 1 <1>  -0.8380 
 21 C        8.9810     0.6080    -0.7920 C.3   1 <1>  -0.0170 
 22 C        4.8410     5.1190     0.1220 C.3   1 <1>   0.1290 
 23 C        7.3120     5.3750     0.2010 C.3   1 <1>   0.1290 
 24 C        9.9100     0.8140     0.4110 C.3   1 <1>  -0.2400 
 25 H       -0.0600    -0.7390     0.3490 H     1 <1>   0.4000 
 26 H        1.4480    -0.2300    -1.2490 H     1 <1>   0.0800 
 27 H        2.5110    -1.5730     1.2430 H     1 <1>   0.0800 
 28 H        2.6580     1.2900     1.0280 H     1 <1>   0.0800 
 29 H        2.5670     1.7280    -0.6800 H     1 <1>   0.0800 
 30 H        4.1390    -1.4890    -1.2550 H     1 <1>   0.0800 
 31 H        4.6560    -1.6420     0.4210 H     1 <1>   0.0800 
 32 H        1.9680    -2.6710    -1.5390 H     1 <1>   0.0800 
 33 H        0.9340    -2.8890    -0.1640 H     1 <1>   0.0800 
 34 H        1.3670    -4.5840     1.4350 H     1 <1>   0.1500 
 35 H        6.5030    -0.6450    -0.6140 H     1 <1>   0.1500 
 36 H        5.4170    -5.5710    -0.8200 H     1 <1>   0.1500 
 37 H        4.5890    -7.0180     0.9350 H     1 <1>   0.1500 
 38 H        8.2190     3.1500    -0.4170 H     1 <1>   0.4570 
 39 H        8.9030    -0.4480    -0.9900 H     1 <1>   0.0800 
 40 H        9.4110     1.0650    -1.6670 H     1 <1>   0.0800 
 41 H        4.8900     6.0930    -0.3350 H     1 <1>   0.0800 
 42 H        4.5700     5.2330     1.1580 H     1 <1>   0.0800 
 43 H        4.0650     4.5620    -0.3770 H     1 <1>   0.0800 
 44 H        7.0810     6.0730     0.9890 H     1 <1>   0.0800 
 45 H        7.4750     5.9320    -0.7070 H     1 <1>   0.0800 
 46 H        8.2190     4.8660     0.4750 H     1 <1>   0.0800 
 47 H        9.4890     0.3610     1.2930 H     1 <1>   0.0800 
 48 H       10.0820     1.8570     0.6050 H     1 <1>   0.0800 
 49 H       10.8620     0.3480     0.2200 H     1 <1>   0.0800 
@<TRIPOS>BOND
  1   1   2  1   
  2   1  25  1   
  3   2   3  1   
  4   2   4  1   
  5   2  26  1   
  6   3   5  1   
  7   3   6  1   
  8   3  27  1   
  9   4   7  1   
 10   4  28  1   
 11   4  29  1   
 12   5   7  1   
 13   5  30  1   
 14   5  31  1   
 15   6   8  1   
 16   6  32  1   
 17   6  33  1   
 18   7   9  1   
 19   8  10  ar  
 20   8  11  ar  
 21   9  12  ar  
 22   9  13  ar  
 23  10  14  ar  
 24  11  15  ar  
 25  11  34  1   
 26  12  16  ar  
 27  13  17  ar  
 28  13  35  1   
 29  14  18  ar  
 30  14  36  1   
 31  15  18  ar  
 32  16  19  ar  
 33  16  20  1   
 34  17  19  ar  
 35  17  21  1   
 36  18  37  1   
 37  19  38  1   
 38  20  22  1   
 39  20  23  1   
 40  21  24  1   
 41  21  39  1   
 42  21  40  1   
 43  22  41  1   
 44  22  42  1   
 45  22  43  1   
 46  23  44  1   
 47  23  45  1   
 48  23  46  1   
 49  24  47  1   
 50  24  48  1   
 51  24  49  1   
@<TRIPOS>SUBSTRUCTURE
  1 ****   7 GROUP 4 **** **** 0

# MOE 2024.06 (io_trps.svl 2023.06)
