@<TRIPOS>MOLECULE
NONAME
52 54 1 0 0 
SMALL
USER_CHARGES


@<TRIPOS>ATOM
  1 F       -0.7470    -1.3880    -1.5960 F     1 <1>  -0.1900 
  2 C       -1.9380    -1.6070    -1.1040 C.ar  1 <1>   0.1900 
  3 C       -2.1000    -2.6110    -0.1710 C.ar  1 <1>  -0.1500 
  4 C       -2.9910    -0.8260    -1.5320 C.ar  1 <1>  -0.1500 
  5 C       -3.3600    -2.8510     0.3560 C.ar  1 <1>  -0.1440 
  6 C       -4.2460    -1.0660    -1.0030 C.ar  1 <1>  -0.1500 
  7 C       -4.4510    -2.0770    -0.0610 C.ar  1 <1>   0.1170 
  8 C       -3.5140    -3.9700     1.3810 C.3   1 <1>  -0.0960 
  9 N       -5.7190    -2.3200     0.4960 N.am  1 <1>  -0.5470 
 10 C       -6.9690    -2.1110    -0.0300 C.2   1 <1>   0.5690 
 11 O       -7.1650    -1.6700    -1.1380 O.2   1 <1>  -0.5700 
 12 C       -8.2180    -2.4460     0.8060 C.3   1 <1>   0.4040 
 13 N       -9.4690    -1.7580     0.3090 N.4   1 <1>  -0.9590 
 14 C      -10.7320    -2.4020     0.7880 C.3   1 <1>   0.3430 
 15 C       -9.4410    -0.2890     0.5650 C.3   1 <1>   0.3430 
 16 C      -11.9730    -1.7940     0.1040 C.3   1 <1>   0.0000 
 17 C      -10.6360     0.3730    -0.1210 C.3   1 <1>  -0.1600 
 18 C      -13.2280    -2.4860     0.6740 C.3   1 <1>   0.2000 
 19 C      -11.9700    -0.2600     0.3060 C.3   1 <1>  -0.1600 
 20 C      -12.0160    -2.1930    -1.3830 C.3   1 <1>  -0.1600 
 21 O      -14.3470    -1.7150     0.3610 O.3   1 <1>  -0.5600 
 22 C      -13.3200    -3.8170    -0.0850 C.3   1 <1>  -0.1600 
 23 C      -12.5840    -3.6150    -1.4170 C.3   1 <1>  -0.1600 
 24 C      -15.4720    -1.9310     1.1570 C.3   1 <1>   0.0400 
 25 H       -1.2430    -3.1880     0.1270 H     1 <1>   0.1500 
 26 H       -2.8280    -0.0520    -2.2600 H     1 <1>   0.1500 
 27 H       -5.0640    -0.4530    -1.3320 H     1 <1>   0.1500 
 28 H       -2.5890    -4.5050     1.5040 H     1 <1>   0.0800 
 29 H       -4.2590    -4.6740     1.0560 H     1 <1>   0.0800 
 30 H       -3.7920    -3.5650     2.3370 H     1 <1>   0.0800 
 31 H       -5.6560    -2.7900     1.3980 H     1 <1>   0.3700 
 32 H       -8.0380    -2.1750     1.8320 H     1 <1>   0.0800 
 33 H       -8.3590    -3.5120     0.7590 H     1 <1>   0.0800 
 34 H       -9.4350    -1.8480    -0.7210 H     1 <1>   0.4500 
 35 H      -10.7040    -3.4590     0.5820 H     1 <1>   0.0800 
 36 H      -10.8210    -2.2690     1.8540 H     1 <1>   0.0800 
 37 H       -9.4860    -0.0980     1.6250 H     1 <1>   0.0800 
 38 H       -8.5290     0.1380     0.1760 H     1 <1>   0.0800 
 39 H      -10.6470     1.4200     0.1270 H     1 <1>   0.0800 
 40 H      -10.5180     0.3020    -1.1890 H     1 <1>   0.0800 
 41 H      -13.1790    -2.6120     1.7430 H     1 <1>   0.0800 
 42 H      -12.7710     0.1910    -0.2570 H     1 <1>   0.0800 
 43 H      -12.1510    -0.0400     1.3440 H     1 <1>   0.0800 
 44 H      -12.7110    -1.5470    -1.8970 H     1 <1>   0.0800 
 45 H      -11.0680    -2.1270    -1.8860 H     1 <1>   0.0800 
 46 H      -12.8270    -4.5880     0.4800 H     1 <1>   0.0800 
 47 H      -14.3400    -4.1190    -0.2460 H     1 <1>   0.0800 
 48 H      -11.7950    -4.3400    -1.5210 H     1 <1>   0.0800 
 49 H      -13.2620    -3.7250    -2.2480 H     1 <1>   0.0800 
 50 H      -16.2620    -1.2970     0.7950 H     1 <1>   0.0800 
 51 H      -15.2420    -1.6730     2.1760 H     1 <1>   0.0800 
 52 H      -15.7760    -2.9600     1.0860 H     1 <1>   0.0800 
@<TRIPOS>BOND
  1   1   2  1   
  2   2   3  ar  
  3   2   4  ar  
  4   3   5  ar  
  5   3  25  1   
  6   4   6  ar  
  7   4  26  1   
  8   5   7  ar  
  9   5   8  1   
 10   6   7  ar  
 11   6  27  1   
 12   7   9  1   
 13   8  28  1   
 14   8  29  1   
 15   8  30  1   
 16   9  10  am  
 17   9  31  1   
 18  10  11  2   
 19  10  12  1   
 20  12  13  1   
 21  12  32  1   
 22  12  33  1   
 23  13  14  1   
 24  13  15  1   
 25  13  34  1   
 26  14  16  1   
 27  14  35  1   
 28  14  36  1   
 29  15  17  1   
 30  15  37  1   
 31  15  38  1   
 32  16  18  1   
 33  16  19  1   
 34  16  20  1   
 35  17  19  1   
 36  17  39  1   
 37  17  40  1   
 38  18  21  1   
 39  18  22  1   
 40  18  41  1   
 41  19  42  1   
 42  19  43  1   
 43  20  23  1   
 44  20  44  1   
 45  20  45  1   
 46  21  24  1   
 47  22  23  1   
 48  22  46  1   
 49  22  47  1   
 50  23  48  1   
 51  23  49  1   
 52  24  50  1   
 53  24  51  1   
 54  24  52  1   
@<TRIPOS>SUBSTRUCTURE
  1 ****  12 GROUP 4 **** **** 0

# MOE 2024.06 (io_trps.svl 2023.06)
