@<TRIPOS>MOLECULE
NONAME
54 58 1 0 0 
SMALL
USER_CHARGES


@<TRIPOS>ATOM
  1 O        0.0220     0.7730    -1.1800 O.2   1 <1>  -0.5700 
  2 C        0.0910     1.8890    -0.7060 C.2   1 <1>   0.5440 
  3 N        1.3200     2.3700    -0.3110 N.am  1 <1>  -0.6600 
  4 C       -1.1030     2.7050    -0.5890 C.ar  1 <1>   0.0860 
  5 C        1.4420     3.6800     0.5170 C.3   1 <1>   0.1400 
  6 C        2.6110     1.7510    -0.9210 C.3   1 <1>   0.1400 
  7 C       -1.2120     3.9090    -1.2800 C.ar  1 <1>  -0.1500 
  8 C       -2.1720     2.3230     0.2190 C.ar  1 <1>  -0.1500 
  9 C        2.9150     3.8360     1.0080 C.3   1 <1>  -0.0800 
 10 C        3.8590     2.3000    -0.1540 C.3   1 <1>  -0.0800 
 11 C       -2.3180     4.7270    -1.1440 C.ar  1 <1>   0.0830 
 12 C       -3.2920     3.1260     0.3520 C.ar  1 <1>  -0.1500 
 13 C        3.4630     3.7650    -0.4300 C.3   1 <1>   0.2200 
 14 C        4.3740     3.9020     1.5590 C.3   1 <1>  -0.1600 
 15 C        5.0670     2.7930     0.6990 C.3   1 <1>  -0.1600 
 16 O       -2.3060     5.8940    -1.8300 O.3   1 <1>  -0.3630 
 17 C       -3.3690     4.3310    -0.3240 C.ar  1 <1>  -0.1500 
 18 N        4.4490     4.8030    -0.9280 N.am  1 <1>  -0.7300 
 19 C       -3.0360     7.0090    -1.3610 C.3   1 <1>   0.1200 
 20 C        4.1970     6.0990    -1.2270 C.2   1 <1>   0.5690 
 21 C       -2.4600     8.2830    -1.9840 C.3   1 <1>   0.0960 
 22 O        5.0780     6.8090    -1.6380 O.2   1 <1>  -0.5700 
 23 C        2.7960     6.6470    -1.0330 C.3   1 <1>  -0.0990 
 24 N       -1.0500     8.4480    -1.5950 N.pl3 1 <1>   0.3140 
 25 C        2.5290     8.0220    -1.6510 C.3   1 <1>   0.0210 
 26 N       -0.6860     8.9290    -0.4020 N.2   1 <1>  -0.4180 
 27 C        0.0360     8.0740    -2.2730 C.2   1 <1>  -0.3020 
 28 C        1.0590     8.3290    -1.4460 C.2   1 <1>   0.0460 
 29 N        0.5960     8.8610    -0.3090 N.2   1 <1>  -0.2270 
 30 H        1.1270     4.5300    -0.0630 H     1 <1>   0.0800 
 31 H        0.7610     3.6070     1.3520 H     1 <1>   0.0800 
 32 H        2.5380     0.6780    -0.8260 H     1 <1>   0.0800 
 33 H        2.6630     1.9650    -1.9760 H     1 <1>   0.0800 
 34 H       -0.4150     4.2180    -1.9310 H     1 <1>   0.1500 
 35 H       -2.1160     1.3840     0.7430 H     1 <1>   0.1500 
 36 H        2.5510     3.9250     2.0160 H     1 <1>   0.0800 
 37 H        4.1740     1.2870     0.0200 H     1 <1>   0.0800 
 38 H       -4.1060     2.8100     0.9830 H     1 <1>   0.1500 
 39 H        2.7430     3.8890    -1.2290 H     1 <1>   0.0800 
 40 H        4.8350     4.8740     1.4870 H     1 <1>   0.0800 
 41 H        4.4210     3.6070     2.5960 H     1 <1>   0.0800 
 42 H        5.4250     2.0240     1.3660 H     1 <1>   0.0800 
 43 H        5.9150     3.1330     0.1280 H     1 <1>   0.0800 
 44 H       -4.2460     4.9410    -0.2120 H     1 <1>   0.1500 
 45 H        5.4130     4.4910    -1.0460 H     1 <1>   0.3700 
 46 H       -4.0660     6.8790    -1.6410 H     1 <1>   0.0800 
 47 H       -2.9510     7.0560    -0.2880 H     1 <1>   0.0800 
 48 H       -3.0070     9.1390    -1.6360 H     1 <1>   0.0800 
 49 H       -2.5310     8.2390    -3.0550 H     1 <1>   0.0800 
 50 H        2.1030     5.9630    -1.4820 H     1 <1>   0.0800 
 51 H        2.5960     6.6940     0.0220 H     1 <1>   0.0800 
 52 H        2.7540     8.0010    -2.7020 H     1 <1>   0.0800 
 53 H        3.1380     8.7760    -1.1830 H     1 <1>   0.0800 
 54 H        0.0110     7.6400    -3.2540 H     1 <1>   0.1500 
@<TRIPOS>BOND
  1   1   2  2   
  2   2   3  am  
  3   2   4  1   
  4   3   5  1   
  5   3   6  1   
  6   4   7  ar  
  7   4   8  ar  
  8   5   9  1   
  9   5  30  1   
 10   5  31  1   
 11   6  10  1   
 12   6  32  1   
 13   6  33  1   
 14   7  11  ar  
 15   7  34  1   
 16   8  12  ar  
 17   8  35  1   
 18   9  13  1   
 19   9  14  1   
 20   9  36  1   
 21  10  13  1   
 22  10  15  1   
 23  10  37  1   
 24  11  16  1   
 25  11  17  ar  
 26  12  17  ar  
 27  12  38  1   
 28  13  18  1   
 29  13  39  1   
 30  14  15  1   
 31  14  40  1   
 32  14  41  1   
 33  15  42  1   
 34  15  43  1   
 35  16  19  1   
 36  17  44  1   
 37  18  20  am  
 38  18  45  1   
 39  19  21  1   
 40  19  46  1   
 41  19  47  1   
 42  20  22  2   
 43  20  23  1   
 44  21  24  1   
 45  21  48  1   
 46  21  49  1   
 47  23  25  1   
 48  23  50  1   
 49  23  51  1   
 50  24  26  1   
 51  24  27  1   
 52  25  28  1   
 53  25  52  1   
 54  25  53  1   
 55  26  29  2   
 56  27  28  2   
 57  27  54  1   
 58  28  29  1   
@<TRIPOS>SUBSTRUCTURE
  1 ****   5 GROUP 4 **** **** 0

# MOE 2024.06 (io_trps.svl 2023.06)
