@<TRIPOS>MOLECULE
NONAME
45 48 1 0 0 
SMALL
USER_CHARGES


@<TRIPOS>ATOM
  1 O       -0.2660     0.0490     1.2010 O.2   1 <1>  -0.5700 
  2 C       -1.2410     0.7170     0.9110 C.2   1 <1>   0.5440 
  3 N       -2.3680     0.0740     0.4540 N.am  1 <1>  -0.6600 
  4 C       -1.2160     2.1550     1.0470 C.ar  1 <1>   0.0860 
  5 C       -3.4990     0.7470    -0.2290 C.3   1 <1>   0.1400 
  6 C       -2.4320    -1.3940     0.2630 C.3   1 <1>   0.1400 
  7 C       -0.3490     2.9360     0.2590 C.ar  1 <1>   0.0000 
  8 C       -2.0490     2.8250     1.9310 C.ar  1 <1>  -0.1500 
  9 C       -4.2470    -0.3760    -0.9490 C.3   1 <1>   0.2000 
 10 C       -3.8570    -1.6630    -0.2250 C.3   1 <1>  -0.0800 
 11 C       -0.3540     4.3260     0.3560 C.ar  1 <1>  -0.1520 
 12 C        0.6180     2.6130    -0.7140 C.2   1 <1>  -0.1500 
 13 C       -2.0480     4.2180     2.0340 C.ar  1 <1>  -0.1500 
 14 O       -5.6210    -0.1980    -0.8880 O.3   1 <1>  -0.6800 
 15 C       -3.9960    -2.9090    -1.1170 C.3   1 <1>  -0.0170 
 16 N        0.5720     4.8280    -0.5280 N.pl3 1 <1>   0.0480 
 17 C       -1.2080     4.9750     1.2500 C.ar  1 <1>  -0.1500 
 18 C        1.1510     3.7720    -1.1690 C.2   1 <1>  -0.3020 
 19 C       -3.6680    -4.1840    -0.3580 C.ar  1 <1>   0.1660 
 20 C        0.8960     6.2480    -0.7330 C.3   1 <1>   0.0160 
 21 N       -2.3890    -4.5120    -0.2770 N.ar  1 <1>  -0.6200 
 22 C       -4.6930    -4.9380     0.2110 C.ar  1 <1>   0.1600 
 23 C       -2.2030    -5.6290     0.4070 C.ar  1 <1>   0.1600 
 24 N       -4.5100    -6.0550     0.8970 N.ar  1 <1>  -0.6200 
 25 C       -3.2290    -6.3750     0.9750 C.ar  1 <1>   0.1600 
 26 H       -4.1260     1.2200     0.5060 H     1 <1>   0.0800 
 27 H       -3.1350     1.4760    -0.9320 H     1 <1>   0.0800 
 28 H       -1.7060    -1.6840    -0.4790 H     1 <1>   0.0800 
 29 H       -2.2200    -1.9100     1.1830 H     1 <1>   0.0800 
 30 H       -2.7120     2.2550     2.5570 H     1 <1>   0.1500 
 31 H       -3.9520    -0.4030    -1.9850 H     1 <1>   0.0800 
 32 H       -4.4720    -1.7800     0.6500 H     1 <1>   0.0800 
 33 H        0.8620     1.6050    -1.0050 H     1 <1>   0.1500 
 34 H       -2.7110     4.6960     2.7340 H     1 <1>   0.1500 
 35 H       -5.9150    -0.1480     0.0420 H     1 <1>   0.4000 
 36 H       -3.3410    -2.8270    -1.9670 H     1 <1>   0.0800 
 37 H       -5.0030    -2.9640    -1.4910 H     1 <1>   0.0800 
 38 H       -1.2020     6.0480     1.3220 H     1 <1>   0.1500 
 39 H        1.9170     3.9030    -1.9130 H     1 <1>   0.1500 
 40 H        1.6580     6.3400    -1.4850 H     1 <1>   0.0800 
 41 H        1.2510     6.6660     0.1910 H     1 <1>   0.0800 
 42 H        0.0120     6.7700    -1.0510 H     1 <1>   0.0800 
 43 H       -5.7080    -4.6030     0.0980 H     1 <1>   0.1500 
 44 H       -1.1900    -5.9700     0.5240 H     1 <1>   0.1500 
 45 H       -2.9780    -7.2710     1.5140 H     1 <1>   0.1500 
@<TRIPOS>BOND
  1   1   2  2   
  2   2   3  am  
  3   2   4  1   
  4   3   5  1   
  5   3   6  1   
  6   4   7  ar  
  7   4   8  ar  
  8   5   9  1   
  9   5  26  1   
 10   5  27  1   
 11   6  10  1   
 12   6  28  1   
 13   6  29  1   
 14   7  11  ar  
 15   7  12  1   
 16   8  13  ar  
 17   8  30  1   
 18   9  10  1   
 19   9  14  1   
 20   9  31  1   
 21  10  15  1   
 22  10  32  1   
 23  11  16  1   
 24  11  17  ar  
 25  12  18  2   
 26  12  33  1   
 27  13  17  ar  
 28  13  34  1   
 29  14  35  1   
 30  15  19  1   
 31  15  36  1   
 32  15  37  1   
 33  16  18  1   
 34  16  20  1   
 35  17  38  1   
 36  18  39  1   
 37  19  21  ar  
 38  19  22  ar  
 39  20  40  1   
 40  20  41  1   
 41  20  42  1   
 42  21  23  ar  
 43  22  24  ar  
 44  22  43  1   
 45  23  25  ar  
 46  23  44  1   
 47  24  25  ar  
 48  25  45  1   
@<TRIPOS>SUBSTRUCTURE
  1 ****   3 GROUP 4 **** **** 0

# MOE 2024.06 (io_trps.svl 2023.06)
