@<TRIPOS>MOLECULE
NONAME
59 62 1 0 0 
SMALL
USER_CHARGES


@<TRIPOS>ATOM
  1 O        0.1420     0.5200    -0.3870 O.2   1 <1>  -0.5700 
  2 C       -0.4850     1.4690     0.0320 C.2   1 <1>   0.5690 
  3 N       -1.8500     1.5200    -0.1250 N.am  1 <1>  -0.6600 
  4 C        0.2500     2.6360     0.7340 C.3   1 <1>   0.1710 
  5 C       -2.7270     2.6580     0.2970 C.3   1 <1>   0.1400 
  6 C       -2.5690     0.3640    -0.7490 C.3   1 <1>   0.1400 
  7 N        1.7040     2.5260     1.0490 N.3   1 <1>  -0.8100 
  8 C       -3.5300     3.2220    -0.8970 C.3   1 <1>   0.1430 
  9 C       -4.0110     0.7170    -1.1520 C.3   1 <1>  -0.1600 
 10 C        2.5300     2.3730    -0.1630 C.3   1 <1>   0.2530 
 11 C        1.9690     1.4550     2.0230 C.3   1 <1>   0.0300 
 12 C       -4.6340     4.0830    -0.3110 C.ar  1 <1>   0.1670 
 13 C       -4.0720     2.0980    -1.8220 C.3   1 <1>  -0.1600 
 14 C       -2.7030     4.2600    -1.7020 C.3   1 <1>  -0.1600 
 15 C        4.0000     2.6240     0.1400 C.ar  1 <1>  -0.1440 
 16 N       -5.7100     3.6310     0.2830 N.ar  1 <1>  -0.6200 
 17 C       -4.3620     5.4110    -0.4440 C.ar  1 <1>  -0.1440 
 18 C       -3.0460     5.6500    -1.1390 C.3   1 <1>  -0.0170 
 19 C        4.3900     3.7360     0.8730 C.ar  1 <1>   0.1600 
 20 C        4.9720     1.7550    -0.3140 C.ar  1 <1>  -0.1500 
 21 C       -6.5450     4.5670     0.7410 C.ar  1 <1>   0.7200 
 22 C       -5.2760     6.3020     0.0580 C.ar  1 <1>   0.1600 
 23 N        5.6430     4.0480     1.1750 N.ar  1 <1>  -0.6200 
 24 C        6.2800     2.0610    -0.0060 C.ar  1 <1>  -0.1500 
 25 N       -6.3720     5.8900     0.6510 N.ar  1 <1>  -0.6200 
 26 N       -7.6920     4.1260     1.3700 N.pl3 1 <1>  -0.8380 
 27 C        6.5560     3.2020     0.7280 C.ar  1 <1>   0.1600 
 28 C       -7.8900     2.7010     1.7560 C.3   1 <1>   0.1290 
 29 C       -8.8290     5.0410     1.6700 C.3   1 <1>   0.1290 
 30 H       -0.2610     2.8210     1.6620 H     1 <1>   0.0800 
 31 H        0.1130     3.5100     0.1240 H     1 <1>   0.0800 
 32 H       -2.1670     3.4510     0.7560 H     1 <1>   0.0800 
 33 H       -3.4150     2.2900     1.0390 H     1 <1>   0.0800 
 34 H       -2.5730    -0.4640    -0.0610 H     1 <1>   0.0800 
 35 H       -2.0260     0.0590    -1.6280 H     1 <1>   0.0800 
 36 H       -4.6440     0.7070    -0.2810 H     1 <1>   0.0800 
 37 H       -4.3830    -0.0340    -1.8260 H     1 <1>   0.0800 
 38 H        2.2120     3.0830    -0.9070 H     1 <1>   0.0800 
 39 H        2.4090     1.3850    -0.5720 H     1 <1>   0.0800 
 40 H        1.3640     1.5970     2.9010 H     1 <1>   0.0800 
 41 H        3.0030     1.4760     2.3230 H     1 <1>   0.0800 
 42 H        1.7520     0.4900     1.5980 H     1 <1>   0.0800 
 43 H       -3.4800     2.0440    -2.7180 H     1 <1>   0.0800 
 44 H       -5.0840     2.3180    -2.1160 H     1 <1>   0.0800 
 45 H       -3.0140     4.2460    -2.7320 H     1 <1>   0.0800 
 46 H       -1.6470     4.0560    -1.6680 H     1 <1>   0.0800 
 47 H       -3.1360     6.3830    -1.9210 H     1 <1>   0.0800 
 48 H       -2.3080     5.9660    -0.4210 H     1 <1>   0.0800 
 49 H        3.6240     4.4020     1.2320 H     1 <1>   0.1500 
 50 H        4.7230     0.8760    -0.8830 H     1 <1>   0.1500 
 51 H       -5.1080     7.3610    -0.0250 H     1 <1>   0.1500 
 52 H        7.0810     1.4220    -0.3310 H     1 <1>   0.1500 
 53 H        7.5810     3.4300     0.9600 H     1 <1>   0.1500 
 54 H       -6.9460     2.2360     1.9800 H     1 <1>   0.0800 
 55 H       -8.3580     2.1710     0.9450 H     1 <1>   0.0800 
 56 H       -8.5140     2.6370     2.6300 H     1 <1>   0.0800 
 57 H       -8.8770     5.8330     0.9430 H     1 <1>   0.0800 
 58 H       -8.6950     5.4710     2.6470 H     1 <1>   0.0800 
 59 H       -9.7580     4.5010     1.6410 H     1 <1>   0.0800 
@<TRIPOS>BOND
  1   1   2  2   
  2   2   3  am  
  3   2   4  1   
  4   3   5  1   
  5   3   6  1   
  6   4   7  1   
  7   4  30  1   
  8   4  31  1   
  9   5   8  1   
 10   5  32  1   
 11   5  33  1   
 12   6   9  1   
 13   6  34  1   
 14   6  35  1   
 15   7  10  1   
 16   7  11  1   
 17   8  12  1   
 18   8  13  1   
 19   8  14  1   
 20   9  13  1   
 21   9  36  1   
 22   9  37  1   
 23  10  15  1   
 24  10  38  1   
 25  10  39  1   
 26  11  40  1   
 27  11  41  1   
 28  11  42  1   
 29  12  16  ar  
 30  12  17  ar  
 31  13  43  1   
 32  13  44  1   
 33  14  18  1   
 34  14  45  1   
 35  14  46  1   
 36  15  19  ar  
 37  15  20  ar  
 38  16  21  ar  
 39  17  18  1   
 40  17  22  ar  
 41  18  47  1   
 42  18  48  1   
 43  19  23  ar  
 44  19  49  1   
 45  20  24  ar  
 46  20  50  1   
 47  21  25  ar  
 48  21  26  1   
 49  22  25  ar  
 50  22  51  1   
 51  23  27  ar  
 52  24  27  ar  
 53  24  52  1   
 54  26  28  1   
 55  26  29  1   
 56  27  53  1   
 57  28  54  1   
 58  28  55  1   
 59  28  56  1   
 60  29  57  1   
 61  29  58  1   
 62  29  59  1   
@<TRIPOS>SUBSTRUCTURE
  1 ****   5 GROUP 4 **** **** 0

# MOE 2024.06 (io_trps.svl 2023.06)
