@<TRIPOS>MOLECULE
NONAME
48 51 1 0 0 
SMALL
USER_CHARGES


@<TRIPOS>ATOM
  1 N       -1.9120    -0.3340     0.9440 N.2   1 <1>  -0.5650 
  2 C       -1.7730     1.0210     0.8910 C.ar  1 <1>   0.2270 
  3 C       -1.6210    -0.7350    -0.2450 C.2   1 <1>   0.0060 
  4 C       -1.3890     1.4160    -0.3760 C.ar  1 <1>  -0.1520 
  5 C       -1.9590     1.9730     1.8910 C.ar  1 <1>  -0.1500 
  6 N       -1.2960     0.2740    -1.0990 N.pl3 1 <1>   0.0330 
  7 C       -1.6460    -2.1990    -0.6540 C.3   1 <1>   0.1000 
  8 C       -1.1810     2.7620    -0.6840 C.ar  1 <1>  -0.1500 
  9 C       -1.7560     3.3040     1.5970 C.ar  1 <1>  -0.1500 
 10 C       -2.0850    -3.0490     0.5510 C.3   1 <1>   0.3430 
 11 C       -0.2700    -2.6650    -1.1710 C.3   1 <1>  -0.1600 
 12 C       -1.3670     3.6970     0.3100 C.ar  1 <1>  -0.1500 
 13 N       -2.1500    -4.5330     0.2660 N.4   1 <1>  -0.9590 
 14 C       -0.0720    -4.1910    -1.0570 C.3   1 <1>  -0.1600 
 15 C       -1.3950    -4.9550    -0.9610 C.3   1 <1>   0.3430 
 16 C       -3.5670    -4.9920     0.2530 C.3   1 <1>   0.3430 
 17 C       -3.6370    -6.5140     0.3640 C.3   1 <1>  -0.1600 
 18 C       -5.0900    -6.9930     0.4880 C.3   1 <1>   0.0960 
 19 N       -5.1090    -8.4610     0.5850 N.pl3 1 <1>   0.0480 
 20 C       -5.1810    -9.3370    -0.4510 C.2   1 <1>  -0.3020 
 21 C       -4.9960    -9.1940     1.7240 C.2   1 <1>  -0.3020 
 22 C       -5.1170   -10.6080     0.0240 C.2   1 <1>  -0.1500 
 23 C       -4.9990   -10.5170     1.4140 C.2   1 <1>  -0.1500 
 24 H       -2.2570     1.6480     2.8700 H     1 <1>   0.1500 
 25 H       -1.0270     0.2140    -2.0840 H     1 <1>   0.2700 
 26 H       -2.3840    -2.3120    -1.4290 H     1 <1>   0.0800 
 27 H       -0.8820     3.0570    -1.6750 H     1 <1>   0.1500 
 28 H       -1.8950     4.0540     2.3560 H     1 <1>   0.1500 
 29 H       -3.0400    -2.6900     0.9010 H     1 <1>   0.0800 
 30 H       -1.3750    -2.8720     1.3430 H     1 <1>   0.0800 
 31 H        0.5120    -2.1780    -0.6100 H     1 <1>   0.0800 
 32 H       -0.1630    -2.3610    -2.1990 H     1 <1>   0.0800 
 33 H       -1.2150     4.7430     0.1060 H     1 <1>   0.1500 
 34 H       -1.6910    -4.9870     1.0690 H     1 <1>   0.4500 
 35 H        0.5220    -4.4170    -0.1870 H     1 <1>   0.0800 
 36 H        0.4790    -4.5420    -1.9130 H     1 <1>   0.0800 
 37 H       -1.9830    -4.7480    -1.8400 H     1 <1>   0.0800 
 38 H       -1.2010    -6.0160    -0.9280 H     1 <1>   0.0800 
 39 H       -4.0540    -4.6630    -0.6520 H     1 <1>   0.0800 
 40 H       -4.0900    -4.5590     1.0920 H     1 <1>   0.0800 
 41 H       -3.0970    -6.8380     1.2360 H     1 <1>   0.0800 
 42 H       -3.2070    -6.9700    -0.5100 H     1 <1>   0.0800 
 43 H       -5.6660    -6.7020    -0.3730 H     1 <1>   0.0800 
 44 H       -5.5550    -6.5880     1.3690 H     1 <1>   0.0800 
 45 H       -5.2770    -9.0220    -1.4750 H     1 <1>   0.1500 
 46 H       -4.9210    -8.7470     2.7000 H     1 <1>   0.1500 
 47 H       -5.1500   -11.5280    -0.5340 H     1 <1>   0.1500 
 48 H       -4.9260   -11.3560     2.0850 H     1 <1>   0.1500 
@<TRIPOS>BOND
  1   1   2  1   
  2   1   3  2   
  3   2   4  ar  
  4   2   5  ar  
  5   3   6  1   
  6   3   7  1   
  7   4   6  1   
  8   4   8  ar  
  9   5   9  ar  
 10   5  24  1   
 11   6  25  1   
 12   7  10  1   
 13   7  11  1   
 14   7  26  1   
 15   8  12  ar  
 16   8  27  1   
 17   9  12  ar  
 18   9  28  1   
 19  10  13  1   
 20  10  29  1   
 21  10  30  1   
 22  11  14  1   
 23  11  31  1   
 24  11  32  1   
 25  12  33  1   
 26  13  15  1   
 27  13  16  1   
 28  13  34  1   
 29  14  15  1   
 30  14  35  1   
 31  14  36  1   
 32  15  37  1   
 33  15  38  1   
 34  16  17  1   
 35  16  39  1   
 36  16  40  1   
 37  17  18  1   
 38  17  41  1   
 39  17  42  1   
 40  18  19  1   
 41  18  43  1   
 42  18  44  1   
 43  19  20  1   
 44  19  21  1   
 45  20  22  2   
 46  20  45  1   
 47  21  23  2   
 48  21  46  1   
 49  22  23  1   
 50  22  47  1   
 51  23  48  1   
@<TRIPOS>SUBSTRUCTURE
  1 ****  10 GROUP 4 **** **** 0

# MOE 2024.06 (io_trps.svl 2023.06)
