@<TRIPOS>MOLECULE
NONAME
44 46 1 0 0 
SMALL
USER_CHARGES


@<TRIPOS>ATOM
  1 CL      -1.9520    -2.0060    -3.4610 Cl    1 <1>  -0.1770 
  2 C       -2.3230    -3.2570    -2.3050 C.ar  1 <1>   0.1770 
  3 C       -3.3680    -4.1260    -2.5510 C.ar  1 <1>  -0.1500 
  4 C       -1.5660    -3.3670    -1.1550 C.ar  1 <1>  -0.1500 
  5 C       -3.6560    -5.1180    -1.6310 C.ar  1 <1>  -0.1500 
  6 C       -1.8670    -4.3620    -0.2410 C.ar  1 <1>  -0.1500 
  7 C       -2.9180    -5.2590    -0.4530 C.ar  1 <1>   0.0530 
  8 C       -3.1950    -6.2820     0.5260 C.2   1 <1>   0.0870 
  9 O       -2.1900    -6.8530     1.1520 O.3   1 <1>  -0.0190 
 10 C       -4.3290    -6.8500     1.0170 C.2   1 <1>  -0.2330 
 11 N       -2.5730    -7.7420     2.0320 N.2   1 <1>  -0.4100 
 12 C       -3.8540    -7.7280     1.9880 C.2   1 <1>   0.3720 
 13 C       -5.7140    -6.7680     0.6820 C.2   1 <1>   1.0330 
 14 N       -4.6720    -8.4950     2.8070 N.pl3 1 <1>  -0.8520 
 15 O       -6.0860    -6.8620    -0.5000 O.co2 1 <1>  -0.9000 
 16 O       -6.5910    -6.9160     1.5530 O.co2 1 <1>  -0.9000 
 17 C       -4.6020    -9.9650     2.6890 C.3   1 <1>   0.2090 
 18 C       -5.8470   -10.4910     1.9670 C.3   1 <1>  -0.1600 
 19 C       -5.8910    -9.9790     0.5250 C.3   1 <1>   0.4230 
 20 N       -7.2210   -10.0800    -0.1070 N.4   1 <1>  -0.9590 
 21 C       -4.9650   -10.7040    -0.4430 C.3   1 <1>  -0.1600 
 22 C       -6.9400    -9.8020    -1.5350 C.3   1 <1>   0.3430 
 23 C       -8.1790    -9.0550     0.4200 C.3   1 <1>   0.2630 
 24 C       -5.6110   -10.4960    -1.8140 C.3   1 <1>  -0.1600 
 25 H       -3.9480    -4.0270    -3.4510 H     1 <1>   0.1500 
 26 H       -0.7570    -2.6820    -0.9800 H     1 <1>   0.1500 
 27 H       -4.4650    -5.7940    -1.8360 H     1 <1>   0.1500 
 28 H       -1.2810    -4.4480     0.6580 H     1 <1>   0.1500 
 29 H       -5.6380    -8.1130     2.7300 H     1 <1>   0.4000 
 30 H       -4.5530   -10.3820     3.6810 H     1 <1>   0.0800 
 31 H       -3.7030   -10.2510     2.1660 H     1 <1>   0.0800 
 32 H       -6.7070   -10.1540     2.5160 H     1 <1>   0.0800 
 33 H       -5.8370   -11.5650     1.9800 H     1 <1>   0.0800 
 34 H       -5.6060    -8.9510     0.5200 H     1 <1>   0.0800 
 35 H       -7.5760   -11.0310     0.0120 H     1 <1>   0.4500 
 36 H       -4.9110   -11.7530    -0.2090 H     1 <1>   0.0800 
 37 H       -3.9760   -10.2810    -0.3990 H     1 <1>   0.0800 
 38 H       -6.8190    -8.7370    -1.6730 H     1 <1>   0.0800 
 39 H       -7.7280   -10.1580    -2.1770 H     1 <1>   0.0800 
 40 H       -7.8820    -8.0680     0.1040 H     1 <1>   0.0800 
 41 H       -8.1990    -9.0630     1.4960 H     1 <1>   0.0800 
 42 H       -9.1720    -9.2390     0.0480 H     1 <1>   0.0800 
 43 H       -5.7740   -11.4360    -2.3110 H     1 <1>   0.0800 
 44 H       -5.0030    -9.8680    -2.4440 H     1 <1>   0.0800 
@<TRIPOS>BOND
  1   1   2  1   
  2   2   3  ar  
  3   2   4  ar  
  4   3   5  ar  
  5   3  25  1   
  6   4   6  ar  
  7   4  26  1   
  8   5   7  ar  
  9   5  27  1   
 10   6   7  ar  
 11   6  28  1   
 12   7   8  1   
 13   8   9  1   
 14   8  10  2   
 15   9  11  1   
 16  10  12  1   
 17  10  13  1   
 18  11  12  2   
 19  12  14  1   
 20  13  15  ar  
 21  13  16  ar  
 22  14  17  1   
 23  14  29  1   
 24  17  18  1   
 25  17  30  1   
 26  17  31  1   
 27  18  19  1   
 28  18  32  1   
 29  18  33  1   
 30  19  20  1   
 31  19  21  1   
 32  19  34  1   
 33  20  22  1   
 34  20  23  1   
 35  20  35  1   
 36  21  24  1   
 37  21  36  1   
 38  21  37  1   
 39  22  24  1   
 40  22  38  1   
 41  22  39  1   
 42  23  40  1   
 43  23  41  1   
 44  23  42  1   
 45  24  43  1   
 46  24  44  1   
@<TRIPOS>SUBSTRUCTURE
  1 ****  10 GROUP 4 **** **** 0

# MOE 2024.06 (io_trps.svl 2023.06)
