@<TRIPOS>MOLECULE
NONAME
57 61 1 0 0 
SMALL
USER_CHARGES


@<TRIPOS>ATOM
  1 O        0.2200     0.2480    -0.3680 O.3   1 <1>  -0.5600 
  2 C        1.4510    -0.3540    -0.6580 C.3   1 <1>   0.3440 
  3 C        0.1620     1.6250    -0.5970 C.3   1 <1>   0.2950 
  4 C        1.3730    -1.8460    -0.3740 C.ar  1 <1>  -0.1440 
  5 C        2.5570     0.2700     0.2240 C.3   1 <1>   0.3430 
  6 C       -1.2580     2.0850    -0.2650 C.3   1 <1>  -0.1950 
  7 C        1.2000     2.3520     0.2890 C.3   1 <1>   0.3430 
  8 C        0.6170    -2.3420     0.6810 C.ar  1 <1>  -0.1500 
  9 C        2.0860    -2.7350    -1.1680 C.ar  1 <1>  -0.1500 
 10 N        2.5980     1.7810     0.1570 N.4   1 <1>  -0.9590 
 11 C       -2.3650     1.9490    -1.2610 C.3   1 <1>  -0.2000 
 12 C       -1.8420     3.3100    -0.8970 C.3   1 <1>  -0.2000 
 13 C        0.5840    -3.7000     0.9440 C.ar  1 <1>  -0.1500 
 14 C        2.0530    -4.0930    -0.9050 C.ar  1 <1>  -0.1500 
 15 C        3.5360     2.3450     1.1720 C.3   1 <1>   0.4860 
 16 C        1.3040    -4.5760     0.1530 C.ar  1 <1>  -0.1500 
 17 C        3.6570     3.8340     0.9550 C.ar  1 <1>  -0.1430 
 18 C        2.9910     4.7350     1.7530 C.ar  1 <1>   0.1600 
 19 C        4.4290     4.3560    -0.0560 C.ar  1 <1>   0.1600 
 20 N        3.0510     6.0220     1.5450 N.ar  1 <1>  -0.6200 
 21 N        4.5030     5.6390    -0.2810 N.ar  1 <1>  -0.6200 
 22 C        3.8100     6.4370     0.5310 C.ar  1 <1>   0.7200 
 23 N        3.8780     7.7920     0.3000 N.pl3 1 <1>  -0.8380 
 24 C        4.8520     8.3960    -0.6640 C.3   1 <1>   0.2090 
 25 C        3.2890     8.7980     1.2410 C.3   1 <1>   0.2090 
 26 C        4.2890     9.6830    -1.2950 C.3   1 <1>   0.1200 
 27 C        2.8250    10.0600     0.4900 C.3   1 <1>   0.1200 
 28 O        3.8490    10.5770    -0.3120 O.3   1 <1>  -0.5600 
 29 H        1.6630    -0.1990    -1.7020 H     1 <1>   0.0800 
 30 H        0.3620     1.8060    -1.6400 H     1 <1>   0.0800 
 31 H        3.5080    -0.1420    -0.0710 H     1 <1>   0.0800 
 32 H        2.3700    -0.0430     1.2390 H     1 <1>   0.0800 
 33 H       -1.5160     1.8980     0.7640 H     1 <1>   0.1000 
 34 H        0.8700     2.2690     1.3110 H     1 <1>   0.0800 
 35 H        1.2010     3.4000     0.0330 H     1 <1>   0.0800 
 36 H        0.0410    -1.6780     1.3020 H     1 <1>   0.1500 
 37 H        2.6730    -2.3870    -2.0010 H     1 <1>   0.1500 
 38 H        2.9460     2.0540    -0.7730 H     1 <1>   0.4500 
 39 H       -2.1480     1.5490    -2.2370 H     1 <1>   0.1000 
 40 H       -3.3400     1.6550    -0.9090 H     1 <1>   0.1000 
 41 H       -2.4780     3.9540    -0.3120 H     1 <1>   0.1000 
 42 H       -1.3010     3.8520    -1.6550 H     1 <1>   0.1000 
 43 H       -0.0050    -4.0770     1.7620 H     1 <1>   0.1500 
 44 H        2.6070    -4.7780    -1.5240 H     1 <1>   0.1500 
 45 H        3.1710     2.1470     2.1670 H     1 <1>   0.0800 
 46 H        4.5090     1.8910     1.0720 H     1 <1>   0.0800 
 47 H        1.2770    -5.6330     0.3560 H     1 <1>   0.1500 
 48 H        2.3860     4.4030     2.5810 H     1 <1>   0.1500 
 49 H        5.0000     3.7140    -0.7070 H     1 <1>   0.1500 
 50 H        5.7650     8.6280    -0.1450 H     1 <1>   0.0800 
 51 H        5.0870     7.7080    -1.4560 H     1 <1>   0.0800 
 52 H        2.4440     8.3870     1.7640 H     1 <1>   0.0800 
 53 H        4.0290     9.0740     1.9710 H     1 <1>   0.0800 
 54 H        3.4630     9.4500    -1.9440 H     1 <1>   0.0800 
 55 H        5.0520    10.1760    -1.8690 H     1 <1>   0.0800 
 56 H        2.5400    10.8230     1.1920 H     1 <1>   0.0800 
 57 H        1.9790     9.8320    -0.1350 H     1 <1>   0.0800 
@<TRIPOS>BOND
  1   1   2  1   
  2   1   3  1   
  3   2   4  1   
  4   2   5  1   
  5   2  29  1   
  6   3   6  1   
  7   3   7  1   
  8   3  30  1   
  9   4   8  ar  
 10   4   9  ar  
 11   5  10  1   
 12   5  31  1   
 13   5  32  1   
 14   6  11  1   
 15   6  12  1   
 16   6  33  1   
 17   7  10  1   
 18   7  34  1   
 19   7  35  1   
 20   8  13  ar  
 21   8  36  1   
 22   9  14  ar  
 23   9  37  1   
 24  10  15  1   
 25  10  38  1   
 26  11  12  1   
 27  11  39  1   
 28  11  40  1   
 29  12  41  1   
 30  12  42  1   
 31  13  16  ar  
 32  13  43  1   
 33  14  16  ar  
 34  14  44  1   
 35  15  17  1   
 36  15  45  1   
 37  15  46  1   
 38  16  47  1   
 39  17  18  ar  
 40  17  19  ar  
 41  18  20  ar  
 42  18  48  1   
 43  19  21  ar  
 44  19  49  1   
 45  20  22  ar  
 46  21  22  ar  
 47  22  23  1   
 48  23  24  1   
 49  23  25  1   
 50  24  26  1   
 51  24  50  1   
 52  24  51  1   
 53  25  27  1   
 54  25  52  1   
 55  25  53  1   
 56  26  28  1   
 57  26  54  1   
 58  26  55  1   
 59  27  28  1   
 60  27  56  1   
 61  27  57  1   
@<TRIPOS>SUBSTRUCTURE
  1 ****   7 GROUP 4 **** **** 0

# MOE 2024.06 (io_trps.svl 2023.06)
