@<TRIPOS>MOLECULE
NONAME
47 48 1 0 0 
SMALL
USER_CHARGES


@<TRIPOS>ATOM
  1 S       -1.3820    -0.4540    -0.5030 S.3   1 <1>  -0.4600 
  2 C       -2.5910    -1.6300     0.2110 C.3   1 <1>   0.1310 
  3 C       -0.2460    -0.1370     0.8730 C.3   1 <1>  -0.0100 
  4 C       -3.5320    -2.2020    -0.8460 C.2   1 <1>   0.5690 
  5 O       -3.3760    -3.3630    -1.1530 O.2   1 <1>  -0.5700 
  6 N       -4.5470    -1.4530    -1.3900 N.am  1 <1>  -0.6600 
  7 C       -5.5590    -2.0970    -2.2730 C.3   1 <1>   0.1400 
  8 C       -4.8410    -0.0350    -1.0490 C.3   1 <1>   0.1400 
  9 C       -6.6250    -2.8470    -1.4560 C.3   1 <1>   0.1400 
 10 C       -5.9410     0.0720     0.0150 C.3   1 <1>  -0.1600 
 11 N       -7.1040    -2.1080    -0.2410 N.am  1 <1>  -0.6600 
 12 C       -7.2550    -0.6320    -0.3490 C.3   1 <1>   0.1400 
 13 C       -7.3540    -2.7560     0.9550 C.2   1 <1>   0.5440 
 14 O       -7.5350    -2.0860     1.9570 O.2   1 <1>  -0.5700 
 15 C       -7.3540    -4.2000     1.0720 C.ar  1 <1>   0.0860 
 16 C       -8.2720    -5.0150     0.3950 C.ar  1 <1>   0.0820 
 17 C       -6.4110    -4.8180     1.8940 C.ar  1 <1>  -0.1500 
 18 O       -9.1960    -4.4110    -0.3920 O.3   1 <1>  -0.3630 
 19 C       -8.2190    -6.4010     0.5420 C.ar  1 <1>  -0.1500 
 20 C       -6.3620    -6.1910     2.0360 C.ar  1 <1>  -0.1500 
 21 C      -10.2620    -5.1070    -0.9920 C.3   1 <1>   0.1200 
 22 C       -7.2690    -6.9850     1.3570 C.ar  1 <1>  -0.1500 
 23 C      -11.1280    -4.0900    -1.7280 C.3   1 <1>  -0.2400 
 24 H       -3.1450    -1.1100     0.9690 H     1 <1>   0.0800 
 25 H       -2.0250    -2.4260     0.6590 H     1 <1>   0.0800 
 26 H        0.4970     0.5590     0.5280 H     1 <1>   0.0800 
 27 H        0.2070    -1.0710     1.1530 H     1 <1>   0.0800 
 28 H       -0.8130     0.2800     1.6860 H     1 <1>   0.0800 
 29 H       -5.0690    -2.7940    -2.9310 H     1 <1>   0.0800 
 30 H       -6.0330    -1.3560    -2.8910 H     1 <1>   0.0800 
 31 H       -5.1490     0.4820    -1.9410 H     1 <1>   0.0800 
 32 H       -3.9540     0.4570    -0.6930 H     1 <1>   0.0800 
 33 H       -6.1930    -3.7860    -1.1590 H     1 <1>   0.0800 
 34 H       -7.4670    -3.0650    -2.0870 H     1 <1>   0.0800 
 35 H       -6.1520     1.1150     0.1620 H     1 <1>   0.0800 
 36 H       -5.5820    -0.3100     0.9540 H     1 <1>   0.0800 
 37 H       -7.5720    -0.3640    -1.3410 H     1 <1>   0.0800 
 38 H       -8.0250    -0.3100     0.3330 H     1 <1>   0.0800 
 39 H       -5.7090    -4.1990     2.4250 H     1 <1>   0.1500 
 40 H       -8.9100    -7.0430     0.0290 H     1 <1>   0.1500 
 41 H       -5.6220    -6.6420     2.6740 H     1 <1>   0.1500 
 42 H      -10.8260    -5.6000    -0.2180 H     1 <1>   0.0800 
 43 H       -9.8560    -5.8300    -1.6790 H     1 <1>   0.0800 
 44 H       -7.2320    -8.0550     1.4660 H     1 <1>   0.1500 
 45 H      -11.5100    -3.3630    -1.0350 H     1 <1>   0.0800 
 46 H      -11.9570    -4.5880    -2.1960 H     1 <1>   0.0800 
 47 H      -10.5510    -3.5930    -2.4870 H     1 <1>   0.0800 
@<TRIPOS>BOND
  1   1   2  1   
  2   1   3  1   
  3   2   4  1   
  4   2  24  1   
  5   2  25  1   
  6   3  26  1   
  7   3  27  1   
  8   3  28  1   
  9   4   5  2   
 10   4   6  am  
 11   6   7  1   
 12   6   8  1   
 13   7   9  1   
 14   7  29  1   
 15   7  30  1   
 16   8  10  1   
 17   8  31  1   
 18   8  32  1   
 19   9  11  1   
 20   9  33  1   
 21   9  34  1   
 22  10  12  1   
 23  10  35  1   
 24  10  36  1   
 25  11  12  1   
 26  11  13  am  
 27  12  37  1   
 28  12  38  1   
 29  13  14  2   
 30  13  15  1   
 31  15  16  ar  
 32  15  17  ar  
 33  16  18  1   
 34  16  19  ar  
 35  17  20  ar  
 36  17  39  1   
 37  18  21  1   
 38  19  22  ar  
 39  19  40  1   
 40  20  22  ar  
 41  20  41  1   
 42  21  23  1   
 43  21  42  1   
 44  21  43  1   
 45  22  44  1   
 46  23  45  1   
 47  23  46  1   
 48  23  47  1   
@<TRIPOS>SUBSTRUCTURE
  1 ****  11 GROUP 4 **** **** 0

# MOE 2024.06 (io_trps.svl 2023.06)
