@<TRIPOS>MOLECULE
NONAME
49 51 1 0 0 
SMALL
USER_CHARGES


@<TRIPOS>ATOM
  1 O       -0.4660     0.7410    -1.0420 O.3   1 <1>  -0.6800 
  2 C        0.8900     0.7040    -0.7650 C.3   1 <1>   0.1200 
  3 C        1.5440    -0.2690    -1.7530 C.3   1 <1>   0.3430 
  4 N        3.0080    -0.4450    -1.5110 N.4   1 <1>  -0.9590 
  5 C        3.8790     0.6120    -2.0610 C.3   1 <1>   0.4810 
  6 C        3.4620    -1.8140    -1.8480 C.3   1 <1>   0.5240 
  7 C        4.0200     1.6850    -1.0060 C.2   1 <1>  -0.2540 
  8 C        3.1290    -2.6690    -0.6340 C.2   1 <1>   0.0460 
  9 C        3.5880     2.9500    -1.0940 C.2   1 <1>  -0.2880 
 10 C        4.7400     1.2670     0.2830 C.3   1 <1>   0.1160 
 11 N        3.2880    -2.1520     0.6050 N.2   1 <1>  -0.5650 
 12 C        2.6520    -3.9310    -0.5700 C.2   1 <1>  -0.3020 
 13 C        3.8370     3.9110     0.0730 C.3   1 <1>  -0.0220 
 14 C        5.8210     2.3140     0.7380 C.3   1 <1>   0.0000 
 15 C        3.8910     1.7890     1.4880 C.3   1 <1>   0.0000 
 16 C        2.9150    -3.1070     1.3920 C.2   1 <1>   0.0060 
 17 N        2.5160    -4.2200     0.7380 N.pl3 1 <1>   0.0330 
 18 C        4.5840     3.1650     1.2120 C.3   1 <1>   0.0000 
 19 C        6.7540     1.8370     1.8770 C.3   1 <1>  -0.2400 
 20 C        6.7050     2.9250    -0.3720 C.3   1 <1>  -0.2400 
 21 C        2.9220    -3.0060     2.9030 C.3   1 <1>  -0.0600 
 22 H       -0.9430     1.3250    -0.4150 H     1 <1>   0.4000 
 23 H        1.2760     1.7010    -0.8750 H     1 <1>   0.0800 
 24 H        1.0160     0.3610     0.2480 H     1 <1>   0.0800 
 25 H        1.3760     0.0790    -2.7590 H     1 <1>   0.0800 
 26 H        1.0500    -1.2190    -1.6340 H     1 <1>   0.0800 
 27 H        3.1450    -0.4510    -0.4820 H     1 <1>   0.4500 
 28 H        4.8570     0.2190    -2.2880 H     1 <1>   0.0800 
 29 H        3.4520     1.0230    -2.9610 H     1 <1>   0.0800 
 30 H        2.9760    -2.1870    -2.7330 H     1 <1>   0.0800 
 31 H        4.5300    -1.8280    -1.9900 H     1 <1>   0.0800 
 32 H        3.0710     3.3890    -1.9320 H     1 <1>   0.1500 
 33 H        5.0370     0.2360     0.3550 H     1 <1>   0.0000 
 34 H        2.4060    -4.6300    -1.3510 H     1 <1>   0.1500 
 35 H        2.8990     4.2840     0.4450 H     1 <1>   0.0800 
 36 H        4.4240     4.7510    -0.2560 H     1 <1>   0.0800 
 37 H        2.8290     1.7870     1.3160 H     1 <1>   0.0000 
 38 H        4.1340     1.3420     2.4350 H     1 <1>   0.0000 
 39 H        2.1840    -5.0950     1.1590 H     1 <1>   0.2700 
 40 H        4.7560     3.7550     2.0950 H     1 <1>   0.0000 
 41 H        7.3210     2.6700     2.2540 H     1 <1>   0.0800 
 42 H        7.4460     1.1040     1.5010 H     1 <1>   0.0800 
 43 H        6.2370     1.3970     2.7080 H     1 <1>   0.0800 
 44 H        7.2510     3.7640     0.0220 H     1 <1>   0.0800 
 45 H        6.1530     3.2680    -1.2250 H     1 <1>   0.0800 
 46 H        7.4160     2.1950    -0.7160 H     1 <1>   0.0800 
 47 H        3.2820    -2.0390     3.2050 H     1 <1>   0.0800 
 48 H        3.5680    -3.7570     3.3210 H     1 <1>   0.0800 
 49 H        1.9280    -3.1390     3.2890 H     1 <1>   0.0800 
@<TRIPOS>BOND
  1   1   2  1   
  2   1  22  1   
  3   2   3  1   
  4   2  23  1   
  5   2  24  1   
  6   3   4  1   
  7   3  25  1   
  8   3  26  1   
  9   4   5  1   
 10   4   6  1   
 11   4  27  1   
 12   5   7  1   
 13   5  28  1   
 14   5  29  1   
 15   6   8  1   
 16   6  30  1   
 17   6  31  1   
 18   7   9  2   
 19   7  10  1   
 20   8  11  1   
 21   8  12  2   
 22   9  13  1   
 23   9  32  1   
 24  10  14  1   
 25  10  15  1   
 26  10  33  1   
 27  11  16  2   
 28  12  17  1   
 29  12  34  1   
 30  13  18  1   
 31  13  35  1   
 32  13  36  1   
 33  14  18  1   
 34  14  19  1   
 35  14  20  1   
 36  15  18  1   
 37  15  37  1   
 38  15  38  1   
 39  16  17  1   
 40  16  21  1   
 41  17  39  1   
 42  18  40  1   
 43  19  41  1   
 44  19  42  1   
 45  19  43  1   
 46  20  44  1   
 47  20  45  1   
 48  20  46  1   
 49  21  47  1   
 50  21  48  1   
 51  21  49  1   
@<TRIPOS>SUBSTRUCTURE
  1 ****   4 GROUP 4 **** **** 0

# MOE 2024.06 (io_trps.svl 2023.06)
