@<TRIPOS>MOLECULE
NONAME
50 52 1 0 0 
SMALL
USER_CHARGES


@<TRIPOS>ATOM
  1 O       -1.2780     0.0120     1.0620 O.2   1 <1>  -0.5700 
  2 C       -0.9510     1.1750     1.1030 C.2   1 <1>   0.5690 
  3 N       -1.8660     2.1930     1.0350 N.am  1 <1>  -0.6600 
  4 C        0.5430     1.4980     1.2040 C.3   1 <1>   0.1810 
  5 C       -1.4220     3.6250     1.0710 C.3   1 <1>   0.3640 
  6 C       -3.3360     1.9570     1.1230 C.3   1 <1>   0.0600 
  7 O        0.8060     2.8050     1.6560 O.3   1 <1>  -0.5600 
  8 C       -2.1260     4.4790     0.0040 C.ar  1 <1>  -0.1430 
  9 C        0.1070     3.8100     0.9490 C.3   1 <1>   0.2610 
 10 C       -2.2430     4.1380    -1.3480 C.ar  1 <1>  -0.1430 
 11 C       -2.6480     5.6930     0.4370 C.ar  1 <1>  -0.1500 
 12 C        0.4730     5.2210     1.4380 C.2   1 <1>   0.5690 
 13 C       -2.8800     5.0130    -2.2170 C.ar  1 <1>  -0.1500 
 14 C       -1.7120     2.8390    -1.9470 C.3   1 <1>  -0.0960 
 15 C       -3.2770     6.5560    -0.4390 C.ar  1 <1>  -0.1500 
 16 O        0.2310     5.5010     2.5930 O.2   1 <1>  -0.5700 
 17 N        1.0120     6.1570     0.5870 N.am  1 <1>  -0.6600 
 18 C       -3.3940     6.2150    -1.7710 C.ar  1 <1>  -0.1500 
 19 C        1.3450     7.5230     1.0540 C.3   1 <1>   0.2200 
 20 C        0.9240     6.1190    -0.8880 C.3   1 <1>   0.2200 
 21 C        1.4290     8.3820    -0.2090 C.3   1 <1>  -0.1600 
 22 C        2.6610     7.5090     1.8310 C.3   1 <1>  -0.2400 
 23 C        0.7100     7.5750    -1.2850 C.3   1 <1>  -0.1600 
 24 C        2.2260     5.5470    -1.4490 C.3   1 <1>  -0.2400 
 25 H        1.0030     1.3730     0.2420 H     1 <1>   0.0800 
 26 H        1.0040     0.8180     1.8980 H     1 <1>   0.0800 
 27 H       -1.7060     3.9980     2.0410 H     1 <1>   0.0800 
 28 H       -3.8290     2.3670     0.2590 H     1 <1>   0.0800 
 29 H       -3.7270     2.4270     2.0070 H     1 <1>   0.0800 
 30 H       -3.5500     0.9030     1.1710 H     1 <1>   0.0800 
 31 H        0.3950     3.7150    -0.0770 H     1 <1>   0.0800 
 32 H       -2.5630     5.9840     1.4710 H     1 <1>   0.1500 
 33 H       -2.9860     4.7620    -3.2590 H     1 <1>   0.1500 
 34 H       -1.6460     2.9080    -3.0180 H     1 <1>   0.0800 
 35 H       -2.3760     2.0280    -1.7080 H     1 <1>   0.0800 
 36 H       -0.7350     2.6030    -1.5770 H     1 <1>   0.0800 
 37 H       -3.6740     7.4910    -0.0840 H     1 <1>   0.1500 
 38 H       -3.8850     6.8820    -2.4580 H     1 <1>   0.1500 
 39 H        0.5460     7.8810     1.6840 H     1 <1>   0.0800 
 40 H        0.0860     5.5330    -1.2190 H     1 <1>   0.0800 
 41 H        0.9770     9.3460    -0.0580 H     1 <1>   0.0800 
 42 H        2.4560     8.5260    -0.4940 H     1 <1>   0.0800 
 43 H        3.4520     7.1010     1.2290 H     1 <1>   0.0800 
 44 H        2.5540     6.9150     2.7210 H     1 <1>   0.0800 
 45 H        2.9250     8.5090     2.1230 H     1 <1>   0.0800 
 46 H        1.0710     7.7910    -2.2750 H     1 <1>   0.0800 
 47 H       -0.3450     7.7850    -1.2500 H     1 <1>   0.0800 
 48 H        3.0670     6.1460    -1.1480 H     1 <1>   0.0800 
 49 H        2.1850     5.5330    -2.5230 H     1 <1>   0.0800 
 50 H        2.3730     4.5410    -1.1020 H     1 <1>   0.0800 
@<TRIPOS>BOND
  1   1   2  2   
  2   2   3  am  
  3   2   4  1   
  4   3   5  1   
  5   3   6  1   
  6   4   7  1   
  7   4  25  1   
  8   4  26  1   
  9   5   8  1   
 10   5   9  1   
 11   5  27  1   
 12   6  28  1   
 13   6  29  1   
 14   6  30  1   
 15   7   9  1   
 16   8  10  ar  
 17   8  11  ar  
 18   9  12  1   
 19   9  31  1   
 20  10  13  ar  
 21  10  14  1   
 22  11  15  ar  
 23  11  32  1   
 24  12  16  2   
 25  12  17  am  
 26  13  18  ar  
 27  13  33  1   
 28  14  34  1   
 29  14  35  1   
 30  14  36  1   
 31  15  18  ar  
 32  15  37  1   
 33  17  19  1   
 34  17  20  1   
 35  18  38  1   
 36  19  21  1   
 37  19  22  1   
 38  19  39  1   
 39  20  23  1   
 40  20  24  1   
 41  20  40  1   
 42  21  23  1   
 43  21  41  1   
 44  21  42  1   
 45  22  43  1   
 46  22  44  1   
 47  22  45  1   
 48  23  46  1   
 49  23  47  1   
 50  24  48  1   
 51  24  49  1   
 52  24  50  1   
@<TRIPOS>SUBSTRUCTURE
  1 ****   9 GROUP 4 **** **** 0

# MOE 2024.06 (io_trps.svl 2023.06)
