@<TRIPOS>MOLECULE
NONAME
52 54 1 0 0 
SMALL
USER_CHARGES


@<TRIPOS>ATOM
  1 O       -0.1570     1.2640    -0.0810 O.co2 1 <1>  -0.9000 
  2 C        0.6270     1.8770     0.6520 C.2   1 <1>   0.9060 
  3 O        1.1350     1.3340     1.6490 O.co2 1 <1>  -0.9000 
  4 C        0.8920     3.3650     0.4330 C.3   1 <1>  -0.1060 
  5 C        0.2620     4.0640     1.6590 C.3   1 <1>   0.2000 
  6 C        0.1560     3.8580    -0.8370 C.3   1 <1>   0.1400 
  7 C        2.4210     3.6360     0.3190 C.3   1 <1>  -0.0170 
  8 O        0.9520     3.7330     2.8080 O.3   1 <1>  -0.6800 
  9 C        0.2120     5.5860     1.5530 C.3   1 <1>  -0.1600 
 10 N        0.0980     5.3620    -0.9000 N.am  1 <1>  -0.6600 
 11 C        3.1270     2.9000    -0.8180 C.ar  1 <1>  -0.1430 
 12 C       -0.5470     5.9820     0.2900 C.3   1 <1>   0.1400 
 13 C        0.5690     6.0640    -1.9860 C.2   1 <1>   0.5690 
 14 C        3.5160     1.5790    -0.6560 C.ar  1 <1>  -0.1500 
 15 C        3.4060     3.5380    -2.0160 C.ar  1 <1>  -0.1500 
 16 O        0.9180     5.5130    -3.0040 O.2   1 <1>  -0.5700 
 17 C        0.6710     7.5860    -1.9750 C.3   1 <1>   0.0440 
 18 C        4.1720     0.9070    -1.6730 C.ar  1 <1>  -0.1500 
 19 C        4.0620     2.8710    -3.0360 C.ar  1 <1>  -0.1500 
 20 C        1.5660     8.1360    -0.8650 C.ar  1 <1>  -0.1430 
 21 C        4.4470     1.5530    -2.8650 C.ar  1 <1>  -0.1500 
 22 C        2.7920     7.5460    -0.5950 C.ar  1 <1>  -0.1500 
 23 C        1.1590     9.2260    -0.1090 C.ar  1 <1>  -0.1500 
 24 C        3.5920     8.0180     0.4290 C.ar  1 <1>  -0.1500 
 25 C        1.9600     9.7040     0.9130 C.ar  1 <1>  -0.1500 
 26 C        3.1750     9.1020     1.1960 C.ar  1 <1>   0.0820 
 27 O        3.8910     9.6190     2.2250 O.3   1 <1>  -0.3620 
 28 C        5.0800     9.0040     2.6660 C.3   1 <1>   0.0400 
 29 H       -0.7420     3.6910     1.7840 H     1 <1>   0.0800 
 30 H       -0.8540     3.4860    -0.8320 H     1 <1>   0.0800 
 31 H        0.6330     3.4530    -1.7130 H     1 <1>   0.0800 
 32 H        2.5890     4.6900     0.2050 H     1 <1>   0.0800 
 33 H        2.9030     3.3460     1.2360 H     1 <1>   0.0800 
 34 H        1.1380     2.7520     2.7330 H     1 <1>   0.4000 
 35 H       -0.2960     5.9850     2.4110 H     1 <1>   0.0800 
 36 H        1.2030     6.0010     1.5220 H     1 <1>   0.0800 
 37 H       -0.5810     7.0520     0.2140 H     1 <1>   0.0800 
 38 H       -1.5610     5.6260     0.3560 H     1 <1>   0.0800 
 39 H        3.2960     1.0650     0.2660 H     1 <1>   0.1500 
 40 H        3.1060     4.5580    -2.1640 H     1 <1>   0.1500 
 41 H        1.0700     7.9080    -2.9190 H     1 <1>   0.0800 
 42 H       -0.3210     7.9880    -1.8950 H     1 <1>   0.0800 
 43 H        4.4570    -0.1200    -1.5320 H     1 <1>   0.1500 
 44 H        4.2630     3.3790    -3.9620 H     1 <1>   0.1500 
 45 H        4.9530     1.0310    -3.6570 H     1 <1>   0.1500 
 46 H        3.1280     6.7080    -1.1800 H     1 <1>   0.1500 
 47 H        0.2180     9.7070    -0.3070 H     1 <1>   0.1500 
 48 H        4.5300     7.5300     0.6140 H     1 <1>   0.1500 
 49 H        1.6470    10.5470     1.5030 H     1 <1>   0.1500 
 50 H        5.4440     9.5510     3.5170 H     1 <1>   0.0800 
 51 H        5.8060     9.0380     1.8720 H     1 <1>   0.0800 
 52 H        4.8640     7.9880     2.9480 H     1 <1>   0.0800 
@<TRIPOS>BOND
  1   1   2  ar  
  2   2   3  ar  
  3   2   4  1   
  4   4   5  1   
  5   4   6  1   
  6   4   7  1   
  7   5   8  1   
  8   5   9  1   
  9   5  29  1   
 10   6  10  1   
 11   6  30  1   
 12   6  31  1   
 13   7  11  1   
 14   7  32  1   
 15   7  33  1   
 16   8  34  1   
 17   9  12  1   
 18   9  35  1   
 19   9  36  1   
 20  10  12  1   
 21  10  13  am  
 22  11  14  ar  
 23  11  15  ar  
 24  12  37  1   
 25  12  38  1   
 26  13  16  2   
 27  13  17  1   
 28  14  18  ar  
 29  14  39  1   
 30  15  19  ar  
 31  15  40  1   
 32  17  20  1   
 33  17  41  1   
 34  17  42  1   
 35  18  21  ar  
 36  18  43  1   
 37  19  21  ar  
 38  19  44  1   
 39  20  22  ar  
 40  20  23  ar  
 41  21  45  1   
 42  22  24  ar  
 43  22  46  1   
 44  23  25  ar  
 45  23  47  1   
 46  24  26  ar  
 47  24  48  1   
 48  25  26  ar  
 49  25  49  1   
 50  26  27  1   
 51  27  28  1   
 52  28  50  1   
 53  28  51  1   
 54  28  52  1   
@<TRIPOS>SUBSTRUCTURE
  1 ****   7 GROUP 4 **** **** 0

# MOE 2024.06 (io_trps.svl 2023.06)
