@<TRIPOS>MOLECULE
NONAME
49 51 1 0 0 
SMALL
USER_CHARGES


@<TRIPOS>ATOM
  1 CL      -0.2570     0.7500    -1.0790 Cl    1 <1>  -0.1770 
  2 C        1.2540     1.5580    -0.7620 C.ar  1 <1>   0.1770 
  3 C        1.6070     1.8510     0.5420 C.ar  1 <1>  -0.1500 
  4 C        2.0810     1.8930    -1.8160 C.ar  1 <1>  -0.1500 
  5 C        2.8070     2.4960     0.7890 C.ar  1 <1>  -0.1500 
  6 C        3.2790     2.5370    -1.5570 C.ar  1 <1>  -0.1500 
  7 C        3.6630     2.8590    -0.2540 C.ar  1 <1>   0.0860 
  8 C        4.9180     3.5410    -0.0010 C.2   1 <1>   0.5440 
  9 O        5.9500     3.0280    -0.3880 O.2   1 <1>  -0.5700 
 10 N        4.9740     4.7540     0.6590 N.am  1 <1>  -0.6600 
 11 C        6.2760     5.3630     1.0540 C.3   1 <1>   0.1400 
 12 C        3.7910     5.6350     0.8700 C.3   1 <1>   0.1400 
 13 C        6.4870     6.6710     0.2860 C.3   1 <1>  -0.1600 
 14 C        3.9870     6.9490     0.1090 C.3   1 <1>  -0.1600 
 15 C        5.3110     7.6430     0.4890 C.3   1 <1>  -0.0190 
 16 C        5.5360     8.9420    -0.2870 C.2   1 <1>   0.5690 
 17 O        5.1830     9.0130    -1.4410 O.2   1 <1>  -0.5700 
 18 N        6.1420     9.9740     0.3670 N.am  1 <1>  -0.4930 
 19 C        6.4680    11.2650    -0.1200 C.2   1 <1>   0.0630 
 20 C        6.2710    11.8130    -1.3880 C.2   1 <1>   0.1390 
 21 C        7.0570    12.2510     0.5860 C.2   1 <1>  -0.3020 
 22 N        6.7010    13.0380    -1.4680 N.2   1 <1>  -0.7070 
 23 N        7.1910    13.3130    -0.2420 N.pl3 1 <1>   0.3140 
 24 C        7.7930    14.6300     0.1210 C.3   1 <1>   0.1760 
 25 C        6.7580    15.7550    -0.0170 C.3   1 <1>  -0.2400 
 26 C        9.0300    14.9160    -0.7410 C.3   1 <1>  -0.2400 
 27 H        0.9500     1.5740     1.3470 H     1 <1>   0.1500 
 28 H        1.7900     1.6500    -2.8230 H     1 <1>   0.1500 
 29 H        3.0960     2.7210     1.8010 H     1 <1>   0.1500 
 30 H        3.9370     2.7970    -2.3690 H     1 <1>   0.1500 
 31 H        7.0920     4.6900     0.8500 H     1 <1>   0.0800 
 32 H        6.2650     5.5530     2.1130 H     1 <1>   0.0800 
 33 H        3.6830     5.8310     1.9230 H     1 <1>   0.0800 
 34 H        2.8890     5.1630     0.5220 H     1 <1>   0.0800 
 35 H        6.5930     6.4420    -0.7610 H     1 <1>   0.0800 
 36 H        7.4040     7.1270     0.6130 H     1 <1>   0.0800 
 37 H        3.1610     7.6070     0.3130 H     1 <1>   0.0800 
 38 H        3.9770     6.7370    -0.9470 H     1 <1>   0.0800 
 39 H        5.2570     7.8890     1.5340 H     1 <1>   0.0800 
 40 H        6.4120     9.8100     1.3330 H     1 <1>   0.3700 
 41 H        5.8160    11.2880    -2.2110 H     1 <1>   0.1500 
 42 H        7.3840    12.2630     1.6070 H     1 <1>   0.1500 
 43 H        8.0990    14.5730     1.1500 H     1 <1>   0.0800 
 44 H        6.4350    15.8410    -1.0410 H     1 <1>   0.0800 
 45 H        7.1850    16.6930     0.2870 H     1 <1>   0.0800 
 46 H        5.9030    15.5500     0.6020 H     1 <1>   0.0800 
 47 H        8.7530    14.9850    -1.7790 H     1 <1>   0.0800 
 48 H        9.7530    14.1290    -0.6250 H     1 <1>   0.0800 
 49 H        9.4840    15.8450    -0.4450 H     1 <1>   0.0800 
@<TRIPOS>BOND
  1   1   2  1   
  2   2   3  ar  
  3   2   4  ar  
  4   3   5  ar  
  5   3  27  1   
  6   4   6  ar  
  7   4  28  1   
  8   5   7  ar  
  9   5  29  1   
 10   6   7  ar  
 11   6  30  1   
 12   7   8  1   
 13   8   9  2   
 14   8  10  am  
 15  10  11  1   
 16  10  12  1   
 17  11  13  1   
 18  11  31  1   
 19  11  32  1   
 20  12  14  1   
 21  12  33  1   
 22  12  34  1   
 23  13  15  1   
 24  13  35  1   
 25  13  36  1   
 26  14  15  1   
 27  14  37  1   
 28  14  38  1   
 29  15  16  1   
 30  15  39  1   
 31  16  17  2   
 32  16  18  am  
 33  18  19  1   
 34  18  40  1   
 35  19  20  1   
 36  19  21  2   
 37  20  22  2   
 38  20  41  1   
 39  21  23  1   
 40  21  42  1   
 41  22  23  1   
 42  23  24  1   
 43  24  25  1   
 44  24  26  1   
 45  24  43  1   
 46  25  44  1   
 47  25  45  1   
 48  25  46  1   
 49  26  47  1   
 50  26  48  1   
 51  26  49  1   
@<TRIPOS>SUBSTRUCTURE
  1 ****  15 GROUP 4 **** **** 0

# MOE 2024.06 (io_trps.svl 2023.06)
