@<TRIPOS>MOLECULE
NONAME
52 55 1 0 0 
SMALL
USER_CHARGES


@<TRIPOS>ATOM
  1 O        0.8920    -1.1000     2.8800 O.2   1 <1>  -0.5700 
  2 C        0.9720    -1.2260     1.6720 C.2   1 <1>   0.5440 
  3 N        1.2180    -0.1270     0.8930 N.am  1 <1>  -0.4930 
  4 C        0.8510    -2.5520     1.1020 C.ar  1 <1>   0.0860 
  5 C        1.5830     1.2030     1.2200 C.2   1 <1>   0.0630 
  6 C        0.4680    -2.8460    -0.2080 C.ar  1 <1>   0.3100 
  7 C        1.1420    -3.6500     1.8920 C.ar  1 <1>   0.1600 
  8 C        2.4650     1.9390     0.4210 C.2   1 <1>   0.3720 
  9 C        1.2350     2.0470     2.2180 C.2   1 <1>  -0.3320 
 10 N        0.4260    -4.0970    -0.6470 N.ar  1 <1>  -0.6200 
 11 C        0.1000    -1.8280    -1.1640 C.ar  1 <1>   0.0000 
 12 N        1.0910    -4.8930     1.4700 N.ar  1 <1>  -0.6200 
 13 N        2.6840     3.1290     0.8830 N.2   1 <1>  -0.7070 
 14 N        3.0460     1.4440    -0.7630 N.pl3 1 <1>  -0.8210 
 15 N        1.9300     3.1930     2.0020 N.pl3 1 <1>   0.3140 
 16 C        0.2620     1.8480     3.3720 C.3   1 <1>  -0.0600 
 17 C        0.7350    -5.0450     0.2090 C.ar  1 <1>   0.4770 
 18 C       -1.0790    -1.0970    -1.0300 C.ar  1 <1>  -0.1500 
 19 C        0.9300    -1.5340    -2.2440 C.ar  1 <1>  -0.1500 
 20 C        4.5230     1.3180    -0.6440 C.3   1 <1>   0.2090 
 21 C        2.7480     2.3110    -1.9360 C.3   1 <1>   0.2090 
 22 C        1.9180     4.4070     2.8270 C.3   1 <1>   0.0160 
 23 C        0.6780    -6.4660    -0.2960 C.3   1 <1>  -0.0970 
 24 C       -1.4070    -0.0990    -1.9290 C.ar  1 <1>  -0.1500 
 25 C        0.6050    -0.5400    -3.1470 C.ar  1 <1>  -0.1500 
 26 C        5.0900     1.7900    -1.9740 C.3   1 <1>  -0.1600 
 27 C        4.0870     2.8320    -2.4400 C.3   1 <1>  -0.1600 
 28 C       -0.5630     0.1830    -2.9890 C.ar  1 <1>  -0.1500 
 29 H        1.3890    -0.2930    -0.1040 H     1 <1>   0.3700 
 30 H        1.4330    -3.4920     2.9180 H     1 <1>   0.1500 
 31 H       -0.4090     1.0370     3.1570 H     1 <1>   0.0800 
 32 H       -0.3300     2.7310     3.5280 H     1 <1>   0.0800 
 33 H        0.8020     1.6160     4.2720 H     1 <1>   0.0800 
 34 H       -1.7450    -1.3100    -0.2120 H     1 <1>   0.1500 
 35 H        1.8390    -2.0960    -2.3750 H     1 <1>   0.1500 
 36 H        4.7970     0.2980    -0.4410 H     1 <1>   0.0800 
 37 H        4.8890     1.9460     0.1530 H     1 <1>   0.0800 
 38 H        2.0890     3.1230    -1.6790 H     1 <1>   0.0800 
 39 H        2.2770     1.7090    -2.6930 H     1 <1>   0.0800 
 40 H        2.0770     4.1390     3.8540 H     1 <1>   0.0800 
 41 H        0.9700     4.8980     2.7150 H     1 <1>   0.0800 
 42 H        2.7040     5.0620     2.5000 H     1 <1>   0.0800 
 43 H        0.3520    -6.4910    -1.3190 H     1 <1>   0.0800 
 44 H       -0.0090    -7.0320     0.3040 H     1 <1>   0.0800 
 45 H        1.6530    -6.9090    -0.2270 H     1 <1>   0.0800 
 46 H       -2.3180     0.4600    -1.8050 H     1 <1>   0.1500 
 47 H        1.2610    -0.3290    -3.9740 H     1 <1>   0.1500 
 48 H        5.1110     0.9620    -2.6600 H     1 <1>   0.0800 
 49 H        6.0810     2.1910    -1.8650 H     1 <1>   0.0800 
 50 H        4.2890     3.7740    -1.9610 H     1 <1>   0.0800 
 51 H        4.0910     2.9660    -3.5070 H     1 <1>   0.0800 
 52 H       -0.8180     0.9600    -3.6890 H     1 <1>   0.1500 
@<TRIPOS>BOND
  1   1   2  2   
  2   2   3  am  
  3   2   4  1   
  4   3   5  1   
  5   3  29  1   
  6   4   6  ar  
  7   4   7  ar  
  8   5   8  1   
  9   5   9  2   
 10   6  10  ar  
 11   6  11  1   
 12   7  12  ar  
 13   7  30  1   
 14   8  13  2   
 15   8  14  1   
 16   9  15  1   
 17   9  16  1   
 18  10  17  ar  
 19  11  18  ar  
 20  11  19  ar  
 21  12  17  ar  
 22  13  15  1   
 23  14  20  1   
 24  14  21  1   
 25  15  22  1   
 26  16  31  1   
 27  16  32  1   
 28  16  33  1   
 29  17  23  1   
 30  18  24  ar  
 31  18  34  1   
 32  19  25  ar  
 33  19  35  1   
 34  20  26  1   
 35  20  36  1   
 36  20  37  1   
 37  21  27  1   
 38  21  38  1   
 39  21  39  1   
 40  22  40  1   
 41  22  41  1   
 42  22  42  1   
 43  23  43  1   
 44  23  44  1   
 45  23  45  1   
 46  24  28  ar  
 47  24  46  1   
 48  25  28  ar  
 49  25  47  1   
 50  26  27  1   
 51  26  48  1   
 52  26  49  1   
 53  27  50  1   
 54  27  51  1   
 55  28  52  1   
@<TRIPOS>SUBSTRUCTURE
  1 ****   3 GROUP 4 **** **** 0

# MOE 2024.06 (io_trps.svl 2023.06)
