@<TRIPOS>MOLECULE
NONAME
48 51 1 0 0 
SMALL
USER_CHARGES


@<TRIPOS>ATOM
  1 O        2.3420    -0.6970     3.4060 O.2   1 <1>  -0.5700 
  2 C        2.4870    -1.1760     2.3050 C.2   1 <1>   0.5690 
  3 N        2.8830    -0.4070     1.2420 N.am  1 <1>  -0.6600 
  4 C        2.2500    -2.6740     2.1450 C.3   1 <1>   0.1810 
  5 C        3.1480     1.0480     1.3570 C.3   1 <1>   0.1400 
  6 C        2.9800    -0.8460    -0.1700 C.3   1 <1>   0.1400 
  7 O        1.2290    -2.9410     1.1940 O.3   1 <1>  -0.3620 
  8 C        2.9980     1.5730    -0.0650 C.3   1 <1>   0.1760 
  9 C        3.4150     0.3940    -0.9480 C.3   1 <1>  -0.1600 
 10 C        0.9390    -4.2070     0.8100 C.ar  1 <1>   0.0820 
 11 N        3.8090     2.7950    -0.2970 N.pl3 1 <1>   0.3140 
 12 C        0.0380    -4.3490    -0.2320 C.ar  1 <1>  -0.1500 
 13 C        1.4930    -5.3430     1.3940 C.ar  1 <1>  -0.1500 
 14 N        5.1460     2.8140    -0.1100 N.2   1 <1>  -0.7070 
 15 C        3.3620     4.0070    -0.7060 C.2   1 <1>  -0.3320 
 16 C       -0.3070    -5.6050    -0.6940 C.ar  1 <1>  -0.1500 
 17 C        1.1460    -6.5990     0.9300 C.ar  1 <1>  -0.1500 
 18 C        5.5110     4.0210    -0.4010 C.2   1 <1>   0.1080 
 19 C        4.4390     4.8160    -0.7810 C.2   1 <1>  -0.1500 
 20 C        1.9150     4.3590    -1.0140 C.3   1 <1>  -0.0600 
 21 C        0.2400    -6.7480    -0.1190 C.ar  1 <1>  -0.0230 
 22 C        6.9510     4.4710    -0.3210 C.3   1 <1>  -0.0590 
 23 N       -0.1230    -8.0410    -0.5960 N.pl3 1 <1>   0.5930 
 24 N       -0.3270    -8.3530    -1.8670 N.2   1 <1>  -0.4180 
 25 C       -0.3330    -9.1540     0.0920 C.2   1 <1>   0.0360 
 26 N       -0.6370    -9.5990    -1.9050 N.2   1 <1>   0.0000 
 27 N       -0.6450   -10.1180    -0.6830 N.2   1 <1>  -0.3380 
 28 H        1.9450    -3.0890     3.0890 H     1 <1>   0.0800 
 29 H        3.1580    -3.1410     1.8140 H     1 <1>   0.0800 
 30 H        4.1530     1.1900     1.7170 H     1 <1>   0.0800 
 31 H        2.4480     1.5150     2.0270 H     1 <1>   0.0800 
 32 H        2.0120    -1.1760    -0.5080 H     1 <1>   0.0800 
 33 H        3.6940    -1.6450    -0.2770 H     1 <1>   0.0800 
 34 H        1.9620     1.7970    -0.2340 H     1 <1>   0.0800 
 35 H        2.9580     0.4330    -1.9190 H     1 <1>   0.0800 
 36 H        4.4860     0.3710    -1.0580 H     1 <1>   0.0800 
 37 H       -0.3890    -3.4690    -0.6780 H     1 <1>   0.1500 
 38 H        2.1900    -5.2690     2.2080 H     1 <1>   0.1500 
 39 H       -1.0060    -5.6950    -1.5100 H     1 <1>   0.1500 
 40 H        1.5920    -7.4650     1.3900 H     1 <1>   0.1500 
 41 H        4.4900     5.8510    -1.0680 H     1 <1>   0.1500 
 42 H        1.5420     3.7390    -1.8100 H     1 <1>   0.0800 
 43 H        1.8430     5.3870    -1.3200 H     1 <1>   0.0800 
 44 H        1.3040     4.2210    -0.1400 H     1 <1>   0.0800 
 45 H        7.5500     3.8680    -0.9770 H     1 <1>   0.0800 
 46 H        7.3070     4.3510     0.6860 H     1 <1>   0.0800 
 47 H        7.0390     5.5020    -0.6070 H     1 <1>   0.0800 
 48 H       -0.2490    -9.2100     1.1600 H     1 <1>   0.1500 
@<TRIPOS>BOND
  1   1   2  2   
  2   2   3  am  
  3   2   4  1   
  4   3   5  1   
  5   3   6  1   
  6   4   7  1   
  7   4  28  1   
  8   4  29  1   
  9   5   8  1   
 10   5  30  1   
 11   5  31  1   
 12   6   9  1   
 13   6  32  1   
 14   6  33  1   
 15   7  10  1   
 16   8   9  1   
 17   8  11  1   
 18   8  34  1   
 19   9  35  1   
 20   9  36  1   
 21  10  12  ar  
 22  10  13  ar  
 23  11  14  1   
 24  11  15  1   
 25  12  16  ar  
 26  12  37  1   
 27  13  17  ar  
 28  13  38  1   
 29  14  18  2   
 30  15  19  2   
 31  15  20  1   
 32  16  21  ar  
 33  16  39  1   
 34  17  21  ar  
 35  17  40  1   
 36  18  19  1   
 37  18  22  1   
 38  19  41  1   
 39  20  42  1   
 40  20  43  1   
 41  20  44  1   
 42  21  23  1   
 43  22  45  1   
 44  22  46  1   
 45  22  47  1   
 46  23  24  1   
 47  23  25  1   
 48  24  26  2   
 49  25  27  2   
 50  25  48  1   
 51  26  27  1   
@<TRIPOS>SUBSTRUCTURE
  1 ****   6 GROUP 4 **** **** 0

# MOE 2024.06 (io_trps.svl 2023.06)
