@<TRIPOS>MOLECULE
NONAME
47 48 1 0 0 
SMALL
USER_CHARGES


@<TRIPOS>ATOM
  1 S       -3.4140    -5.1120     2.4450 S.3   1 <1>  -0.0800 
  2 C       -2.4240    -5.5230     1.0560 C.2   1 <1>  -0.1100 
  3 C       -3.3380    -3.4050     2.0420 C.2   1 <1>  -0.1100 
  4 C       -2.0990    -4.4210     0.3540 C.2   1 <1>  -0.1810 
  5 C       -2.6240    -3.2130     0.9190 C.2   1 <1>  -0.1500 
  6 C       -1.2430    -4.4010    -0.9030 C.3   1 <1>   0.0210 
  7 C       -2.0630    -4.7230    -2.1600 C.3   1 <1>  -0.0990 
  8 C       -2.4790    -6.1870    -2.1880 C.2   1 <1>   0.5690 
  9 O       -1.5840    -6.9890    -2.2940 O.2   1 <1>  -0.5700 
 10 N       -3.7880    -6.5900    -2.0900 N.am  1 <1>  -0.6600 
 11 C       -4.0990    -8.0550    -1.9950 C.3   1 <1>   0.3210 
 12 C       -4.9830    -5.7020    -2.0070 C.3   1 <1>   0.1400 
 13 C       -4.4570    -8.4480    -0.5630 C.2   1 <1>   0.0460 
 14 C       -5.1870    -5.1900    -0.5700 C.3   1 <1>   0.3430 
 15 N       -5.6960    -8.2460    -0.0570 N.2   1 <1>  -0.5650 
 16 C       -3.6540    -9.0360     0.3550 C.2   1 <1>  -0.3320 
 17 N       -6.5710    -4.6640    -0.3150 N.4   1 <1>  -0.9590 
 18 C       -5.6200    -8.7280     1.1420 C.2   1 <1>   0.0360 
 19 N       -4.4040    -9.2190     1.4560 N.pl3 1 <1>   0.0330 
 20 C       -2.1960    -9.4620     0.2780 C.3   1 <1>  -0.0600 
 21 C       -6.5780    -3.9120     0.9740 C.3   1 <1>   0.2630 
 22 C       -7.5580    -5.7900    -0.2470 C.3   1 <1>   0.2630 
 23 H       -2.1840    -6.5620     0.9040 H     1 <1>   0.1500 
 24 H       -3.8320    -2.7160     2.7050 H     1 <1>   0.1500 
 25 H       -2.4230    -2.2550     0.4680 H     1 <1>   0.1500 
 26 H       -0.4470    -5.1200    -0.8010 H     1 <1>   0.0800 
 27 H       -0.7830    -3.4330    -1.0070 H     1 <1>   0.0800 
 28 H       -1.4460    -4.5510    -3.0220 H     1 <1>   0.0800 
 29 H       -2.8990    -4.0570    -2.2260 H     1 <1>   0.0800 
 30 H       -3.2610    -8.6430    -2.3220 H     1 <1>   0.0800 
 31 H       -4.9210    -8.2980    -2.6450 H     1 <1>   0.0800 
 32 H       -5.8440    -6.2660    -2.3180 H     1 <1>   0.0800 
 33 H       -4.8710    -4.8750    -2.6830 H     1 <1>   0.0800 
 34 H       -4.4700    -4.4090    -0.3880 H     1 <1>   0.0800 
 35 H       -4.9800    -5.9900     0.1210 H     1 <1>   0.0800 
 36 H       -6.8360    -4.0230    -1.0760 H     1 <1>   0.4500 
 37 H       -6.4350    -8.7540     1.8450 H     1 <1>   0.1500 
 38 H       -4.1170    -9.6530     2.3390 H     1 <1>   0.2700 
 39 H       -1.7560    -9.1610    -0.6560 H     1 <1>   0.0800 
 40 H       -2.1170   -10.5310     0.3620 H     1 <1>   0.0800 
 41 H       -1.6310    -9.0090     1.0740 H     1 <1>   0.0800 
 42 H       -6.2900    -4.5610     1.7850 H     1 <1>   0.0800 
 43 H       -7.5630    -3.5210     1.1770 H     1 <1>   0.0800 
 44 H       -5.8830    -3.0900     0.9310 H     1 <1>   0.0800 
 45 H       -7.3030    -6.4580     0.5610 H     1 <1>   0.0800 
 46 H       -7.5530    -6.3580    -1.1630 H     1 <1>   0.0800 
 47 H       -8.5530    -5.4110    -0.0800 H     1 <1>   0.0800 
@<TRIPOS>BOND
  1   1   2  1   
  2   1   3  1   
  3   2   4  2   
  4   2  23  1   
  5   3   5  2   
  6   3  24  1   
  7   4   5  1   
  8   4   6  1   
  9   5  25  1   
 10   6   7  1   
 11   6  26  1   
 12   6  27  1   
 13   7   8  1   
 14   7  28  1   
 15   7  29  1   
 16   8   9  2   
 17   8  10  am  
 18  10  11  1   
 19  10  12  1   
 20  11  13  1   
 21  11  30  1   
 22  11  31  1   
 23  12  14  1   
 24  12  32  1   
 25  12  33  1   
 26  13  15  1   
 27  13  16  2   
 28  14  17  1   
 29  14  34  1   
 30  14  35  1   
 31  15  18  2   
 32  16  19  1   
 33  16  20  1   
 34  17  21  1   
 35  17  22  1   
 36  17  36  1   
 37  18  19  1   
 38  18  37  1   
 39  19  38  1   
 40  20  39  1   
 41  20  40  1   
 42  20  41  1   
 43  21  42  1   
 44  21  43  1   
 45  21  44  1   
 46  22  45  1   
 47  22  46  1   
 48  22  47  1   
@<TRIPOS>SUBSTRUCTURE
  1 ****  14 GROUP 4 **** **** 0

# MOE 2024.06 (io_trps.svl 2023.06)
