@<TRIPOS>MOLECULE
NONAME
46 49 1 0 0 
SMALL
USER_CHARGES


@<TRIPOS>ATOM
  1 O       -0.6020     0.3450     0.6830 O.2   1 <1>  -0.5700 
  2 C       -1.6190     0.9720     0.4510 C.2   1 <1>   0.5440 
  3 N       -2.8230     0.3030     0.4490 N.am  1 <1>  -0.6600 
  4 C       -1.5450     2.3900     0.1550 C.ar  1 <1>   0.0860 
  5 C       -4.0050     0.7270    -0.3490 C.3   1 <1>   0.1400 
  6 C       -2.9570    -1.1290     0.8040 C.3   1 <1>   0.1400 
  7 C       -2.4140     3.3050     0.7300 C.ar  1 <1>  -0.1500 
  8 C       -0.5680     2.8740    -0.7390 C.ar  1 <1>  -0.1500 
  9 C       -4.8940    -0.5180    -0.4870 C.3   1 <1>   0.2000 
 10 C       -3.9410    -1.6880    -0.2230 C.3   1 <1>  -0.0800 
 11 C       -2.3410     4.6590     0.4080 C.ar  1 <1>   0.0000 
 12 C       -0.4760     4.2060    -1.0670 C.ar  1 <1>  -0.1500 
 13 O       -5.8830    -0.5090     0.5040 O.3   1 <1>  -0.5600 
 14 C       -4.6260    -2.9910     0.2270 C.3   1 <1>   0.0200 
 15 C       -1.3760     5.1040    -0.4900 C.ar  1 <1>  -0.1520 
 16 C       -3.0700     5.8010     0.8060 C.2   1 <1>  -0.1500 
 17 C       -7.0360     0.2050     0.1870 C.3   1 <1>   0.0400 
 18 C       -3.6710    -4.1710     0.3090 C.2   1 <1>  -0.0400 
 19 N       -1.5120     6.4590    -0.6340 N.pl3 1 <1>   0.0330 
 20 C       -2.5460     6.8700     0.1590 C.2   1 <1>  -0.3020 
 21 O       -4.1210    -5.3120     0.7590 O.3   1 <1>  -0.0190 
 22 C       -2.3740    -4.3370     0.0020 C.2   1 <1>  -0.1500 
 23 N       -3.1970    -6.2300     0.7720 N.2   1 <1>  -0.4100 
 24 C       -2.1330    -5.6690     0.3220 C.2   1 <1>   0.1080 
 25 C       -0.8020    -6.3700     0.1660 C.3   1 <1>  -0.0590 
 26 H       -4.5290     1.5280     0.1400 H     1 <1>   0.0800 
 27 H       -3.6730     1.0490    -1.3200 H     1 <1>   0.0800 
 28 H       -2.0090    -1.6380     0.7710 H     1 <1>   0.0800 
 29 H       -3.3660    -1.2000     1.7970 H     1 <1>   0.0800 
 30 H       -3.1540     2.9790     1.4380 H     1 <1>   0.1500 
 31 H        0.1200     2.1640    -1.1660 H     1 <1>   0.1500 
 32 H       -5.3610    -0.5920    -1.4540 H     1 <1>   0.0800 
 33 H       -3.3960    -1.8770    -1.1310 H     1 <1>   0.0800 
 34 H        0.2740     4.5600    -1.7520 H     1 <1>   0.1500 
 35 H       -5.4100    -3.2380    -0.4670 H     1 <1>   0.0800 
 36 H       -5.0800    -2.8500     1.1930 H     1 <1>   0.0800 
 37 H       -3.8880     5.7810     1.5030 H     1 <1>   0.1500 
 38 H       -7.7050     0.1470     1.0270 H     1 <1>   0.0800 
 39 H       -7.5030    -0.2390    -0.6760 H     1 <1>   0.0800 
 40 H       -6.7860     1.2340    -0.0040 H     1 <1>   0.0800 
 41 H       -0.9280     7.0550    -1.2300 H     1 <1>   0.2700 
 42 H       -2.8460     7.9020     0.2160 H     1 <1>   0.1500 
 43 H       -1.6560    -3.6440    -0.3960 H     1 <1>   0.1500 
 44 H       -0.0430    -5.8360     0.7080 H     1 <1>   0.0800 
 45 H       -0.5330    -6.4130    -0.8730 H     1 <1>   0.0800 
 46 H       -0.8670    -7.3710     0.5520 H     1 <1>   0.0800 
@<TRIPOS>BOND
  1   1   2  2   
  2   2   3  am  
  3   2   4  1   
  4   3   5  1   
  5   3   6  1   
  6   4   7  ar  
  7   4   8  ar  
  8   5   9  1   
  9   5  26  1   
 10   5  27  1   
 11   6  10  1   
 12   6  28  1   
 13   6  29  1   
 14   7  11  ar  
 15   7  30  1   
 16   8  12  ar  
 17   8  31  1   
 18   9  10  1   
 19   9  13  1   
 20   9  32  1   
 21  10  14  1   
 22  10  33  1   
 23  11  15  ar  
 24  11  16  1   
 25  12  15  ar  
 26  12  34  1   
 27  13  17  1   
 28  14  18  1   
 29  14  35  1   
 30  14  36  1   
 31  15  19  1   
 32  16  20  2   
 33  16  37  1   
 34  17  38  1   
 35  17  39  1   
 36  17  40  1   
 37  18  21  1   
 38  18  22  2   
 39  19  20  1   
 40  19  41  1   
 41  20  42  1   
 42  21  23  1   
 43  22  24  1   
 44  22  43  1   
 45  23  24  2   
 46  24  25  1   
 47  25  44  1   
 48  25  45  1   
 49  25  46  1   
@<TRIPOS>SUBSTRUCTURE
  1 ****   3 GROUP 4 **** **** 0

# MOE 2024.06 (io_trps.svl 2023.06)
