@<TRIPOS>MOLECULE
NONAME
43 46 1 0 0 
SMALL
USER_CHARGES


@<TRIPOS>ATOM
  1 CL      -3.9940    -0.3330    -2.2040 Cl    1 <1>  -0.1770 
  2 C       -3.3080     0.5860    -0.8850 C.ar  1 <1>   0.1770 
  3 C       -2.8050    -0.0560     0.2350 C.ar  1 <1>   0.0860 
  4 C       -3.2820     1.9660    -0.9770 C.ar  1 <1>   0.1600 
  5 C       -2.8060    -1.4900     0.3940 C.2   1 <1>   0.5440 
  6 C       -2.2790     0.7880     1.2030 C.ar  1 <1>  -0.1500 
  7 N       -2.7940     2.7690    -0.0430 N.ar  1 <1>  -0.6200 
  8 O       -1.7460    -2.0800     0.3510 O.2   1 <1>  -0.5700 
  9 N       -3.9620    -2.2060     0.6230 N.am  1 <1>  -0.6600 
 10 C       -2.2980     2.1590     1.0220 C.ar  1 <1>   0.1600 
 11 C       -3.9730    -3.7040     0.6840 C.3   1 <1>   0.1400 
 12 C       -5.3330    -1.6190     0.7380 C.3   1 <1>   0.1400 
 13 C       -5.0340    -4.2940    -0.2660 C.3   1 <1>   0.3440 
 14 C       -6.3060    -2.3150    -0.2340 C.3   1 <1>   0.2950 
 15 O       -6.2840    -3.6970    -0.0320 O.3   1 <1>  -0.5600 
 16 C       -5.1430    -5.8040    -0.0760 C.ar  1 <1>  -0.1440 
 17 C       -7.7450    -1.8360    -0.0230 C.3   1 <1>  -0.1950 
 18 C       -6.0090    -6.3570     0.8590 C.ar  1 <1>  -0.1500 
 19 C       -4.3530    -6.6500    -0.8420 C.ar  1 <1>  -0.1500 
 20 C       -8.7670    -1.9550    -1.1080 C.3   1 <1>  -0.2000 
 21 C       -8.2530    -0.6030    -0.7020 C.3   1 <1>  -0.2000 
 22 C       -6.0820    -7.7290     1.0260 C.ar  1 <1>  -0.1500 
 23 C       -4.4240    -8.0220    -0.6760 C.ar  1 <1>  -0.1500 
 24 C       -5.2890    -8.5630     0.2590 C.ar  1 <1>  -0.1500 
 25 H       -3.6840     2.4280    -1.8630 H     1 <1>   0.1500 
 26 H       -1.8510     0.3660     2.0950 H     1 <1>   0.1500 
 27 H       -1.8830     2.7900     1.7920 H     1 <1>   0.1500 
 28 H       -3.0110    -4.1050     0.4190 H     1 <1>   0.0800 
 29 H       -4.1900    -4.0160     1.6900 H     1 <1>   0.0800 
 30 H       -5.6880    -1.7550     1.7440 H     1 <1>   0.0800 
 31 H       -5.3250    -0.5650     0.5320 H     1 <1>   0.0800 
 32 H       -4.7560    -4.0880    -1.2850 H     1 <1>   0.0800 
 33 H       -6.0110    -2.1200    -1.2510 H     1 <1>   0.0800 
 34 H       -8.0830    -2.0150     0.9830 H     1 <1>   0.1000 
 35 H       -6.6330    -5.7170     1.4590 H     1 <1>   0.1500 
 36 H       -3.6740    -6.2450    -1.5720 H     1 <1>   0.1500 
 37 H       -8.4660    -2.3710    -2.0550 H     1 <1>   0.1000 
 38 H       -9.7690    -2.2390    -0.8360 H     1 <1>   0.1000 
 39 H       -8.9130     0.0550    -0.1630 H     1 <1>   0.1000 
 40 H       -7.6210    -0.0740    -1.3960 H     1 <1>   0.1000 
 41 H       -6.7570    -8.1460     1.7520 H     1 <1>   0.1500 
 42 H       -3.8070    -8.6690    -1.2750 H     1 <1>   0.1500 
 43 H       -5.3450    -9.6300     0.3880 H     1 <1>   0.1500 
@<TRIPOS>BOND
  1   1   2  1   
  2   2   3  ar  
  3   2   4  ar  
  4   3   5  1   
  5   3   6  ar  
  6   4   7  ar  
  7   4  25  1   
  8   5   8  2   
  9   5   9  am  
 10   6  10  ar  
 11   6  26  1   
 12   7  10  ar  
 13   9  11  1   
 14   9  12  1   
 15  10  27  1   
 16  11  13  1   
 17  11  28  1   
 18  11  29  1   
 19  12  14  1   
 20  12  30  1   
 21  12  31  1   
 22  13  15  1   
 23  13  16  1   
 24  13  32  1   
 25  14  15  1   
 26  14  17  1   
 27  14  33  1   
 28  16  18  ar  
 29  16  19  ar  
 30  17  20  1   
 31  17  21  1   
 32  17  34  1   
 33  18  22  ar  
 34  18  35  1   
 35  19  23  ar  
 36  19  36  1   
 37  20  21  1   
 38  20  37  1   
 39  20  38  1   
 40  21  39  1   
 41  21  40  1   
 42  22  24  ar  
 43  22  41  1   
 44  23  24  ar  
 45  23  42  1   
 46  24  43  1   
@<TRIPOS>SUBSTRUCTURE
  1 ****   9 GROUP 4 **** **** 0

# MOE 2024.06 (io_trps.svl 2023.06)
