@<TRIPOS>MOLECULE
NONAME
51 53 1 0 0 
SMALL
USER_CHARGES


@<TRIPOS>ATOM
  1 O       -2.2680     0.2950    -1.9960 O.2   1 <1>  -0.5700 
  2 C       -2.0910     0.5950    -0.8350 C.2   1 <1>   0.5690 
  3 N       -2.2350    -0.3340     0.1480 N.am  1 <1>  -0.7300 
  4 C       -1.7100     2.0530    -0.4420 C.3   1 <1>   0.3410 
  5 C       -2.6570    -1.7350    -0.0470 C.3   1 <1>   0.2200 
  6 O       -1.6500     2.1270     0.9740 O.3   1 <1>  -0.5600 
  7 C       -2.7850     3.0300    -0.9500 C.3   1 <1>  -0.2400 
  8 C       -0.3300     2.4030    -1.0270 C.3   1 <1>  -0.2400 
  9 C       -4.1670    -1.8170     0.0770 C.3   1 <1>  -0.0800 
 10 C       -2.1810    -2.6050     1.1160 C.3   1 <1>   0.1200 
 11 C       -1.3140     3.3240     1.6060 C.3   1 <1>   0.1200 
 12 C       -4.3420    -1.9570     1.5880 C.3   1 <1>   0.1200 
 13 C       -4.7300    -3.0270    -0.6920 C.3   1 <1>  -0.0170 
 14 O       -3.2220    -2.6510     2.0500 O.3   1 <1>  -0.5600 
 15 C       -1.3450     3.0620     3.1060 C.3   1 <1>  -0.2400 
 16 C       -6.2550    -3.0530    -0.6570 C.ar  1 <1>  -0.1440 
 17 C       -7.0440    -2.1880    -1.4520 C.ar  1 <1>   0.0000 
 18 C       -6.9060    -3.9280     0.1620 C.ar  1 <1>  -0.1500 
 19 C       -8.4520    -2.2870    -1.3290 C.ar  1 <1>   0.3100 
 20 C       -6.5240    -1.2360    -2.3610 C.ar  1 <1>  -0.1500 
 21 C       -8.3050    -3.9460     0.2040 C.ar  1 <1>   0.1600 
 22 N       -9.0650    -3.1680    -0.4990 N.ar  1 <1>  -0.6200 
 23 C       -9.2620    -1.4390    -2.1010 C.ar  1 <1>  -0.1500 
 24 C       -7.3420    -0.4260    -3.0990 C.ar  1 <1>  -0.1500 
 25 C       -8.7300    -0.5250    -2.9690 C.ar  1 <1>  -0.1500 
 26 H       -2.1360     0.0000     1.1130 H     1 <1>   0.3700 
 27 H       -2.2920    -2.0930    -0.9960 H     1 <1>   0.0800 
 28 H       -2.9300     2.8870    -2.0060 H     1 <1>   0.0800 
 29 H       -2.4970     4.0530    -0.7990 H     1 <1>   0.0800 
 30 H       -3.7200     2.8350    -0.4560 H     1 <1>   0.0800 
 31 H       -0.3330     2.2160    -2.0860 H     1 <1>   0.0800 
 32 H        0.4250     1.7820    -0.5800 H     1 <1>   0.0800 
 33 H       -0.0870     3.4380    -0.8810 H     1 <1>   0.0800 
 34 H       -4.6370    -0.9180    -0.2780 H     1 <1>   0.0800 
 35 H       -1.2950    -2.2150     1.5850 H     1 <1>   0.0800 
 36 H       -2.0030    -3.6120     0.7850 H     1 <1>   0.0800 
 37 H       -0.3260     3.6270     1.3070 H     1 <1>   0.0800 
 38 H       -2.0320     4.0830     1.3510 H     1 <1>   0.0800 
 39 H       -5.2330    -2.4900     1.8680 H     1 <1>   0.0800 
 40 H       -4.3410    -0.9890     2.0590 H     1 <1>   0.0800 
 41 H       -4.3440    -3.9380    -0.2670 H     1 <1>   0.0800 
 42 H       -4.4030    -2.9980    -1.7170 H     1 <1>   0.0800 
 43 H       -0.6330     2.2980     3.3630 H     1 <1>   0.0800 
 44 H       -2.3300     2.7510     3.4070 H     1 <1>   0.0800 
 45 H       -1.0910     3.9600     3.6390 H     1 <1>   0.0800 
 46 H       -6.3700    -4.6150     0.7910 H     1 <1>   0.1500 
 47 H       -5.4600    -1.1410    -2.4800 H     1 <1>   0.1500 
 48 H       -8.7780    -4.6520     0.8650 H     1 <1>   0.1500 
 49 H      -10.3260    -1.5350    -1.9860 H     1 <1>   0.1500 
 50 H       -6.9300     0.2950    -3.7850 H     1 <1>   0.1500 
 51 H       -9.3630     0.1180    -3.5550 H     1 <1>   0.1500 
@<TRIPOS>BOND
  1   1   2  2   
  2   2   3  am  
  3   2   4  1   
  4   3   5  1   
  5   3  26  1   
  6   4   6  1   
  7   4   7  1   
  8   4   8  1   
  9   5   9  1   
 10   5  10  1   
 11   5  27  1   
 12   6  11  1   
 13   7  28  1   
 14   7  29  1   
 15   7  30  1   
 16   8  31  1   
 17   8  32  1   
 18   8  33  1   
 19   9  12  1   
 20   9  13  1   
 21   9  34  1   
 22  10  14  1   
 23  10  35  1   
 24  10  36  1   
 25  11  15  1   
 26  11  37  1   
 27  11  38  1   
 28  12  14  1   
 29  12  39  1   
 30  12  40  1   
 31  13  16  1   
 32  13  41  1   
 33  13  42  1   
 34  15  43  1   
 35  15  44  1   
 36  15  45  1   
 37  16  17  ar  
 38  16  18  ar  
 39  17  19  ar  
 40  17  20  ar  
 41  18  21  ar  
 42  18  46  1   
 43  19  22  ar  
 44  19  23  ar  
 45  20  24  ar  
 46  20  47  1   
 47  21  22  ar  
 48  21  48  1   
 49  23  25  ar  
 50  23  49  1   
 51  24  25  ar  
 52  24  50  1   
 53  25  51  1   
@<TRIPOS>SUBSTRUCTURE
  1 ****   9 GROUP 4 **** **** 0

# MOE 2024.06 (io_trps.svl 2023.06)
