@<TRIPOS>MOLECULE
NONAME
50 51 1 0 0 
SMALL
USER_CHARGES


@<TRIPOS>ATOM
  1 S        0.6390    -0.9250     0.3910 S.o2  1 <1>   1.5760 
  2 O        1.6470    -1.8530     0.8420 O.2   1 <1>  -0.6500 
  3 O       -0.3830    -0.4170     1.2720 O.2   1 <1>  -0.6500 
  4 N        1.4220     0.3890    -0.3040 N.am  1 <1>  -0.8490 
  5 N       -0.1330    -1.4780    -0.9840 N.am  1 <1>  -0.9140 
  6 C        1.9120     1.2660     0.7620 C.3   1 <1>   0.3390 
  7 C        2.5210    -0.0220    -1.1940 C.3   1 <1>   0.1160 
  8 C       -0.9260    -2.7140    -0.9350 C.3   1 <1>   0.2760 
  9 C        2.5910     2.5110     0.2030 C.ar  1 <1>  -0.1430 
 10 C       -2.0970    -2.6800     0.0490 C.3   1 <1>  -0.0800 
 11 C       -0.1440    -3.9740    -0.5260 C.3   1 <1>   0.1200 
 12 C        1.8740     3.4100    -0.5730 C.ar  1 <1>  -0.1500 
 13 C        3.9320     2.7590     0.4630 C.ar  1 <1>  -0.1500 
 14 C       -1.5460    -3.5000     1.2150 C.3   1 <1>   0.1200 
 15 C       -3.3370    -3.3740    -0.5570 C.3   1 <1>  -0.0550 
 16 O       -0.7750    -4.4860     0.6110 O.3   1 <1>  -0.5600 
 17 C        2.4870     4.5410    -1.0830 C.ar  1 <1>  -0.1500 
 18 C        4.5460     3.8900    -0.0470 C.ar  1 <1>  -0.1500 
 19 S       -4.8540    -3.1040     0.3620 S.o2  1 <1>   1.3330 
 20 C        3.8230     4.7820    -0.8200 C.ar  1 <1>  -0.1500 
 21 O       -4.7500    -3.6730     1.6860 O.2   1 <1>  -0.6500 
 22 O       -5.2020    -1.7100     0.2050 O.2   1 <1>  -0.6500 
 23 N       -5.9830    -4.0290    -0.5070 N.am  1 <1>  -0.8490 
 24 C       -5.9720    -5.4500    -0.1390 C.3   1 <1>   0.1160 
 25 C       -7.3450    -3.4980    -0.3870 C.3   1 <1>   0.1160 
 26 H       -0.7660    -0.7100    -1.1830 H     1 <1>   0.4200 
 27 H        1.0850     1.5880     1.3730 H     1 <1>   0.0800 
 28 H        2.5980     0.7250     1.3930 H     1 <1>   0.0800 
 29 H        2.9290     0.8320    -1.7080 H     1 <1>   0.0800 
 30 H        2.1600    -0.7100    -1.9390 H     1 <1>   0.0800 
 31 H        3.3060    -0.5020    -0.6340 H     1 <1>   0.0800 
 32 H       -1.2970    -2.8730    -1.9330 H     1 <1>   0.0800 
 33 H       -2.3630    -1.6810     0.3470 H     1 <1>   0.0800 
 34 H        0.8870    -3.7830    -0.2970 H     1 <1>   0.0800 
 35 H       -0.2010    -4.7260    -1.2920 H     1 <1>   0.0800 
 36 H        0.8350     3.2230    -0.7840 H     1 <1>   0.1500 
 37 H        4.5060     2.0740     1.0620 H     1 <1>   0.1500 
 38 H       -2.3020    -3.9660     1.8210 H     1 <1>   0.0800 
 39 H       -0.9010    -2.9130     1.8470 H     1 <1>   0.0800 
 40 H       -3.1490    -4.4270    -0.6370 H     1 <1>   0.0800 
 41 H       -3.4940    -2.9990    -1.5500 H     1 <1>   0.0800 
 42 H        1.9230     5.2330    -1.6850 H     1 <1>   0.1500 
 43 H        5.5850     4.0770     0.1580 H     1 <1>   0.1500 
 44 H        4.3000     5.6610    -1.2160 H     1 <1>   0.1500 
 45 H       -6.6360    -6.0030    -0.7820 H     1 <1>   0.0800 
 46 H       -6.2880    -5.5780     0.8840 H     1 <1>   0.0800 
 47 H       -4.9810    -5.8560    -0.2460 H     1 <1>   0.0800 
 48 H       -8.0310    -4.0960    -0.9620 H     1 <1>   0.0800 
 49 H       -7.3820    -2.4890    -0.7640 H     1 <1>   0.0800 
 50 H       -7.6560    -3.4930     0.6450 H     1 <1>   0.0800 
@<TRIPOS>BOND
  1   1   2  2   
  2   1   3  2   
  3   1   4  am  
  4   1   5  am  
  5   4   6  1   
  6   4   7  1   
  7   5   8  1   
  8   5  26  1   
  9   6   9  1   
 10   6  27  1   
 11   6  28  1   
 12   7  29  1   
 13   7  30  1   
 14   7  31  1   
 15   8  10  1   
 16   8  11  1   
 17   8  32  1   
 18   9  12  ar  
 19   9  13  ar  
 20  10  14  1   
 21  10  15  1   
 22  10  33  1   
 23  11  16  1   
 24  11  34  1   
 25  11  35  1   
 26  12  17  ar  
 27  12  36  1   
 28  13  18  ar  
 29  13  37  1   
 30  14  16  1   
 31  14  38  1   
 32  14  39  1   
 33  15  19  1   
 34  15  40  1   
 35  15  41  1   
 36  17  20  ar  
 37  17  42  1   
 38  18  20  ar  
 39  18  43  1   
 40  19  21  2   
 41  19  22  2   
 42  19  23  am  
 43  20  44  1   
 44  23  24  1   
 45  23  25  1   
 46  24  45  1   
 47  24  46  1   
 48  24  47  1   
 49  25  48  1   
 50  25  49  1   
 51  25  50  1   
@<TRIPOS>SUBSTRUCTURE
  1 ****   5 GROUP 4 **** **** 0

# MOE 2024.06 (io_trps.svl 2023.06)
