@<TRIPOS>MOLECULE
NONAME
47 49 1 0 0 
SMALL
USER_CHARGES


@<TRIPOS>ATOM
  1 CL      -5.1080    -1.0100    -2.3380 Cl    1 <1>  -0.1770 
  2 C       -4.0160     0.1590    -1.6260 C.ar  1 <1>   0.1770 
  3 C       -3.2930    -0.1600    -0.4810 C.ar  1 <1>   0.0830 
  4 C       -3.9070     1.4020    -2.2200 C.ar  1 <1>  -0.1500 
  5 O       -3.4400    -1.3920     0.0680 O.3   1 <1>  -0.3630 
  6 C       -2.4420     0.7970     0.0630 C.ar  1 <1>  -0.1500 
  7 C       -3.0620     2.3500    -1.6670 C.ar  1 <1>  -0.1500 
  8 C       -3.3940    -1.5380     1.4810 C.3   1 <1>   0.1810 
  9 C       -2.3320     2.0450    -0.5290 C.ar  1 <1>  -0.1500 
 10 C       -3.9330    -2.8960     1.9310 C.2   1 <1>   0.5690 
 11 O       -3.1460    -3.6240     2.4930 O.2   1 <1>  -0.5700 
 12 N       -5.2510    -3.2680     1.7540 N.am  1 <1>  -0.6600 
 13 C       -6.2440    -2.4340     1.0080 C.3   1 <1>   0.2200 
 14 C       -5.6990    -4.6070     2.2500 C.3   1 <1>   0.0600 
 15 C       -6.9890    -3.1830    -0.0930 C.3   1 <1>  -0.1600 
 16 C       -7.3480    -1.8780     1.9000 C.3   1 <1>  -0.1600 
 17 C       -8.2100    -2.3010    -0.3790 C.3   1 <1>  -0.0800 
 18 C       -8.4770    -1.5140     0.9260 C.3   1 <1>  -0.0800 
 19 C       -9.4090    -3.1000    -0.9260 C.3   1 <1>   0.1400 
 20 C       -9.8800    -1.7530     1.5100 C.3   1 <1>  -0.0990 
 21 N      -10.6660    -2.3290    -0.7570 N.am  1 <1>  -0.6600 
 22 C      -10.9250    -1.6740     0.4160 C.2   1 <1>   0.5690 
 23 C      -11.6240    -2.3490    -1.8940 C.3   1 <1>   0.0600 
 24 O      -11.9370    -1.0460     0.6180 O.2   1 <1>  -0.5700 
 25 H       -4.4780     1.6240    -3.1040 H     1 <1>   0.1500 
 26 H       -1.8530     0.5810     0.9360 H     1 <1>   0.1500 
 27 H       -2.9700     3.3210    -2.1220 H     1 <1>   0.1500 
 28 H       -2.3710    -1.4470     1.7930 H     1 <1>   0.0800 
 29 H       -3.9800    -0.7560     1.9280 H     1 <1>   0.0800 
 30 H       -1.6720     2.7830    -0.1050 H     1 <1>   0.1500 
 31 H       -5.7640    -1.5940     0.5420 H     1 <1>   0.0800 
 32 H       -6.7330    -4.5870     2.5400 H     1 <1>   0.0800 
 33 H       -5.1170    -4.9060     3.1050 H     1 <1>   0.0800 
 34 H       -5.5630    -5.3390     1.4730 H     1 <1>   0.0800 
 35 H       -6.3730    -3.3080    -0.9660 H     1 <1>   0.0800 
 36 H       -7.3180    -4.1440     0.2550 H     1 <1>   0.0800 
 37 H       -7.6840    -2.6270     2.5920 H     1 <1>   0.0800 
 38 H       -7.0090    -1.0160     2.4480 H     1 <1>   0.0800 
 39 H       -7.9280    -1.5860    -1.1350 H     1 <1>   0.0800 
 40 H       -8.3970    -0.4660     0.6870 H     1 <1>   0.0800 
 41 H       -9.5130    -4.0290    -0.3910 H     1 <1>   0.0800 
 42 H       -9.2470    -3.3270    -1.9660 H     1 <1>   0.0800 
 43 H      -10.0950    -1.0200     2.2660 H     1 <1>   0.0800 
 44 H       -9.9460    -2.7280     1.9540 H     1 <1>   0.0800 
 45 H      -11.1650    -1.9130    -2.7640 H     1 <1>   0.0800 
 46 H      -12.5090    -1.7840    -1.6520 H     1 <1>   0.0800 
 47 H      -11.9120    -3.3620    -2.1100 H     1 <1>   0.0800 
@<TRIPOS>BOND
  1   1   2  1   
  2   2   3  ar  
  3   2   4  ar  
  4   3   5  1   
  5   3   6  ar  
  6   4   7  ar  
  7   4  25  1   
  8   5   8  1   
  9   6   9  ar  
 10   6  26  1   
 11   7   9  ar  
 12   7  27  1   
 13   8  10  1   
 14   8  28  1   
 15   8  29  1   
 16   9  30  1   
 17  10  11  2   
 18  10  12  am  
 19  12  13  1   
 20  12  14  1   
 21  13  15  1   
 22  13  16  1   
 23  13  31  1   
 24  14  32  1   
 25  14  33  1   
 26  14  34  1   
 27  15  17  1   
 28  15  35  1   
 29  15  36  1   
 30  16  18  1   
 31  16  37  1   
 32  16  38  1   
 33  17  18  1   
 34  17  19  1   
 35  17  39  1   
 36  18  20  1   
 37  18  40  1   
 38  19  21  1   
 39  19  41  1   
 40  19  42  1   
 41  20  22  1   
 42  20  43  1   
 43  20  44  1   
 44  21  22  am  
 45  21  23  1   
 46  22  24  2   
 47  23  45  1   
 48  23  46  1   
 49  23  47  1   
@<TRIPOS>SUBSTRUCTURE
  1 ****  13 GROUP 4 **** **** 0

# MOE 2024.06 (io_trps.svl 2023.06)
