@<TRIPOS>MOLECULE
NONAME
57 60 1 0 0 
SMALL
USER_CHARGES


@<TRIPOS>ATOM
  1 O       -0.7250     0.2250    -0.8980 O.2   1 <1>  -0.5700 
  2 C       -1.7640     0.7700    -0.5980 C.2   1 <1>   0.5690 
  3 N       -2.8680     0.0010    -0.3130 N.am  1 <1>  -0.6600 
  4 C       -1.7470     2.3250    -0.4700 C.3   1 <1>   0.2040 
  5 C       -4.2410     0.4420     0.0680 C.3   1 <1>   0.1400 
  6 C       -2.8450    -1.4800    -0.4280 C.3   1 <1>   0.1400 
  7 C       -3.0230     2.9440    -1.0820 C.ar  1 <1>  -0.1440 
  8 C       -1.5510     2.6730     1.0230 C.3   1 <1>  -0.1600 
  9 C       -0.5570     2.9720    -1.2310 C.3   1 <1>  -0.1600 
 10 C       -5.0210    -0.8380     0.3810 C.3   1 <1>   0.2000 
 11 C       -3.9890    -1.9610     0.4630 C.3   1 <1>  -0.0800 
 12 C       -3.8750     3.8050    -0.3930 C.ar  1 <1>  -0.1500 
 13 C       -3.3490     2.6190    -2.3960 C.ar  1 <1>  -0.1500 
 14 C       -0.1990     2.1780     1.5310 C.3   1 <1>   0.3430 
 15 C        0.8220     2.6060    -0.6730 C.3   1 <1>   0.3430 
 16 O       -5.6960    -0.7390     1.5880 O.3   1 <1>  -0.6800 
 17 C       -4.5680    -3.3280     0.0610 C.3   1 <1>  -0.0160 
 18 C       -5.0070     4.3210    -0.9990 C.ar  1 <1>  -0.1500 
 19 C       -4.4800     3.1340    -3.0030 C.ar  1 <1>  -0.1500 
 20 N        0.8880     2.8800     0.7920 N.4   1 <1>  -0.9590 
 21 C       -3.5300    -4.4320     0.1740 C.ar  1 <1>   0.1670 
 22 C       -5.3110     3.9870    -2.3050 C.ar  1 <1>  -0.1500 
 23 C        2.2230     2.4730     1.3230 C.3   1 <1>   0.2630 
 24 N       -2.7220    -4.5910    -0.8620 N.ar  1 <1>  -0.6200 
 25 C       -3.4630    -5.2090     1.3290 C.ar  1 <1>   0.1600 
 26 C       -1.8520    -5.5690    -0.6680 C.ar  1 <1>   0.1600 
 27 N       -2.5910    -6.1830     1.5270 N.ar  1 <1>  -0.6200 
 28 C       -1.7880    -6.3380     0.4880 C.ar  1 <1>   0.1600 
 29 H       -4.2060     1.0930     0.9230 H     1 <1>   0.0800 
 30 H       -4.7120     0.9460    -0.7580 H     1 <1>   0.0800 
 31 H       -3.0180    -1.7560    -1.4550 H     1 <1>   0.0800 
 32 H       -1.9000    -1.8880    -0.1090 H     1 <1>   0.0800 
 33 H       -2.3280     2.2150     1.6080 H     1 <1>   0.0800 
 34 H       -1.6020     3.7360     1.1800 H     1 <1>   0.0800 
 35 H       -0.6620     4.0420    -1.2190 H     1 <1>   0.0800 
 36 H       -0.5830     2.6680    -2.2620 H     1 <1>   0.0800 
 37 H       -5.7450    -1.0190    -0.3960 H     1 <1>   0.0800 
 38 H       -3.6010    -2.0220     1.4650 H     1 <1>   0.0800 
 39 H       -3.6940     4.0990     0.6240 H     1 <1>   0.1500 
 40 H       -2.7270     1.9510    -2.9680 H     1 <1>   0.1500 
 41 H       -0.1170     1.1120     1.3820 H     1 <1>   0.0800 
 42 H       -0.1140     2.3810     2.5870 H     1 <1>   0.0800 
 43 H        1.5770     3.1780    -1.1890 H     1 <1>   0.0800 
 44 H        1.0230     1.5630    -0.8550 H     1 <1>   0.0800 
 45 H       -5.0680    -0.6340     2.3280 H     1 <1>   0.4000 
 46 H       -4.9320    -3.2910    -0.9510 H     1 <1>   0.0800 
 47 H       -5.4060    -3.5570     0.6960 H     1 <1>   0.0800 
 48 H       -5.6560     4.9860    -0.4550 H     1 <1>   0.1500 
 49 H       -4.7140     2.8700    -4.0200 H     1 <1>   0.1500 
 50 H        0.7690     3.8940     0.9300 H     1 <1>   0.4500 
 51 H       -6.1920     4.3900    -2.7750 H     1 <1>   0.1500 
 52 H        2.3730     1.4150     1.1830 H     1 <1>   0.0800 
 53 H        2.2920     2.6950     2.3760 H     1 <1>   0.0800 
 54 H        3.0080     3.0030     0.8090 H     1 <1>   0.0800 
 55 H       -4.1600    -5.0160     2.1250 H     1 <1>   0.1500 
 56 H       -1.1550    -5.7720    -1.4620 H     1 <1>   0.1500 
 57 H       -1.0430    -7.1110     0.5530 H     1 <1>   0.1500 
@<TRIPOS>BOND
  1   1   2  2   
  2   2   3  am  
  3   2   4  1   
  4   3   5  1   
  5   3   6  1   
  6   4   7  1   
  7   4   8  1   
  8   4   9  1   
  9   5  10  1   
 10   5  29  1   
 11   5  30  1   
 12   6  11  1   
 13   6  31  1   
 14   6  32  1   
 15   7  12  ar  
 16   7  13  ar  
 17   8  14  1   
 18   8  33  1   
 19   8  34  1   
 20   9  15  1   
 21   9  35  1   
 22   9  36  1   
 23  10  11  1   
 24  10  16  1   
 25  10  37  1   
 26  11  17  1   
 27  11  38  1   
 28  12  18  ar  
 29  12  39  1   
 30  13  19  ar  
 31  13  40  1   
 32  14  20  1   
 33  14  41  1   
 34  14  42  1   
 35  15  20  1   
 36  15  43  1   
 37  15  44  1   
 38  16  45  1   
 39  17  21  1   
 40  17  46  1   
 41  17  47  1   
 42  18  22  ar  
 43  18  48  1   
 44  19  22  ar  
 45  19  49  1   
 46  20  23  1   
 47  20  50  1   
 48  21  24  ar  
 49  21  25  ar  
 50  22  51  1   
 51  23  52  1   
 52  23  53  1   
 53  23  54  1   
 54  24  26  ar  
 55  25  27  ar  
 56  25  55  1   
 57  26  28  ar  
 58  26  56  1   
 59  27  28  ar  
 60  28  57  1   
@<TRIPOS>SUBSTRUCTURE
  1 ****   3 GROUP 4 **** **** 0

# MOE 2024.06 (io_trps.svl 2023.06)
