@<TRIPOS>MOLECULE
NONAME
40 41 1 0 0 
SMALL
USER_CHARGES


@<TRIPOS>ATOM
  1 CL      -1.8820    -1.4460     3.0700 Cl    1 <1>  -0.1770 
  2 C       -2.6040    -1.3810     1.4730 C.ar  1 <1>   0.1770 
  3 C       -3.1200    -0.1980     0.9510 C.ar  1 <1>   0.0820 
  4 C       -2.6700    -2.5680     0.7650 C.ar  1 <1>  -0.1500 
  5 O       -2.9690     0.9830     1.6090 O.3   1 <1>  -0.3630 
  6 C       -3.7910    -0.2490    -0.2770 C.ar  1 <1>   0.0820 
  7 C       -3.2870    -2.5980    -0.4770 C.ar  1 <1>  -0.1440 
  8 C       -1.6310     1.4970     1.7090 C.3   1 <1>   0.0140 
  9 O       -4.4130     0.8150    -0.8440 O.3   1 <1>  -0.3630 
 10 C       -3.8610    -1.4410    -0.9790 C.ar  1 <1>  -0.1500 
 11 C       -3.3460    -3.8820    -1.2750 C.3   1 <1>   0.4860 
 12 C       -0.8270     1.4560     0.4090 C.2   1 <1>   0.9060 
 13 C       -3.6040     1.9120    -1.2160 C.3   1 <1>   0.0400 
 14 N       -4.1560    -4.8530    -0.5220 N.4   1 <1>  -0.9590 
 15 O       -0.7140     2.4980    -0.2490 O.co2 1 <1>  -0.9000 
 16 O       -0.3010     0.3960     0.0450 O.co2 1 <1>  -0.9000 
 17 C       -4.2450    -6.2350    -1.0210 C.3   1 <1>   0.3430 
 18 C       -5.5090    -4.4450    -0.0890 C.3   1 <1>   0.3430 
 19 C       -5.1370    -6.8570     0.0230 C.3   1 <1>  -0.1860 
 20 C       -6.1750    -5.7580     0.3240 C.3   1 <1>  -0.1600 
 21 C       -4.2140    -7.1510     1.1870 C.2   1 <1>   0.9060 
 22 O       -3.6090    -6.1980     1.7030 O.co2 1 <1>  -0.9000 
 23 O       -4.0240    -8.3200     1.4980 O.co2 1 <1>  -0.9000 
 24 H       -2.2360    -3.4520     1.2030 H     1 <1>   0.1500 
 25 H       -1.1000     0.9440     2.4550 H     1 <1>   0.0800 
 26 H       -1.7040     2.5180     2.0260 H     1 <1>   0.0800 
 27 H       -4.3630    -1.4340    -1.9290 H     1 <1>   0.1500 
 28 H       -2.3470    -4.2630    -1.4130 H     1 <1>   0.0800 
 29 H       -3.7870    -3.6980    -2.2400 H     1 <1>   0.0800 
 30 H       -4.1470     2.5110    -1.9220 H     1 <1>   0.0800 
 31 H       -2.6950     1.5480    -1.6650 H     1 <1>   0.0800 
 32 H       -3.3780     2.4980    -0.3450 H     1 <1>   0.0800 
 33 H       -3.6700    -5.0080     0.4010 H     1 <1>   0.4500 
 34 H       -3.2790    -6.7160    -1.0470 H     1 <1>   0.0800 
 35 H       -4.7120    -6.2620    -1.9910 H     1 <1>   0.0800 
 36 H       -6.0460    -3.9890    -0.9040 H     1 <1>   0.0800 
 37 H       -5.4490    -3.7590     0.7410 H     1 <1>   0.0800 
 38 H       -5.5830    -7.7740    -0.3150 H     1 <1>   0.0800 
 39 H       -7.0690    -5.9050    -0.2540 H     1 <1>   0.0800 
 40 H       -6.4340    -5.7440     1.3690 H     1 <1>   0.0800 
@<TRIPOS>BOND
  1   1   2  1   
  2   2   3  ar  
  3   2   4  ar  
  4   3   5  1   
  5   3   6  ar  
  6   4   7  ar  
  7   4  24  1   
  8   5   8  1   
  9   6   9  1   
 10   6  10  ar  
 11   7  10  ar  
 12   7  11  1   
 13   8  12  1   
 14   8  25  1   
 15   8  26  1   
 16   9  13  1   
 17  10  27  1   
 18  11  14  1   
 19  11  28  1   
 20  11  29  1   
 21  12  15  ar  
 22  12  16  ar  
 23  13  30  1   
 24  13  31  1   
 25  13  32  1   
 26  14  17  1   
 27  14  18  1   
 28  14  33  1   
 29  17  19  1   
 30  17  34  1   
 31  17  35  1   
 32  18  20  1   
 33  18  36  1   
 34  18  37  1   
 35  19  20  1   
 36  19  21  1   
 37  19  38  1   
 38  20  39  1   
 39  20  40  1   
 40  21  22  ar  
 41  21  23  ar  
@<TRIPOS>SUBSTRUCTURE
  1 ****   4 GROUP 4 **** **** 0

# MOE 2024.06 (io_trps.svl 2023.06)
