@<TRIPOS>MOLECULE
NONAME
37 39 1 0 0 
SMALL
USER_CHARGES


@<TRIPOS>ATOM
  1 O       -3.3320     0.7910     0.4930 O.3   1 <1>  -0.0190 
  2 N       -2.2130     0.9600     1.1270 N.2   1 <1>  -0.4100 
  3 C       -3.0510     1.1150    -0.7460 C.2   1 <1>   0.2980 
  4 C       -1.3520     1.3600     0.2750 C.2   1 <1>   0.3350 
  5 N       -1.8450     1.4820    -0.9500 N.2   1 <1>  -0.5650 
  6 C       -4.1860     1.0180    -1.7780 C.3   1 <1>   0.4690 
  7 C        0.1170     1.6770     0.5610 C.3   1 <1>   0.1010 
  8 N       -4.3940    -0.3750    -2.2390 N.pl3 1 <1>  -0.8690 
  9 C       -3.9300     1.8650    -3.0230 C.3   1 <1>  -0.2400 
 10 C        1.0010     0.4650     0.2390 C.3   1 <1>  -0.2400 
 11 C        0.3500     2.1280     2.0120 C.3   1 <1>  -0.2400 
 12 C       -4.8360    -1.2840    -1.3250 C.2   1 <1>   0.2710 
 13 N       -3.9380    -2.2770    -1.1140 N.2   1 <1>  -0.6210 
 14 C       -6.0350    -1.2060    -0.6750 C.2   1 <1>  -0.1050 
 15 C       -4.2390    -3.1720    -0.2270 C.2   1 <1>   0.5090 
 16 C       -6.3540    -2.1870     0.2800 C.2   1 <1>   0.1420 
 17 N       -5.4440    -3.1540     0.4890 N.pl3 1 <1>   0.2940 
 18 N       -3.3100    -4.1450    -0.0120 N.pl3 1 <1>  -0.8500 
 19 N       -7.4080    -2.3490     1.0390 N.2   1 <1>  -0.3380 
 20 C       -6.0360    -3.9060     1.4260 C.2   1 <1>   0.0360 
 21 N       -7.1920    -3.4460     1.7620 N.2   1 <1>  -0.3380 
 22 H       -5.0900     1.3710    -1.3110 H     1 <1>   0.0800 
 23 H        0.4040     2.4870    -0.0870 H     1 <1>   0.0800 
 24 H       -3.5190    -0.7190    -2.6440 H     1 <1>   0.4000 
 25 H       -3.0380     1.5350    -3.5230 H     1 <1>   0.0800 
 26 H       -3.8020     2.8940    -2.7420 H     1 <1>   0.0800 
 27 H       -4.7660     1.7930    -3.6960 H     1 <1>   0.0800 
 28 H        0.7320    -0.3680     0.8650 H     1 <1>   0.0800 
 29 H        2.0380     0.7010     0.3980 H     1 <1>   0.0800 
 30 H        0.8670     0.1780    -0.7890 H     1 <1>   0.0800 
 31 H        0.0960     1.3390     2.6970 H     1 <1>   0.0800 
 32 H       -0.2640     2.9830     2.2330 H     1 <1>   0.0800 
 33 H        1.3800     2.3980     2.1610 H     1 <1>   0.0800 
 34 H       -6.7430    -0.4230    -0.8680 H     1 <1>   0.1500 
 35 H       -2.4260    -4.0630    -0.5190 H     1 <1>   0.4000 
 36 H       -3.3220    -4.8060     0.7650 H     1 <1>   0.4000 
 37 H       -5.5820    -4.7870     1.8350 H     1 <1>   0.1500 
@<TRIPOS>BOND
  1   1   2  1   
  2   1   3  1   
  3   2   4  2   
  4   3   5  2   
  5   3   6  1   
  6   4   5  1   
  7   4   7  1   
  8   6   8  1   
  9   6   9  1   
 10   6  22  1   
 11   7  10  1   
 12   7  11  1   
 13   7  23  1   
 14   8  12  1   
 15   8  24  1   
 16   9  25  1   
 17   9  26  1   
 18   9  27  1   
 19  10  28  1   
 20  10  29  1   
 21  10  30  1   
 22  11  31  1   
 23  11  32  1   
 24  11  33  1   
 25  12  13  1   
 26  12  14  2   
 27  13  15  2   
 28  14  16  1   
 29  14  34  1   
 30  15  17  1   
 31  15  18  1   
 32  16  17  1   
 33  16  19  2   
 34  17  20  1   
 35  18  35  1   
 36  18  36  1   
 37  19  21  1   
 38  20  21  2   
 39  20  37  1   
@<TRIPOS>SUBSTRUCTURE
  1 ****   1 GROUP 4 **** **** 0

# MOE 2024.06 (io_trps.svl 2023.06)
