@<TRIPOS>MOLECULE
NONAME
46 49 1 0 0 
SMALL
USER_CHARGES


@<TRIPOS>ATOM
  1 CL      -2.1130     1.8100    -0.9500 Cl    1 <1>  -0.1770 
  2 C       -3.2080     1.3750     0.3380 C.ar  1 <1>   0.1770 
  3 C       -3.3180     2.1560     1.4760 C.ar  1 <1>   0.1770 
  4 C       -3.9730     0.2300     0.1960 C.ar  1 <1>  -0.1500 
  5 CL      -2.3620     3.6060     1.6650 Cl    1 <1>  -0.1770 
  6 C       -4.1950     1.7960     2.4830 C.ar  1 <1>  -0.1500 
  7 C       -4.8640    -0.1340     1.2000 C.ar  1 <1>  -0.1440 
  8 C       -4.9650     0.6510     2.3430 C.ar  1 <1>  -0.1500 
  9 C       -5.7240    -1.3780     1.0450 C.3   1 <1>   0.4870 
 10 N       -6.8050    -1.0870     0.0640 N.4   1 <1>  -0.9590 
 11 C       -7.7340    -0.0200     0.5790 C.3   1 <1>   0.3430 
 12 C       -7.5570    -2.3190    -0.3080 C.3   1 <1>   0.3430 
 13 C       -8.7910     0.3800    -0.4630 C.3   1 <1>   0.1440 
 14 C       -8.5840    -1.9910    -1.3960 C.3   1 <1>  -0.1600 
 15 C       -9.7480     1.3470     0.1880 C.ar  1 <1>   0.1670 
 16 C       -9.5460    -0.8680    -0.9660 C.3   1 <1>  -0.1600 
 17 C       -8.2060     1.2220    -1.6310 C.3   1 <1>  -0.1600 
 18 N      -10.2940     1.1700     1.3690 N.ar  1 <1>  -0.6200 
 19 C       -9.9700     2.4440    -0.5870 C.ar  1 <1>  -0.1430 
 20 C       -9.1960     2.3780    -1.8790 C.3   1 <1>  -0.0170 
 21 C      -11.1040     2.1530     1.7420 C.ar  1 <1>   0.4770 
 22 C      -10.8210     3.4040    -0.0990 C.ar  1 <1>   0.1600 
 23 N      -11.3950     3.2630     1.0780 N.ar  1 <1>  -0.6200 
 24 C      -11.7720     2.0010     3.0870 C.3   1 <1>  -0.0970 
 25 H       -3.8530    -0.3570    -0.6980 H     1 <1>   0.1500 
 26 H       -4.2670     2.4090     3.3660 H     1 <1>   0.1500 
 27 H       -5.6410     0.3850     3.1410 H     1 <1>   0.1500 
 28 H       -6.1480    -1.6560     1.9960 H     1 <1>   0.0800 
 29 H       -5.1120    -2.1920     0.6920 H     1 <1>   0.0800 
 30 H       -6.3550    -0.7160    -0.7810 H     1 <1>   0.4500 
 31 H       -7.1790     0.8600     0.8610 H     1 <1>   0.0800 
 32 H       -8.2460    -0.3800     1.4580 H     1 <1>   0.0800 
 33 H       -8.0690    -2.7100     0.5580 H     1 <1>   0.0800 
 34 H       -6.8790    -3.0750    -0.6720 H     1 <1>   0.0800 
 35 H       -9.1560    -2.8770    -1.6110 H     1 <1>   0.0800 
 36 H       -8.0720    -1.7200    -2.3020 H     1 <1>   0.0800 
 37 H      -10.1980    -0.6030    -1.7820 H     1 <1>   0.0800 
 38 H      -10.1730    -1.2370    -0.1700 H     1 <1>   0.0800 
 39 H       -8.0510     0.6500    -2.5280 H     1 <1>   0.0800 
 40 H       -7.2650     1.6530    -1.3330 H     1 <1>   0.0800 
 41 H       -9.8660     2.1430    -2.6890 H     1 <1>   0.0800 
 42 H       -8.6850     3.3040    -2.0860 H     1 <1>   0.0800 
 43 H      -11.0350     4.2920    -0.6690 H     1 <1>   0.1500 
 44 H      -11.7190     0.9830     3.4230 H     1 <1>   0.0800 
 45 H      -12.8050     2.2880     3.0120 H     1 <1>   0.0800 
 46 H      -11.2830     2.6360     3.8010 H     1 <1>   0.0800 
@<TRIPOS>BOND
  1   1   2  1   
  2   2   3  ar  
  3   2   4  ar  
  4   3   5  1   
  5   3   6  ar  
  6   4   7  ar  
  7   4  25  1   
  8   6   8  ar  
  9   6  26  1   
 10   7   8  ar  
 11   7   9  1   
 12   8  27  1   
 13   9  10  1   
 14   9  28  1   
 15   9  29  1   
 16  10  11  1   
 17  10  12  1   
 18  10  30  1   
 19  11  13  1   
 20  11  31  1   
 21  11  32  1   
 22  12  14  1   
 23  12  33  1   
 24  12  34  1   
 25  13  15  1   
 26  13  16  1   
 27  13  17  1   
 28  14  16  1   
 29  14  35  1   
 30  14  36  1   
 31  15  18  ar  
 32  15  19  ar  
 33  16  37  1   
 34  16  38  1   
 35  17  20  1   
 36  17  39  1   
 37  17  40  1   
 38  18  21  ar  
 39  19  20  1   
 40  19  22  ar  
 41  20  41  1   
 42  20  42  1   
 43  21  23  ar  
 44  21  24  1   
 45  22  23  ar  
 46  22  43  1   
 47  24  44  1   
 48  24  45  1   
 49  24  46  1   
@<TRIPOS>SUBSTRUCTURE
  1 ****  11 GROUP 4 **** **** 0

# MOE 2024.06 (io_trps.svl 2023.06)
