@<TRIPOS>MOLECULE
NONAME
38 40 1 0 0 
SMALL
USER_CHARGES


@<TRIPOS>ATOM
  1 S        0.4200     0.1200     1.3140 S.3   1 <1>  -0.0800 
  2 C        0.8990    -0.7540    -0.0990 C.2   1 <1>   0.1980 
  3 C        0.4950     1.5500     0.3470 C.2   1 <1>   0.1980 
  4 N        1.0760    -0.0020    -1.1120 N.2   1 <1>  -0.3380 
  5 C        1.0540    -2.2640    -0.0020 C.3   1 <1>   0.2900 
  6 N        0.8430     1.3220    -0.8540 N.2   1 <1>  -0.3380 
  7 C        0.1540     2.8690     1.0010 C.3   1 <1>  -0.0600 
  8 N       -0.2310    -2.9470     0.2640 N.3   1 <1>  -0.8100 
  9 C       -1.2510    -2.6750    -0.7620 C.3   1 <1>   0.1100 
 10 C       -0.1070    -4.4110     0.3510 C.3   1 <1>   0.1100 
 11 C       -2.2680    -3.7900    -0.5640 C.3   1 <1>   0.2000 
 12 C       -1.3690    -5.0010    -0.3050 C.3   1 <1>  -0.0800 
 13 O       -2.9830    -3.4900     0.5810 O.3   1 <1>  -0.6800 
 14 C       -2.0190    -6.1340     0.5130 C.3   1 <1>   0.0200 
 15 C       -1.1420    -7.3710     0.6130 C.2   1 <1>  -0.0400 
 16 O       -1.4970    -8.3270     1.4310 O.3   1 <1>  -0.0190 
 17 C       -0.0020    -7.7520     0.0130 C.2   1 <1>  -0.1500 
 18 N       -0.6570    -9.3210     1.4140 N.2   1 <1>  -0.4100 
 19 C        0.2540    -9.0030     0.5670 C.2   1 <1>   0.1080 
 20 C        1.4390    -9.8790     0.2270 C.3   1 <1>  -0.0590 
 21 H        1.7440    -2.4870     0.7930 H     1 <1>   0.0800 
 22 H        1.4730    -2.6250    -0.9250 H     1 <1>   0.0800 
 23 H        0.2440     3.6640     0.2840 H     1 <1>   0.0800 
 24 H        0.8270     3.0570     1.8170 H     1 <1>   0.0800 
 25 H       -0.8540     2.8430     1.3700 H     1 <1>   0.0800 
 26 H       -1.6940    -1.7010    -0.6390 H     1 <1>   0.0800 
 27 H       -0.8190    -2.7490    -1.7460 H     1 <1>   0.0800 
 28 H        0.7710    -4.7600    -0.1660 H     1 <1>   0.0800 
 29 H       -0.0370    -4.6960     1.3880 H     1 <1>   0.0800 
 30 H       -2.9510    -3.9150    -1.3870 H     1 <1>   0.0800 
 31 H       -1.0850    -5.3970    -1.2630 H     1 <1>   0.0800 
 32 H       -2.3330    -3.1360     1.2260 H     1 <1>   0.4000 
 33 H       -2.9540    -6.4120     0.0610 H     1 <1>   0.0800 
 34 H       -2.2320    -5.7880     1.5100 H     1 <1>   0.0800 
 35 H        0.5990    -7.2520    -0.7220 H     1 <1>   0.1500 
 36 H        1.4680   -10.0610    -0.8310 H     1 <1>   0.0800 
 37 H        1.3560   -10.8210     0.7390 H     1 <1>   0.0800 
 38 H        2.3490    -9.3970     0.5310 H     1 <1>   0.0800 
@<TRIPOS>BOND
  1   1   2  1   
  2   1   3  1   
  3   2   4  2   
  4   2   5  1   
  5   3   6  2   
  6   3   7  1   
  7   4   6  1   
  8   5   8  1   
  9   5  21  1   
 10   5  22  1   
 11   7  23  1   
 12   7  24  1   
 13   7  25  1   
 14   8   9  1   
 15   8  10  1   
 16   9  11  1   
 17   9  26  1   
 18   9  27  1   
 19  10  12  1   
 20  10  28  1   
 21  10  29  1   
 22  11  12  1   
 23  11  13  1   
 24  11  30  1   
 25  12  14  1   
 26  12  31  1   
 27  13  32  1   
 28  14  15  1   
 29  14  33  1   
 30  14  34  1   
 31  15  16  1   
 32  15  17  2   
 33  16  18  1   
 34  17  19  1   
 35  17  35  1   
 36  18  19  2   
 37  19  20  1   
 38  20  36  1   
 39  20  37  1   
 40  20  38  1   
@<TRIPOS>SUBSTRUCTURE
  1 ****  10 GROUP 4 **** **** 0

# MOE 2024.06 (io_trps.svl 2023.06)
