@<TRIPOS>MOLECULE
NONAME
47 49 1 0 0 
SMALL
USER_CHARGES


@<TRIPOS>ATOM
  1 S        0.5930     1.0890    -1.3260 S.o2  1 <1>   1.3330 
  2 O        0.6420    -0.3050    -1.7000 O.2   1 <1>  -0.6500 
  3 O        0.4930     2.0880    -2.3660 O.2   1 <1>  -0.6500 
  4 N        1.9990     1.4050    -0.4290 N.am  1 <1>  -0.8490 
  5 C       -0.7820     1.3070    -0.1810 C.3   1 <1>  -0.0550 
  6 C        2.3880     0.3020     0.4560 C.3   1 <1>   0.1160 
  7 C        3.1270     1.7470    -1.3000 C.3   1 <1>   0.1160 
  8 C       -1.0190     2.6850     0.4850 C.3   1 <1>  -0.0800 
  9 C       -1.0670     3.8730    -0.4880 C.3   1 <1>   0.2000 
 10 C        0.0290     3.0650     1.5430 C.3   1 <1>   0.1400 
 11 O       -2.0260     4.7540    -0.0150 O.3   1 <1>  -0.6800 
 12 C        0.2960     4.5540    -0.3600 C.3   1 <1>   0.1400 
 13 N        0.7060     4.2790     1.0370 N.am  1 <1>  -0.6600 
 14 C        1.4210     5.1340     1.8410 C.2   1 <1>   0.5440 
 15 O        1.5010     4.8820     3.0290 O.2   1 <1>  -0.5700 
 16 C        2.0350     6.3290     1.3080 C.ar  1 <1>   0.0860 
 17 C        3.1240     6.2580     0.3920 C.ar  1 <1>   0.0000 
 18 C        1.5460     7.5640     1.6760 C.ar  1 <1>  -0.1500 
 19 C        3.6340     7.4550    -0.1620 C.ar  1 <1>   0.0000 
 20 C        3.7370     5.0430     0.0100 C.ar  1 <1>  -0.1500 
 21 C        2.0610     8.7440     1.1410 C.ar  1 <1>  -0.1500 
 22 C        3.0800     8.6860     0.2330 C.ar  1 <1>  -0.1500 
 23 C        4.6930     7.3870    -1.0900 C.ar  1 <1>  -0.1500 
 24 C        4.7700     5.0070    -0.8850 C.ar  1 <1>  -0.1500 
 25 C        5.2500     6.1920    -1.4480 C.ar  1 <1>  -0.1500 
 26 H       -1.6770     1.0650    -0.7210 H     1 <1>   0.0800 
 27 H       -0.6940     0.5740     0.5960 H     1 <1>   0.0800 
 28 H        3.2300     0.5940     1.0600 H     1 <1>   0.0800 
 29 H        2.6550    -0.5700    -0.1200 H     1 <1>   0.0800 
 30 H        1.5750     0.0450     1.1130 H     1 <1>   0.0800 
 31 H        4.0090     1.9340    -0.7120 H     1 <1>   0.0800 
 32 H        2.9020     2.6370    -1.8640 H     1 <1>   0.0800 
 33 H        3.3250     0.9420    -1.9890 H     1 <1>   0.0800 
 34 H       -1.9700     2.6010     0.9830 H     1 <1>   0.0800 
 35 H       -1.3230     3.6120    -1.5010 H     1 <1>   0.0800 
 36 H        0.7520     2.2860     1.7060 H     1 <1>   0.0800 
 37 H       -0.4500     3.2910     2.4820 H     1 <1>   0.0800 
 38 H       -1.7230     5.1110     0.8450 H     1 <1>   0.4000 
 39 H        0.2320     5.6080    -0.5700 H     1 <1>   0.0800 
 40 H        1.0090     4.1070    -1.0280 H     1 <1>   0.0800 
 41 H        0.7420     7.6250     2.3900 H     1 <1>   0.1500 
 42 H        3.3800     4.1230     0.4410 H     1 <1>   0.1500 
 43 H        1.6460     9.6880     1.4490 H     1 <1>   0.1500 
 44 H        3.4810     9.5900    -0.1900 H     1 <1>   0.1500 
 45 H        5.0620     8.3040    -1.5150 H     1 <1>   0.1500 
 46 H        5.2290     4.0760    -1.1670 H     1 <1>   0.1500 
 47 H        6.0600     6.1470    -2.1550 H     1 <1>   0.1500 
@<TRIPOS>BOND
  1   1   2  2   
  2   1   3  2   
  3   1   4  am  
  4   1   5  1   
  5   4   6  1   
  6   4   7  1   
  7   5   8  1   
  8   5  26  1   
  9   5  27  1   
 10   6  28  1   
 11   6  29  1   
 12   6  30  1   
 13   7  31  1   
 14   7  32  1   
 15   7  33  1   
 16   8   9  1   
 17   8  10  1   
 18   8  34  1   
 19   9  11  1   
 20   9  12  1   
 21   9  35  1   
 22  10  13  1   
 23  10  36  1   
 24  10  37  1   
 25  11  38  1   
 26  12  13  1   
 27  12  39  1   
 28  12  40  1   
 29  13  14  am  
 30  14  15  2   
 31  14  16  1   
 32  16  17  ar  
 33  16  18  ar  
 34  17  19  ar  
 35  17  20  ar  
 36  18  21  ar  
 37  18  41  1   
 38  19  22  ar  
 39  19  23  ar  
 40  20  24  ar  
 41  20  42  1   
 42  21  22  ar  
 43  21  43  1   
 44  22  44  1   
 45  23  25  ar  
 46  23  45  1   
 47  24  25  ar  
 48  24  46  1   
 49  25  47  1   
@<TRIPOS>SUBSTRUCTURE
  1 ****  13 GROUP 4 **** **** 0

# MOE 2024.06 (io_trps.svl 2023.06)
