@<TRIPOS>MOLECULE
NONAME
44 46 1 0 0 
SMALL
USER_CHARGES


@<TRIPOS>ATOM
  1 O        0.2530     0.6180     1.7050 O.2   1 <1>  -0.5700 
  2 C        0.1720     1.6170     1.0260 C.2   1 <1>   0.5690 
  3 N       -0.9630     1.9400     0.3210 N.am  1 <1>  -0.6600 
  4 C        1.4170     2.5160     0.9490 C.3   1 <1>   0.1710 
  5 C       -2.1900     1.0910     0.4330 C.3   1 <1>   0.2200 
  6 C       -1.0430     3.2350    -0.4310 C.3   1 <1>   0.1400 
  7 N        1.1950     3.8940     0.4210 N.3   1 <1>  -0.8100 
  8 C       -2.7960     0.7560    -0.9350 C.3   1 <1>  -0.1600 
  9 C       -3.2940     1.8010     1.2300 C.3   1 <1>  -0.1600 
 10 C        0.3390     3.8170    -0.7760 C.3   1 <1>   0.1100 
 11 C        2.4710     4.5740     0.1840 C.3   1 <1>   0.1100 
 12 C       -4.0440     1.6280    -1.0760 C.3   1 <1>  -0.1600 
 13 C       -4.5500     1.7910     0.3530 C.3   1 <1>  -0.1600 
 14 C        2.2560     6.0880     0.1210 C.3   1 <1>  -0.1600 
 15 C        3.5960     6.8300     0.1000 C.3   1 <1>   0.0960 
 16 N        3.3740     8.2850     0.0050 N.pl3 1 <1>   0.0480 
 17 C        3.4040     9.0590    -1.1040 C.2   1 <1>   0.0360 
 18 C        3.0890     9.1370     1.0060 C.2   1 <1>  -0.3020 
 19 N        3.1650    10.3100    -0.8810 N.2   1 <1>  -0.5650 
 20 C        2.9660    10.3620     0.4490 C.2   1 <1>   0.0770 
 21 H        2.1340     2.0070     0.3300 H     1 <1>   0.0800 
 22 H        1.8290     2.5870     1.9400 H     1 <1>   0.0800 
 23 H       -1.9440     0.1640     0.9250 H     1 <1>   0.0800 
 24 H       -1.5790     3.9540     0.1620 H     1 <1>   0.0800 
 25 H       -1.5810     3.0950    -1.3490 H     1 <1>   0.0800 
 26 H       -3.1050    -0.2740    -0.9170 H     1 <1>   0.0800 
 27 H       -2.1000     0.8840    -1.7440 H     1 <1>   0.0800 
 28 H       -3.0160     2.8130     1.4630 H     1 <1>   0.0800 
 29 H       -3.4790     1.2810     2.1530 H     1 <1>   0.0800 
 30 H        0.1930     4.7980    -1.1900 H     1 <1>   0.0800 
 31 H        0.8080     3.2030    -1.5260 H     1 <1>   0.0800 
 32 H        2.9260     4.2110    -0.7240 H     1 <1>   0.0800 
 33 H        3.1360     4.3590     1.0050 H     1 <1>   0.0800 
 34 H       -4.7820     1.1760    -1.7150 H     1 <1>   0.0800 
 35 H       -3.7790     2.5920    -1.4740 H     1 <1>   0.0800 
 36 H       -5.1350     2.6870     0.4750 H     1 <1>   0.0800 
 37 H       -5.1560     0.9390     0.6120 H     1 <1>   0.0800 
 38 H        1.6970     6.3950     0.9880 H     1 <1>   0.0800 
 39 H        1.7020     6.3430    -0.7630 H     1 <1>   0.0800 
 40 H        4.1840     6.5160    -0.7440 H     1 <1>   0.0800 
 41 H        4.1490     6.6270     1.0000 H     1 <1>   0.0800 
 42 H        3.6100     8.6520    -2.0780 H     1 <1>   0.1500 
 43 H        2.9900     8.8360     2.0330 H     1 <1>   0.1500 
 44 H        2.7400    11.2930     0.9430 H     1 <1>   0.1500 
@<TRIPOS>BOND
  1   1   2  2   
  2   2   3  am  
  3   2   4  1   
  4   3   5  1   
  5   3   6  1   
  6   4   7  1   
  7   4  21  1   
  8   4  22  1   
  9   5   8  1   
 10   5   9  1   
 11   5  23  1   
 12   6  10  1   
 13   6  24  1   
 14   6  25  1   
 15   7  10  1   
 16   7  11  1   
 17   8  12  1   
 18   8  26  1   
 19   8  27  1   
 20   9  13  1   
 21   9  28  1   
 22   9  29  1   
 23  10  30  1   
 24  10  31  1   
 25  11  14  1   
 26  11  32  1   
 27  11  33  1   
 28  12  13  1   
 29  12  34  1   
 30  12  35  1   
 31  13  36  1   
 32  13  37  1   
 33  14  15  1   
 34  14  38  1   
 35  14  39  1   
 36  15  16  1   
 37  15  40  1   
 38  15  41  1   
 39  16  17  1   
 40  16  18  1   
 41  17  19  2   
 42  17  42  1   
 43  18  20  2   
 44  18  43  1   
 45  19  20  1   
 46  20  44  1   
@<TRIPOS>SUBSTRUCTURE
  1 ****   7 GROUP 4 **** **** 0

# MOE 2024.06 (io_trps.svl 2023.06)
