@<TRIPOS>MOLECULE
NONAME
50 53 1 0 0 
SMALL
USER_CHARGES


@<TRIPOS>ATOM
  1 CL      -0.8850    -0.4010    -1.8350 Cl    1 <1>  -0.1770 
  2 C       -1.2800    -2.0950    -1.6600 C.ar  1 <1>   0.1770 
  3 C       -1.9410    -2.5400    -0.4910 C.ar  1 <1>   0.0000 
  4 C       -0.9330    -2.9390    -2.6750 C.ar  1 <1>  -0.1500 
  5 C       -2.2470    -3.9200    -0.3810 C.ar  1 <1>   0.0000 
  6 C       -2.3090    -1.6740     0.5600 C.ar  1 <1>  -0.1500 
  7 C       -1.2360    -4.2980    -2.5680 C.ar  1 <1>  -0.1500 
  8 C       -2.9190    -4.3930     0.7860 C.ar  1 <1>   0.0860 
  9 C       -1.8740    -4.7660    -1.4530 C.ar  1 <1>  -0.1500 
 10 C       -2.9520    -2.1390     1.6710 C.ar  1 <1>  -0.1500 
 11 C       -3.2730    -5.7880     0.9560 C.2   1 <1>   0.5440 
 12 C       -3.2530    -3.4950     1.7770 C.ar  1 <1>  -0.1500 
 13 O       -2.4180    -6.6560     0.9340 O.2   1 <1>  -0.5700 
 14 N       -4.5800    -6.1750     1.1500 N.am  1 <1>  -0.6600 
 15 C       -4.9210    -7.5620     1.5810 C.3   1 <1>   0.1400 
 16 C       -5.7380    -5.4360     0.5700 C.3   1 <1>   0.1400 
 17 C       -5.3850    -8.3650     0.3440 C.3   1 <1>   0.4230 
 18 C       -6.2560    -6.2210    -0.6440 C.3   1 <1>  -0.1600 
 19 N       -5.6570    -9.8180     0.6110 N.4   1 <1>  -0.9590 
 20 C       -6.6260    -7.6900    -0.2830 C.3   1 <1>  -0.1060 
 21 C       -5.9770   -10.5620    -0.6330 C.3   1 <1>   0.3430 
 22 C       -4.6350   -10.5100     1.4420 C.3   1 <1>   0.2630 
 23 C       -7.7770    -7.7260     0.7420 C.2   1 <1>   0.9060 
 24 C       -7.0210    -8.4380    -1.5790 C.3   1 <1>  -0.1600 
 25 C       -7.1920    -9.9440    -1.3300 C.3   1 <1>  -0.1600 
 26 O       -7.8490    -8.6830     1.5310 O.co2 1 <1>  -0.9000 
 27 O       -8.5910    -6.8060     0.7720 O.co2 1 <1>  -0.9000 
 28 H       -0.4310    -2.5680    -3.5500 H     1 <1>   0.1500 
 29 H       -2.0780    -0.6260     0.4850 H     1 <1>   0.1500 
 30 H       -0.9580    -4.9620    -3.3690 H     1 <1>   0.1500 
 31 H       -2.0930    -5.8170    -1.3910 H     1 <1>   0.1500 
 32 H       -3.2300    -1.4730     2.4690 H     1 <1>   0.1500 
 33 H       -3.7610    -3.8420     2.6610 H     1 <1>   0.1500 
 34 H       -4.0550    -8.0170     2.0250 H     1 <1>   0.0800 
 35 H       -5.6970    -7.5200     2.3250 H     1 <1>   0.0800 
 36 H       -6.5140    -5.3410     1.3130 H     1 <1>   0.0800 
 37 H       -5.4520    -4.4450     0.2630 H     1 <1>   0.0800 
 38 H       -4.5810    -8.3090    -0.3700 H     1 <1>   0.0800 
 39 H       -7.1260    -5.7160    -1.0310 H     1 <1>   0.0800 
 40 H       -5.5040    -6.1990    -1.4130 H     1 <1>   0.0800 
 41 H       -6.5610    -9.7490     1.1540 H     1 <1>   0.4500 
 42 H       -5.1290   -10.5340    -1.2970 H     1 <1>   0.0800 
 43 H       -6.1930   -11.5910    -0.3960 H     1 <1>   0.0800 
 44 H       -3.6740   -10.4780     0.9550 H     1 <1>   0.0800 
 45 H       -4.9190   -11.5380     1.5960 H     1 <1>   0.0800 
 46 H       -4.5550   -10.0330     2.4050 H     1 <1>   0.0800 
 47 H       -7.9450    -8.0300    -1.9570 H     1 <1>   0.0800 
 48 H       -6.2650    -8.2900    -2.3310 H     1 <1>   0.0800 
 49 H       -7.3530   -10.4450    -2.2680 H     1 <1>   0.0800 
 50 H       -8.0660   -10.1160    -0.7250 H     1 <1>   0.0800 
@<TRIPOS>BOND
  1   1   2  1   
  2   2   3  ar  
  3   2   4  ar  
  4   3   5  ar  
  5   3   6  ar  
  6   4   7  ar  
  7   4  28  1   
  8   5   8  ar  
  9   5   9  ar  
 10   6  10  ar  
 11   6  29  1   
 12   7   9  ar  
 13   7  30  1   
 14   8  11  1   
 15   8  12  ar  
 16   9  31  1   
 17  10  12  ar  
 18  10  32  1   
 19  11  13  2   
 20  11  14  am  
 21  12  33  1   
 22  14  15  1   
 23  14  16  1   
 24  15  17  1   
 25  15  34  1   
 26  15  35  1   
 27  16  18  1   
 28  16  36  1   
 29  16  37  1   
 30  17  19  1   
 31  17  20  1   
 32  17  38  1   
 33  18  20  1   
 34  18  39  1   
 35  18  40  1   
 36  19  21  1   
 37  19  22  1   
 38  19  41  1   
 39  20  23  1   
 40  20  24  1   
 41  21  25  1   
 42  21  42  1   
 43  21  43  1   
 44  22  44  1   
 45  22  45  1   
 46  22  46  1   
 47  23  26  ar  
 48  23  27  ar  
 49  24  25  1   
 50  24  47  1   
 51  24  48  1   
 52  25  49  1   
 53  25  50  1   
@<TRIPOS>SUBSTRUCTURE
  1 ****  14 GROUP 4 **** **** 0

# MOE 2024.06 (io_trps.svl 2023.06)
