@<TRIPOS>MOLECULE
NONAME
58 61 1 0 0 
SMALL
USER_CHARGES


@<TRIPOS>ATOM
  1 F        4.6780    -1.9930    -2.1990 F     1 <1>  -0.3400 
  2 C        3.7280    -2.4690    -1.4080 C.3   1 <1>   0.6800 
  3 F        2.8470    -1.4830    -1.3010 F     1 <1>  -0.3400 
  4 C        4.3180    -2.7710    -0.0270 C.3   1 <1>  -0.1600 
  5 C        3.0630    -3.6760    -2.0750 C.3   1 <1>  -0.1600 
  6 C        3.2940    -3.4670     0.8900 C.3   1 <1>  -0.1600 
  7 C        2.0620    -4.3710    -1.1340 C.3   1 <1>  -0.1600 
  8 C        2.7030    -4.7270     0.2260 C.3   1 <1>  -0.0800 
  9 C        1.6940    -5.3940     1.1790 C.3   1 <1>   0.1400 
 10 N        1.2020    -6.7050     0.6490 N.am  1 <1>  -0.6600 
 11 C       -0.0520    -6.7840     0.0820 C.2   1 <1>   0.5690 
 12 C        2.0550    -7.8860     1.0020 C.3   1 <1>   0.1400 
 13 O       -0.7210    -5.7900    -0.0770 O.2   1 <1>  -0.5700 
 14 C       -0.7220    -8.0720    -0.3690 C.3   1 <1>  -0.0990 
 15 C        2.4110    -8.8500    -0.1730 C.3   1 <1>   0.2800 
 16 C        0.0760    -9.3710    -0.3110 C.3   1 <1>   0.1200 
 17 O        1.2940    -9.1740    -0.9510 O.3   1 <1>  -0.5600 
 18 C        3.4080    -8.2190    -1.1550 C.3   1 <1>  -0.1600 
 19 C        2.9990   -10.1720     0.3470 C.3   1 <1>  -0.1600 
 20 C        4.8010    -8.0220    -0.5530 C.3   1 <1>   0.2090 
 21 C        4.3750    -9.9800     0.9880 C.3   1 <1>   0.2090 
 22 N        5.2910    -9.2940     0.0370 N.pl3 1 <1>  -0.8380 
 23 C        6.2830   -10.0080    -0.6130 C.ar  1 <1>   0.4100 
 24 N        6.0500   -11.2800    -0.8890 N.ar  1 <1>  -0.6200 
 25 C        7.4750    -9.4210    -0.9660 C.ar  1 <1>  -0.1500 
 26 C        7.0170   -11.9120    -1.5250 C.ar  1 <1>   0.4700 
 27 C        8.4050   -10.1890    -1.6200 C.ar  1 <1>   0.4100 
 28 N        8.1900   -11.4490    -1.9110 N.ar  1 <1>  -0.6200 
 29 N        9.6160    -9.7130    -2.0000 N.pl3 1 <1>  -0.9000 
 30 H        4.6580    -1.8550     0.4230 H     1 <1>   0.0800 
 31 H        5.1630    -3.4220    -0.1550 H     1 <1>   0.0800 
 32 H        3.8290    -4.3830    -2.3400 H     1 <1>   0.0800 
 33 H        2.5660    -3.3600    -2.9750 H     1 <1>   0.0800 
 34 H        2.4990    -2.7760     1.1160 H     1 <1>   0.0800 
 35 H        3.7730    -3.7310     1.8170 H     1 <1>   0.0800 
 36 H        1.6900    -5.2590    -1.6140 H     1 <1>   0.0800 
 37 H        1.2170    -3.7220    -0.9700 H     1 <1>   0.0800 
 38 H        3.5090    -5.4160     0.0580 H     1 <1>   0.0800 
 39 H        0.8650    -4.7240     1.3360 H     1 <1>   0.0800 
 40 H        2.1510    -5.5530     2.1400 H     1 <1>   0.0800 
 41 H        1.5580    -8.4370     1.7790 H     1 <1>   0.0800 
 42 H        2.9710    -7.5340     1.4380 H     1 <1>   0.0800 
 43 H       -1.0330    -7.9270    -1.3870 H     1 <1>   0.0800 
 44 H       -1.6140    -8.1960     0.2130 H     1 <1>   0.0800 
 45 H       -0.4490   -10.1370    -0.8540 H     1 <1>   0.0800 
 46 H        0.2220    -9.7160     0.6960 H     1 <1>   0.0800 
 47 H        3.0290    -7.2770    -1.5000 H     1 <1>   0.0800 
 48 H        3.5100    -8.8640    -2.0100 H     1 <1>   0.0800 
 49 H        3.1120   -10.8580    -0.4750 H     1 <1>   0.0800 
 50 H        2.3420   -10.6220     1.0670 H     1 <1>   0.0800 
 51 H        4.7840    -7.2680     0.2130 H     1 <1>   0.0800 
 52 H        5.4690    -7.6890    -1.3290 H     1 <1>   0.0800 
 53 H        4.7800   -10.9380     1.2690 H     1 <1>   0.0800 
 54 H        4.2950    -9.3890     1.8840 H     1 <1>   0.0800 
 55 H        7.6730    -8.3970    -0.7340 H     1 <1>   0.1500 
 56 H        6.8220   -12.9450    -1.7580 H     1 <1>   0.1500 
 57 H       10.2440   -10.4380    -2.3520 H     1 <1>   0.4000 
 58 H       10.0760    -9.0270    -1.4020 H     1 <1>   0.4000 
@<TRIPOS>BOND
  1   1   2  1   
  2   2   3  1   
  3   2   4  1   
  4   2   5  1   
  5   4   6  1   
  6   4  30  1   
  7   4  31  1   
  8   5   7  1   
  9   5  32  1   
 10   5  33  1   
 11   6   8  1   
 12   6  34  1   
 13   6  35  1   
 14   7   8  1   
 15   7  36  1   
 16   7  37  1   
 17   8   9  1   
 18   8  38  1   
 19   9  10  1   
 20   9  39  1   
 21   9  40  1   
 22  10  11  am  
 23  10  12  1   
 24  11  13  2   
 25  11  14  1   
 26  12  15  1   
 27  12  41  1   
 28  12  42  1   
 29  14  16  1   
 30  14  43  1   
 31  14  44  1   
 32  15  17  1   
 33  15  18  1   
 34  15  19  1   
 35  16  17  1   
 36  16  45  1   
 37  16  46  1   
 38  18  20  1   
 39  18  47  1   
 40  18  48  1   
 41  19  21  1   
 42  19  49  1   
 43  19  50  1   
 44  20  22  1   
 45  20  51  1   
 46  20  52  1   
 47  21  22  1   
 48  21  53  1   
 49  21  54  1   
 50  22  23  1   
 51  23  24  ar  
 52  23  25  ar  
 53  24  26  ar  
 54  25  27  ar  
 55  25  55  1   
 56  26  28  ar  
 57  26  56  1   
 58  27  28  ar  
 59  27  29  1   
 60  29  57  1   
 61  29  58  1   
@<TRIPOS>SUBSTRUCTURE
  1 ****  18 GROUP 4 **** **** 0

# MOE 2024.06 (io_trps.svl 2023.06)
