@<TRIPOS>MOLECULE
NONAME
49 51 1 0 0 
SMALL
USER_CHARGES


@<TRIPOS>ATOM
  1 S       -1.1390    -2.0590     1.5710 S.3   1 <1>  -0.4600 
  2 C       -1.5960    -0.7230     0.4070 C.3   1 <1>   0.1310 
  3 C       -0.0490    -3.1120     0.5740 C.3   1 <1>  -0.0100 
  4 C       -2.2620    -1.2820    -0.8470 C.2   1 <1>   0.5690 
  5 O       -1.5970    -1.2910    -1.8580 O.2   1 <1>  -0.5700 
  6 N       -3.5500    -1.7640    -0.8260 N.am  1 <1>  -0.6600 
  7 C       -4.3980    -1.8960     0.3910 C.3   1 <1>   0.1400 
  8 C       -4.1790    -2.3550    -2.0380 C.3   1 <1>   0.1400 
  9 C       -4.6190    -3.3820     0.6750 C.3   1 <1>  -0.1600 
 10 C       -4.4020    -3.8490    -1.7970 C.3   1 <1>  -0.1600 
 11 C       -5.2360    -4.1110    -0.5330 C.3   1 <1>   0.4240 
 12 O       -6.4910    -3.5270    -0.7950 O.3   1 <1>  -0.5600 
 13 C       -5.3490    -5.6290    -0.2710 C.ar  1 <1>  -0.1430 
 14 C       -7.5860    -3.9920    -0.0690 C.3   1 <1>   0.1200 
 15 C       -6.5850    -6.2590    -0.2330 C.ar  1 <1>  -0.1430 
 16 C       -4.2070    -6.3950    -0.0610 C.ar  1 <1>  -0.1500 
 17 C       -7.8460    -5.4470    -0.4460 C.3   1 <1>  -0.0170 
 18 C       -6.6700    -7.6200     0.0050 C.ar  1 <1>  -0.1500 
 19 C       -4.2760    -7.7670     0.1740 C.ar  1 <1>   0.0820 
 20 C       -5.5360    -8.3830     0.2180 C.ar  1 <1>   0.0820 
 21 O       -3.1440    -8.5120     0.3420 O.3   1 <1>  -0.3630 
 22 O       -5.7710    -9.7050     0.4550 O.3   1 <1>  -0.3630 
 23 C       -1.8580    -8.0010     0.0640 C.3   1 <1>   0.0400 
 24 C       -4.9250   -10.4620     1.2910 C.3   1 <1>   0.0400 
 25 H       -0.6890    -0.2110     0.1460 H     1 <1>   0.0800 
 26 H       -2.2510    -0.0480     0.9240 H     1 <1>   0.0800 
 27 H        0.3140    -3.9010     1.2060 H     1 <1>   0.0800 
 28 H        0.7610    -2.5040     0.2130 H     1 <1>   0.0800 
 29 H       -0.6240    -3.5080    -0.2450 H     1 <1>   0.0800 
 30 H       -5.3430    -1.4110     0.2150 H     1 <1>   0.0800 
 31 H       -3.9400    -1.4310     1.2440 H     1 <1>   0.0800 
 32 H       -3.5540    -2.2150    -2.9040 H     1 <1>   0.0800 
 33 H       -5.1200    -1.8650    -2.2250 H     1 <1>   0.0800 
 34 H       -5.2450    -3.5040     1.5380 H     1 <1>   0.0800 
 35 H       -3.6680    -3.8190     0.9140 H     1 <1>   0.0800 
 36 H       -3.4400    -4.3170    -1.7150 H     1 <1>   0.0800 
 37 H       -4.9010    -4.2850    -2.6440 H     1 <1>   0.0800 
 38 H       -8.4340    -3.3810    -0.3220 H     1 <1>   0.0800 
 39 H       -7.3820    -3.8950     0.9830 H     1 <1>   0.0800 
 40 H       -3.2560    -5.9020    -0.0820 H     1 <1>   0.1500 
 41 H       -8.1440    -5.5030    -1.4780 H     1 <1>   0.0800 
 42 H       -8.6450    -5.8340     0.1600 H     1 <1>   0.0800 
 43 H       -7.6270    -8.1080     0.0300 H     1 <1>   0.1500 
 44 H       -1.1510    -8.8050     0.1660 H     1 <1>   0.0800 
 45 H       -1.6300    -7.2240     0.7710 H     1 <1>   0.0800 
 46 H       -1.8420    -7.6270    -0.9450 H     1 <1>   0.0800 
 47 H       -5.4680   -11.3280     1.6210 H     1 <1>   0.0800 
 48 H       -4.6370    -9.8610     2.1360 H     1 <1>   0.0800 
 49 H       -4.0630   -10.7670     0.7260 H     1 <1>   0.0800 
@<TRIPOS>BOND
  1   1   2  1   
  2   1   3  1   
  3   2   4  1   
  4   2  25  1   
  5   2  26  1   
  6   3  27  1   
  7   3  28  1   
  8   3  29  1   
  9   4   5  2   
 10   4   6  am  
 11   6   7  1   
 12   6   8  1   
 13   7   9  1   
 14   7  30  1   
 15   7  31  1   
 16   8  10  1   
 17   8  32  1   
 18   8  33  1   
 19   9  11  1   
 20   9  34  1   
 21   9  35  1   
 22  10  11  1   
 23  10  36  1   
 24  10  37  1   
 25  11  12  1   
 26  11  13  1   
 27  12  14  1   
 28  13  15  ar  
 29  13  16  ar  
 30  14  17  1   
 31  14  38  1   
 32  14  39  1   
 33  15  17  1   
 34  15  18  ar  
 35  16  19  ar  
 36  16  40  1   
 37  17  41  1   
 38  17  42  1   
 39  18  20  ar  
 40  18  43  1   
 41  19  20  ar  
 42  19  21  1   
 43  20  22  1   
 44  21  23  1   
 45  22  24  1   
 46  23  44  1   
 47  23  45  1   
 48  23  46  1   
 49  24  47  1   
 50  24  48  1   
 51  24  49  1   
@<TRIPOS>SUBSTRUCTURE
  1 ****  11 GROUP 4 **** **** 0

# MOE 2024.06 (io_trps.svl 2023.06)
