@<TRIPOS>MOLECULE
NONAME
43 45 1 0 0 
SMALL
USER_CHARGES


@<TRIPOS>ATOM
  1 F        0.9250     2.0140    -0.2630 F     1 <1>  -0.1900 
  2 C        2.2240     2.0970    -0.0640 C.ar  1 <1>   0.1900 
  3 C        3.0860     1.0430    -0.3580 C.ar  1 <1>   0.4100 
  4 C        2.7460     3.2560     0.4360 C.ar  1 <1>   0.1600 
  5 N        4.3760     1.1680    -0.1480 N.ar  1 <1>  -0.6200 
  6 N        2.7360    -0.1770    -0.8810 N.pl3 1 <1>  -0.8690 
  7 N        4.0430     3.3960     0.6430 N.ar  1 <1>  -0.6200 
  8 C        4.7840     2.3260     0.3520 C.ar  1 <1>   0.7200 
  9 C        1.4390    -0.8470    -0.6130 C.3   1 <1>   0.1290 
 10 N        6.1350     2.4730     0.5510 N.pl3 1 <1>  -0.8380 
 11 C        6.6770     3.3260     1.6750 C.3   1 <1>   0.2090 
 12 C        7.1110     2.0200    -0.4900 C.3   1 <1>   0.2090 
 13 C        7.1570     4.7180     1.1820 C.3   1 <1>   0.4230 
 14 C        7.8890     3.1640    -1.1900 C.3   1 <1>  -0.0800 
 15 N        6.4640     5.0060    -0.1290 N.4   1 <1>  -0.9590 
 16 C        8.7060     4.8010     1.1550 C.3   1 <1>   0.1200 
 17 C        9.3040     3.3750    -0.6280 C.3   1 <1>   0.1200 
 18 C        7.1640     4.5120    -1.3500 C.3   1 <1>   0.3430 
 19 C        6.1330     6.4830    -0.2630 C.3   1 <1>   0.2370 
 20 O        9.2910     3.5970     0.7400 O.3   1 <1>  -0.5600 
 21 C        7.3520     7.4020    -0.2070 C.2   1 <1>   0.9060 
 22 O        8.0100     7.5560    -1.2390 O.co2 1 <1>  -0.9000 
 23 O        7.7160     7.7970     0.9040 O.co2 1 <1>  -0.9000 
 24 H        2.0920     4.0800     0.6670 H     1 <1>   0.1500 
 25 H        3.5370    -0.8140    -0.9290 H     1 <1>   0.4000 
 26 H        1.1340    -0.6740     0.4050 H     1 <1>   0.0800 
 27 H        1.5370    -1.9070    -0.7730 H     1 <1>   0.0800 
 28 H        0.6860    -0.4630    -1.2790 H     1 <1>   0.0800 
 29 H        5.9070     3.4770     2.4120 H     1 <1>   0.0800 
 30 H        7.4730     2.8020     2.1750 H     1 <1>   0.0800 
 31 H        7.8060     1.3330    -0.0350 H     1 <1>   0.0800 
 32 H        6.5840     1.4670    -1.2490 H     1 <1>   0.0800 
 33 H        6.8300     5.4530     1.8980 H     1 <1>   0.0800 
 34 H        8.0620     2.8220    -2.1940 H     1 <1>   0.0800 
 35 H        5.5950     4.4460    -0.0460 H     1 <1>   0.4500 
 36 H        9.0500     4.9750     2.1590 H     1 <1>   0.0800 
 37 H        9.0670     5.6120     0.5470 H     1 <1>   0.0800 
 38 H        9.8000     4.2040    -1.1070 H     1 <1>   0.0800 
 39 H        9.8960     2.4910    -0.7920 H     1 <1>   0.0800 
 40 H        6.4380     4.4220    -2.1400 H     1 <1>   0.0800 
 41 H        7.8860     5.2510    -1.6640 H     1 <1>   0.0800 
 42 H        5.6350     6.6640    -1.1980 H     1 <1>   0.0800 
 43 H        5.4770     6.7810     0.5340 H     1 <1>   0.0800 
@<TRIPOS>BOND
  1   1   2  1   
  2   2   3  ar  
  3   2   4  ar  
  4   3   5  ar  
  5   3   6  1   
  6   4   7  ar  
  7   4  24  1   
  8   5   8  ar  
  9   6   9  1   
 10   6  25  1   
 11   7   8  ar  
 12   8  10  1   
 13   9  26  1   
 14   9  27  1   
 15   9  28  1   
 16  10  11  1   
 17  10  12  1   
 18  11  13  1   
 19  11  29  1   
 20  11  30  1   
 21  12  14  1   
 22  12  31  1   
 23  12  32  1   
 24  13  15  1   
 25  13  16  1   
 26  13  33  1   
 27  14  17  1   
 28  14  18  1   
 29  14  34  1   
 30  15  18  1   
 31  15  19  1   
 32  15  35  1   
 33  16  20  1   
 34  16  36  1   
 35  16  37  1   
 36  17  20  1   
 37  17  38  1   
 38  17  39  1   
 39  18  40  1   
 40  18  41  1   
 41  19  21  1   
 42  19  42  1   
 43  19  43  1   
 44  21  22  ar  
 45  21  23  ar  
@<TRIPOS>SUBSTRUCTURE
  1 ****  10 GROUP 4 **** **** 0

# MOE 2024.06 (io_trps.svl 2023.06)
