@<TRIPOS>MOLECULE
NONAME
47 49 1 0 0 
SMALL
USER_CHARGES


@<TRIPOS>ATOM
  1 O        1.2050    -0.1410     1.2760 O.2   1 <1>  -0.5700 
  2 C        2.2310    -0.0130     0.6470 C.2   1 <1>   0.7150 
  3 N        2.8450    -1.1790     0.3170 N.am  1 <1>  -0.7300 
  4 C        2.7010     1.2970     0.3040 C.2   1 <1>  -0.2370 
  5 C        4.2220    -1.5290    -0.1270 C.3   1 <1>   0.1400 
  6 N        3.6520     1.6050    -0.6090 N.pl3 1 <1>   0.3140 
  7 C        2.2840     2.4940     0.7930 C.2   1 <1>  -0.1500 
  8 C        5.1230    -0.3460    -0.5150 C.3   1 <1>   0.2000 
  9 N        3.8580     2.9220    -0.7130 N.2   1 <1>  -0.7070 
 10 C        4.4380     0.6710    -1.4250 C.3   1 <1>   0.0960 
 11 C        3.0210     3.4810     0.1460 C.2   1 <1>   0.2030 
 12 O        6.2340    -0.8540    -1.1770 O.3   1 <1>  -0.6800 
 13 C        2.8870     4.9110     0.3830 C.2   1 <1>   0.7160 
 14 O        2.0880     5.3600     1.1880 O.2   1 <1>  -0.5700 
 15 N        3.6780     5.7790    -0.3160 N.am  1 <1>  -0.7300 
 16 C        3.7030     7.2480    -0.1990 C.3   1 <1>   0.1400 
 17 C        5.1330     7.7030     0.0870 C.3   1 <1>  -0.1600 
 18 C        5.2080     9.2240     0.2570 C.3   1 <1>  -0.0170 
 19 C        6.6390     9.6590     0.5250 C.ar  1 <1>  -0.1430 
 20 C        7.4710    10.0190    -0.5250 C.ar  1 <1>  -0.1500 
 21 C        7.1270     9.6950     1.8210 C.ar  1 <1>  -0.1500 
 22 C        8.7770    10.4170    -0.2880 C.ar  1 <1>  -0.1430 
 23 C        8.4300    10.0900     2.0650 C.ar  1 <1>  -0.1500 
 24 C        9.2530    10.4490     1.0120 C.ar  1 <1>  -0.1500 
 25 C        9.6790    10.8090    -1.4440 C.3   1 <1>  -0.0970 
 26 H        2.3000    -1.9820     0.6420 H     1 <1>   0.3700 
 27 H        4.1300    -2.1860    -0.9740 H     1 <1>   0.0800 
 28 H        4.7060    -2.0760     0.6650 H     1 <1>   0.0800 
 29 H        1.5270     2.6730     1.5380 H     1 <1>   0.1500 
 30 H        5.4930     0.1440     0.3710 H     1 <1>   0.0800 
 31 H        5.1790     1.2430    -1.9550 H     1 <1>   0.0800 
 32 H        3.7840     0.1890    -2.1270 H     1 <1>   0.0800 
 33 H        5.9940    -1.2780    -2.0240 H     1 <1>   0.4000 
 34 H        4.3330     5.3410    -0.9700 H     1 <1>   0.3700 
 35 H        3.0500     7.5630     0.5990 H     1 <1>   0.0800 
 36 H        3.3500     7.6810    -1.1200 H     1 <1>   0.0800 
 37 H        5.7760     7.4070    -0.7240 H     1 <1>   0.0800 
 38 H        5.4820     7.2320     0.9900 H     1 <1>   0.0800 
 39 H        4.5820     9.5310     1.0760 H     1 <1>   0.0800 
 40 H        4.8460     9.7110    -0.6320 H     1 <1>   0.0800 
 41 H        7.1000     9.9890    -1.5330 H     1 <1>   0.1500 
 42 H        6.4950     9.4150     2.6450 H     1 <1>   0.1500 
 43 H        8.8050    10.1160     3.0730 H     1 <1>   0.1500 
 44 H       10.2660    10.7530     1.2110 H     1 <1>   0.1500 
 45 H        9.1030    11.2460    -2.2390 H     1 <1>   0.0800 
 46 H       10.1870     9.9390    -1.8190 H     1 <1>   0.0800 
 47 H       10.4120    11.5270    -1.1220 H     1 <1>   0.0800 
@<TRIPOS>BOND
  1   1   2  2   
  2   2   3  am  
  3   2   4  1   
  4   3   5  1   
  5   3  26  1   
  6   4   6  1   
  7   4   7  2   
  8   5   8  1   
  9   5  27  1   
 10   5  28  1   
 11   6   9  1   
 12   6  10  1   
 13   7  11  1   
 14   7  29  1   
 15   8  10  1   
 16   8  12  1   
 17   8  30  1   
 18   9  11  2   
 19  10  31  1   
 20  10  32  1   
 21  11  13  1   
 22  12  33  1   
 23  13  14  2   
 24  13  15  am  
 25  15  16  1   
 26  15  34  1   
 27  16  17  1   
 28  16  35  1   
 29  16  36  1   
 30  17  18  1   
 31  17  37  1   
 32  17  38  1   
 33  18  19  1   
 34  18  39  1   
 35  18  40  1   
 36  19  20  ar  
 37  19  21  ar  
 38  20  22  ar  
 39  20  41  1   
 40  21  23  ar  
 41  21  42  1   
 42  22  24  ar  
 43  22  25  1   
 44  23  24  ar  
 45  23  43  1   
 46  24  44  1   
 47  25  45  1   
 48  25  46  1   
 49  25  47  1   
@<TRIPOS>SUBSTRUCTURE
  1 ****  15 GROUP 4 **** **** 0

# MOE 2024.06 (io_trps.svl 2023.06)
