@<TRIPOS>MOLECULE
NONAME
49 52 1 0 0 
SMALL
USER_CHARGES


@<TRIPOS>ATOM
  1 O        0.0130    -0.2800    -2.2810 O.2   1 <1>  -0.5700 
  2 C        0.2330    -0.0580    -1.1140 C.2   1 <1>   0.5690 
  3 N        0.9160     1.0810    -0.7380 N.am  1 <1>  -0.6600 
  4 C       -0.2690    -1.0950    -0.1190 C.3   1 <1>   0.1570 
  5 C        1.6290     1.2690     0.5610 C.3   1 <1>   0.1400 
  6 C        1.1920     2.1580    -1.7290 C.3   1 <1>   0.1400 
  7 N        0.8350    -1.8560     0.5100 N.pl3 1 <1>   0.0480 
  8 C        2.9810     0.5210     0.6100 C.3   1 <1>   0.3430 
  9 C        2.6900     2.2370    -2.0390 C.3   1 <1>  -0.1600 
 10 C        1.8610    -2.5370    -0.1140 C.ar  1 <1>  -0.1520 
 11 C        1.0390    -1.9540     1.8600 C.2   1 <1>  -0.3020 
 12 N        3.9260     0.6490    -0.5650 N.4   1 <1>  -0.9590 
 13 C        3.3780     0.8750    -1.9360 C.3   1 <1>   0.3430 
 14 C        2.7000    -3.0620     0.8660 C.ar  1 <1>   0.0000 
 15 C        2.1400    -2.7570    -1.4680 C.ar  1 <1>  -0.1500 
 16 C        2.1560    -2.6770     2.1080 C.2   1 <1>  -0.1500 
 17 C        4.8070    -0.5490    -0.5700 C.3   1 <1>   0.5230 
 18 C        3.8210    -3.8150     0.5040 C.ar  1 <1>  -0.1500 
 19 C        3.2530    -3.4890    -1.8140 C.ar  1 <1>  -0.1500 
 20 C        5.7790    -0.4290     0.5940 C.2   1 <1>   0.0060 
 21 C        4.0940    -4.0210    -0.8290 C.ar  1 <1>  -0.1500 
 22 N        6.1020     0.7030     1.1420 N.2   1 <1>  -0.5650 
 23 N        6.3870    -1.4970     1.1590 N.pl3 1 <1>   0.0330 
 24 C        6.9700     0.3550     2.1130 C.2   1 <1>   0.0770 
 25 C        7.1520    -0.9830     2.1380 C.2   1 <1>  -0.3020 
 26 H       -0.9080    -1.7900    -0.6300 H     1 <1>   0.0800 
 27 H       -0.8440    -0.6050     0.6420 H     1 <1>   0.0800 
 28 H        1.0080     0.9200     1.3680 H     1 <1>   0.0800 
 29 H        1.8010     2.3180     0.7320 H     1 <1>   0.0800 
 30 H        0.8410     3.1030    -1.3480 H     1 <1>   0.0800 
 31 H        0.6510     1.9680    -2.6420 H     1 <1>   0.0800 
 32 H        2.7650    -0.5180     0.7520 H     1 <1>   0.0800 
 33 H        3.5020     0.8320     1.5010 H     1 <1>   0.0800 
 34 H        3.1710     2.9570    -1.4030 H     1 <1>   0.0800 
 35 H        2.7890     2.5960    -3.0480 H     1 <1>   0.0800 
 36 H        0.3670    -1.5140     2.5770 H     1 <1>   0.1500 
 37 H        4.5830     1.4090    -0.3190 H     1 <1>   0.4500 
 38 H        4.1910     0.8540    -2.6440 H     1 <1>   0.0800 
 39 H        2.6850     0.0910    -2.2010 H     1 <1>   0.0800 
 40 H        1.4810    -2.3760    -2.2300 H     1 <1>   0.1500 
 41 H        2.5780    -2.9430     3.0630 H     1 <1>   0.1500 
 42 H        5.3690    -0.5940    -1.4870 H     1 <1>   0.0800 
 43 H        4.2160    -1.4440    -0.4800 H     1 <1>   0.0800 
 44 H        4.4370    -4.2400     1.2770 H     1 <1>   0.1500 
 45 H        3.4740    -3.6800    -2.8510 H     1 <1>   0.1500 
 46 H        4.9430    -4.6120    -1.1300 H     1 <1>   0.1500 
 47 H        6.2970    -2.4890     0.9110 H     1 <1>   0.2700 
 48 H        7.4270     1.0930     2.7540 H     1 <1>   0.1500 
 49 H        7.7750    -1.5770     2.7840 H     1 <1>   0.1500 
@<TRIPOS>BOND
  1   1   2  2   
  2   2   3  am  
  3   2   4  1   
  4   3   5  1   
  5   3   6  1   
  6   4   7  1   
  7   4  26  1   
  8   4  27  1   
  9   5   8  1   
 10   5  28  1   
 11   5  29  1   
 12   6   9  1   
 13   6  30  1   
 14   6  31  1   
 15   7  10  1   
 16   7  11  1   
 17   8  12  1   
 18   8  32  1   
 19   8  33  1   
 20   9  13  1   
 21   9  34  1   
 22   9  35  1   
 23  10  14  ar  
 24  10  15  ar  
 25  11  16  2   
 26  11  36  1   
 27  12  13  1   
 28  12  17  1   
 29  12  37  1   
 30  13  38  1   
 31  13  39  1   
 32  14  16  1   
 33  14  18  ar  
 34  15  19  ar  
 35  15  40  1   
 36  16  41  1   
 37  17  20  1   
 38  17  42  1   
 39  17  43  1   
 40  18  21  ar  
 41  18  44  1   
 42  19  21  ar  
 43  19  45  1   
 44  20  22  2   
 45  20  23  1   
 46  21  46  1   
 47  22  24  1   
 48  23  25  1   
 49  23  47  1   
 50  24  25  2   
 51  24  48  1   
 52  25  49  1   
@<TRIPOS>SUBSTRUCTURE
  1 ****   8 GROUP 4 **** **** 0

# MOE 2024.06 (io_trps.svl 2023.06)
