@<TRIPOS>MOLECULE
NONAME
41 42 1 0 0 
SMALL
USER_CHARGES


@<TRIPOS>ATOM
  1 O        1.3370    -0.7760    -2.4960 O.2   1 <1>  -0.5700 
  2 C        1.9300    -1.1020    -1.5000 C.2   1 <1>   0.5690 
  3 N        2.6180    -0.2370    -0.6990 N.am  1 <1>  -0.4940 
  4 C        1.9070    -2.5670    -1.1050 C.3   1 <1>  -0.0990 
  5 C        2.7970     1.1450    -0.8330 C.2   1 <1>   0.2040 
  6 C        0.9740    -2.8250     0.0910 C.3   1 <1>  -0.1600 
  7 O        2.3380     1.8140    -1.8620 O.3   1 <1>  -0.0190 
  8 C        3.4150     2.0230    -0.0220 C.2   1 <1>  -0.1810 
  9 C        0.8510    -4.3180     0.3920 C.3   1 <1>   0.1400 
 10 N        2.6150     3.0880    -1.7810 N.2   1 <1>  -0.4100 
 11 C        3.2760     3.2530    -0.6800 C.2   1 <1>   0.2350 
 12 C        4.0960     1.7900     1.3170 C.3   1 <1>  -0.0590 
 13 N       -0.0180    -4.4950     1.5720 N.am  1 <1>  -0.7300 
 14 C        3.7700     4.5290    -0.2090 C.ar  1 <1>   0.0540 
 15 C       -1.3260    -4.8280     1.6230 C.2   1 <1>   0.5690 
 16 C        5.1120     4.7210     0.1130 C.ar  1 <1>  -0.1500 
 17 C        2.9070     5.6130    -0.0640 C.ar  1 <1>  -0.1500 
 18 O       -1.8770    -4.9280     2.6870 O.2   1 <1>  -0.5700 
 19 C       -2.1150    -5.0730     0.3600 C.3   1 <1>  -0.1790 
 20 C        5.5720     5.9390     0.5800 C.ar  1 <1>  -0.1500 
 21 C        3.3590     6.8340     0.4010 C.ar  1 <1>  -0.1500 
 22 C        4.6940     6.9980     0.7270 C.ar  1 <1>  -0.1500 
 23 H        3.0550    -0.6460     0.1210 H     1 <1>   0.3700 
 24 H        2.9070    -2.8880    -0.8770 H     1 <1>   0.0800 
 25 H        1.5660    -3.1340    -1.9530 H     1 <1>   0.0800 
 26 H       -0.0030    -2.4330    -0.1400 H     1 <1>   0.0800 
 27 H        1.3480    -2.3130     0.9600 H     1 <1>   0.0800 
 28 H        1.8190    -4.7410     0.6030 H     1 <1>   0.0800 
 29 H        0.4350    -4.8350    -0.4560 H     1 <1>   0.0800 
 30 H        3.8700     0.8100     1.6950 H     1 <1>   0.0800 
 31 H        3.7550     2.5180     2.0320 H     1 <1>   0.0800 
 32 H        5.1620     1.8810     1.2120 H     1 <1>   0.0800 
 33 H        0.4150    -4.3390     2.4850 H     1 <1>   0.3700 
 34 H        5.8040     3.9070    -0.0130 H     1 <1>   0.1500 
 35 H        1.8700     5.4890    -0.3230 H     1 <1>   0.1500 
 36 H       -2.0440    -4.2200    -0.2880 H     1 <1>   0.0800 
 37 H       -3.1480    -5.2350     0.6060 H     1 <1>   0.0800 
 38 H       -1.7370    -5.9430    -0.1410 H     1 <1>   0.0800 
 39 H        6.6120     6.0670     0.8250 H     1 <1>   0.1500 
 40 H        2.6740     7.6570     0.5080 H     1 <1>   0.1500 
 41 H        5.0480     7.9480     1.0900 H     1 <1>   0.1500 
@<TRIPOS>BOND
  1   1   2  2   
  2   2   3  am  
  3   2   4  1   
  4   3   5  1   
  5   3  23  1   
  6   4   6  1   
  7   4  24  1   
  8   4  25  1   
  9   5   7  1   
 10   5   8  2   
 11   6   9  1   
 12   6  26  1   
 13   6  27  1   
 14   7  10  1   
 15   8  11  1   
 16   8  12  1   
 17   9  13  1   
 18   9  28  1   
 19   9  29  1   
 20  10  11  2   
 21  11  14  1   
 22  12  30  1   
 23  12  31  1   
 24  12  32  1   
 25  13  15  am  
 26  13  33  1   
 27  14  16  ar  
 28  14  17  ar  
 29  15  18  2   
 30  15  19  1   
 31  16  20  ar  
 32  16  34  1   
 33  17  21  ar  
 34  17  35  1   
 35  19  36  1   
 36  19  37  1   
 37  19  38  1   
 38  20  22  ar  
 39  20  39  1   
 40  21  22  ar  
 41  21  40  1   
 42  22  41  1   
@<TRIPOS>SUBSTRUCTURE
  1 ****   5 GROUP 4 **** **** 0

# MOE 2024.06 (io_trps.svl 2023.06)
