@<TRIPOS>MOLECULE
NONAME
45 48 1 0 0 
SMALL
USER_CHARGES


@<TRIPOS>ATOM
  1 O       -0.8010    -1.2260     0.2200 O.3   1 <1>  -0.5600 
  2 C       -2.1150    -0.7800     0.3990 C.3   1 <1>   0.3800 
  3 C        0.0960    -0.8400     1.2170 C.3   1 <1>   0.1200 
  4 C       -2.9900    -1.4110    -0.6830 C.2   1 <1>  -0.0400 
  5 C       -2.1270     0.7570     0.3580 C.3   1 <1>  -0.1600 
  6 C        0.2150     0.6880     1.2380 C.3   1 <1>  -0.1600 
  7 O       -3.0950    -2.7280    -0.7260 O.3   1 <1>  -0.2800 
  8 C       -3.7260    -0.8580    -1.6740 C.2   1 <1>  -0.1500 
  9 C       -1.1610     1.3460     1.3930 C.3   1 <1>  -0.1600 
 10 C       -3.8710    -3.0420    -1.7440 C.2   1 <1>  -0.0400 
 11 C       -4.3050    -1.9270    -2.3690 C.2   1 <1>  -0.1500 
 12 C       -4.1230    -4.5090    -2.0160 C.3   1 <1>   0.5230 
 13 N       -4.5730    -5.1370    -0.7520 N.4   1 <1>  -0.8970 
 14 C       -4.9670    -6.5830    -0.8120 C.3   1 <1>   0.4720 
 15 C       -5.9710    -4.7820    -0.3330 C.3   1 <1>   0.4720 
 16 C       -6.4420    -6.1350    -0.9080 C.3   1 <1>   0.1080 
 17 C       -7.3530    -6.8920     0.0350 C.ar  1 <1>   0.2020 
 18 N       -6.9310    -7.0110     1.2850 N.ar  1 <1>  -0.6200 
 19 C       -8.5500    -7.4130    -0.4340 C.ar  1 <1>  -0.1500 
 20 C       -7.7360    -7.6770     2.1030 C.ar  1 <1>   0.1600 
 21 C       -9.3760    -8.1020     0.4270 C.ar  1 <1>  -0.1500 
 22 C       -8.9470    -8.2320     1.7300 C.ar  1 <1>  -0.1500 
 23 H       -2.4520    -1.1240     1.3610 H     1 <1>   0.0800 
 24 H        1.0490    -1.2880     0.9920 H     1 <1>   0.0800 
 25 H       -0.2540    -1.2190     2.1620 H     1 <1>   0.0800 
 26 H       -3.1230     1.1150     0.5470 H     1 <1>   0.0800 
 27 H       -1.8380     1.0800    -0.6270 H     1 <1>   0.0800 
 28 H        0.6720     1.0100     0.3180 H     1 <1>   0.0800 
 29 H        0.8580     0.9890     2.0460 H     1 <1>   0.0800 
 30 H       -3.8570     0.1820    -1.9170 H     1 <1>   0.1500 
 31 H       -1.5370     1.1570     2.3840 H     1 <1>   0.0800 
 32 H       -1.0790     2.4110     1.2620 H     1 <1>   0.0800 
 33 H       -4.9480    -1.8200    -3.2270 H     1 <1>   0.1500 
 34 H       -3.2020    -4.9650    -2.3420 H     1 <1>   0.0800 
 35 H       -4.8640    -4.6220    -2.7890 H     1 <1>   0.0800 
 36 H       -3.9110    -4.9190     0.0050 H     1 <1>   0.4500 
 37 H       -4.7250    -7.0850     0.1070 H     1 <1>   0.0000 
 38 H       -4.5960    -7.0690    -1.6960 H     1 <1>   0.0000 
 39 H       -6.3490    -3.9240    -0.8580 H     1 <1>   0.0000 
 40 H       -6.0450    -4.7180     0.7380 H     1 <1>   0.0000 
 41 H       -6.7960    -6.0610    -1.9220 H     1 <1>   0.0000 
 42 H       -8.8450    -7.2870    -1.4610 H     1 <1>   0.1500 
 43 H       -7.4150    -7.7870     3.1260 H     1 <1>   0.1500 
 44 H      -10.3140    -8.5210     0.1000 H     1 <1>   0.1500 
 45 H       -9.5460    -8.7590     2.4520 H     1 <1>   0.1500 
@<TRIPOS>BOND
  1   1   2  1   
  2   1   3  1   
  3   2   4  1   
  4   2   5  1   
  5   2  23  1   
  6   3   6  1   
  7   3  24  1   
  8   3  25  1   
  9   4   7  1   
 10   4   8  2   
 11   5   9  1   
 12   5  26  1   
 13   5  27  1   
 14   6   9  1   
 15   6  28  1   
 16   6  29  1   
 17   7  10  1   
 18   8  11  1   
 19   8  30  1   
 20   9  31  1   
 21   9  32  1   
 22  10  11  2   
 23  10  12  1   
 24  11  33  1   
 25  12  13  1   
 26  12  34  1   
 27  12  35  1   
 28  13  14  1   
 29  13  15  1   
 30  13  36  1   
 31  14  16  1   
 32  14  37  1   
 33  14  38  1   
 34  15  16  1   
 35  15  39  1   
 36  15  40  1   
 37  16  17  1   
 38  16  41  1   
 39  17  18  ar  
 40  17  19  ar  
 41  18  20  ar  
 42  19  21  ar  
 43  19  42  1   
 44  20  22  ar  
 45  20  43  1   
 46  21  22  ar  
 47  21  44  1   
 48  22  45  1   
@<TRIPOS>SUBSTRUCTURE
  1 ****  13 GROUP 4 **** **** 0

# MOE 2024.06 (io_trps.svl 2023.06)
