@<TRIPOS>MOLECULE
NONAME
23 24 1 0 0 
SMALL
USER_CHARGES


@<TRIPOS>ATOM
  1 O       -7.9530     0.1140     0.9230 O.3   1 <1>  -0.6800 
  2 C       -6.5660     0.0610     0.6840 C.3   1 <1>   0.2000 
  3 C       -5.8640     1.1390    -0.1610 C.3   1 <1>  -0.0800 
  4 C       -6.0380    -0.9910    -0.3070 C.3   1 <1>  -0.0800 
  5 C       -4.7110     1.2220     0.8750 C.3   1 <1>   0.3430 
  6 C       -6.9510     1.0240    -1.2730 C.3   1 <1>  -0.1600 
  7 C       -4.9450    -1.4120     0.7050 C.3   1 <1>   0.3430 
  8 C       -7.0630    -0.5360    -1.3950 C.3   1 <1>  -0.1600 
  9 N       -4.0110    -0.1740     0.8800 N.4   1 <1>  -0.9060 
 10 H       -8.2330     0.9830     1.2720 H     1 <1>   0.4000 
 11 H       -6.2540    -0.0260     1.7210 H     1 <1>   0.0800 
 12 H       -5.3760     1.9210    -0.7160 H     1 <1>   0.0800 
 13 H       -5.6750    -1.7590    -0.9680 H     1 <1>   0.0800 
 14 H       -5.0920     1.4670     1.8550 H     1 <1>   0.0800 
 15 H       -4.0010     1.9860     0.5990 H     1 <1>   0.0800 
 16 H       -7.8860     1.5090    -1.0410 H     1 <1>   0.0800 
 17 H       -6.6110     1.4220    -2.2170 H     1 <1>   0.0800 
 18 H       -4.3790    -2.2520     0.3320 H     1 <1>   0.0800 
 19 H       -5.3870    -1.7060     1.6450 H     1 <1>   0.0800 
 20 H       -6.7580    -0.8310    -2.3870 H     1 <1>   0.0800 
 21 H       -8.0640    -0.9110    -1.2440 H     1 <1>   0.0800 
 22 H       -3.4330    -0.2830     1.7250 H     1 <1>   0.4500 
 23 H       -3.3560    -0.1830     0.0870 H     1 <1>   0.4500 
@<TRIPOS>BOND
  1   1   2  1   
  2   1  10  1   
  3   2   3  1   
  4   2   4  1   
  5   2  11  1   
  6   3   5  1   
  7   3   6  1   
  8   3  12  1   
  9   4   7  1   
 10   4   8  1   
 11   4  13  1   
 12   5   9  1   
 13   5  14  1   
 14   5  15  1   
 15   6   8  1   
 16   6  16  1   
 17   6  17  1   
 18   7   9  1   
 19   7  18  1   
 20   7  19  1   
 21   8  20  1   
 22   8  21  1   
 23   9  22  1   
 24   9  23  1   
@<TRIPOS>SUBSTRUCTURE
  1 ****   2 GROUP 4 **** **** 0

# MOE 2024.06 (io_trps.svl 2023.06)
