@<TRIPOS>MOLECULE
NONAME
44 47 1 0 0 
SMALL
USER_CHARGES


@<TRIPOS>ATOM
  1 CL      -1.0180     0.0220    -1.9730 Cl    1 <1>  -0.1230 
  2 C       -1.8900     0.4750    -0.5160 C.2   1 <1>   0.1230 
  3 C       -2.6280    -0.3790     0.3120 C.2   1 <1>   0.2030 
  4 C       -1.9820     1.7190    -0.0120 C.2   1 <1>  -0.3320 
  5 N       -3.1680     0.3380     1.2910 N.2   1 <1>  -0.7070 
  6 C       -2.7510    -1.8170     0.1030 C.2   1 <1>   0.7160 
  7 N       -2.7570     1.6020     1.0850 N.pl3 1 <1>   0.3000 
  8 C       -1.3810     3.0270    -0.5010 C.3   1 <1>  -0.0600 
  9 O       -1.8070    -2.4500    -0.3400 O.2   1 <1>  -0.5700 
 10 N       -3.9110    -2.5230     0.3830 N.am  1 <1>  -0.6600 
 11 C       -3.9630    -4.0210     0.3920 C.3   1 <1>   0.1400 
 12 C       -5.2410    -1.8890     0.6440 C.3   1 <1>   0.1400 
 13 C       -5.1350    -4.5460    -0.4570 C.3   1 <1>   0.3440 
 14 C       -6.3500    -2.5460    -0.2030 C.3   1 <1>   0.2950 
 15 O       -6.3330    -3.9360    -0.0530 O.3   1 <1>  -0.5600 
 16 C       -5.2590    -6.0610    -0.3250 C.ar  1 <1>  -0.1440 
 17 C       -7.7400    -2.0560     0.2130 C.3   1 <1>  -0.1950 
 18 C       -6.0320    -6.6420     0.6720 C.ar  1 <1>  -0.1500 
 19 C       -4.5760    -6.8830    -1.2100 C.ar  1 <1>  -0.1500 
 20 C       -8.9040    -2.1420    -0.7230 C.3   1 <1>  -0.2000 
 21 C       -8.3220    -0.8030    -0.3640 C.3   1 <1>  -0.2000 
 22 C       -6.1200    -8.0190     0.7820 C.ar  1 <1>  -0.1500 
 23 C       -4.6620    -8.2600    -1.1020 C.ar  1 <1>  -0.1500 
 24 C       -5.4340    -8.8290    -0.1050 C.ar  1 <1>  -0.1500 
 25 H       -3.0210     2.3740     1.7130 H     1 <1>   0.2700 
 26 H       -0.8020     2.8620    -1.3930 H     1 <1>   0.0800 
 27 H       -0.7340     3.4440     0.2500 H     1 <1>   0.0800 
 28 H       -2.1590     3.7340    -0.7270 H     1 <1>   0.0800 
 29 H       -3.0470    -4.4420     0.0170 H     1 <1>   0.0800 
 30 H       -4.0860    -4.3630     1.4050 H     1 <1>   0.0800 
 31 H       -5.4790    -1.9890     1.6880 H     1 <1>   0.0800 
 32 H       -5.2190    -0.8410     0.4090 H     1 <1>   0.0800 
 33 H       -4.9700    -4.2960    -1.4910 H     1 <1>   0.0800 
 34 H       -6.1890    -2.3220    -1.2440 H     1 <1>   0.0800 
 35 H       -7.9370    -2.2510     1.2530 H     1 <1>   0.1000 
 36 H       -6.5720    -6.0200     1.3650 H     1 <1>   0.1500 
 37 H       -3.9700    -6.4550    -1.9910 H     1 <1>   0.1500 
 38 H       -8.7420    -2.5390    -1.7100 H     1 <1>   0.1000 
 39 H       -9.8620    -2.4240    -0.3200 H     1 <1>   0.1000 
 40 H       -8.8900    -0.1520     0.2790 H     1 <1>   0.1000 
 41 H       -7.7830    -0.2640    -1.1230 H     1 <1>   0.1000 
 42 H       -6.7230    -8.4580     1.5570 H     1 <1>   0.1500 
 43 H       -4.1300    -8.8900    -1.7930 H     1 <1>   0.1500 
 44 H       -5.5030    -9.9000    -0.0200 H     1 <1>   0.1500 
@<TRIPOS>BOND
  1   1   2  1   
  2   2   3  1   
  3   2   4  2   
  4   3   5  2   
  5   3   6  1   
  6   4   7  1   
  7   4   8  1   
  8   5   7  1   
  9   6   9  2   
 10   6  10  am  
 11   7  25  1   
 12   8  26  1   
 13   8  27  1   
 14   8  28  1   
 15  10  11  1   
 16  10  12  1   
 17  11  13  1   
 18  11  29  1   
 19  11  30  1   
 20  12  14  1   
 21  12  31  1   
 22  12  32  1   
 23  13  15  1   
 24  13  16  1   
 25  13  33  1   
 26  14  15  1   
 27  14  17  1   
 28  14  34  1   
 29  16  18  ar  
 30  16  19  ar  
 31  17  20  1   
 32  17  21  1   
 33  17  35  1   
 34  18  22  ar  
 35  18  36  1   
 36  19  23  ar  
 37  19  37  1   
 38  20  21  1   
 39  20  38  1   
 40  20  39  1   
 41  21  40  1   
 42  21  41  1   
 43  22  24  ar  
 44  22  42  1   
 45  23  24  ar  
 46  23  43  1   
 47  24  44  1   
@<TRIPOS>SUBSTRUCTURE
  1 ****  10 GROUP 4 **** **** 0

# MOE 2024.06 (io_trps.svl 2023.06)
