@<TRIPOS>MOLECULE
NONAME
49 52 1 0 0 
SMALL
USER_CHARGES


@<TRIPOS>ATOM
  1 S        1.0040    -2.5890    -0.0230 S.3   1 <1>  -0.0800 
  2 C       -0.4070    -1.7880    -0.6770 C.2   1 <1>   0.1980 
  3 C       -0.0170    -3.4180     1.1140 C.2   1 <1>  -0.1100 
  4 N       -1.5030    -2.1150    -0.1140 N.2   1 <1>  -0.5650 
  5 C       -0.1830    -0.8160    -1.8130 C.3   1 <1>  -0.0600 
  6 C       -1.2880    -3.0340     0.9110 C.2   1 <1>   0.0460 
  7 C       -2.5160    -3.5100     1.6730 C.3   1 <1>   0.5240 
  8 N       -3.6000    -3.7350     0.6790 N.4   1 <1>  -0.9590 
  9 C       -4.9740    -3.7240     1.2910 C.3   1 <1>   0.3430 
 10 C       -3.3380    -4.9450    -0.1790 C.3   1 <1>   0.3430 
 11 C       -6.0700    -3.9470     0.2340 C.3   1 <1>   0.1400 
 12 C       -4.4500    -5.1650    -1.2250 C.3   1 <1>   0.1400 
 13 N       -5.7810    -5.1860    -0.5520 N.am  1 <1>  -0.6600 
 14 C       -6.6290    -6.2670    -0.5000 C.2   1 <1>   0.6300 
 15 O       -7.6400    -6.2220     0.1590 O.2   1 <1>  -0.5700 
 16 C       -6.3370    -7.5490    -1.2700 C.3   1 <1>  -0.0200 
 17 C       -6.4160    -8.8540    -0.5680 C.2   1 <1>  -0.0680 
 18 C       -5.2020    -8.4740    -0.9890 C.2   1 <1>  -0.1780 
 19 C       -7.2830    -9.8000     0.0850 C.ar  1 <1>   0.0280 
 20 C       -3.7210    -8.7590    -1.1190 C.3   1 <1>  -0.1020 
 21 C       -8.6200    -9.4990     0.3230 C.ar  1 <1>  -0.1500 
 22 C       -6.8050   -11.0390     0.4970 C.ar  1 <1>  -0.1500 
 23 C       -9.4550   -10.4070     0.9500 C.ar  1 <1>  -0.1500 
 24 C       -7.6340   -11.9510     1.1260 C.ar  1 <1>  -0.1500 
 25 C       -8.9620   -11.6350     1.3530 C.ar  1 <1>  -0.1500 
 26 H        0.4580    -4.0940     1.8030 H     1 <1>   0.1500 
 27 H        0.4650    -0.0220    -1.4890 H     1 <1>   0.0800 
 28 H       -1.1200    -0.3930    -2.1270 H     1 <1>   0.0800 
 29 H        0.2700    -1.3220    -2.6450 H     1 <1>   0.0800 
 30 H       -2.8090    -2.7340     2.3610 H     1 <1>   0.0800 
 31 H       -2.3010    -4.4080     2.2270 H     1 <1>   0.0800 
 32 H       -3.4950    -2.9130     0.0550 H     1 <1>   0.4500 
 33 H       -5.1500    -2.7840     1.7880 H     1 <1>   0.0800 
 34 H       -5.0520    -4.5090     2.0260 H     1 <1>   0.0800 
 35 H       -3.2800    -5.8230     0.4430 H     1 <1>   0.0800 
 36 H       -2.3940    -4.8330    -0.6880 H     1 <1>   0.0800 
 37 H       -6.1150    -3.1030    -0.4320 H     1 <1>   0.0800 
 38 H       -7.0240    -4.0160     0.7280 H     1 <1>   0.0800 
 39 H       -4.2690    -6.0790    -1.7580 H     1 <1>   0.0800 
 40 H       -4.4300    -4.3650    -1.9450 H     1 <1>   0.0800 
 41 H       -6.7280    -7.4940    -2.2690 H     1 <1>   0.1000 
 42 H       -3.4310    -8.7380    -2.1550 H     1 <1>   0.0800 
 43 H       -3.5090    -9.7380    -0.7250 H     1 <1>   0.0800 
 44 H       -3.1460    -8.0380    -0.5710 H     1 <1>   0.0800 
 45 H       -9.0060    -8.5420     0.0180 H     1 <1>   0.1500 
 46 H       -5.7740   -11.2880     0.3210 H     1 <1>   0.1500 
 47 H      -10.4860   -10.1550     1.1260 H     1 <1>   0.1500 
 48 H       -7.2480   -12.9050     1.4380 H     1 <1>   0.1500 
 49 H       -9.6100   -12.3420     1.8420 H     1 <1>   0.1500 
@<TRIPOS>BOND
  1   1   2  1   
  2   1   3  1   
  3   2   4  2   
  4   2   5  1   
  5   3   6  2   
  6   3  26  1   
  7   4   6  1   
  8   5  27  1   
  9   5  28  1   
 10   5  29  1   
 11   6   7  1   
 12   7   8  1   
 13   7  30  1   
 14   7  31  1   
 15   8   9  1   
 16   8  10  1   
 17   8  32  1   
 18   9  11  1   
 19   9  33  1   
 20   9  34  1   
 21  10  12  1   
 22  10  35  1   
 23  10  36  1   
 24  11  13  1   
 25  11  37  1   
 26  11  38  1   
 27  12  13  1   
 28  12  39  1   
 29  12  40  1   
 30  13  14  am  
 31  14  15  2   
 32  14  16  1   
 33  16  17  1   
 34  16  18  1   
 35  16  41  1   
 36  17  18  2   
 37  17  19  1   
 38  18  20  1   
 39  19  21  ar  
 40  19  22  ar  
 41  20  42  1   
 42  20  43  1   
 43  20  44  1   
 44  21  23  ar  
 45  21  45  1   
 46  22  24  ar  
 47  22  46  1   
 48  23  25  ar  
 49  23  47  1   
 50  24  25  ar  
 51  24  48  1   
 52  25  49  1   
@<TRIPOS>SUBSTRUCTURE
  1 ****  13 GROUP 4 **** **** 0

# MOE 2024.06 (io_trps.svl 2023.06)
