@<TRIPOS>MOLECULE
NONAME
43 45 1 0 0 
SMALL
USER_CHARGES


@<TRIPOS>ATOM
  1 S        0.4410     0.2180    -0.6440 S.o2  1 <1>   1.3330 
  2 O        0.4330    -0.2910     0.7100 O.2   1 <1>  -0.6500 
  3 O        0.3940    -0.7090    -1.7520 O.2   1 <1>  -0.6500 
  4 N       -0.8600     1.2980    -0.7980 N.am  1 <1>  -0.8490 
  5 C        1.8760     1.2650    -0.8630 C.3   1 <1>  -0.0550 
  6 C       -1.1290     2.0670     0.4210 C.3   1 <1>   0.1160 
  7 C       -2.0830     0.6290    -1.2490 C.3   1 <1>   0.1160 
  8 C        3.1970     0.4730    -0.9320 C.3   1 <1>  -0.0800 
  9 C        4.4400     1.3110    -1.1880 C.3   1 <1>   0.2200 
 10 C        3.5600    -0.2950     0.3470 C.3   1 <1>   0.1200 
 11 N        4.4270     2.5410    -0.3580 N.am  1 <1>  -0.7300 
 12 C        5.5110     0.3780    -0.6450 C.3   1 <1>   0.1200 
 13 O        4.9460    -0.1750     0.5040 O.3   1 <1>  -0.5600 
 14 C        4.0860     3.7890    -0.7920 C.2   1 <1>   0.5440 
 15 O        3.6800     3.8960    -1.9320 O.2   1 <1>  -0.5700 
 16 C        4.1900     4.9500     0.0770 C.ar  1 <1>   0.0860 
 17 C        4.1680     6.2330    -0.4500 C.ar  1 <1>  -0.1500 
 18 C        4.3140     4.8190     1.4820 C.ar  1 <1>  -0.1500 
 19 C        4.2740     7.3450     0.3810 C.ar  1 <1>   0.2270 
 20 C        4.4200     5.9110     2.3110 C.ar  1 <1>  -0.1500 
 21 N        4.2790     8.6710     0.0930 N.2   1 <1>  -0.2270 
 22 C        4.4000     7.1830     1.7350 C.ar  1 <1>  -0.1520 
 23 N        4.4020     9.3230     1.1870 N.2   1 <1>  -0.4180 
 24 N        4.4770     8.4460     2.1990 N.pl3 1 <1>   0.3000 
 25 H        1.7650     1.8190    -1.7760 H     1 <1>   0.0800 
 26 H        1.9180     1.9720    -0.0580 H     1 <1>   0.0800 
 27 H       -1.9060     2.7890     0.2380 H     1 <1>   0.0800 
 28 H       -0.2440     2.5940     0.7320 H     1 <1>   0.0800 
 29 H       -1.4410     1.4120     1.2190 H     1 <1>   0.0800 
 30 H       -2.8810     1.3440    -1.3560 H     1 <1>   0.0800 
 31 H       -2.3770    -0.1300    -0.5430 H     1 <1>   0.0800 
 32 H       -1.9180     0.1660    -2.2070 H     1 <1>   0.0800 
 33 H        3.1130    -0.2470    -1.7290 H     1 <1>   0.0800 
 34 H        4.5830     1.5490    -2.2290 H     1 <1>   0.0800 
 35 H        3.3050    -1.3390     0.2730 H     1 <1>   0.0800 
 36 H        3.0940     0.1300     1.2190 H     1 <1>   0.0800 
 37 H        4.7760     2.3880     0.5900 H     1 <1>   0.3700 
 38 H        6.4260     0.8870    -0.3960 H     1 <1>   0.0800 
 39 H        5.7110    -0.4220    -1.3360 H     1 <1>   0.0800 
 40 H        4.0690     6.3940    -1.5090 H     1 <1>   0.1500 
 41 H        4.3200     3.8360     1.9180 H     1 <1>   0.1500 
 42 H        4.5150     5.7980     3.3780 H     1 <1>   0.1500 
 43 H        4.5790     8.7350     3.1770 H     1 <1>   0.2700 
@<TRIPOS>BOND
  1   1   2  2   
  2   1   3  2   
  3   1   4  am  
  4   1   5  1   
  5   4   6  1   
  6   4   7  1   
  7   5   8  1   
  8   5  25  1   
  9   5  26  1   
 10   6  27  1   
 11   6  28  1   
 12   6  29  1   
 13   7  30  1   
 14   7  31  1   
 15   7  32  1   
 16   8   9  1   
 17   8  10  1   
 18   8  33  1   
 19   9  11  1   
 20   9  12  1   
 21   9  34  1   
 22  10  13  1   
 23  10  35  1   
 24  10  36  1   
 25  11  14  am  
 26  11  37  1   
 27  12  13  1   
 28  12  38  1   
 29  12  39  1   
 30  14  15  2   
 31  14  16  1   
 32  16  17  ar  
 33  16  18  ar  
 34  17  19  ar  
 35  17  40  1   
 36  18  20  ar  
 37  18  41  1   
 38  19  21  1   
 39  19  22  ar  
 40  20  22  ar  
 41  20  42  1   
 42  21  23  2   
 43  22  24  1   
 44  23  24  1   
 45  24  43  1   
@<TRIPOS>SUBSTRUCTURE
  1 ****  14 GROUP 4 **** **** 0

# MOE 2024.06 (io_trps.svl 2023.06)
