@<TRIPOS>MOLECULE
NONAME
51 53 1 0 0 
SMALL
USER_CHARGES


@<TRIPOS>ATOM
  1 O        1.6210     0.8520     2.6040 O.2   1 <1>  -0.5700 
  2 C        2.3250     0.5890     1.6550 C.2   1 <1>   0.7150 
  3 N        2.5650    -0.7350     1.4720 N.am  1 <1>  -0.7300 
  4 C        2.8290     1.6460     0.8270 C.2   1 <1>  -0.2370 
  5 C        3.5820    -1.5020     0.7010 C.3   1 <1>   0.1400 
  6 N        3.3880     1.5210    -0.4000 N.pl3 1 <1>   0.3140 
  7 C        2.8300     2.9810     1.0780 C.2   1 <1>  -0.1500 
  8 C        4.4440    -0.6820    -0.2710 C.3   1 <1>   0.2000 
  9 N        3.7450     2.6970    -0.9250 N.2   1 <1>  -0.7070 
 10 C        3.6360     0.2770    -1.1420 C.3   1 <1>   0.0960 
 11 C        3.4060     3.6050    -0.0250 C.2   1 <1>   0.2030 
 12 O        5.1180    -1.5700    -1.1000 O.3   1 <1>  -0.6800 
 13 C        3.6050     5.0400    -0.1620 C.2   1 <1>   0.7160 
 14 O        3.2910     5.8270     0.7140 O.2   1 <1>  -0.5700 
 15 N        4.1730     5.5280    -1.3050 N.am  1 <1>  -0.7300 
 16 C        4.3900     6.9560    -1.6380 C.3   1 <1>   0.1400 
 17 C        5.6070     7.4990    -0.8910 C.3   1 <1>   0.1200 
 18 O        5.8820     8.7980    -1.3690 O.3   1 <1>  -0.3630 
 19 C        6.9200     9.5200    -0.8780 C.ar  1 <1>   0.0820 
 20 C        7.7600     9.0780     0.1420 C.ar  1 <1>  -0.1500 
 21 C        7.1360    10.7670    -1.4410 C.ar  1 <1>  -0.1500 
 22 C        8.7980     9.8810     0.5800 C.ar  1 <1>  -0.1500 
 23 C        8.1760    11.5660    -1.0000 C.ar  1 <1>  -0.1500 
 24 C        9.0140    11.1270     0.0130 C.ar  1 <1>  -0.1430 
 25 C       10.1550    12.0060     0.5010 C.3   1 <1>  -0.0170 
 26 C        9.6900    12.8950     1.6590 C.3   1 <1>  -0.1600 
 27 C       10.8230    13.7900     2.1730 C.3   1 <1>  -0.2400 
 28 H        2.0680    -1.2950     2.1700 H     1 <1>   0.3700 
 29 H        3.0590    -2.2600     0.1450 H     1 <1>   0.0800 
 30 H        4.2370    -1.9940     1.4000 H     1 <1>   0.0800 
 31 H        2.4590     3.4860     1.9540 H     1 <1>   0.1500 
 32 H        5.2000    -0.1380     0.2720 H     1 <1>   0.0800 
 33 H        4.1980     0.5300    -2.0240 H     1 <1>   0.0800 
 34 H        2.6940    -0.1510    -1.4260 H     1 <1>   0.0800 
 35 H        4.5060    -2.0750    -1.6710 H     1 <1>   0.4000 
 36 H        4.4220     4.8250    -2.0070 H     1 <1>   0.3700 
 37 H        3.5180     7.5230    -1.3560 H     1 <1>   0.0800 
 38 H        4.5430     7.0500    -2.6990 H     1 <1>   0.0800 
 39 H        6.4690     6.8830    -1.0780 H     1 <1>   0.0800 
 40 H        5.3990     7.5590     0.1630 H     1 <1>   0.0800 
 41 H        7.6210     8.1200     0.6050 H     1 <1>   0.1500 
 42 H        6.4860    11.1060    -2.2260 H     1 <1>   0.1500 
 43 H        9.4410     9.5320     1.3700 H     1 <1>   0.1500 
 44 H        8.3280    12.5330    -1.4470 H     1 <1>   0.1500 
 45 H       10.5100    12.6190    -0.3100 H     1 <1>   0.0800 
 46 H       10.9740    11.3860     0.8230 H     1 <1>   0.0800 
 47 H        9.3320    12.2740     2.4620 H     1 <1>   0.0800 
 48 H        8.8710    13.5110     1.3270 H     1 <1>   0.0800 
 49 H       11.6430    13.1910     2.5310 H     1 <1>   0.0800 
 50 H       10.4680    14.4010     2.9840 H     1 <1>   0.0800 
 51 H       11.1790    14.4350     1.3890 H     1 <1>   0.0800 
@<TRIPOS>BOND
  1   1   2  2   
  2   2   3  am  
  3   2   4  1   
  4   3   5  1   
  5   3  28  1   
  6   4   6  1   
  7   4   7  2   
  8   5   8  1   
  9   5  29  1   
 10   5  30  1   
 11   6   9  1   
 12   6  10  1   
 13   7  11  1   
 14   7  31  1   
 15   8  10  1   
 16   8  12  1   
 17   8  32  1   
 18   9  11  2   
 19  10  33  1   
 20  10  34  1   
 21  11  13  1   
 22  12  35  1   
 23  13  14  2   
 24  13  15  am  
 25  15  16  1   
 26  15  36  1   
 27  16  17  1   
 28  16  37  1   
 29  16  38  1   
 30  17  18  1   
 31  17  39  1   
 32  17  40  1   
 33  18  19  1   
 34  19  20  ar  
 35  19  21  ar  
 36  20  22  ar  
 37  20  41  1   
 38  21  23  ar  
 39  21  42  1   
 40  22  24  ar  
 41  22  43  1   
 42  23  24  ar  
 43  23  44  1   
 44  24  25  1   
 45  25  26  1   
 46  25  45  1   
 47  25  46  1   
 48  26  27  1   
 49  26  47  1   
 50  26  48  1   
 51  27  49  1   
 52  27  50  1   
 53  27  51  1   
@<TRIPOS>SUBSTRUCTURE
  1 ****  15 GROUP 4 **** **** 0

# MOE 2024.06 (io_trps.svl 2023.06)
