@<TRIPOS>MOLECULE
NONAME
37 39 1 0 0 
SMALL
USER_CHARGES


@<TRIPOS>ATOM
  1 S        3.6430    -1.0480     1.8520 S.3   1 <1>  -0.0800 
  2 C        2.0700    -1.1310     1.1010 C.2   1 <1>   0.1980 
  3 C        3.7130     0.6390     1.4460 C.2   1 <1>  -0.1100 
  4 N        1.6660    -0.0230     0.6140 N.2   1 <1>  -0.5650 
  5 C        1.3720    -2.4870     1.1130 C.3   1 <1>   0.5230 
  6 C        2.5870     1.0120     0.8000 C.2   1 <1>   0.1730 
  7 N        0.1550    -2.4730     0.2360 N.4   1 <1>  -0.9590 
  8 C        2.2730     2.3440     0.3080 C.ar  1 <1>   0.0540 
  9 C       -0.7000    -3.7160     0.4070 C.3   1 <1>   0.3170 
 10 C        0.5040    -2.4820    -1.2030 C.3   1 <1>   0.3430 
 11 C        1.3080     2.5460    -0.6850 C.ar  1 <1>  -0.1500 
 12 C        2.9290     3.4700     0.8150 C.ar  1 <1>  -0.1500 
 13 C        0.1200    -4.9830     0.7560 C.2   1 <1>   0.9060 
 14 C       -1.4400    -3.8790    -0.9350 C.3   1 <1>  -0.1600 
 15 C       -0.8070    -2.8680    -1.8870 C.3   1 <1>   0.2000 
 16 C        1.0100     3.8120    -1.1600 C.ar  1 <1>  -0.1500 
 17 C        2.6450     4.7440     0.3520 C.ar  1 <1>  -0.1500 
 18 O        1.0720    -5.2700     0.0170 O.co2 1 <1>  -0.9000 
 19 O       -0.0980    -5.5520     1.8240 O.co2 1 <1>  -0.9000 
 20 O       -1.6290    -1.7470    -1.9240 O.3   1 <1>  -0.6800 
 21 C        1.6870     4.8920    -0.6310 C.ar  1 <1>   0.1900 
 22 F        1.4140     6.0890    -1.0730 F     1 <1>  -0.1900 
 23 H        4.5940     1.1840     1.7310 H     1 <1>   0.1500 
 24 H        1.0870    -2.7240     2.1240 H     1 <1>   0.0800 
 25 H        2.0560    -3.2490     0.7740 H     1 <1>   0.0800 
 26 H       -0.3940    -1.6210     0.4070 H     1 <1>   0.4500 
 27 H       -1.4050    -3.5730     1.2070 H     1 <1>   0.0800 
 28 H        0.8640    -1.5240    -1.5400 H     1 <1>   0.0800 
 29 H        1.2430    -3.2450    -1.3910 H     1 <1>   0.0800 
 30 H        0.7840     1.7000    -1.0940 H     1 <1>   0.1500 
 31 H        3.6700     3.3570     1.5850 H     1 <1>   0.1500 
 32 H       -2.4970    -3.7290    -0.8110 H     1 <1>   0.0800 
 33 H       -1.2850    -4.8770    -1.3080 H     1 <1>   0.0800 
 34 H       -0.6630    -3.2380    -2.8880 H     1 <1>   0.0800 
 35 H        0.2680     3.9630    -1.9240 H     1 <1>   0.1500 
 36 H        3.1510     5.6080     0.7420 H     1 <1>   0.1500 
 37 H       -2.4670    -1.9500    -2.3880 H     1 <1>   0.4000 
@<TRIPOS>BOND
  1   1   2  1   
  2   1   3  1   
  3   2   4  2   
  4   2   5  1   
  5   3   6  2   
  6   3  23  1   
  7   4   6  1   
  8   5   7  1   
  9   5  24  1   
 10   5  25  1   
 11   6   8  1   
 12   7   9  1   
 13   7  10  1   
 14   7  26  1   
 15   8  11  ar  
 16   8  12  ar  
 17   9  13  1   
 18   9  14  1   
 19   9  27  1   
 20  10  15  1   
 21  10  28  1   
 22  10  29  1   
 23  11  16  ar  
 24  11  30  1   
 25  12  17  ar  
 26  12  31  1   
 27  13  18  ar  
 28  13  19  ar  
 29  14  15  1   
 30  14  32  1   
 31  14  33  1   
 32  15  20  1   
 33  15  34  1   
 34  16  21  ar  
 35  16  35  1   
 36  17  21  ar  
 37  17  36  1   
 38  20  37  1   
 39  21  22  1   
@<TRIPOS>SUBSTRUCTURE
  1 ****   4 GROUP 4 **** **** 0

# MOE 2024.06 (io_trps.svl 2023.06)
