@<TRIPOS>MOLECULE
NONAME
54 56 1 0 0 
SMALL
USER_CHARGES


@<TRIPOS>ATOM
  1 O       -2.2350    -2.1220     2.0890 O.2   1 <1>  -0.5700 
  2 C       -3.1310    -2.3100     1.3020 C.2   1 <1>   0.6900 
  3 N       -4.3870    -1.8410     1.4520 N.am  1 <1>  -0.4900 
  4 N       -3.0100    -2.9890     0.1450 N.am  1 <1>  -0.7300 
  5 C       -5.1500    -2.1550     0.3810 C.2   1 <1>   0.5690 
  6 C       -4.2820    -2.9400    -0.6130 C.3   1 <1>   0.2810 
  7 O       -6.3130    -1.8660     0.2480 O.2   1 <1>  -0.5700 
  8 C       -4.7750    -4.3670    -0.8870 C.3   1 <1>  -0.1600 
  9 C       -5.9990    -4.3900    -1.8220 C.3   1 <1>  -0.0990 
 10 C       -6.6120    -5.7790    -1.8990 C.2   1 <1>   0.5690 
 11 O       -6.0290    -6.5850    -2.5850 O.2   1 <1>  -0.5700 
 12 N       -7.7480    -6.1090    -1.2050 N.am  1 <1>  -0.6600 
 13 C       -8.3120    -7.4950    -1.2820 C.3   1 <1>   0.1400 
 14 C       -8.5160    -5.2130    -0.2880 C.3   1 <1>   0.1400 
 15 C       -8.0020    -8.3350    -0.0290 C.3   1 <1>   0.1400 
 16 C       -7.9130    -5.1870     1.1210 C.3   1 <1>  -0.1600 
 17 N       -8.3440    -7.6350     1.2520 N.am  1 <1>  -0.6600 
 18 C       -7.4040    -6.5430     1.6250 C.3   1 <1>   0.1400 
 19 C       -9.4460    -7.9270     2.0300 C.2   1 <1>   0.5440 
 20 O       -9.6010    -7.3320     3.0810 O.2   1 <1>  -0.5700 
 21 C      -10.3930    -8.9500     1.6630 C.ar  1 <1>   0.0860 
 22 C      -11.3540    -8.7440     0.6660 C.ar  1 <1>   0.3930 
 23 C      -10.3780   -10.1820     2.3000 C.ar  1 <1>  -0.1500 
 24 O      -11.3920    -7.5390     0.0600 O.3   1 <1>  -0.3620 
 25 N      -12.2380    -9.6590     0.2670 N.ar  1 <1>  -0.6200 
 26 C      -11.2950   -11.1290     1.9030 C.ar  1 <1>  -0.1500 
 27 C      -12.3910    -7.2130    -0.8840 C.3   1 <1>   0.1200 
 28 C      -12.1890   -10.8210     0.8940 C.ar  1 <1>   0.1600 
 29 C      -12.1390    -5.7930    -1.3830 C.3   1 <1>  -0.2400 
 30 H       -4.6860    -1.3030     2.2570 H     1 <1>   0.3700 
 31 H       -2.1130    -3.2980    -0.2310 H     1 <1>   0.3700 
 32 H       -4.1510    -2.3810    -1.5230 H     1 <1>   0.0800 
 33 H       -3.9880    -4.9360    -1.3500 H     1 <1>   0.0800 
 34 H       -5.0240    -4.8410     0.0460 H     1 <1>   0.0800 
 35 H       -5.6910    -4.1110    -2.8140 H     1 <1>   0.0800 
 36 H       -6.7320    -3.6740    -1.5140 H     1 <1>   0.0800 
 37 H       -9.3750    -7.4400    -1.4230 H     1 <1>   0.0800 
 38 H       -7.9160    -8.0060    -2.1420 H     1 <1>   0.0800 
 39 H       -8.5830    -4.2170    -0.6860 H     1 <1>   0.0800 
 40 H       -9.5240    -5.5810    -0.2090 H     1 <1>   0.0800 
 41 H       -6.9520    -8.5720    -0.0290 H     1 <1>   0.0800 
 42 H       -8.5330    -9.2670    -0.0980 H     1 <1>   0.0800 
 43 H       -8.6670    -4.8340     1.8020 H     1 <1>   0.0800 
 44 H       -7.1110    -4.4750     1.1570 H     1 <1>   0.0800 
 45 H       -7.2860    -6.5110     2.6950 H     1 <1>   0.0800 
 46 H       -6.4380    -6.7460     1.1970 H     1 <1>   0.0800 
 47 H       -9.6670   -10.3780     3.0840 H     1 <1>   0.1500 
 48 H      -11.3210   -12.0980     2.3700 H     1 <1>   0.1500 
 49 H      -12.3410    -7.9190    -1.6950 H     1 <1>   0.0800 
 50 H      -13.3490    -7.2860    -0.3970 H     1 <1>   0.0800 
 51 H      -12.9020   -11.5700     0.5890 H     1 <1>   0.1500 
 52 H      -11.1980    -5.7410    -1.9000 H     1 <1>   0.0800 
 53 H      -12.1410    -5.1050    -0.5580 H     1 <1>   0.0800 
 54 H      -12.9180    -5.5090    -2.0680 H     1 <1>   0.0800 
@<TRIPOS>BOND
  1   1   2  2   
  2   2   3  am  
  3   2   4  am  
  4   3   5  am  
  5   3  30  1   
  6   4   6  1   
  7   4  31  1   
  8   5   6  1   
  9   5   7  2   
 10   6   8  1   
 11   6  32  1   
 12   8   9  1   
 13   8  33  1   
 14   8  34  1   
 15   9  10  1   
 16   9  35  1   
 17   9  36  1   
 18  10  11  2   
 19  10  12  am  
 20  12  13  1   
 21  12  14  1   
 22  13  15  1   
 23  13  37  1   
 24  13  38  1   
 25  14  16  1   
 26  14  39  1   
 27  14  40  1   
 28  15  17  1   
 29  15  41  1   
 30  15  42  1   
 31  16  18  1   
 32  16  43  1   
 33  16  44  1   
 34  17  18  1   
 35  17  19  am  
 36  18  45  1   
 37  18  46  1   
 38  19  20  2   
 39  19  21  1   
 40  21  22  ar  
 41  21  23  ar  
 42  22  24  1   
 43  22  25  ar  
 44  23  26  ar  
 45  23  47  1   
 46  24  27  1   
 47  25  28  ar  
 48  26  28  ar  
 49  26  48  1   
 50  27  29  1   
 51  27  49  1   
 52  27  50  1   
 53  28  51  1   
 54  29  52  1   
 55  29  53  1   
 56  29  54  1   
@<TRIPOS>SUBSTRUCTURE
  1 ****  16 GROUP 4 **** **** 0

# MOE 2024.06 (io_trps.svl 2023.06)
