@<TRIPOS>MOLECULE
NONAME
41 43 1 0 0 
SMALL
USER_CHARGES


@<TRIPOS>ATOM
  1 O       -0.5180     0.8920     2.2580 O.2   1 <1>  -0.5700 
  2 C        0.1030     0.1660     1.5210 C.2   1 <1>   0.5690 
  3 N        1.0880     0.5980     0.6750 N.am  1 <1>  -0.4940 
  4 C       -0.2230    -1.3200     1.5300 C.3   1 <1>   0.0450 
  5 C        1.6560     1.8840     0.5020 C.2   1 <1>  -0.0880 
  6 C        0.6970    -2.1170     0.6080 C.ar  1 <1>  -0.1430 
  7 N        2.6250     2.1920    -0.4060 N.pl3 1 <1>   0.3140 
  8 C        1.3870     3.0260     1.1750 C.2   1 <1>  -0.1500 
  9 C        1.9350    -2.5640     1.0270 C.ar  1 <1>  -0.1500 
 10 C        0.3570    -2.3950    -0.7010 C.ar  1 <1>  -0.1500 
 11 N        2.9750     3.5030    -0.3150 N.2   1 <1>  -0.7070 
 12 C        3.2120     1.2440    -1.4070 C.3   1 <1>   0.2710 
 13 C        2.2300     3.9820     0.6290 C.2   1 <1>   0.1080 
 14 C        2.7580    -3.2320     0.1370 C.ar  1 <1>   0.1600 
 15 C        1.2530    -3.0730    -1.5110 C.ar  1 <1>   0.1600 
 16 C        4.2110     0.2920    -0.7030 C.3   1 <1>  -0.1950 
 17 C        3.7930     1.9880    -2.6250 C.3   1 <1>  -0.2400 
 18 C        2.3000     5.4280     1.0580 C.3   1 <1>  -0.0590 
 19 N        2.4490    -3.4860    -1.1240 N.ar  1 <1>  -0.6200 
 20 C        5.6370     0.6470    -0.4190 C.3   1 <1>  -0.2000 
 21 C        5.3120    -0.4400    -1.4080 C.3   1 <1>  -0.2000 
 22 H        1.5090    -0.1580     0.1300 H     1 <1>   0.3700 
 23 H       -1.2470    -1.4450     1.2290 H     1 <1>   0.0800 
 24 H       -0.1330    -1.6820     2.5380 H     1 <1>   0.0800 
 25 H        0.6770     3.1750     1.9680 H     1 <1>   0.1500 
 26 H        2.2720    -2.3940     2.0350 H     1 <1>   0.1500 
 27 H       -0.5930    -2.0900    -1.1040 H     1 <1>   0.1500 
 28 H        2.4000     0.6440    -1.7730 H     1 <1>   0.0800 
 29 H        3.7210    -3.5730     0.4780 H     1 <1>   0.1500 
 30 H        0.9740    -3.2840    -2.5290 H     1 <1>   0.1500 
 31 H        3.7130    -0.2730     0.0640 H     1 <1>   0.1000 
 32 H        4.6340     2.5930    -2.3370 H     1 <1>   0.0800 
 33 H        3.0410     2.6270    -3.0520 H     1 <1>   0.0800 
 34 H        4.1070     1.2910    -3.3790 H     1 <1>   0.0800 
 35 H        1.6000     5.6190     1.8510 H     1 <1>   0.0800 
 36 H        2.0690     6.0620     0.2220 H     1 <1>   0.0800 
 37 H        3.2930     5.6510     1.4020 H     1 <1>   0.0800 
 38 H        6.0510     0.3770     0.5370 H     1 <1>   0.1000 
 39 H        6.0310     1.5810    -0.7800 H     1 <1>   0.1000 
 40 H        5.5330    -0.2530    -2.4440 H     1 <1>   0.1000 
 41 H        5.5010    -1.4640    -1.1350 H     1 <1>   0.1000 
@<TRIPOS>BOND
  1   1   2  2   
  2   2   3  am  
  3   2   4  1   
  4   3   5  1   
  5   3  22  1   
  6   4   6  1   
  7   4  23  1   
  8   4  24  1   
  9   5   7  1   
 10   5   8  2   
 11   6   9  ar  
 12   6  10  ar  
 13   7  11  1   
 14   7  12  1   
 15   8  13  1   
 16   8  25  1   
 17   9  14  ar  
 18   9  26  1   
 19  10  15  ar  
 20  10  27  1   
 21  11  13  2   
 22  12  16  1   
 23  12  17  1   
 24  12  28  1   
 25  13  18  1   
 26  14  19  ar  
 27  14  29  1   
 28  15  19  ar  
 29  15  30  1   
 30  16  20  1   
 31  16  21  1   
 32  16  31  1   
 33  17  32  1   
 34  17  33  1   
 35  17  34  1   
 36  18  35  1   
 37  18  36  1   
 38  18  37  1   
 39  20  21  1   
 40  20  38  1   
 41  20  39  1   
 42  21  40  1   
 43  21  41  1   
@<TRIPOS>SUBSTRUCTURE
  1 ****   3 GROUP 4 **** **** 0

# MOE 2024.06 (io_trps.svl 2023.06)
