@<TRIPOS>MOLECULE
NONAME
44 45 1 0 0 
SMALL
USER_CHARGES


@<TRIPOS>ATOM
  1 CL      -1.0310    -0.9010     1.1570 Cl    1 <1>  -0.1770 
  2 C       -2.3810     0.1650     0.8470 C.ar  1 <1>   0.1770 
  3 C       -3.4140    -0.2280    -0.0060 C.ar  1 <1>   0.0860 
  4 C       -2.3720     1.3940     1.4780 C.ar  1 <1>  -0.1500 
  5 C       -4.4600     0.6830    -0.2120 C.ar  1 <1>  -0.1440 
  6 C       -3.3880    -1.5300    -0.6350 C.2   1 <1>   0.5440 
  7 C       -3.4140     2.2760     1.2640 C.ar  1 <1>  -0.1500 
  8 C       -4.4510     1.9170     0.4210 C.ar  1 <1>  -0.1500 
  9 C       -5.6260     0.3410    -1.1340 C.3   1 <1>  -0.0960 
 10 O       -3.3560    -1.6450    -1.8440 O.2   1 <1>  -0.5700 
 11 N       -3.4440    -2.6650     0.1200 N.am  1 <1>  -0.7300 
 12 C       -3.3080    -4.0460    -0.4000 C.3   1 <1>   0.2200 
 13 C       -4.6600    -4.7410    -0.4450 C.3   1 <1>  -0.0800 
 14 C       -2.5880    -4.8930     0.6390 C.3   1 <1>   0.1200 
 15 C       -4.8220    -5.2610     0.9890 C.3   1 <1>   0.1200 
 16 C       -5.8170    -3.8560    -0.9570 C.3   1 <1>  -0.0550 
 17 O       -3.5610    -5.1980     1.5910 O.3   1 <1>  -0.5600 
 18 S       -7.3550    -4.7320    -1.2410 S.o2  1 <1>   1.3330 
 19 O       -7.0570    -5.9270    -1.9980 O.2   1 <1>  -0.6500 
 20 O       -8.3450    -3.8000    -1.7330 O.2   1 <1>  -0.6500 
 21 N       -7.8480    -5.2120     0.3130 N.am  1 <1>  -0.8490 
 22 C       -8.6990    -6.4050     0.2770 C.3   1 <1>   0.1160 
 23 C       -8.5220    -4.1470     1.0640 C.3   1 <1>   0.1160 
 24 H       -1.5560     1.6570     2.1270 H     1 <1>   0.1500 
 25 H       -3.4190     3.2380     1.7490 H     1 <1>   0.1500 
 26 H       -5.2550     2.6150     0.2600 H     1 <1>   0.1500 
 27 H       -6.3780     1.1090    -1.1140 H     1 <1>   0.0800 
 28 H       -6.0820    -0.5850    -0.8340 H     1 <1>   0.0800 
 29 H       -5.2750     0.2400    -2.1460 H     1 <1>   0.0800 
 30 H       -3.4420    -2.6060     1.1420 H     1 <1>   0.3700 
 31 H       -2.8030    -4.0490    -1.3520 H     1 <1>   0.0800 
 32 H       -4.5690    -5.5950    -1.0940 H     1 <1>   0.0800 
 33 H       -1.7680    -4.3760     1.1060 H     1 <1>   0.0800 
 34 H       -2.2440    -5.8170     0.2080 H     1 <1>   0.0800 
 35 H       -5.1690    -6.2810     1.0070 H     1 <1>   0.0800 
 36 H       -5.4860    -4.6430     1.5680 H     1 <1>   0.0800 
 37 H       -5.5070    -3.4150    -1.8850 H     1 <1>   0.0800 
 38 H       -5.9900    -3.0540    -0.2680 H     1 <1>   0.0800 
 39 H       -8.9850    -6.6910     1.2750 H     1 <1>   0.0800 
 40 H       -8.1630    -7.2280    -0.1660 H     1 <1>   0.0800 
 41 H       -9.5850    -6.2160    -0.3060 H     1 <1>   0.0800 
 42 H       -8.7310    -4.4770     2.0670 H     1 <1>   0.0800 
 43 H       -9.4490    -3.8750     0.5850 H     1 <1>   0.0800 
 44 H       -7.8940    -3.2740     1.1180 H     1 <1>   0.0800 
@<TRIPOS>BOND
  1   1   2  1   
  2   2   3  ar  
  3   2   4  ar  
  4   3   5  ar  
  5   3   6  1   
  6   4   7  ar  
  7   4  24  1   
  8   5   8  ar  
  9   5   9  1   
 10   6  10  2   
 11   6  11  am  
 12   7   8  ar  
 13   7  25  1   
 14   8  26  1   
 15   9  27  1   
 16   9  28  1   
 17   9  29  1   
 18  11  12  1   
 19  11  30  1   
 20  12  13  1   
 21  12  14  1   
 22  12  31  1   
 23  13  15  1   
 24  13  16  1   
 25  13  32  1   
 26  14  17  1   
 27  14  33  1   
 28  14  34  1   
 29  15  17  1   
 30  15  35  1   
 31  15  36  1   
 32  16  18  1   
 33  16  37  1   
 34  16  38  1   
 35  18  19  2   
 36  18  20  2   
 37  18  21  am  
 38  21  22  1   
 39  21  23  1   
 40  22  39  1   
 41  22  40  1   
 42  22  41  1   
 43  23  42  1   
 44  23  43  1   
 45  23  44  1   
@<TRIPOS>SUBSTRUCTURE
  1 ****  11 GROUP 4 **** **** 0

# MOE 2024.06 (io_trps.svl 2023.06)
