@<TRIPOS>MOLECULE
NONAME
51 53 1 0 0 
SMALL
USER_CHARGES


@<TRIPOS>ATOM
  1 S        1.1050    -0.4470    -1.4050 S.o2  1 <1>   1.3330 
  2 O        0.5040    -0.8580    -2.6520 O.2   1 <1>  -0.6500 
  3 O        2.4980    -0.7460    -1.1630 O.2   1 <1>  -0.6500 
  4 N        0.1930    -1.1500    -0.1580 N.am  1 <1>  -0.8490 
  5 C        0.8490     1.3290    -1.2150 C.3   1 <1>  -0.0550 
  6 C       -1.2330    -1.2780    -0.4790 C.3   1 <1>   0.1160 
  7 C        0.7210    -2.4570     0.2490 C.3   1 <1>   0.1160 
  8 C        1.3870     2.0560     0.0450 C.3   1 <1>  -0.0800 
  9 C        2.8710     1.8240     0.3320 C.3   1 <1>   0.2200 
 10 C        0.7000     1.6850     1.3710 C.3   1 <1>   0.1200 
 11 N        3.4780     3.1040     0.7690 N.am  1 <1>  -0.7300 
 12 C        2.8120     0.8960     1.5400 C.3   1 <1>   0.1200 
 13 O        1.7240     1.3690     2.2640 O.3   1 <1>  -0.5600 
 14 C        4.0830     4.0140    -0.0520 C.2   1 <1>   0.7030 
 15 O        4.1010     3.7730    -1.2440 O.2   1 <1>  -0.5700 
 16 C        4.6890     5.2310     0.4660 C.2   1 <1>   0.2770 
 17 N        5.7940     5.8830    -0.0990 N.pl3 1 <1>  -0.6290 
 18 C        4.3400     5.9690     1.5590 C.2   1 <1>   0.1820 
 19 C        6.0800     6.9600     0.6600 C.cat 1 <1>   0.7910 
 20 C        6.5470     5.6090    -1.2200 C.2   1 <1>   0.2290 
 21 N        5.2030     7.0150     1.6740 N.pl3 1 <1>  -0.7000 
 22 C        3.2110     5.8110     2.5650 C.3   1 <1>  -0.0720 
 23 C        7.1480     7.8100     0.3360 C.2   1 <1>  -0.1410 
 24 C        7.5900     6.4230    -1.5570 C.2   1 <1>  -0.1500 
 25 C        7.9110     7.5500    -0.7720 C.2   1 <1>  -0.1380 
 26 C        9.0810     8.4300    -1.1800 C.3   1 <1>  -0.1020 
 27 H        1.3070     1.8020    -2.0630 H     1 <1>   0.0800 
 28 H       -0.2020     1.5290    -1.2930 H     1 <1>   0.0800 
 29 H       -1.7740    -1.6410     0.3790 H     1 <1>   0.0800 
 30 H       -1.3760    -1.9640    -1.2980 H     1 <1>   0.0800 
 31 H       -1.6410    -0.3210    -0.7560 H     1 <1>   0.0800 
 32 H        0.1300    -2.8660     1.0500 H     1 <1>   0.0800 
 33 H        1.7340    -2.3550     0.6000 H     1 <1>   0.0800 
 34 H        0.7120    -3.1400    -0.5850 H     1 <1>   0.0800 
 35 H        1.2160     3.1040    -0.1290 H     1 <1>   0.0800 
 36 H        3.4260     1.4080    -0.4920 H     1 <1>   0.0800 
 37 H        0.0530     0.8320     1.2900 H     1 <1>   0.0800 
 38 H        0.1420     2.5110     1.7780 H     1 <1>   0.0800 
 39 H        3.4160     3.2330     1.7810 H     1 <1>   0.3700 
 40 H        3.7000     0.9300     2.1440 H     1 <1>   0.0800 
 41 H        2.6070    -0.1210     1.2540 H     1 <1>   0.0800 
 42 H        6.2920     4.7460    -1.8180 H     1 <1>   0.1500 
 43 H        5.2000     7.7450     2.3900 H     1 <1>   0.4500 
 44 H        2.4910     5.0820     2.2420 H     1 <1>   0.0800 
 45 H        2.6960     6.7480     2.6870 H     1 <1>   0.0800 
 46 H        3.6060     5.5100     3.5200 H     1 <1>   0.0800 
 47 H        7.3430     8.6530     0.9700 H     1 <1>   0.1500 
 48 H        8.1810     6.2120    -2.4320 H     1 <1>   0.1500 
 49 H        9.9900     7.8530    -1.1950 H     1 <1>   0.0800 
 50 H        9.2100     9.2480    -0.4940 H     1 <1>   0.0800 
 51 H        8.9140     8.8340    -2.1630 H     1 <1>   0.0800 
@<TRIPOS>BOND
  1   1   2  2   
  2   1   3  2   
  3   1   4  am  
  4   1   5  1   
  5   4   6  1   
  6   4   7  1   
  7   5   8  1   
  8   5  27  1   
  9   5  28  1   
 10   6  29  1   
 11   6  30  1   
 12   6  31  1   
 13   7  32  1   
 14   7  33  1   
 15   7  34  1   
 16   8   9  1   
 17   8  10  1   
 18   8  35  1   
 19   9  11  1   
 20   9  12  1   
 21   9  36  1   
 22  10  13  1   
 23  10  37  1   
 24  10  38  1   
 25  11  14  am  
 26  11  39  1   
 27  12  13  1   
 28  12  40  1   
 29  12  41  1   
 30  14  15  2   
 31  14  16  1   
 32  16  17  1   
 33  16  18  2   
 34  17  19  ar  
 35  17  20  1   
 36  18  21  1   
 37  18  22  1   
 38  19  21  ar  
 39  19  23  1   
 40  20  24  2   
 41  20  42  1   
 42  21  43  1   
 43  22  44  1   
 44  22  45  1   
 45  22  46  1   
 46  23  25  2   
 47  23  47  1   
 48  24  25  1   
 49  24  48  1   
 50  25  26  1   
 51  26  49  1   
 52  26  50  1   
 53  26  51  1   
@<TRIPOS>SUBSTRUCTURE
  1 ****  11 GROUP 4 **** **** 0

# MOE 2024.06 (io_trps.svl 2023.06)
