@<TRIPOS>MOLECULE
NONAME
50 52 1 0 0 
SMALL
USER_CHARGES


@<TRIPOS>ATOM
  1 S        1.1520     1.2610    -1.0080 S.o2  1 <1>   1.3330 
  2 O        0.8770     2.1460    -2.1180 O.2   1 <1>  -0.6500 
  3 O        1.5500    -0.1000    -1.2800 O.2   1 <1>  -0.6500 
  4 N        2.3840     1.9590    -0.0740 N.am  1 <1>  -0.8490 
  5 C       -0.2980     1.2180     0.0610 C.3   1 <1>  -0.0550 
  6 C        2.9770     1.0380     0.9030 C.3   1 <1>   0.1160 
  7 C        3.4440     2.5410    -0.9000 C.3   1 <1>   0.1160 
  8 C       -0.8810     2.5370     0.6300 C.3   1 <1>  -0.0800 
  9 C       -1.1750     3.6170    -0.4190 C.3   1 <1>   0.2000 
 10 C        0.0150     3.2260     1.6690 C.3   1 <1>   0.1400 
 11 O       -2.3160     4.2910    -0.0110 O.3   1 <1>  -0.6800 
 12 C        0.0000     4.5960    -0.3510 C.3   1 <1>   0.1400 
 13 N        0.5500     4.4450     1.0190 N.am  1 <1>  -0.6600 
 14 C        1.6020     5.1370     1.5460 C.2   1 <1>   0.5690 
 15 O        2.0770     4.8430     2.6170 O.2   1 <1>  -0.5700 
 16 C        2.1900     6.3090     0.7810 C.3   1 <1>  -0.0990 
 17 C        3.1810     7.1140     1.6330 C.3   1 <1>   0.0960 
 18 N        3.6730     8.2850     0.8840 N.pl3 1 <1>   0.0480 
 19 C        4.6770     8.3150    -0.0330 C.ar  1 <1>  -0.1520 
 20 C        3.2070     9.5600     0.9480 C.2   1 <1>   0.0360 
 21 C        4.7430     9.6280    -0.4640 C.ar  1 <1>   0.2270 
 22 C        5.5460     7.3450    -0.5400 C.ar  1 <1>  -0.1500 
 23 N        3.8080    10.3890     0.1680 N.2   1 <1>  -0.5650 
 24 C        5.6850    10.0010    -1.4210 C.ar  1 <1>  -0.1500 
 25 C        6.4740     7.7230    -1.4860 C.ar  1 <1>  -0.1500 
 26 C        6.5450     9.0500    -1.9270 C.ar  1 <1>  -0.1500 
 27 H       -1.0840     0.7450    -0.4960 H     1 <1>   0.0800 
 28 H       -0.0870     0.5680     0.8880 H     1 <1>   0.0800 
 29 H        3.6770     1.5650     1.5290 H     1 <1>   0.0800 
 30 H        3.4910     0.2340     0.4010 H     1 <1>   0.0800 
 31 H        2.2120     0.6180     1.5330 H     1 <1>   0.0800 
 32 H        4.1940     2.9960    -0.2770 H     1 <1>   0.0800 
 33 H        3.0350     3.3010    -1.5450 H     1 <1>   0.0800 
 34 H        3.9020     1.7800    -1.5110 H     1 <1>   0.0800 
 35 H       -1.7990     2.2560     1.1180 H     1 <1>   0.0800 
 36 H       -1.3520     3.2350    -1.4110 H     1 <1>   0.0800 
 37 H        0.8180     2.5930     2.0030 H     1 <1>   0.0800 
 38 H       -0.5670     3.5220     2.5250 H     1 <1>   0.0800 
 39 H       -2.1330     4.7530     0.8310 H     1 <1>   0.4000 
 40 H       -0.3220     5.6050    -0.5440 H     1 <1>   0.0800 
 41 H        0.7570     4.3270    -1.0640 H     1 <1>   0.0800 
 42 H        2.6900     5.9280    -0.0910 H     1 <1>   0.0800 
 43 H        1.3890     6.9540     0.4740 H     1 <1>   0.0800 
 44 H        4.0200     6.4990     1.9100 H     1 <1>   0.0800 
 45 H        2.7010     7.4540     2.5330 H     1 <1>   0.0800 
 46 H        2.3980     9.8300     1.6050 H     1 <1>   0.1500 
 47 H        5.4880     6.3290    -0.1940 H     1 <1>   0.1500 
 48 H        5.7160    11.0260    -1.7390 H     1 <1>   0.1500 
 49 H        7.1580     7.0000    -1.8960 H     1 <1>   0.1500 
 50 H        7.2790     9.3220    -2.6660 H     1 <1>   0.1500 
@<TRIPOS>BOND
  1   1   2  2   
  2   1   3  2   
  3   1   4  am  
  4   1   5  1   
  5   4   6  1   
  6   4   7  1   
  7   5   8  1   
  8   5  27  1   
  9   5  28  1   
 10   6  29  1   
 11   6  30  1   
 12   6  31  1   
 13   7  32  1   
 14   7  33  1   
 15   7  34  1   
 16   8   9  1   
 17   8  10  1   
 18   8  35  1   
 19   9  11  1   
 20   9  12  1   
 21   9  36  1   
 22  10  13  1   
 23  10  37  1   
 24  10  38  1   
 25  11  39  1   
 26  12  13  1   
 27  12  40  1   
 28  12  41  1   
 29  13  14  am  
 30  14  15  2   
 31  14  16  1   
 32  16  17  1   
 33  16  42  1   
 34  16  43  1   
 35  17  18  1   
 36  17  44  1   
 37  17  45  1   
 38  18  19  1   
 39  18  20  1   
 40  19  21  ar  
 41  19  22  ar  
 42  20  23  2   
 43  20  46  1   
 44  21  23  1   
 45  21  24  ar  
 46  22  25  ar  
 47  22  47  1   
 48  24  26  ar  
 49  24  48  1   
 50  25  26  ar  
 51  25  49  1   
 52  26  50  1   
@<TRIPOS>SUBSTRUCTURE
  1 ****  16 GROUP 4 **** **** 0

# MOE 2024.06 (io_trps.svl 2023.06)
