@<TRIPOS>MOLECULE
NONAME
54 57 1 0 0 
SMALL
USER_CHARGES


@<TRIPOS>ATOM
  1 O        2.5210    -1.4070     2.5850 O.2   1 <1>  -0.5700 
  2 C        2.3140    -1.6540     1.4080 C.2   1 <1>   0.5440 
  3 N        2.2800    -0.5900     0.5220 N.am  1 <1>  -0.6600 
  4 C        2.1140    -3.0240     0.9860 C.ar  1 <1>   0.0860 
  5 C        2.0010     0.7810     1.0510 C.3   1 <1>   0.1400 
  6 C        2.7230    -0.7650    -0.8980 C.3   1 <1>   0.1400 
  7 C        1.0540    -3.3930     0.1360 C.ar  1 <1>   0.1000 
  8 C        2.9740    -4.0250     1.4410 C.ar  1 <1>  -0.1500 
  9 C        3.2410     1.7090     1.0830 C.3   1 <1>   0.4230 
 10 C        3.7560     0.2670    -1.3960 C.3   1 <1>  -0.0800 
 11 N        0.1470    -2.4580    -0.3440 N.pl3 1 <1>  -0.8690 
 12 C        0.9110    -4.7250    -0.2410 C.ar  1 <1>  -0.1500 
 13 C        2.8150    -5.3440     1.0640 C.ar  1 <1>  -0.1500 
 14 N        3.4430     2.4740    -0.2030 N.4   1 <1>  -0.9590 
 15 C        4.5620     1.0140     1.5110 C.3   1 <1>   0.1200 
 16 C        5.1400     0.1960    -0.7170 C.3   1 <1>   0.1200 
 17 C        3.1620     1.6760    -1.4340 C.3   1 <1>   0.3430 
 18 C       -1.2740    -2.5530     0.0620 C.3   1 <1>   0.3530 
 19 C        1.7790    -5.6950     0.2160 C.ar  1 <1>  -0.1500 
 20 C        2.6590     3.7460    -0.2140 C.3   1 <1>   0.2630 
 21 O        5.0490     0.0070     0.6580 O.3   1 <1>  -0.5600 
 22 C       -1.9660    -1.2040    -0.1470 C.ar  1 <1>   0.1670 
 23 N       -1.4300    -0.1340     0.4400 N.ar  1 <1>  -0.6200 
 24 C       -3.1140    -1.1590    -0.9270 C.ar  1 <1>  -0.1500 
 25 C       -2.0870     1.0030     0.2650 C.ar  1 <1>   0.1600 
 26 C       -3.7730     0.0370    -1.1120 C.ar  1 <1>  -0.1500 
 27 C       -3.2390     1.1420    -0.4890 C.ar  1 <1>  -0.1500 
 28 H        1.2070     1.2270     0.4820 H     1 <1>   0.0800 
 29 H        1.6310     0.6960     2.0580 H     1 <1>   0.0800 
 30 H        3.1530    -1.7460    -1.0150 H     1 <1>   0.0800 
 31 H        1.8520    -0.7280    -1.5320 H     1 <1>   0.0800 
 32 H        3.7770    -3.7520     2.1050 H     1 <1>   0.1500 
 33 H        3.0380     2.4360     1.8510 H     1 <1>   0.0800 
 34 H        3.9250     0.0130    -2.4270 H     1 <1>   0.0800 
 35 H        0.4230    -1.4860    -0.1220 H     1 <1>   0.4000 
 36 H        0.1110    -4.9950    -0.9050 H     1 <1>   0.1500 
 37 H        3.4930    -6.0970     1.4280 H     1 <1>   0.1500 
 38 H        4.4450     2.7050    -0.2220 H     1 <1>   0.4500 
 39 H        4.4060     0.5440     2.4670 H     1 <1>   0.0800 
 40 H        5.3410     1.7440     1.6340 H     1 <1>   0.0800 
 41 H        5.7420     1.0660    -0.9150 H     1 <1>   0.0800 
 42 H        5.6680    -0.6630    -1.0970 H     1 <1>   0.0800 
 43 H        2.0970     1.5960    -1.5840 H     1 <1>   0.0800 
 44 H        3.5710     2.1980    -2.2840 H     1 <1>   0.0800 
 45 H       -1.7580    -3.3210    -0.5150 H     1 <1>   0.0800 
 46 H       -1.3310    -2.8180     1.1040 H     1 <1>   0.0800 
 47 H        1.6540    -6.7210    -0.0840 H     1 <1>   0.1500 
 48 H        1.6020     3.5360    -0.1880 H     1 <1>   0.0800 
 49 H        2.8750     4.3120    -1.1060 H     1 <1>   0.0800 
 50 H        2.9110     4.3510     0.6430 H     1 <1>   0.0800 
 51 H       -3.4960    -2.0520    -1.3880 H     1 <1>   0.1500 
 52 H       -1.6900     1.8750     0.7520 H     1 <1>   0.1500 
 53 H       -4.6660     0.1030    -1.7100 H     1 <1>   0.1500 
 54 H       -3.7130     2.1030    -0.5840 H     1 <1>   0.1500 
@<TRIPOS>BOND
  1   1   2  2   
  2   2   3  am  
  3   2   4  1   
  4   3   5  1   
  5   3   6  1   
  6   4   7  ar  
  7   4   8  ar  
  8   5   9  1   
  9   5  28  1   
 10   5  29  1   
 11   6  10  1   
 12   6  30  1   
 13   6  31  1   
 14   7  11  1   
 15   7  12  ar  
 16   8  13  ar  
 17   8  32  1   
 18   9  14  1   
 19   9  15  1   
 20   9  33  1   
 21  10  16  1   
 22  10  17  1   
 23  10  34  1   
 24  11  18  1   
 25  11  35  1   
 26  12  19  ar  
 27  12  36  1   
 28  13  19  ar  
 29  13  37  1   
 30  14  17  1   
 31  14  20  1   
 32  14  38  1   
 33  15  21  1   
 34  15  39  1   
 35  15  40  1   
 36  16  21  1   
 37  16  41  1   
 38  16  42  1   
 39  17  43  1   
 40  17  44  1   
 41  18  22  1   
 42  18  45  1   
 43  18  46  1   
 44  19  47  1   
 45  20  48  1   
 46  20  49  1   
 47  20  50  1   
 48  22  23  ar  
 49  22  24  ar  
 50  23  25  ar  
 51  24  26  ar  
 52  24  51  1   
 53  25  27  ar  
 54  25  52  1   
 55  26  27  ar  
 56  26  53  1   
 57  27  54  1   
@<TRIPOS>SUBSTRUCTURE
  1 ****   3 GROUP 4 **** **** 0

# MOE 2024.06 (io_trps.svl 2023.06)
