@<TRIPOS>MOLECULE
NONAME
46 48 1 0 0 
SMALL
USER_CHARGES


@<TRIPOS>ATOM
  1 CL      -2.5310    -0.2660    -4.3710 Cl    1 <1>  -0.1770 
  2 C       -3.1520    -0.8450    -2.8480 C.ar  1 <1>   0.1770 
  3 C       -4.0610    -0.0780    -2.1490 C.ar  1 <1>  -0.1500 
  4 C       -2.7290    -2.0590    -2.3570 C.ar  1 <1>  -0.1500 
  5 C       -4.5680    -0.5250    -0.9350 C.ar  1 <1>  -0.1440 
  6 C       -3.2320    -2.5000    -1.1470 C.ar  1 <1>  -0.1500 
  7 C       -4.1600    -1.7630    -0.4100 C.ar  1 <1>  -0.0090 
  8 C       -5.5530     0.3950    -0.2230 C.3   1 <1>  -0.0960 
  9 S       -4.7760    -2.4960     1.1540 S.o2  1 <1>   1.4470 
 10 O       -5.4030    -1.4910     1.9870 O.2   1 <1>  -0.6500 
 11 O       -3.7130    -3.2920     1.7290 O.2   1 <1>  -0.6500 
 12 N       -6.0000    -3.5650     0.6640 N.am  1 <1>  -0.8490 
 13 C       -5.5200    -4.6300    -0.2390 C.3   1 <1>   0.1960 
 14 C       -7.2000    -2.9070     0.1480 C.3   1 <1>   0.1960 
 15 C       -6.5620    -5.7460    -0.4200 C.3   1 <1>  -0.1060 
 16 C       -8.3250    -3.9220    -0.0650 C.3   1 <1>  -0.1600 
 17 C       -6.0860    -6.6820    -1.5280 C.2   1 <1>   0.9060 
 18 C       -7.8450    -5.0750    -0.9460 C.3   1 <1>   0.2000 
 19 C       -6.7920    -6.5300     0.9070 C.3   1 <1>  -0.0650 
 20 O       -4.9850    -6.4990    -2.0610 O.co2 1 <1>  -0.9000 
 21 O       -6.8630    -7.5640    -1.9250 O.co2 1 <1>  -0.9000 
 22 O       -8.8620    -6.0020    -1.0510 O.3   1 <1>  -0.6800 
 23 C       -5.5220    -7.1420     1.5200 C.3   1 <1>  -0.1950 
 24 C       -4.9500    -8.4190     0.9970 C.3   1 <1>  -0.2000 
 25 C       -5.6070    -8.3850     2.3470 C.3   1 <1>  -0.2000 
 26 H       -4.3610     0.8670    -2.5660 H     1 <1>   0.1500 
 27 H       -2.0220    -2.6510    -2.9100 H     1 <1>   0.1500 
 28 H       -2.8940    -3.4530    -0.7680 H     1 <1>   0.1500 
 29 H       -5.7910     1.2550    -0.8220 H     1 <1>   0.0800 
 30 H       -5.1270     0.7450     0.7010 H     1 <1>   0.0800 
 31 H       -6.4720    -0.1190    -0.0080 H     1 <1>   0.0800 
 32 H       -5.3010    -4.2050    -1.2040 H     1 <1>   0.0800 
 33 H       -4.6050    -5.0570     0.1350 H     1 <1>   0.0800 
 34 H       -7.5380    -2.1650     0.8530 H     1 <1>   0.0800 
 35 H       -6.9740    -2.4180    -0.7850 H     1 <1>   0.0800 
 36 H       -9.1570    -3.4350    -0.5400 H     1 <1>   0.0800 
 37 H       -8.6530    -4.2910     0.8900 H     1 <1>   0.0800 
 38 H       -7.6590    -4.7040    -1.9410 H     1 <1>   0.0800 
 39 H       -7.2270    -5.8810     1.6450 H     1 <1>   0.0800 
 40 H       -7.4980    -7.3210     0.7230 H     1 <1>   0.0800 
 41 H       -8.4390    -6.8130    -1.4570 H     1 <1>   0.4000 
 42 H       -4.8320    -6.3940     1.8740 H     1 <1>   0.1000 
 43 H       -5.4530    -8.9010     0.1740 H     1 <1>   0.1000 
 44 H       -3.8800    -8.4890     0.9160 H     1 <1>   0.1000 
 45 H       -4.9910    -8.4630     3.2250 H     1 <1>   0.1000 
 46 H       -6.5590    -8.8740     2.4620 H     1 <1>   0.1000 
@<TRIPOS>BOND
  1   1   2  1   
  2   2   3  ar  
  3   2   4  ar  
  4   3   5  ar  
  5   3  26  1   
  6   4   6  ar  
  7   4  27  1   
  8   5   7  ar  
  9   5   8  1   
 10   6   7  ar  
 11   6  28  1   
 12   7   9  1   
 13   8  29  1   
 14   8  30  1   
 15   8  31  1   
 16   9  10  2   
 17   9  11  2   
 18   9  12  am  
 19  12  13  1   
 20  12  14  1   
 21  13  15  1   
 22  13  32  1   
 23  13  33  1   
 24  14  16  1   
 25  14  34  1   
 26  14  35  1   
 27  15  17  1   
 28  15  18  1   
 29  15  19  1   
 30  16  18  1   
 31  16  36  1   
 32  16  37  1   
 33  17  20  ar  
 34  17  21  ar  
 35  18  22  1   
 36  18  38  1   
 37  19  23  1   
 38  19  39  1   
 39  19  40  1   
 40  22  41  1   
 41  23  24  1   
 42  23  25  1   
 43  23  42  1   
 44  24  25  1   
 45  24  43  1   
 46  24  44  1   
 47  25  45  1   
 48  25  46  1   
@<TRIPOS>SUBSTRUCTURE
  1 ****  13 GROUP 4 **** **** 0

# MOE 2024.06 (io_trps.svl 2023.06)
