@<TRIPOS>MOLECULE
NONAME
44 46 1 0 0 
SMALL
USER_CHARGES


@<TRIPOS>ATOM
  1 O        2.7660    -1.1620     1.4630 O.2   1 <1>  -0.5700 
  2 C        1.9340    -1.3030     0.5970 C.2   1 <1>   0.5690 
  3 N        1.6200    -0.3460    -0.3130 N.am  1 <1>  -0.4930 
  4 C        1.1710    -2.6260     0.5060 C.3   1 <1>   0.1710 
  5 C        2.0950     0.9520    -0.4750 C.2   1 <1>   0.3520 
  6 N       -0.1800    -2.4970    -0.1160 N.3   1 <1>  -0.8100 
  7 N        1.5850     1.7550    -1.3420 N.2   1 <1>  -0.4100 
  8 C        3.1320     1.5720     0.2230 C.2   1 <1>  -0.1500 
  9 C       -0.8040    -3.8110    -0.4160 C.3   1 <1>   0.1100 
 10 C       -1.1300    -1.7430     0.7190 C.3   1 <1>   0.1100 
 11 O        2.2540     2.8760    -1.2320 O.3   1 <1>  -0.0190 
 12 C        3.1800     2.7990    -0.3110 C.2   1 <1>  -0.0400 
 13 C       -2.0870    -3.9440     0.4220 C.3   1 <1>   0.4240 
 14 C       -2.4610    -2.4740     0.5870 C.3   1 <1>  -0.1600 
 15 C        4.0660     3.9930    -0.0280 C.3   1 <1>  -0.0600 
 16 O       -1.7360    -4.3940     1.6840 O.3   1 <1>  -0.6800 
 17 C       -3.1690    -4.8810    -0.1680 C.ar  1 <1>  -0.1440 
 18 C       -2.9040    -6.2030    -0.5500 C.ar  1 <1>  -0.1440 
 19 C       -4.4720    -4.4080    -0.3280 C.ar  1 <1>  -0.1500 
 20 C       -3.9120    -6.9810    -1.1040 C.ar  1 <1>  -0.1500 
 21 C       -1.5490    -6.8810    -0.3840 C.3   1 <1>  -0.0970 
 22 C       -5.4690    -5.1920    -0.8760 C.ar  1 <1>  -0.1500 
 23 C       -5.1880    -6.4820    -1.2710 C.ar  1 <1>  -0.1500 
 24 H        0.8540    -0.6010    -0.9400 H     1 <1>   0.3700 
 25 H        1.0870    -3.0480     1.4910 H     1 <1>   0.0800 
 26 H        1.7680    -3.2940    -0.0890 H     1 <1>   0.0800 
 27 H        3.7270     1.1290     1.0000 H     1 <1>   0.1500 
 28 H       -0.1280    -4.6260    -0.2330 H     1 <1>   0.0800 
 29 H       -1.0770    -3.8220    -1.4570 H     1 <1>   0.0800 
 30 H       -1.2100    -0.7220     0.3820 H     1 <1>   0.0800 
 31 H       -0.8170    -1.7460     1.7500 H     1 <1>   0.0800 
 32 H       -2.9380    -2.1160    -0.3080 H     1 <1>   0.0800 
 33 H       -3.1130    -2.3030     1.4250 H     1 <1>   0.0800 
 34 H        4.7660     3.7580     0.7530 H     1 <1>   0.0800 
 35 H        3.4630     4.8280     0.2820 H     1 <1>   0.0800 
 36 H        4.6080     4.2620    -0.9160 H     1 <1>   0.0800 
 37 H       -1.0440    -3.8060     2.0280 H     1 <1>   0.4000 
 38 H       -4.7490    -3.4160    -0.0270 H     1 <1>   0.1500 
 39 H       -3.7120    -7.9930    -1.4080 H     1 <1>   0.1500 
 40 H       -1.1090    -6.6340     0.5640 H     1 <1>   0.0800 
 41 H       -0.8890    -6.5890    -1.1790 H     1 <1>   0.0800 
 42 H       -1.6530    -7.9510    -0.4140 H     1 <1>   0.0800 
 43 H       -6.4640    -4.7990    -0.9920 H     1 <1>   0.1500 
 44 H       -5.9580    -7.0980    -1.7010 H     1 <1>   0.1500 
@<TRIPOS>BOND
  1   1   2  2   
  2   2   3  am  
  3   2   4  1   
  4   3   5  1   
  5   3  24  1   
  6   4   6  1   
  7   4  25  1   
  8   4  26  1   
  9   5   7  2   
 10   5   8  1   
 11   6   9  1   
 12   6  10  1   
 13   7  11  1   
 14   8  12  2   
 15   8  27  1   
 16   9  13  1   
 17   9  28  1   
 18   9  29  1   
 19  10  14  1   
 20  10  30  1   
 21  10  31  1   
 22  11  12  1   
 23  12  15  1   
 24  13  14  1   
 25  13  16  1   
 26  13  17  1   
 27  14  32  1   
 28  14  33  1   
 29  15  34  1   
 30  15  35  1   
 31  15  36  1   
 32  16  37  1   
 33  17  18  ar  
 34  17  19  ar  
 35  18  20  ar  
 36  18  21  1   
 37  19  22  ar  
 38  19  38  1   
 39  20  23  ar  
 40  20  39  1   
 41  21  40  1   
 42  21  41  1   
 43  21  42  1   
 44  22  23  ar  
 45  22  43  1   
 46  23  44  1   
@<TRIPOS>SUBSTRUCTURE
  1 ****   6 GROUP 4 **** **** 0

# MOE 2024.06 (io_trps.svl 2023.06)
