@<TRIPOS>MOLECULE
NONAME
53 54 1 0 0 
SMALL
USER_CHARGES


@<TRIPOS>ATOM
  1 O       -0.7290     0.9160     2.0150 O.2   1 <1>  -0.5700 
  2 C       -1.4040     0.9320     1.0110 C.2   1 <1>   0.5690 
  3 N       -2.1070    -0.1450     0.5470 N.am  1 <1>  -0.4930 
  4 C       -1.3990     2.2490     0.2190 C.3   1 <1>   0.4040 
  5 C       -2.1680    -1.4490     1.1050 C.2   1 <1>   0.0630 
  6 N       -0.0730     2.9850     0.2890 N.4   1 <1>  -0.9590 
  7 C       -2.7670    -2.5760     0.5350 C.2   1 <1>   0.1080 
  8 C       -1.6780    -1.8930     2.2810 C.2   1 <1>  -0.3020 
  9 C        1.0740     2.1360    -0.1640 C.3   1 <1>   0.5610 
 10 C       -0.0040     4.3840    -0.2560 C.3   1 <1>   0.4230 
 11 N       -2.6580    -3.6230     1.2890 N.2   1 <1>  -0.7070 
 12 C       -3.4740    -2.6320    -0.8020 C.3   1 <1>  -0.0590 
 13 N       -1.9850    -3.2020     2.3710 N.pl3 1 <1>   0.3140 
 14 C        2.3510     2.8730     0.1830 C.2   1 <1>  -0.2880 
 15 C        1.0400     1.8100    -1.6710 C.3   1 <1>  -0.0220 
 16 C        1.2270     5.0990     0.3440 C.3   1 <1>  -0.0220 
 17 C       -1.2900     5.1930     0.0100 C.3   1 <1>  -0.0220 
 18 C       -1.6520    -4.1050     3.4780 C.3   1 <1>   0.0160 
 19 C        2.4410     4.1850     0.4230 C.2   1 <1>  -0.2760 
 20 C        1.8340     0.5640    -2.0440 C.2   1 <1>  -0.2880 
 21 C       -1.1850     6.6170    -0.5140 C.2   1 <1>  -0.2880 
 22 C        3.7390     4.8860     0.7890 C.3   1 <1>  -0.1020 
 23 C        2.3780    -0.3400    -1.2220 C.2   1 <1>  -0.3000 
 24 C       -1.2220     7.7120     0.2500 C.2   1 <1>  -0.3000 
 25 H       -2.6670    -0.0540    -0.2990 H     1 <1>   0.3700 
 26 H       -2.1740     2.8680     0.6360 H     1 <1>   0.0800 
 27 H       -1.6520     2.0450    -0.8060 H     1 <1>   0.0800 
 28 H        0.1350     3.0710     1.2960 H     1 <1>   0.4500 
 29 H       -1.1390    -1.3640     3.0440 H     1 <1>   0.1500 
 30 H        1.0520     1.2120     0.3920 H     1 <1>   0.0800 
 31 H        0.1370     4.3290    -1.3230 H     1 <1>   0.0800 
 32 H       -2.8180    -2.2930    -1.5810 H     1 <1>   0.0800 
 33 H       -4.3580    -2.0220    -0.7750 H     1 <1>   0.0800 
 34 H       -3.7640    -3.6460    -1.0140 H     1 <1>   0.0800 
 35 H        3.2030     2.2140     0.2110 H     1 <1>   0.1500 
 36 H        0.0330     1.6520    -2.0050 H     1 <1>   0.0800 
 37 H        1.4440     2.6440    -2.2160 H     1 <1>   0.0800 
 38 H        1.4630     5.9510    -0.2700 H     1 <1>   0.0800 
 39 H        0.9990     5.4670     1.3290 H     1 <1>   0.0800 
 40 H       -2.1280     4.7370    -0.4850 H     1 <1>   0.0800 
 41 H       -1.4870     5.2220     1.0680 H     1 <1>   0.0800 
 42 H       -1.8270    -3.6040     4.4110 H     1 <1>   0.0800 
 43 H       -0.6200    -4.3900     3.4000 H     1 <1>   0.0800 
 44 H       -2.2730    -4.9800     3.4160 H     1 <1>   0.0800 
 45 H        1.9280     0.4580    -3.1150 H     1 <1>   0.1500 
 46 H       -1.0800     6.6770    -1.5870 H     1 <1>   0.1500 
 47 H        3.6510     5.3600     1.7500 H     1 <1>   0.0800 
 48 H        3.9820     5.6340     0.0550 H     1 <1>   0.0800 
 49 H        4.5530     4.1830     0.8330 H     1 <1>   0.0800 
 50 H        2.9270    -1.1980    -1.5780 H     1 <1>   0.1500 
 51 H        2.3420    -0.3360    -0.1460 H     1 <1>   0.1500 
 52 H       -1.1510     8.7150    -0.1380 H     1 <1>   0.1500 
 53 H       -1.3310     7.7140     1.3220 H     1 <1>   0.1500 
@<TRIPOS>BOND
  1   1   2  2   
  2   2   3  am  
  3   2   4  1   
  4   3   5  1   
  5   3  25  1   
  6   4   6  1   
  7   4  26  1   
  8   4  27  1   
  9   5   7  1   
 10   5   8  2   
 11   6   9  1   
 12   6  10  1   
 13   6  28  1   
 14   7  11  2   
 15   7  12  1   
 16   8  13  1   
 17   8  29  1   
 18   9  14  1   
 19   9  15  1   
 20   9  30  1   
 21  10  16  1   
 22  10  17  1   
 23  10  31  1   
 24  11  13  1   
 25  12  32  1   
 26  12  33  1   
 27  12  34  1   
 28  13  18  1   
 29  14  19  2   
 30  14  35  1   
 31  15  20  1   
 32  15  36  1   
 33  15  37  1   
 34  16  19  1   
 35  16  38  1   
 36  16  39  1   
 37  17  21  1   
 38  17  40  1   
 39  17  41  1   
 40  18  42  1   
 41  18  43  1   
 42  18  44  1   
 43  19  22  1   
 44  20  23  2   
 45  20  45  1   
 46  21  24  2   
 47  21  46  1   
 48  22  47  1   
 49  22  48  1   
 50  22  49  1   
 51  23  50  1   
 52  23  51  1   
 53  24  52  1   
 54  24  53  1   
@<TRIPOS>SUBSTRUCTURE
  1 ****   2 GROUP 4 **** **** 0

# MOE 2024.06 (io_trps.svl 2023.06)
