@<TRIPOS>MOLECULE
NONAME
42 43 1 0 0 
SMALL
USER_CHARGES


@<TRIPOS>ATOM
  1 O        1.0990     0.8320    -1.5810 O.2   1 <1>  -0.5700 
  2 C        1.6130     0.9860    -0.4870 C.2   1 <1>   0.5440 
  3 N        1.4570     2.1950     0.1380 N.am  1 <1>  -0.7300 
  4 C        2.3640    -0.0750     0.1480 C.ar  1 <1>   0.0860 
  5 C        0.7250     3.3660    -0.4140 C.3   1 <1>   0.0600 
  6 C        1.9860    -1.4290     0.0220 C.ar  1 <1>   0.4100 
  7 C        3.4910     0.2060     0.9100 C.ar  1 <1>  -0.1500 
  8 N        2.6320    -2.4470     0.5970 N.ar  1 <1>  -0.6200 
  9 N        0.8820    -1.7790    -0.7220 N.pl3 1 <1>  -0.8690 
 10 C        4.1580    -0.8410     1.5020 C.ar  1 <1>  -0.1500 
 11 C        3.6920    -2.1290     1.3170 C.ar  1 <1>   0.1600 
 12 C        0.6610    -3.1340    -1.2810 C.3   1 <1>   0.2090 
 13 C        0.1210    -4.0790    -0.1740 C.3   1 <1>   0.4230 
 14 N        0.6470    -5.4920    -0.2560 N.4   1 <1>  -0.9590 
 15 C       -1.4160    -4.0810    -0.1970 C.3   1 <1>  -0.1600 
 16 C        0.1010    -6.3440     0.8420 C.3   1 <1>   0.3430 
 17 C        2.1430    -5.5130    -0.1710 C.3   1 <1>   0.2630 
 18 C       -2.0220    -4.9860     0.8800 C.3   1 <1>  -0.1600 
 19 C       -1.4240    -6.3910     0.7790 C.3   1 <1>  -0.1600 
 20 H        1.7890     2.3010     1.0990 H     1 <1>   0.3700 
 21 H        0.4420     3.1880    -1.4380 H     1 <1>   0.0800 
 22 H        1.3540     4.2380    -0.3770 H     1 <1>   0.0800 
 23 H       -0.1640     3.5450     0.1650 H     1 <1>   0.0800 
 24 H        3.8410     1.2160     1.0290 H     1 <1>   0.1500 
 25 H        0.5520    -1.0040    -1.3300 H     1 <1>   0.4000 
 26 H        5.0340    -0.6650     2.1020 H     1 <1>   0.1500 
 27 H        4.2270    -2.9350     1.7910 H     1 <1>   0.1500 
 28 H        1.5940    -3.4820    -1.6820 H     1 <1>   0.0800 
 29 H       -0.0410    -3.0670    -2.0930 H     1 <1>   0.0800 
 30 H        0.4420    -3.6660     0.7680 H     1 <1>   0.0800 
 31 H        0.3400    -5.8910    -1.1510 H     1 <1>   0.4500 
 32 H       -1.7640    -4.3940    -1.1660 H     1 <1>   0.0800 
 33 H       -1.7650    -3.0740    -0.0410 H     1 <1>   0.0800 
 34 H        0.4040    -5.9410     1.7950 H     1 <1>   0.0800 
 35 H        0.4930    -7.3450     0.7590 H     1 <1>   0.0800 
 36 H        2.4690    -5.0180     0.7300 H     1 <1>   0.0800 
 37 H        2.5840    -5.0040    -1.0110 H     1 <1>   0.0800 
 38 H        2.5050    -6.5280    -0.1600 H     1 <1>   0.0800 
 39 H       -3.0920    -5.0310     0.7620 H     1 <1>   0.0800 
 40 H       -1.8160    -4.5730     1.8540 H     1 <1>   0.0800 
 41 H       -1.7900    -6.9910     1.5940 H     1 <1>   0.0800 
 42 H       -1.7350    -6.8650    -0.1360 H     1 <1>   0.0800 
@<TRIPOS>BOND
  1   1   2  2   
  2   2   3  am  
  3   2   4  1   
  4   3   5  1   
  5   3  20  1   
  6   4   6  ar  
  7   4   7  ar  
  8   5  21  1   
  9   5  22  1   
 10   5  23  1   
 11   6   8  ar  
 12   6   9  1   
 13   7  10  ar  
 14   7  24  1   
 15   8  11  ar  
 16   9  12  1   
 17   9  25  1   
 18  10  11  ar  
 19  10  26  1   
 20  11  27  1   
 21  12  13  1   
 22  12  28  1   
 23  12  29  1   
 24  13  14  1   
 25  13  15  1   
 26  13  30  1   
 27  14  16  1   
 28  14  17  1   
 29  14  31  1   
 30  15  18  1   
 31  15  32  1   
 32  15  33  1   
 33  16  19  1   
 34  16  34  1   
 35  16  35  1   
 36  17  36  1   
 37  17  37  1   
 38  17  38  1   
 39  18  19  1   
 40  18  39  1   
 41  18  40  1   
 42  19  41  1   
 43  19  42  1   
@<TRIPOS>SUBSTRUCTURE
  1 ****   9 GROUP 4 **** **** 0

# MOE 2024.06 (io_trps.svl 2023.06)
