@<TRIPOS>MOLECULE
NONAME
48 51 1 0 0 
SMALL
USER_CHARGES


@<TRIPOS>ATOM
  1 S        0.3350     0.1290    -1.3980 S.3   1 <1>  -0.0800 
  2 C        0.9090    -1.1360    -0.2950 C.ar  1 <1>   0.0400 
  3 C        1.6060     1.2280    -0.8680 C.2   1 <1>  -0.1100 
  4 C        0.4220    -2.4170    -0.0850 C.ar  1 <1>   0.4100 
  5 C        2.0030    -0.6940     0.3990 C.ar  1 <1>   0.2560 
  6 C        2.3860     0.6520     0.0660 C.2   1 <1>  -0.1810 
  7 N        1.0260    -3.2120     0.7840 N.ar  1 <1>  -0.6200 
  8 N       -0.6890    -2.9230    -0.7360 N.pl3 1 <1>  -0.8380 
  9 N        2.6100    -1.4850     1.2800 N.ar  1 <1>  -0.5660 
 10 C        3.5770     1.3090     0.7420 C.3   1 <1>  -0.0590 
 11 C        2.0810    -2.6850     1.4080 C.ar  1 <1>   0.4700 
 12 C       -0.7450    -4.3730    -1.0520 C.3   1 <1>   0.2090 
 13 C       -2.0110    -2.2910    -0.4780 C.3   1 <1>   0.2090 
 14 C       -1.4330    -5.1390     0.1040 C.3   1 <1>   0.4230 
 15 C       -2.6950    -3.0360     0.6750 C.3   1 <1>  -0.1600 
 16 N       -1.3980    -6.6580    -0.0430 N.4   1 <1>  -0.9590 
 17 C       -2.8440    -4.5660     0.4330 C.3   1 <1>   0.0000 
 18 C       -2.3910    -7.3800     0.8180 C.3   1 <1>   0.3430 
 19 C       -1.4730    -7.1700    -1.4510 C.3   1 <1>   0.2630 
 20 C       -3.3760    -5.2240     1.7410 C.3   1 <1>  -0.1600 
 21 C       -3.8200    -4.8320    -0.7490 C.3   1 <1>   0.1200 
 22 C       -2.7120    -6.5740     2.0740 C.3   1 <1>  -0.1600 
 23 O       -5.0270    -4.1750    -0.5770 O.3   1 <1>  -0.6800 
 24 H        1.6300     2.2030    -1.3240 H     1 <1>   0.1500 
 25 H        4.4680     0.7390     0.5470 H     1 <1>   0.0800 
 26 H        3.4190     1.3490     1.8050 H     1 <1>   0.0800 
 27 H        3.7180     2.3090     0.3740 H     1 <1>   0.0800 
 28 H        2.5700    -3.3320     2.1170 H     1 <1>   0.1500 
 29 H       -1.2750    -4.4980    -1.9780 H     1 <1>   0.0800 
 30 H        0.2590    -4.7400    -1.1840 H     1 <1>   0.0800 
 31 H       -1.8830    -1.2560    -0.2080 H     1 <1>   0.0800 
 32 H       -2.6130    -2.3260    -1.3710 H     1 <1>   0.0800 
 33 H       -0.8340    -4.9100     0.9710 H     1 <1>   0.0800 
 34 H       -2.1030    -2.8610     1.5570 H     1 <1>   0.0800 
 35 H       -3.6540    -2.5830     0.8540 H     1 <1>   0.0800 
 36 H       -0.4690    -6.9190     0.3200 H     1 <1>   0.4500 
 37 H       -3.3060    -7.5350     0.2690 H     1 <1>   0.0800 
 38 H       -2.0020    -8.3480     1.0930 H     1 <1>   0.0800 
 39 H       -2.4070    -6.8880    -1.9070 H     1 <1>   0.0800 
 40 H       -1.3970    -8.2460    -1.4610 H     1 <1>   0.0800 
 41 H       -0.6640    -6.7710    -2.0420 H     1 <1>   0.0800 
 42 H       -3.2150    -4.5730     2.5850 H     1 <1>   0.0800 
 43 H       -4.4410    -5.3660     1.6780 H     1 <1>   0.0800 
 44 H       -4.0380    -5.8800    -0.8520 H     1 <1>   0.0800 
 45 H       -3.4140    -4.4780    -1.6790 H     1 <1>   0.0800 
 46 H       -3.3730    -7.1460     2.7030 H     1 <1>   0.0800 
 47 H       -1.8060    -6.4140     2.6330 H     1 <1>   0.0800 
 48 H       -5.4970    -4.4660     0.2290 H     1 <1>   0.4000 
@<TRIPOS>BOND
  1   1   2  1   
  2   1   3  1   
  3   2   4  ar  
  4   2   5  ar  
  5   3   6  2   
  6   3  24  1   
  7   4   7  ar  
  8   4   8  1   
  9   5   6  1   
 10   5   9  ar  
 11   6  10  1   
 12   7  11  ar  
 13   8  12  1   
 14   8  13  1   
 15   9  11  ar  
 16  10  25  1   
 17  10  26  1   
 18  10  27  1   
 19  11  28  1   
 20  12  14  1   
 21  12  29  1   
 22  12  30  1   
 23  13  15  1   
 24  13  31  1   
 25  13  32  1   
 26  14  16  1   
 27  14  17  1   
 28  14  33  1   
 29  15  17  1   
 30  15  34  1   
 31  15  35  1   
 32  16  18  1   
 33  16  19  1   
 34  16  36  1   
 35  17  20  1   
 36  17  21  1   
 37  18  22  1   
 38  18  37  1   
 39  18  38  1   
 40  19  39  1   
 41  19  40  1   
 42  19  41  1   
 43  20  22  1   
 44  20  42  1   
 45  20  43  1   
 46  21  23  1   
 47  21  44  1   
 48  21  45  1   
 49  22  46  1   
 50  22  47  1   
 51  23  48  1   
@<TRIPOS>SUBSTRUCTURE
  1 ****   8 GROUP 4 **** **** 0

# MOE 2024.06 (io_trps.svl 2023.06)
