@<TRIPOS>MOLECULE
NONAME
46 48 1 0 0 
SMALL
USER_CHARGES


@<TRIPOS>ATOM
  1 O       -2.9630     1.1330    -3.4580 O.2   1 <1>  -0.5700 
  2 C       -2.2290     1.2510    -2.5060 C.2   1 <1>   0.5690 
  3 N       -1.8210     0.1810    -1.7800 N.am  1 <1>  -0.7300 
  4 C       -1.7520     2.6430    -2.0970 C.3   1 <1>   0.1810 
  5 C       -2.2120    -1.2290    -1.9940 C.3   1 <1>   0.2200 
  6 O       -1.1550     2.6260    -0.8230 O.3   1 <1>  -0.5600 
  7 C       -3.1010    -1.7270    -0.8640 C.3   1 <1>  -0.0800 
  8 C       -0.9920    -2.1210    -1.8100 C.3   1 <1>   0.1200 
  9 C       -0.6900     3.8640    -0.3870 C.3   1 <1>   0.2640 
 10 C       -2.0900    -2.1370     0.2100 C.3   1 <1>   0.1200 
 11 C       -4.1800    -0.7440    -0.3720 C.3   1 <1>  -0.0160 
 12 O       -0.8580    -2.3010    -0.4320 O.3   1 <1>  -0.5600 
 13 C       -0.1380     3.7050     1.0210 C.ar  1 <1>  -0.1440 
 14 C       -5.0510    -1.3850     0.6970 C.ar  1 <1>  -0.1440 
 15 C        0.8710     2.7880     1.2760 C.ar  1 <1>  -0.1500 
 16 C       -0.6320     4.4760     2.0640 C.ar  1 <1>  -0.1500 
 17 C       -4.8430    -1.1600     2.0430 C.ar  1 <1>  -0.1500 
 18 C       -6.0940    -2.2290     0.3750 C.ar  1 <1>  -0.1500 
 19 C        1.3830     2.6440     2.5540 C.ar  1 <1>  -0.1500 
 20 C       -0.1210     4.3340     3.3430 C.ar  1 <1>  -0.1500 
 21 C       -5.6620    -1.7770     2.9750 C.ar  1 <1>   0.1600 
 22 C       -6.8540    -2.7950     1.3840 C.ar  1 <1>   0.1600 
 23 C        0.8870     3.4190     3.5890 C.ar  1 <1>  -0.1500 
 24 N       -6.6620    -2.5920     2.6780 N.ar  1 <1>  -0.6200 
 25 H       -1.2310     0.3610    -0.9600 H     1 <1>   0.3700 
 26 H       -2.5950     3.3100    -2.0750 H     1 <1>   0.0800 
 27 H       -1.0310     2.9920    -2.8140 H     1 <1>   0.0800 
 28 H       -2.6640    -1.3520    -2.9640 H     1 <1>   0.0800 
 29 H       -3.5910    -2.6230    -1.2020 H     1 <1>   0.0800 
 30 H       -0.0930    -1.6850    -2.2090 H     1 <1>   0.0800 
 31 H       -1.1590    -3.0880    -2.2510 H     1 <1>   0.0800 
 32 H        0.0870     4.1970    -1.0530 H     1 <1>   0.0800 
 33 H       -1.5070     4.5650    -0.3980 H     1 <1>   0.0800 
 34 H       -2.3640    -3.0620     0.6880 H     1 <1>   0.0800 
 35 H       -1.9670    -1.3670     0.9510 H     1 <1>   0.0800 
 36 H       -4.7950    -0.4440    -1.2020 H     1 <1>   0.0800 
 37 H       -3.7240     0.1450     0.0290 H     1 <1>   0.0800 
 38 H        1.2560     2.1790     0.4770 H     1 <1>   0.1500 
 39 H       -1.4160     5.1900     1.8880 H     1 <1>   0.1500 
 40 H       -4.0530    -0.5120     2.3770 H     1 <1>   0.1500 
 41 H       -6.3230    -2.4510    -0.6520 H     1 <1>   0.1500 
 42 H        2.1650     1.9300     2.7430 H     1 <1>   0.1500 
 43 H       -0.5070     4.9350     4.1460 H     1 <1>   0.1500 
 44 H       -5.4840    -1.5900     4.0200 H     1 <1>   0.1500 
 45 H       -7.6640    -3.4510     1.1140 H     1 <1>   0.1500 
 46 H        1.2850     3.3090     4.5820 H     1 <1>   0.1500 
@<TRIPOS>BOND
  1   1   2  2   
  2   2   3  am  
  3   2   4  1   
  4   3   5  1   
  5   3  25  1   
  6   4   6  1   
  7   4  26  1   
  8   4  27  1   
  9   5   7  1   
 10   5   8  1   
 11   5  28  1   
 12   6   9  1   
 13   7  10  1   
 14   7  11  1   
 15   7  29  1   
 16   8  12  1   
 17   8  30  1   
 18   8  31  1   
 19   9  13  1   
 20   9  32  1   
 21   9  33  1   
 22  10  12  1   
 23  10  34  1   
 24  10  35  1   
 25  11  14  1   
 26  11  36  1   
 27  11  37  1   
 28  13  15  ar  
 29  13  16  ar  
 30  14  17  ar  
 31  14  18  ar  
 32  15  19  ar  
 33  15  38  1   
 34  16  20  ar  
 35  16  39  1   
 36  17  21  ar  
 37  17  40  1   
 38  18  22  ar  
 39  18  41  1   
 40  19  23  ar  
 41  19  42  1   
 42  20  23  ar  
 43  20  43  1   
 44  21  24  ar  
 45  21  44  1   
 46  22  24  ar  
 47  22  45  1   
 48  23  46  1   
@<TRIPOS>SUBSTRUCTURE
  1 ****   3 GROUP 4 **** **** 0

# MOE 2024.06 (io_trps.svl 2023.06)
