@<TRIPOS>MOLECULE
NONAME
48 51 1 0 0 
SMALL
USER_CHARGES


@<TRIPOS>ATOM
  1 F        0.7380     0.2270    -0.9710 F     1 <1>  -0.1900 
  2 C        1.7640     1.0510    -1.0290 C.ar  1 <1>   0.1900 
  3 C        2.9950     0.7270    -0.4600 C.ar  1 <1>   0.4100 
  4 C        1.6190     2.2490    -1.6700 C.ar  1 <1>   0.1600 
  5 N        4.0020     1.5760    -0.5610 N.ar  1 <1>  -0.6200 
  6 N        3.2420    -0.4590     0.2210 N.pl3 1 <1>  -0.8380 
  7 N        2.6180     3.1060    -1.7640 N.ar  1 <1>  -0.6200 
  8 C        3.7560     2.7030    -1.2060 C.ar  1 <1>   0.7200 
  9 C        2.4270    -0.8140     1.4200 C.3   1 <1>   0.2090 
 10 C        4.6340    -0.9980     0.3050 C.3   1 <1>   0.2090 
 11 N        4.8210     3.5340    -1.2770 N.pl3 1 <1>  -0.8690 
 12 C        2.5270    -2.3220     1.7160 C.3   1 <1>   0.1200 
 13 C        4.6200    -2.4940     0.6710 C.3   1 <1>   0.1200 
 14 C        4.6780     4.9920    -1.4100 C.3   1 <1>   0.2090 
 15 O        3.8650    -2.7250     1.8300 O.3   1 <1>  -0.5600 
 16 C        6.0100     5.6510    -1.0680 C.3   1 <1>  -0.1600 
 17 C        5.9090     7.1740    -1.1930 C.3   1 <1>   0.0960 
 18 N        7.1820     7.8050    -0.7950 N.pl3 1 <1>   0.0480 
 19 C        7.5990     8.0540     0.4920 C.ar  1 <1>  -0.1520 
 20 C        8.1640     8.2360    -1.6430 C.2   1 <1>  -0.3020 
 21 C        8.8560     8.6470     0.4380 C.ar  1 <1>   0.0000 
 22 C        6.9820     7.8080     1.7240 C.ar  1 <1>  -0.1500 
 23 C        9.1910     8.7520    -0.9270 C.2   1 <1>  -0.1500 
 24 C        9.5110     9.0000     1.6220 C.ar  1 <1>  -0.1500 
 25 C        7.6360     8.1600     2.8820 C.ar  1 <1>  -0.1500 
 26 C        8.9020     8.7560     2.8310 C.ar  1 <1>  -0.1500 
 27 H        0.6740     2.5100    -2.1130 H     1 <1>   0.1500 
 28 H        1.3970    -0.5500     1.2680 H     1 <1>   0.0800 
 29 H        2.7900    -0.2640     2.2710 H     1 <1>   0.0800 
 30 H        5.1850    -0.4530     1.0510 H     1 <1>   0.0800 
 31 H        5.1300    -0.8660    -0.6410 H     1 <1>   0.0800 
 32 H        5.5760     3.2110    -0.6740 H     1 <1>   0.4000 
 33 H        2.0620    -2.8890     0.9290 H     1 <1>   0.0800 
 34 H        2.0360    -2.5500     2.6450 H     1 <1>   0.0800 
 35 H        5.6210    -2.8380     0.8560 H     1 <1>   0.0800 
 36 H        4.1980    -3.0690    -0.1340 H     1 <1>   0.0800 
 37 H        3.9050     5.3380    -0.7430 H     1 <1>   0.0800 
 38 H        4.3900     5.2250    -2.4220 H     1 <1>   0.0800 
 39 H        6.7670     5.2900    -1.7430 H     1 <1>   0.0800 
 40 H        6.2820     5.3940    -0.0590 H     1 <1>   0.0800 
 41 H        5.1290     7.5530    -0.5570 H     1 <1>   0.0800 
 42 H        5.6890     7.4520    -2.2080 H     1 <1>   0.0800 
 43 H        8.0740     8.1490    -2.7110 H     1 <1>   0.1500 
 44 H        6.0110     7.3500     1.7600 H     1 <1>   0.1500 
 45 H       10.1110     9.1740    -1.2900 H     1 <1>   0.1500 
 46 H       10.4820     9.4570     1.5660 H     1 <1>   0.1500 
 47 H        7.1810     7.9790     3.8400 H     1 <1>   0.1500 
 48 H        9.3930     9.0230     3.7510 H     1 <1>   0.1500 
@<TRIPOS>BOND
  1   1   2  1   
  2   2   3  ar  
  3   2   4  ar  
  4   3   5  ar  
  5   3   6  1   
  6   4   7  ar  
  7   4  27  1   
  8   5   8  ar  
  9   6   9  1   
 10   6  10  1   
 11   7   8  ar  
 12   8  11  1   
 13   9  12  1   
 14   9  28  1   
 15   9  29  1   
 16  10  13  1   
 17  10  30  1   
 18  10  31  1   
 19  11  14  1   
 20  11  32  1   
 21  12  15  1   
 22  12  33  1   
 23  12  34  1   
 24  13  15  1   
 25  13  35  1   
 26  13  36  1   
 27  14  16  1   
 28  14  37  1   
 29  14  38  1   
 30  16  17  1   
 31  16  39  1   
 32  16  40  1   
 33  17  18  1   
 34  17  41  1   
 35  17  42  1   
 36  18  19  1   
 37  18  20  1   
 38  19  21  ar  
 39  19  22  ar  
 40  20  23  2   
 41  20  43  1   
 42  21  23  1   
 43  21  24  ar  
 44  22  25  ar  
 45  22  44  1   
 46  23  45  1   
 47  24  26  ar  
 48  24  46  1   
 49  25  26  ar  
 50  25  47  1   
 51  26  48  1   
@<TRIPOS>SUBSTRUCTURE
  1 ****  11 GROUP 4 **** **** 0

# MOE 2024.06 (io_trps.svl 2023.06)
