@<TRIPOS>MOLECULE
NONAME
49 51 1 0 0 
SMALL
USER_CHARGES


@<TRIPOS>ATOM
  1 O       -4.2300     2.3090    -0.6220 O.2   1 <1>  -0.5700 
  2 C       -3.4120     1.4790    -0.3030 C.2   1 <1>   0.5690 
  3 N       -3.4790     0.2030    -0.7990 N.am  1 <1>  -0.6600 
  4 C       -2.3150     1.9500     0.6380 C.3   1 <1>  -0.0990 
  5 C       -2.5510    -0.9160    -0.4120 C.3   1 <1>   0.3640 
  6 C       -4.5240    -0.1110    -1.8230 C.3   1 <1>   0.1400 
  7 C       -1.3670     2.9140    -0.0810 C.3   1 <1>   0.0210 
  8 C       -1.1960    -0.7830    -1.1190 C.ar  1 <1>  -0.1440 
  9 C       -3.1290    -2.3550    -0.6240 C.3   1 <1>   0.2000 
 10 C       -4.3210    -1.4830    -2.4720 C.3   1 <1>   0.1200 
 11 C       -0.3430     3.4740     0.8910 C.2   1 <1>  -0.1810 
 12 C       -1.0230    -0.0920    -2.3130 C.ar  1 <1>  -0.1500 
 13 C       -0.0900    -1.3900    -0.5370 C.ar  1 <1>  -0.1500 
 14 O       -4.2480    -2.4430    -1.4710 O.3   1 <1>  -0.5600 
 15 C       -3.5460    -2.9900     0.7080 C.3   1 <1>   0.1200 
 16 C       -0.3800     4.6080     1.6080 C.2   1 <1>  -0.0400 
 17 C        0.8780     2.9070     1.2560 C.2   1 <1>   0.1080 
 18 C        0.2240    -0.0130    -2.9100 C.ar  1 <1>  -0.1500 
 19 C        1.1560    -1.3170    -1.1340 C.ar  1 <1>  -0.1500 
 20 O       -2.4290    -3.1920     1.5160 O.3   1 <1>  -0.6800 
 21 O        0.7180     4.6770     2.3120 O.3   1 <1>  -0.0190 
 22 C       -1.4070     5.7160     1.7210 C.3   1 <1>  -0.0600 
 23 N        1.4890     3.6490     2.1080 N.2   1 <1>  -0.4100 
 24 C        1.4360     1.6000     0.7380 C.3   1 <1>  -0.0590 
 25 C        1.3140    -0.6270    -2.3220 C.ar  1 <1>  -0.1500 
 26 H       -2.7830     2.4670     1.4550 H     1 <1>   0.0800 
 27 H       -1.7500     1.1410     1.0530 H     1 <1>   0.0800 
 28 H       -2.3530    -0.8220     0.6400 H     1 <1>   0.0800 
 29 H       -5.4910    -0.0860    -1.3510 H     1 <1>   0.0800 
 30 H       -4.5140     0.6470    -2.5860 H     1 <1>   0.0800 
 31 H       -1.9340     3.7250    -0.5040 H     1 <1>   0.0800 
 32 H       -0.8680     2.4110    -0.8890 H     1 <1>   0.0800 
 33 H       -2.3700    -2.9770    -1.0650 H     1 <1>   0.0800 
 34 H       -3.4230    -1.5150    -3.0640 H     1 <1>   0.0800 
 35 H       -5.1610    -1.7230    -3.1000 H     1 <1>   0.0800 
 36 H       -1.8530     0.3950    -2.7940 H     1 <1>   0.1500 
 37 H       -0.1940    -1.9300     0.3900 H     1 <1>   0.1500 
 38 H       -4.0210    -3.9410     0.5450 H     1 <1>   0.0800 
 39 H       -4.2220    -2.3350     1.2320 H     1 <1>   0.0800 
 40 H        0.3440     0.5250    -3.8340 H     1 <1>   0.1500 
 41 H        2.0030    -1.7970    -0.6750 H     1 <1>   0.1500 
 42 H       -2.0130    -4.0550     1.3140 H     1 <1>   0.4000 
 43 H       -2.2630     5.5020     1.1080 H     1 <1>   0.0800 
 44 H       -0.9720     6.6460     1.4040 H     1 <1>   0.0800 
 45 H       -1.7250     5.8100     2.7430 H     1 <1>   0.0800 
 46 H        1.4090     1.5890    -0.3350 H     1 <1>   0.0800 
 47 H        0.8530     0.7830     1.1180 H     1 <1>   0.0800 
 48 H        2.4540     1.4810     1.0610 H     1 <1>   0.0800 
 49 H        2.2830    -0.5690    -2.7890 H     1 <1>   0.1500 
@<TRIPOS>BOND
  1   1   2  2   
  2   2   3  am  
  3   2   4  1   
  4   3   5  1   
  5   3   6  1   
  6   4   7  1   
  7   4  26  1   
  8   4  27  1   
  9   5   8  1   
 10   5   9  1   
 11   5  28  1   
 12   6  10  1   
 13   6  29  1   
 14   6  30  1   
 15   7  11  1   
 16   7  31  1   
 17   7  32  1   
 18   8  12  ar  
 19   8  13  ar  
 20   9  14  1   
 21   9  15  1   
 22   9  33  1   
 23  10  14  1   
 24  10  34  1   
 25  10  35  1   
 26  11  16  2   
 27  11  17  1   
 28  12  18  ar  
 29  12  36  1   
 30  13  19  ar  
 31  13  37  1   
 32  15  20  1   
 33  15  38  1   
 34  15  39  1   
 35  16  21  1   
 36  16  22  1   
 37  17  23  2   
 38  17  24  1   
 39  18  25  ar  
 40  18  40  1   
 41  19  25  ar  
 42  19  41  1   
 43  20  42  1   
 44  21  23  1   
 45  22  43  1   
 46  22  44  1   
 47  22  45  1   
 48  24  46  1   
 49  24  47  1   
 50  24  48  1   
 51  25  49  1   
@<TRIPOS>SUBSTRUCTURE
  1 ****   4 GROUP 4 **** **** 0

# MOE 2024.06 (io_trps.svl 2023.06)
