@<TRIPOS>MOLECULE
NONAME
46 47 1 0 0 
SMALL
USER_CHARGES


@<TRIPOS>ATOM
  1 S        1.0800     0.1780    -0.1450 S.o2  1 <1>   1.3330 
  2 O        0.7250     0.4280    -1.5200 O.2   1 <1>  -0.6500 
  3 O        2.0390    -0.8410     0.1970 O.2   1 <1>  -0.6500 
  4 N        1.7790     1.6040     0.5130 N.am  1 <1>  -0.7570 
  5 C       -0.3930    -0.0860     0.8580 C.3   1 <1>  -0.0550 
  6 C        1.5240     2.9460     0.2770 C.ar  1 <1>   0.1990 
  7 C       -1.4810     1.0000     0.7610 C.3   1 <1>  -0.2400 
  8 C        2.2420     3.8930     0.9980 C.ar  1 <1>  -0.1500 
  9 C        0.5850     3.4100    -0.6390 C.ar  1 <1>  -0.1500 
 10 C        2.0320     5.2460     0.8150 C.ar  1 <1>  -0.1500 
 11 C        0.3750     4.7630    -0.8210 C.ar  1 <1>  -0.1500 
 12 C        1.0930     5.7220    -0.1050 C.ar  1 <1>   0.0860 
 13 C        0.8670     7.1380    -0.3200 C.2   1 <1>   0.5440 
 14 O       -0.1960     7.5460    -0.7480 O.2   1 <1>  -0.5700 
 15 N        1.8460     8.0520    -0.0640 N.am  1 <1>  -0.7300 
 16 C        1.7490     9.4870    -0.3660 C.3   1 <1>   0.3210 
 17 C        3.1480     9.9810    -0.6560 C.2   1 <1>  -0.1810 
 18 C        3.9010     9.6660    -1.7810 C.2   1 <1>   0.1390 
 19 C        3.9490    10.7870     0.0740 C.2   1 <1>  -0.3020 
 20 N        5.0730    10.2210    -1.7570 N.2   1 <1>  -0.7070 
 21 N        5.1040    10.9200    -0.6080 N.pl3 1 <1>   0.3140 
 22 C        6.2830    11.7100    -0.2040 C.3   1 <1>   0.0960 
 23 C        7.1470    10.9320     0.7990 C.3   1 <1>  -0.1600 
 24 C        8.3750    11.7440     1.2260 C.3   1 <1>  -0.2400 
 25 H        2.6190     1.3520     1.0230 H     1 <1>   0.4200 
 26 H       -0.0980    -0.1820     1.8850 H     1 <1>   0.0800 
 27 H       -0.8300    -1.0220     0.5680 H     1 <1>   0.0800 
 28 H       -1.1110     1.9380     1.1340 H     1 <1>   0.0800 
 29 H       -2.3380     0.7160     1.3450 H     1 <1>   0.0800 
 30 H       -1.7890     1.1280    -0.2620 H     1 <1>   0.0800 
 31 H        2.9730     3.5640     1.7140 H     1 <1>   0.1500 
 32 H        0.0100     2.7200    -1.2260 H     1 <1>   0.1500 
 33 H        2.6000     5.9460     1.4010 H     1 <1>   0.1500 
 34 H       -0.3600     5.0940    -1.5350 H     1 <1>   0.1500 
 35 H        2.7940     7.7460     0.1570 H     1 <1>   0.3700 
 36 H        1.3370    10.0050     0.4830 H     1 <1>   0.0800 
 37 H        1.1100     9.6500    -1.2180 H     1 <1>   0.0800 
 38 H        3.5610     9.0320    -2.5840 H     1 <1>   0.1500 
 39 H        3.7690    11.2630     1.0210 H     1 <1>   0.1500 
 40 H        5.9430    12.6330     0.2290 H     1 <1>   0.0800 
 41 H        6.8540    11.9340    -1.0870 H     1 <1>   0.0800 
 42 H        7.4720    10.0120     0.3430 H     1 <1>   0.0800 
 43 H        6.5610    10.6930     1.6700 H     1 <1>   0.0800 
 44 H        8.9880    11.9770     0.3720 H     1 <1>   0.0800 
 45 H        8.9660    11.1770     1.9240 H     1 <1>   0.0800 
 46 H        8.0770    12.6630     1.7000 H     1 <1>   0.0800 
@<TRIPOS>BOND
  1   1   2  2   
  2   1   3  2   
  3   1   4  am  
  4   1   5  1   
  5   4   6  1   
  6   4  25  1   
  7   5   7  1   
  8   5  26  1   
  9   5  27  1   
 10   6   8  ar  
 11   6   9  ar  
 12   7  28  1   
 13   7  29  1   
 14   7  30  1   
 15   8  10  ar  
 16   8  31  1   
 17   9  11  ar  
 18   9  32  1   
 19  10  12  ar  
 20  10  33  1   
 21  11  12  ar  
 22  11  34  1   
 23  12  13  1   
 24  13  14  2   
 25  13  15  am  
 26  15  16  1   
 27  15  35  1   
 28  16  17  1   
 29  16  36  1   
 30  16  37  1   
 31  17  18  1   
 32  17  19  2   
 33  18  20  2   
 34  18  38  1   
 35  19  21  1   
 36  19  39  1   
 37  20  21  1   
 38  21  22  1   
 39  22  23  1   
 40  22  40  1   
 41  22  41  1   
 42  23  24  1   
 43  23  42  1   
 44  23  43  1   
 45  24  44  1   
 46  24  45  1   
 47  24  46  1   
@<TRIPOS>SUBSTRUCTURE
  1 ****  10 GROUP 4 **** **** 0

# MOE 2024.06 (io_trps.svl 2023.06)
