@<TRIPOS>MOLECULE
NONAME
48 50 1 0 0 
SMALL
USER_CHARGES


@<TRIPOS>ATOM
  1 F       -0.4140    -0.9070    -0.1970 F     1 <1>  -0.3400 
  2 C       -1.4040    -0.0310    -0.0690 C.3   1 <1>   1.0200 
  3 F       -2.4630    -0.5810    -0.6480 F     1 <1>  -0.3400 
  4 F       -1.6780     0.0390     1.2280 F     1 <1>  -0.3400 
  5 C       -1.0670     1.3540    -0.6960 C.3   1 <1>   0.1100 
  6 N       -0.0340     2.2290    -0.0350 N.3   1 <1>  -0.8100 
  7 C       -0.0260     3.5860    -0.6290 C.3   1 <1>   0.1100 
  8 C        1.3270     1.6310    -0.0530 C.3   1 <1>   0.1100 
  9 C        0.9860     4.5200     0.0670 C.3   1 <1>   0.3430 
 10 C        2.3670     2.5300     0.6450 C.3   1 <1>   0.3430 
 11 N        2.3520     3.9160     0.0830 N.4   1 <1>  -0.9590 
 12 C        3.4380     4.7550     0.7250 C.3   1 <1>   0.4600 
 13 C        3.2690     6.2020     0.2620 C.ar  1 <1>  -0.1430 
 14 C        4.8340     4.1750     0.3950 C.2   1 <1>   0.9060 
 15 C        2.8210     7.1650     1.1290 C.ar  1 <1>  -0.1500 
 16 C        3.5540     6.5580    -1.0670 C.ar  1 <1>  -0.1500 
 17 O        4.9540     3.6240    -0.7140 O.co2 1 <1>  -0.9000 
 18 O        5.7010     4.1230     1.2690 O.co2 1 <1>  -0.9000 
 19 C        2.6200     8.4970     0.7180 C.ar  1 <1>   0.0000 
 20 C        3.3670     7.8430    -1.4930 C.ar  1 <1>  -0.1500 
 21 C        2.8920     8.8420    -0.6220 C.ar  1 <1>   0.0000 
 22 C        2.1570     9.5010     1.5940 C.ar  1 <1>  -0.1500 
 23 C        2.6840    10.1710    -1.0350 C.ar  1 <1>  -0.1500 
 24 C        1.9630    10.7860     1.1680 C.ar  1 <1>  -0.1500 
 25 C        2.2290    11.1310    -0.1710 C.ar  1 <1>   0.0830 
 26 O        2.0590    12.3830    -0.6610 O.3   1 <1>  -0.3630 
 27 C        1.6260    13.4490     0.1550 C.3   1 <1>   0.0400 
 28 H       -1.9940     1.8970    -0.7120 H     1 <1>   0.0800 
 29 H       -0.7810     1.1830    -1.7180 H     1 <1>   0.0800 
 30 H       -1.0070     4.0200    -0.5370 H     1 <1>   0.0800 
 31 H        0.2130     3.5270    -1.6770 H     1 <1>   0.0800 
 32 H        1.6410     1.4500    -1.0670 H     1 <1>   0.0800 
 33 H        1.3180     0.6880     0.4640 H     1 <1>   0.0800 
 34 H        0.6570     4.6960     1.0770 H     1 <1>   0.0800 
 35 H        1.0080     5.4670    -0.4470 H     1 <1>   0.0800 
 36 H        3.3480     2.0960     0.5200 H     1 <1>   0.0800 
 37 H        2.1470     2.5610     1.6980 H     1 <1>   0.0800 
 38 H        2.7240     3.8200    -0.8770 H     1 <1>   0.4500 
 39 H        3.3340     4.7210     1.7930 H     1 <1>   0.0800 
 40 H        2.6120     6.9240     2.1570 H     1 <1>   0.1500 
 41 H        3.9330     5.8130    -1.7500 H     1 <1>   0.1500 
 42 H        3.5910     8.1150    -2.5090 H     1 <1>   0.1500 
 43 H        1.9580     9.2350     2.6160 H     1 <1>   0.1500 
 44 H        2.8900    10.4360    -2.0550 H     1 <1>   0.1500 
 45 H        1.6100    11.5250     1.8610 H     1 <1>   0.1500 
 46 H        1.5800    14.3350    -0.4520 H     1 <1>   0.0800 
 47 H        2.3350    13.5880     0.9510 H     1 <1>   0.0800 
 48 H        0.6490    13.2190     0.5410 H     1 <1>   0.0800 
@<TRIPOS>BOND
  1   1   2  1   
  2   2   3  1   
  3   2   4  1   
  4   2   5  1   
  5   5   6  1   
  6   5  28  1   
  7   5  29  1   
  8   6   7  1   
  9   6   8  1   
 10   7   9  1   
 11   7  30  1   
 12   7  31  1   
 13   8  10  1   
 14   8  32  1   
 15   8  33  1   
 16   9  11  1   
 17   9  34  1   
 18   9  35  1   
 19  10  11  1   
 20  10  36  1   
 21  10  37  1   
 22  11  12  1   
 23  11  38  1   
 24  12  13  1   
 25  12  14  1   
 26  12  39  1   
 27  13  15  ar  
 28  13  16  ar  
 29  14  17  ar  
 30  14  18  ar  
 31  15  19  ar  
 32  15  40  1   
 33  16  20  ar  
 34  16  41  1   
 35  19  21  ar  
 36  19  22  ar  
 37  20  21  ar  
 38  20  42  1   
 39  21  23  ar  
 40  22  24  ar  
 41  22  43  1   
 42  23  25  ar  
 43  23  44  1   
 44  24  25  ar  
 45  24  45  1   
 46  25  26  1   
 47  26  27  1   
 48  27  46  1   
 49  27  47  1   
 50  27  48  1   
@<TRIPOS>SUBSTRUCTURE
  1 ****   9 GROUP 4 **** **** 0

# MOE 2024.06 (io_trps.svl 2023.06)
