@<TRIPOS>MOLECULE
NONAME
52 55 1 0 0 
SMALL
USER_CHARGES


@<TRIPOS>ATOM
  1 O        2.7960    -0.9670    -0.4460 O.2   1 <1>  -0.5700 
  2 C        1.7570    -1.5520    -0.1840 C.2   1 <1>   0.5440 
  3 N        0.6670    -0.7690     0.1550 N.am  1 <1>  -0.6600 
  4 C        1.7240    -3.0150    -0.2750 C.ar  1 <1>   0.3960 
  5 C        0.7420     0.7030     0.2700 C.3   1 <1>   0.1400 
  6 C       -0.7190    -1.2460     0.3680 C.3   1 <1>   0.1400 
  7 N        0.8690    -3.7400     0.4680 N.ar  1 <1>  -0.6200 
  8 C        2.6140    -3.6330    -1.1610 C.ar  1 <1>   0.1600 
  9 C       -0.6260     1.1270     0.7950 C.3   1 <1>  -0.1600 
 10 C       -1.5720     0.0160     0.3470 C.3   1 <1>  -0.1600 
 11 C        0.9500    -5.0340     0.2610 C.ar  1 <1>   0.4100 
 12 N        2.7150    -4.9390    -1.3770 N.ar  1 <1>  -0.6200 
 13 N        0.0510    -5.7500     1.0030 N.pl3 1 <1>  -0.8690 
 14 C        1.8620    -5.6130    -0.6340 C.ar  1 <1>   0.1600 
 15 C       -0.8190    -6.7590     0.3630 C.3   1 <1>   0.2890 
 16 C       -2.2940    -6.5250     0.7530 C.3   1 <1>   0.0630 
 17 C       -0.3520    -8.1520     0.8020 C.3   1 <1>  -0.1600 
 18 C       -2.8070    -5.1450     0.3360 C.ar  1 <1>  -0.1430 
 19 C       -3.1960    -7.6250     0.1670 C.3   1 <1>  -0.1600 
 20 C       -1.2510    -9.2530     0.2180 C.3   1 <1>  -0.1600 
 21 C       -3.3480    -4.2920     1.2880 C.ar  1 <1>  -0.1500 
 22 C       -2.7580    -4.7260    -0.9870 C.ar  1 <1>  -0.1500 
 23 C       -2.7230    -9.0250     0.5870 C.3   1 <1>  -0.1600 
 24 C       -3.8390    -3.0500     0.9250 C.ar  1 <1>  -0.1500 
 25 C       -3.2480    -3.4850    -1.3530 C.ar  1 <1>  -0.1500 
 26 C       -3.7930    -2.6460    -0.3970 C.ar  1 <1>  -0.1500 
 27 H        1.5350     0.9940     0.9390 H     1 <1>   0.0800 
 28 H        0.9220     1.1210    -0.7050 H     1 <1>   0.0800 
 29 H       -1.0150    -1.9390    -0.4010 H     1 <1>   0.0800 
 30 H       -0.7830    -1.7270     1.3300 H     1 <1>   0.0800 
 31 H        3.2810    -3.0030    -1.7240 H     1 <1>   0.1500 
 32 H       -0.5880     1.1630     1.8700 H     1 <1>   0.0800 
 33 H       -0.9160     2.0920     0.4210 H     1 <1>   0.0800 
 34 H       -1.8990     0.1980    -0.6610 H     1 <1>   0.0800 
 35 H       -2.4320    -0.0750     0.9860 H     1 <1>   0.0800 
 36 H       -0.5110    -5.0930     1.5530 H     1 <1>   0.4000 
 37 H        1.8670    -6.6830    -0.7210 H     1 <1>   0.1500 
 38 H       -0.7280    -6.6840    -0.7080 H     1 <1>   0.0800 
 39 H       -2.3550    -6.6050     1.8250 H     1 <1>   0.0800 
 40 H        0.6600    -8.3140     0.4790 H     1 <1>   0.0800 
 41 H       -0.3740    -8.2100     1.8760 H     1 <1>   0.0800 
 42 H       -4.2070    -7.4730     0.5030 H     1 <1>   0.0800 
 43 H       -3.1970    -7.5600    -0.9070 H     1 <1>   0.0800 
 44 H       -1.1500    -9.2670    -0.8540 H     1 <1>   0.0800 
 45 H       -0.9320   -10.2130     0.5900 H     1 <1>   0.0800 
 46 H       -3.3980    -4.5910     2.3210 H     1 <1>   0.1500 
 47 H       -2.3430    -5.3650    -1.7460 H     1 <1>   0.1500 
 48 H       -2.8440    -9.1380     1.6510 H     1 <1>   0.0800 
 49 H       -3.3340    -9.7710     0.1080 H     1 <1>   0.0800 
 50 H       -4.2610    -2.4000     1.6720 H     1 <1>   0.1500 
 51 H       -3.2080    -3.1730    -2.3820 H     1 <1>   0.1500 
 52 H       -4.1800    -1.6840    -0.6820 H     1 <1>   0.1500 
@<TRIPOS>BOND
  1   1   2  2   
  2   2   3  am  
  3   2   4  1   
  4   3   5  1   
  5   3   6  1   
  6   4   7  ar  
  7   4   8  ar  
  8   5   9  1   
  9   5  27  1   
 10   5  28  1   
 11   6  10  1   
 12   6  29  1   
 13   6  30  1   
 14   7  11  ar  
 15   8  12  ar  
 16   8  31  1   
 17   9  10  1   
 18   9  32  1   
 19   9  33  1   
 20  10  34  1   
 21  10  35  1   
 22  11  13  1   
 23  11  14  ar  
 24  12  14  ar  
 25  13  15  1   
 26  13  36  1   
 27  14  37  1   
 28  15  16  1   
 29  15  17  1   
 30  15  38  1   
 31  16  18  1   
 32  16  19  1   
 33  16  39  1   
 34  17  20  1   
 35  17  40  1   
 36  17  41  1   
 37  18  21  ar  
 38  18  22  ar  
 39  19  23  1   
 40  19  42  1   
 41  19  43  1   
 42  20  23  1   
 43  20  44  1   
 44  20  45  1   
 45  21  24  ar  
 46  21  46  1   
 47  22  25  ar  
 48  22  47  1   
 49  23  48  1   
 50  23  49  1   
 51  24  26  ar  
 52  24  50  1   
 53  25  26  ar  
 54  25  51  1   
 55  26  52  1   
@<TRIPOS>SUBSTRUCTURE
  1 ****   7 GROUP 4 **** **** 0

# MOE 2024.06 (io_trps.svl 2023.06)
