@<TRIPOS>MOLECULE
NONAME
54 57 1 0 0 
SMALL
USER_CHARGES


@<TRIPOS>ATOM
  1 O        0.6690     0.7320     1.4110 O.3   1 <1>  -0.5320 
  2 C        1.5690     0.5690     0.4170 C.ar  1 <1>   0.0820 
  3 C        2.1220    -0.6850     0.2170 C.ar  1 <1>  -0.1440 
  4 C        1.9410     1.6340    -0.4050 C.ar  1 <1>   0.1660 
  5 C        3.0400    -0.8010    -0.8180 C.ar  1 <1>  -0.1440 
  6 C        1.7110    -1.8380     1.1230 C.3   1 <1>   0.4870 
  7 N        2.8100     1.5220    -1.3920 N.ar  1 <1>  -0.6200 
  8 C        1.3530     3.0210    -0.2100 C.3   1 <1>  -0.0960 
  9 C        3.3360     0.3240    -1.5740 C.ar  1 <1>   0.1600 
 10 C        3.7380    -2.1060    -1.1690 C.3   1 <1>   0.2640 
 11 N        0.7390    -2.7240     0.4250 N.4   1 <1>  -0.9590 
 12 O        4.3420    -2.6050    -0.0310 O.3   1 <1>  -0.6800 
 13 C       -0.3810    -2.0050    -0.2730 C.3   1 <1>   0.3430 
 14 C        0.1130    -3.7320     1.3110 C.3   1 <1>   0.3430 
 15 C       -1.6670    -2.7780     0.0680 C.3   1 <1>   0.2000 
 16 C       -1.1670    -4.1300     0.5730 C.3   1 <1>  -0.0800 
 17 O       -2.3440    -2.1380     1.1000 O.3   1 <1>  -0.6800 
 18 C       -0.9170    -5.0820    -0.6250 C.3   1 <1>  -0.0170 
 19 C        0.2250    -6.0540    -0.3880 C.ar  1 <1>   0.1670 
 20 N        1.4310    -5.6120    -0.6000 N.ar  1 <1>  -0.6200 
 21 C       -0.0700    -7.3530     0.0510 C.ar  1 <1>  -0.1500 
 22 C        2.4590    -6.4810    -0.3880 C.ar  1 <1>   0.3100 
 23 C        0.9410    -8.2340     0.2800 C.ar  1 <1>  -0.1500 
 24 C        2.2590    -7.8050     0.0610 C.ar  1 <1>   0.0000 
 25 C        3.7770    -6.0510    -0.6150 C.ar  1 <1>  -0.1500 
 26 C        3.3770    -8.6370     0.2710 C.ar  1 <1>  -0.1500 
 27 C        4.8510    -6.8740    -0.4050 C.ar  1 <1>  -0.1500 
 28 C        4.6470    -8.1820     0.0440 C.ar  1 <1>  -0.1500 
 29 H        0.4090     1.6670     1.5410 H     1 <1>   0.4500 
 30 H        1.2600    -1.4380     2.0170 H     1 <1>   0.0800 
 31 H        2.5780    -2.4040     1.4190 H     1 <1>   0.0800 
 32 H        0.2800     2.9770    -0.1980 H     1 <1>   0.0800 
 33 H        1.6510     3.6680    -1.0160 H     1 <1>   0.0800 
 34 H        1.7110     3.4450     0.7100 H     1 <1>   0.0800 
 35 H        4.0470     0.2430    -2.3800 H     1 <1>   0.1500 
 36 H        4.4990    -1.9660    -1.9180 H     1 <1>   0.0800 
 37 H        3.0300    -2.8350    -1.5240 H     1 <1>   0.0800 
 38 H        1.2690    -3.2790    -0.2690 H     1 <1>   0.4500 
 39 H        5.0840    -2.0220     0.2330 H     1 <1>   0.4000 
 40 H       -0.4710    -0.9830     0.0540 H     1 <1>   0.0800 
 41 H       -0.2100    -2.0200    -1.3370 H     1 <1>   0.0800 
 42 H        0.7670    -4.5710     1.4890 H     1 <1>   0.0800 
 43 H       -0.1450    -3.2820     2.2560 H     1 <1>   0.0800 
 44 H       -2.3410    -2.8540    -0.7690 H     1 <1>   0.0800 
 45 H       -1.8660    -4.5920     1.2490 H     1 <1>   0.0800 
 46 H       -1.7610    -1.8780     1.8390 H     1 <1>   0.4000 
 47 H       -0.6760    -4.5240    -1.5140 H     1 <1>   0.0800 
 48 H       -1.8210    -5.6240    -0.8420 H     1 <1>   0.0800 
 49 H       -1.0940    -7.6460     0.2030 H     1 <1>   0.1500 
 50 H        0.7570    -9.2400     0.6160 H     1 <1>   0.1500 
 51 H        3.9270    -5.0480    -0.9630 H     1 <1>   0.1500 
 52 H        3.2150    -9.6440     0.6140 H     1 <1>   0.1500 
 53 H        5.8560    -6.5300    -0.5820 H     1 <1>   0.1500 
 54 H        5.5000    -8.8200     0.2050 H     1 <1>   0.1500 
@<TRIPOS>BOND
  1   1   2  1   
  2   1  29  1   
  3   2   3  ar  
  4   2   4  ar  
  5   3   5  ar  
  6   3   6  1   
  7   4   7  ar  
  8   4   8  1   
  9   5   9  ar  
 10   5  10  1   
 11   6  11  1   
 12   6  30  1   
 13   6  31  1   
 14   7   9  ar  
 15   8  32  1   
 16   8  33  1   
 17   8  34  1   
 18   9  35  1   
 19  10  12  1   
 20  10  36  1   
 21  10  37  1   
 22  11  13  1   
 23  11  14  1   
 24  11  38  1   
 25  12  39  1   
 26  13  15  1   
 27  13  40  1   
 28  13  41  1   
 29  14  16  1   
 30  14  42  1   
 31  14  43  1   
 32  15  16  1   
 33  15  17  1   
 34  15  44  1   
 35  16  18  1   
 36  16  45  1   
 37  17  46  1   
 38  18  19  1   
 39  18  47  1   
 40  18  48  1   
 41  19  20  ar  
 42  19  21  ar  
 43  20  22  ar  
 44  21  23  ar  
 45  21  49  1   
 46  22  24  ar  
 47  22  25  ar  
 48  23  24  ar  
 49  23  50  1   
 50  24  26  ar  
 51  25  27  ar  
 52  25  51  1   
 53  26  28  ar  
 54  26  52  1   
 55  27  28  ar  
 56  27  53  1   
 57  28  54  1   
@<TRIPOS>SUBSTRUCTURE
  1 ****  11 GROUP 4 **** **** 0

# MOE 2024.06 (io_trps.svl 2023.06)
