@<TRIPOS>MOLECULE
NONAME
44 46 1 0 0 
SMALL
USER_CHARGES


@<TRIPOS>ATOM
  1 O       -0.0350    -0.1020     0.9260 O.2   1 <1>  -0.5700 
  2 C        1.0000    -0.6230     0.5610 C.2   1 <1>   0.5440 
  3 N        2.0630     0.1440     0.1430 N.am  1 <1>  -0.4940 
  4 C        1.1190    -2.0630     0.5510 C.ar  1 <1>   0.0860 
  5 C        2.3010     1.5390     0.1850 C.2   1 <1>  -0.0880 
  6 C        2.2890    -2.6940     0.9640 C.ar  1 <1>   0.1600 
  7 C        0.0820    -2.8830     0.1300 C.ar  1 <1>  -0.1500 
  8 N        1.4100     2.5580     0.0120 N.pl3 1 <1>   0.3140 
  9 C        3.5090     2.1230     0.3770 C.2   1 <1>  -0.1810 
 10 N        2.5110    -3.9950     0.9580 N.ar  1 <1>  -0.6200 
 11 C        0.2790    -4.2480     0.1230 C.ar  1 <1>  -0.1430 
 12 N        2.0210     3.7620     0.0840 N.2   1 <1>  -0.7070 
 13 C       -0.0170     2.4950    -0.3280 C.3   1 <1>   0.0160 
 14 C        3.2670     3.4920     0.3040 C.2   1 <1>   0.1080 
 15 C        4.8470     1.4470     0.6270 C.3   1 <1>   0.0210 
 16 C        1.5080    -4.7530     0.5390 C.ar  1 <1>   0.1670 
 17 C       -0.8550    -5.1510    -0.3520 C.3   1 <1>  -0.0170 
 18 C        4.2990     4.5850     0.4580 C.3   1 <1>  -0.0590 
 19 C        5.5610     1.1640    -0.6950 C.3   1 <1>  -0.2400 
 20 C        1.7810    -6.2510     0.5620 C.3   1 <1>  -0.0170 
 21 C       -0.6660    -6.6080     0.0840 C.3   1 <1>  -0.1600 
 22 C        0.7570    -7.0760    -0.2300 C.3   1 <1>  -0.1600 
 23 H        2.8660    -0.3860    -0.1930 H     1 <1>   0.3700 
 24 H        3.0940    -2.0800     1.3280 H     1 <1>   0.1500 
 25 H       -0.8520    -2.4470    -0.1830 H     1 <1>   0.1500 
 26 H       -0.1900     1.6640    -0.9850 H     1 <1>   0.0800 
 27 H       -0.3040     3.4070    -0.8150 H     1 <1>   0.0800 
 28 H       -0.5840     2.3740     0.5740 H     1 <1>   0.0800 
 29 H        4.6890     0.5260     1.1590 H     1 <1>   0.0800 
 30 H        5.4600     2.0780     1.2470 H     1 <1>   0.0800 
 31 H       -0.8950    -5.1070    -1.4270 H     1 <1>   0.0800 
 32 H       -1.7940    -4.7890     0.0280 H     1 <1>   0.0800 
 33 H        5.1820     4.3450    -0.1030 H     1 <1>   0.0800 
 34 H        4.5520     4.6980     1.4960 H     1 <1>   0.0800 
 35 H        3.9000     5.5150     0.0950 H     1 <1>   0.0800 
 36 H        4.9590     0.5250    -1.3160 H     1 <1>   0.0800 
 37 H        6.5060     0.6830    -0.5120 H     1 <1>   0.0800 
 38 H        5.7380     2.0840    -1.2250 H     1 <1>   0.0800 
 39 H        1.7750    -6.5680     1.5890 H     1 <1>   0.0800 
 40 H        2.7650    -6.4370     0.1690 H     1 <1>   0.0800 
 41 H       -1.3800    -7.2320    -0.4270 H     1 <1>   0.0800 
 42 H       -0.8470    -6.6920     1.1420 H     1 <1>   0.0800 
 43 H        0.8670    -8.1170     0.0170 H     1 <1>   0.0800 
 44 H        0.9470    -6.9620    -1.2840 H     1 <1>   0.0800 
@<TRIPOS>BOND
  1   1   2  2   
  2   2   3  am  
  3   2   4  1   
  4   3   5  1   
  5   3  23  1   
  6   4   6  ar  
  7   4   7  ar  
  8   5   8  1   
  9   5   9  2   
 10   6  10  ar  
 11   6  24  1   
 12   7  11  ar  
 13   7  25  1   
 14   8  12  1   
 15   8  13  1   
 16   9  14  1   
 17   9  15  1   
 18  10  16  ar  
 19  11  16  ar  
 20  11  17  1   
 21  12  14  2   
 22  13  26  1   
 23  13  27  1   
 24  13  28  1   
 25  14  18  1   
 26  15  19  1   
 27  15  29  1   
 28  15  30  1   
 29  16  20  1   
 30  17  21  1   
 31  17  31  1   
 32  17  32  1   
 33  18  33  1   
 34  18  34  1   
 35  18  35  1   
 36  19  36  1   
 37  19  37  1   
 38  19  38  1   
 39  20  22  1   
 40  20  39  1   
 41  20  40  1   
 42  21  22  1   
 43  21  41  1   
 44  21  42  1   
 45  22  43  1   
 46  22  44  1   
@<TRIPOS>SUBSTRUCTURE
  1 ****   2 GROUP 4 **** **** 0

# MOE 2024.06 (io_trps.svl 2023.06)
