@<TRIPOS>MOLECULE
NONAME
48 50 1 0 0 
SMALL
USER_CHARGES


@<TRIPOS>ATOM
  1 O       -2.5910     0.6680    -2.4210 O.2   1 <1>  -0.5700 
  2 C       -2.1800     0.7990    -1.2850 C.2   1 <1>   0.5440 
  3 N       -1.8810    -0.3270    -0.5740 N.am  1 <1>  -0.7300 
  4 C       -2.0760     2.1070    -0.6930 C.ar  1 <1>   0.0860 
  5 C       -1.9870    -1.7170    -1.0810 C.3   1 <1>   0.2200 
  6 C       -0.9920     2.5770     0.0390 C.ar  1 <1>   0.1660 
  7 C       -3.1240     2.9990    -0.8260 C.ar  1 <1>   0.1600 
  8 C       -3.2370    -2.4050    -0.5460 C.3   1 <1>  -0.0800 
  9 C       -0.9050    -2.5590    -0.4200 C.3   1 <1>   0.1200 
 10 N       -0.9890     3.7590     0.6030 N.ar  1 <1>  -0.6200 
 11 C        0.2780     1.7650     0.2330 C.3   1 <1>  -0.0960 
 12 N       -3.1410     4.1870    -0.2780 N.ar  1 <1>  -0.6200 
 13 C       -2.7910    -2.9120     0.8300 C.3   1 <1>   0.1200 
 14 C       -4.5190    -1.5510    -0.5240 C.3   1 <1>  -0.0170 
 15 O       -1.3940    -2.8320     0.8580 O.3   1 <1>  -0.5600 
 16 C       -2.0640     4.5270     0.4300 C.ar  1 <1>   0.7200 
 17 C       -5.7080    -2.3640    -0.0390 C.ar  1 <1>  -0.1440 
 18 N       -2.0620     5.7670     1.0250 N.pl3 1 <1>  -0.8380 
 19 C       -6.1800    -2.2720     1.2550 C.ar  1 <1>  -0.1500 
 20 C       -6.3780    -3.2370    -0.8710 C.ar  1 <1>  -0.1500 
 21 C       -3.0650     6.8160     0.6860 C.3   1 <1>   0.1290 
 22 C       -1.0370     6.1700     2.0280 C.3   1 <1>   0.1290 
 23 C       -7.2640    -3.0400     1.6450 C.ar  1 <1>   0.1600 
 24 C       -7.4540    -3.9600    -0.3820 C.ar  1 <1>   0.1600 
 25 N       -7.9110    -3.8840     0.8570 N.ar  1 <1>  -0.6200 
 26 H       -1.6450    -0.2730     0.4200 H     1 <1>   0.3700 
 27 H       -1.9250    -1.7390    -2.1560 H     1 <1>   0.0800 
 28 H       -3.9810     2.7040    -1.4080 H     1 <1>   0.1500 
 29 H       -3.4230    -3.2680    -1.1600 H     1 <1>   0.0800 
 30 H        0.0390    -2.0480    -0.3490 H     1 <1>   0.0800 
 31 H       -0.7800    -3.4960    -0.9340 H     1 <1>   0.0800 
 32 H        0.4730     1.1400    -0.6190 H     1 <1>   0.0800 
 33 H        0.1920     1.1560     1.1130 H     1 <1>   0.0800 
 34 H        1.1180     2.4250     0.3570 H     1 <1>   0.0800 
 35 H       -3.0870    -3.9350     0.9920 H     1 <1>   0.0800 
 36 H       -3.1680    -2.2950     1.6270 H     1 <1>   0.0800 
 37 H       -4.7200    -1.1840    -1.5160 H     1 <1>   0.0800 
 38 H       -4.3920    -0.6960     0.1160 H     1 <1>   0.0800 
 39 H       -5.7170    -1.6110     1.9650 H     1 <1>   0.1500 
 40 H       -6.0760    -3.3620    -1.8950 H     1 <1>   0.1500 
 41 H       -2.6150     7.7910     0.7440 H     1 <1>   0.0800 
 42 H       -3.8880     6.7620     1.3760 H     1 <1>   0.0800 
 43 H       -3.4380     6.6780    -0.3140 H     1 <1>   0.0800 
 44 H       -1.4720     6.8340     2.7540 H     1 <1>   0.0800 
 45 H       -0.2240     6.6690     1.5310 H     1 <1>   0.0800 
 46 H       -0.6530     5.3090     2.5480 H     1 <1>   0.0800 
 47 H       -7.6190    -2.9560     2.6580 H     1 <1>   0.1500 
 48 H       -7.9640    -4.6370    -1.0450 H     1 <1>   0.1500 
@<TRIPOS>BOND
  1   1   2  2   
  2   2   3  am  
  3   2   4  1   
  4   3   5  1   
  5   3  26  1   
  6   4   6  ar  
  7   4   7  ar  
  8   5   8  1   
  9   5   9  1   
 10   5  27  1   
 11   6  10  ar  
 12   6  11  1   
 13   7  12  ar  
 14   7  28  1   
 15   8  13  1   
 16   8  14  1   
 17   8  29  1   
 18   9  15  1   
 19   9  30  1   
 20   9  31  1   
 21  10  16  ar  
 22  11  32  1   
 23  11  33  1   
 24  11  34  1   
 25  12  16  ar  
 26  13  15  1   
 27  13  35  1   
 28  13  36  1   
 29  14  17  1   
 30  14  37  1   
 31  14  38  1   
 32  16  18  1   
 33  17  19  ar  
 34  17  20  ar  
 35  18  21  1   
 36  18  22  1   
 37  19  23  ar  
 38  19  39  1   
 39  20  24  ar  
 40  20  40  1   
 41  21  41  1   
 42  21  42  1   
 43  21  43  1   
 44  22  44  1   
 45  22  45  1   
 46  22  46  1   
 47  23  25  ar  
 48  23  47  1   
 49  24  25  ar  
 50  24  48  1   
@<TRIPOS>SUBSTRUCTURE
  1 ****   3 GROUP 4 **** **** 0

# MOE 2024.06 (io_trps.svl 2023.06)
