@<TRIPOS>MOLECULE
NONAME
39 41 1 0 0 
SMALL
USER_CHARGES


@<TRIPOS>ATOM
  1 O       -0.0540     1.5040    -2.0350 O.2   1 <1>  -0.5700 
  2 C       -0.5660     2.0730    -1.0820 C.2   1 <1>   0.6160 
  3 N       -1.7550     1.6430    -0.5180 N.am  1 <1>  -0.4200 
  4 C        0.0160     3.2150    -0.4990 C.2   1 <1>  -0.1240 
  5 C       -2.2910     2.3540     0.5460 C.2   1 <1>   0.4490 
  6 C       -2.4320     0.4300    -1.0690 C.3   1 <1>   0.0600 
  7 C       -0.5750     3.8290     0.5260 C.2   1 <1>   0.0330 
  8 C        1.2960     3.8810    -0.9020 C.3   1 <1>   0.3470 
  9 N       -1.7520     3.4050     1.0680 N.2   1 <1>  -0.6210 
 10 C       -3.5990     1.8840     1.1530 C.3   1 <1>  -0.1790 
 11 C        0.2230     5.0240     0.9850 C.3   1 <1>   0.3470 
 12 N        1.3720     5.0760     0.0150 N.pl3 1 <1>  -0.8380 
 13 C        2.5880     5.4840     0.5340 C.ar  1 <1>   0.4100 
 14 N        3.3670     4.4800     0.9360 N.ar  1 <1>  -0.6200 
 15 C        2.9410     6.8490     0.6580 C.ar  1 <1>   0.0860 
 16 C        4.5210     4.7970     1.4830 C.ar  1 <1>   0.1600 
 17 C        2.1070     7.9470     0.2050 C.2   1 <1>   0.5440 
 18 C        4.1690     7.1320     1.2480 C.ar  1 <1>  -0.1500 
 19 C        4.9660     6.0920     1.6640 C.ar  1 <1>  -0.1500 
 20 O        2.2750     9.0710     0.6450 O.2   1 <1>  -0.5700 
 21 N        1.1270     7.7730    -0.7310 N.am  1 <1>  -0.7300 
 22 C        0.2170     8.8090    -1.2770 C.3   1 <1>   0.0600 
 23 H       -1.8510    -0.0210    -1.8540 H     1 <1>   0.0800 
 24 H       -3.3910     0.7030    -1.4730 H     1 <1>   0.0800 
 25 H       -2.5640    -0.2990    -0.2900 H     1 <1>   0.0800 
 26 H        1.2510     4.2010    -1.9280 H     1 <1>   0.0800 
 27 H        2.1260     3.2080    -0.7700 H     1 <1>   0.0800 
 28 H       -4.3750     1.8870     0.4110 H     1 <1>   0.0800 
 29 H       -3.8930     2.5420     1.9510 H     1 <1>   0.0800 
 30 H       -3.4850     0.8960     1.5580 H     1 <1>   0.0800 
 31 H        0.5730     4.8780     1.9920 H     1 <1>   0.0800 
 32 H       -0.3680     5.9210     0.9220 H     1 <1>   0.0800 
 33 H        5.1490     3.9840     1.8080 H     1 <1>   0.1500 
 34 H        4.4900     8.1530     1.3740 H     1 <1>   0.1500 
 35 H        5.9210     6.2790     2.1220 H     1 <1>   0.1500 
 36 H        0.9320     6.7930    -0.9830 H     1 <1>   0.3700 
 37 H        0.5110     9.7860    -0.9310 H     1 <1>   0.0800 
 38 H       -0.7910     8.6140    -0.9560 H     1 <1>   0.0800 
 39 H        0.2570     8.7950    -2.3520 H     1 <1>   0.0800 
@<TRIPOS>BOND
  1   1   2  2   
  2   2   3  am  
  3   2   4  1   
  4   3   5  1   
  5   3   6  1   
  6   4   7  2   
  7   4   8  1   
  8   5   9  2   
  9   5  10  1   
 10   6  23  1   
 11   6  24  1   
 12   6  25  1   
 13   7   9  1   
 14   7  11  1   
 15   8  12  1   
 16   8  26  1   
 17   8  27  1   
 18  10  28  1   
 19  10  29  1   
 20  10  30  1   
 21  11  12  1   
 22  11  31  1   
 23  11  32  1   
 24  12  13  1   
 25  13  14  ar  
 26  13  15  ar  
 27  14  16  ar  
 28  15  17  1   
 29  15  18  ar  
 30  16  19  ar  
 31  16  33  1   
 32  17  20  2   
 33  17  21  am  
 34  18  19  ar  
 35  18  34  1   
 36  19  35  1   
 37  21  22  1   
 38  21  36  1   
 39  22  37  1   
 40  22  38  1   
 41  22  39  1   
@<TRIPOS>SUBSTRUCTURE
  1 ****  12 GROUP 4 **** **** 0

# MOE 2024.06 (io_trps.svl 2023.06)
