@<TRIPOS>MOLECULE
NONAME
54 55 1 0 0 
SMALL
USER_CHARGES


@<TRIPOS>ATOM
  1 S        1.9880     1.9600    -0.3890 S.o2  1 <1>   1.3330 
  2 O        1.3480     2.7070    -1.4450 O.2   1 <1>  -0.6500 
  3 O        2.9370     2.6520     0.4570 O.2   1 <1>  -0.6500 
  4 N        2.7010     0.5630    -1.0230 N.am  1 <1>  -0.8490 
  5 C        0.7000     1.3320     0.6980 C.3   1 <1>  -0.0550 
  6 C        4.1210     0.7440    -1.3470 C.3   1 <1>   0.1160 
  7 C        1.9930     0.0190    -2.1890 C.3   1 <1>   0.1160 
  8 C       -0.1010     2.3870     1.5100 C.3   1 <1>  -0.0800 
  9 C       -0.7950     3.4380     0.6350 C.3   1 <1>   0.2000 
 10 C        0.7690     3.2250     2.4530 C.3   1 <1>   0.3430 
 11 O       -1.9910     3.7890     1.2480 O.3   1 <1>  -0.6800 
 12 C        0.1430     4.6570     0.6060 C.3   1 <1>   0.3430 
 13 N        1.1860     4.4040     1.6560 N.4   1 <1>  -0.9590 
 14 C        1.5960     5.6050     2.4270 C.3   1 <1>   0.4860 
 15 C        2.0410     6.6740     1.4480 C.ar  1 <1>  -0.1440 
 16 C        3.0330     6.4010     0.5160 C.ar  1 <1>  -0.1500 
 17 C        1.4480     7.9260     1.4560 C.ar  1 <1>  -0.1500 
 18 C        3.4140     7.3470    -0.4200 C.ar  1 <1>  -0.1440 
 19 C        1.8320     8.8850     0.5370 C.ar  1 <1>  -0.1500 
 20 C        2.8130     8.6030    -0.4110 C.ar  1 <1>   0.0820 
 21 C        4.4750     6.9500    -1.4420 C.3   1 <1>   0.1220 
 22 O        3.2130     9.5100    -1.3400 O.3   1 <1>  -0.3620 
 23 C        3.9400     5.8260    -2.3150 C.2   1 <1>  -0.2880 
 24 C        2.6580    10.8050    -1.4140 C.3   1 <1>   0.0400 
 25 C        4.4280     4.5830    -2.3740 C.2   1 <1>  -0.3000 
 26 H        0.0040     0.7680     0.1070 H     1 <1>   0.0800 
 27 H        1.1490     0.6420     1.3870 H     1 <1>   0.0800 
 28 H        4.5420    -0.1800    -1.7050 H     1 <1>   0.0800 
 29 H        4.6680     1.0410    -0.4680 H     1 <1>   0.0800 
 30 H        4.2400     1.5020    -2.1030 H     1 <1>   0.0800 
 31 H        2.4420    -0.9120    -2.4940 H     1 <1>   0.0800 
 32 H        2.0330     0.7130    -3.0130 H     1 <1>   0.0800 
 33 H        0.9610    -0.1690    -1.9460 H     1 <1>   0.0800 
 34 H       -0.8290     1.8420     2.0880 H     1 <1>   0.0800 
 35 H       -1.0310     3.0870    -0.3570 H     1 <1>   0.0800 
 36 H        1.6230     2.6700     2.8110 H     1 <1>   0.0800 
 37 H        0.1760     3.5470     3.2930 H     1 <1>   0.0800 
 38 H       -1.8780     4.1460     2.1490 H     1 <1>   0.4000 
 39 H       -0.4110     5.5600     0.8010 H     1 <1>   0.0800 
 40 H        0.6170     4.7400    -0.3610 H     1 <1>   0.0800 
 41 H        2.0420     4.1130     1.1380 H     1 <1>   0.4500 
 42 H        0.7710     5.9700     3.0160 H     1 <1>   0.0800 
 43 H        2.4130     5.3620     3.0870 H     1 <1>   0.0800 
 44 H        3.5190     5.4400     0.4960 H     1 <1>   0.1500 
 45 H        0.6820     8.1710     2.1720 H     1 <1>   0.1500 
 46 H        1.3560     9.8470     0.5710 H     1 <1>   0.1500 
 47 H        4.7590     7.7770    -2.0680 H     1 <1>   0.0800 
 48 H        5.3580     6.6240    -0.9230 H     1 <1>   0.0800 
 49 H        3.0930     6.1430    -2.9020 H     1 <1>   0.1500 
 50 H        3.1330    11.3250    -2.2260 H     1 <1>   0.0800 
 51 H        2.8490    11.3200    -0.4890 H     1 <1>   0.0800 
 52 H        1.6020    10.7230    -1.6020 H     1 <1>   0.0800 
 53 H        4.0160     3.8150    -3.0060 H     1 <1>   0.1500 
 54 H        5.2700     4.2320    -1.8040 H     1 <1>   0.1500 
@<TRIPOS>BOND
  1   1   2  2   
  2   1   3  2   
  3   1   4  am  
  4   1   5  1   
  5   4   6  1   
  6   4   7  1   
  7   5   8  1   
  8   5  26  1   
  9   5  27  1   
 10   6  28  1   
 11   6  29  1   
 12   6  30  1   
 13   7  31  1   
 14   7  32  1   
 15   7  33  1   
 16   8   9  1   
 17   8  10  1   
 18   8  34  1   
 19   9  11  1   
 20   9  12  1   
 21   9  35  1   
 22  10  13  1   
 23  10  36  1   
 24  10  37  1   
 25  11  38  1   
 26  12  13  1   
 27  12  39  1   
 28  12  40  1   
 29  13  14  1   
 30  13  41  1   
 31  14  15  1   
 32  14  42  1   
 33  14  43  1   
 34  15  16  ar  
 35  15  17  ar  
 36  16  18  ar  
 37  16  44  1   
 38  17  19  ar  
 39  17  45  1   
 40  18  20  ar  
 41  18  21  1   
 42  19  20  ar  
 43  19  46  1   
 44  20  22  1   
 45  21  23  1   
 46  21  47  1   
 47  21  48  1   
 48  22  24  1   
 49  23  25  2   
 50  23  49  1   
 51  24  50  1   
 52  24  51  1   
 53  24  52  1   
 54  25  53  1   
 55  25  54  1   
@<TRIPOS>SUBSTRUCTURE
  1 ****  13 GROUP 4 **** **** 0

# MOE 2024.06 (io_trps.svl 2023.06)
