@<TRIPOS>MOLECULE
NONAME
57 60 1 0 0 
SMALL
USER_CHARGES


@<TRIPOS>ATOM
  1 O        0.2840     0.9400     0.0220 O.2   1 <1>  -0.5700 
  2 C        0.1760     2.1380     0.0760 C.2   1 <1>   0.5690 
  3 N       -0.8700     2.7110     0.7040 N.am  1 <1>  -0.7300 
  4 C        1.2150     3.0300    -0.6080 C.3   1 <1>   0.1810 
  5 C       -1.0660     4.1740     0.8200 C.3   1 <1>   0.3640 
  6 O        1.1990     4.3690    -0.1490 O.3   1 <1>  -0.5600 
  7 C       -2.5150     4.5040     0.4690 C.ar  1 <1>  -0.1440 
  8 C       -0.0940     4.9650    -0.1000 C.3   1 <1>   0.2610 
  9 C       -3.2280     5.3950     1.2580 C.ar  1 <1>  -0.1500 
 10 C       -3.1390     3.9380    -0.6370 C.ar  1 <1>  -0.1500 
 11 C        0.0260     6.4400     0.3270 C.2   1 <1>   0.5690 
 12 C       -4.5380     5.7180     0.9480 C.ar  1 <1>  -0.1500 
 13 C       -4.4490     4.2590    -0.9470 C.ar  1 <1>  -0.1500 
 14 O       -0.3320     6.7660     1.4360 O.2   1 <1>  -0.5700 
 15 N        0.5890     7.3820    -0.5090 N.am  1 <1>  -0.6600 
 16 C       -5.1490     5.1500    -0.1550 C.ar  1 <1>  -0.1500 
 17 C        0.7500     8.7920    -0.0440 C.3   1 <1>   0.1400 
 18 C        1.5220     7.0470    -1.6230 C.3   1 <1>   0.1400 
 19 C        2.1890     8.9950     0.4650 C.3   1 <1>   0.3430 
 20 C        2.9740     7.2280    -1.1330 C.3   1 <1>   0.3430 
 21 N        3.2230     8.6100    -0.5730 N.4   1 <1>  -0.9590 
 22 C        4.6090     8.7100    -0.0320 C.3   1 <1>   0.3430 
 23 C        5.0080    10.1730     0.2120 C.3   1 <1>  -0.0800 
 24 C        4.8700    11.0820    -1.0130 C.3   1 <1>  -0.1600 
 25 C        6.4830    10.3100     0.5870 C.3   1 <1>  -0.1600 
 26 C        5.8140    12.2560    -0.7440 C.3   1 <1>  -0.1600 
 27 C        6.8240    11.7720     0.3020 C.3   1 <1>  -0.1600 
 28 H       -1.5700     2.1130     1.1470 H     1 <1>   0.3700 
 29 H        1.0360     3.0300    -1.6670 H     1 <1>   0.0800 
 30 H        2.1960     2.6310    -0.4230 H     1 <1>   0.0800 
 31 H       -0.8820     4.4420     1.8470 H     1 <1>   0.0800 
 32 H       -0.4930     4.9490    -1.0970 H     1 <1>   0.0800 
 33 H       -2.7690     5.8500     2.1200 H     1 <1>   0.1500 
 34 H       -2.6130     3.2390    -1.2650 H     1 <1>   0.1500 
 35 H       -5.0810     6.4110     1.5670 H     1 <1>   0.1500 
 36 H       -4.9250     3.8150    -1.8040 H     1 <1>   0.1500 
 37 H       -6.1680     5.4010    -0.3950 H     1 <1>   0.1500 
 38 H        0.5430     9.4680    -0.8550 H     1 <1>   0.0800 
 39 H        0.0540     9.0160     0.7470 H     1 <1>   0.0800 
 40 H        1.3800     6.0380    -1.9650 H     1 <1>   0.0800 
 41 H        1.3320     7.6980    -2.4590 H     1 <1>   0.0800 
 42 H        2.3180     8.3900     1.3480 H     1 <1>   0.0800 
 43 H        2.3180    10.0260     0.7500 H     1 <1>   0.0800 
 44 H        3.6490     7.0370    -1.9500 H     1 <1>   0.0800 
 45 H        3.1620     6.4890    -0.3700 H     1 <1>   0.0800 
 46 H        3.1510     9.2830    -1.3460 H     1 <1>   0.4500 
 47 H        4.6910     8.1520     0.8880 H     1 <1>   0.0800 
 48 H        5.3010     8.2850    -0.7410 H     1 <1>   0.0800 
 49 H        4.4320    10.5840     1.0230 H     1 <1>   0.0800 
 50 H        5.2080    10.5670    -1.8960 H     1 <1>   0.0800 
 51 H        3.8610    11.4260    -1.1620 H     1 <1>   0.0800 
 52 H        6.6710    10.0530     1.6160 H     1 <1>   0.0800 
 53 H        7.0890     9.6840    -0.0470 H     1 <1>   0.0800 
 54 H        6.3100    12.5660    -1.6490 H     1 <1>   0.0800 
 55 H        5.2640    13.0950    -0.3510 H     1 <1>   0.0800 
 56 H        6.7160    12.3550     1.2020 H     1 <1>   0.0800 
 57 H        7.8370    11.8730    -0.0510 H     1 <1>   0.0800 
@<TRIPOS>BOND
  1   1   2  2   
  2   2   3  am  
  3   2   4  1   
  4   3   5  1   
  5   3  28  1   
  6   4   6  1   
  7   4  29  1   
  8   4  30  1   
  9   5   7  1   
 10   5   8  1   
 11   5  31  1   
 12   6   8  1   
 13   7   9  ar  
 14   7  10  ar  
 15   8  11  1   
 16   8  32  1   
 17   9  12  ar  
 18   9  33  1   
 19  10  13  ar  
 20  10  34  1   
 21  11  14  2   
 22  11  15  am  
 23  12  16  ar  
 24  12  35  1   
 25  13  16  ar  
 26  13  36  1   
 27  15  17  1   
 28  15  18  1   
 29  16  37  1   
 30  17  19  1   
 31  17  38  1   
 32  17  39  1   
 33  18  20  1   
 34  18  40  1   
 35  18  41  1   
 36  19  21  1   
 37  19  42  1   
 38  19  43  1   
 39  20  21  1   
 40  20  44  1   
 41  20  45  1   
 42  21  22  1   
 43  21  46  1   
 44  22  23  1   
 45  22  47  1   
 46  22  48  1   
 47  23  24  1   
 48  23  25  1   
 49  23  49  1   
 50  24  26  1   
 51  24  50  1   
 52  24  51  1   
 53  25  27  1   
 54  25  52  1   
 55  25  53  1   
 56  26  27  1   
 57  26  54  1   
 58  26  55  1   
 59  27  56  1   
 60  27  57  1   
@<TRIPOS>SUBSTRUCTURE
  1 ****  11 GROUP 4 **** **** 0

# MOE 2024.06 (io_trps.svl 2023.06)
