@<TRIPOS>MOLECULE
NONAME
40 42 1 0 0 
SMALL
USER_CHARGES


@<TRIPOS>ATOM
  1 O       -0.7790     2.0250    -1.4870 O.2   1 <1>  -0.5700 
  2 C       -0.3510     2.4790    -0.4450 C.2   1 <1>   0.6160 
  3 N        0.9770     2.8190    -0.3720 N.am  1 <1>  -0.6600 
  4 C       -1.2180     2.5910     0.7040 C.2   1 <1>  -0.1360 
  5 C        1.5240     4.1710    -0.0550 C.3   1 <1>   0.2200 
  6 C        1.9800     1.9370    -1.0430 C.3   1 <1>   0.1400 
  7 C       -2.5600     2.4920     0.7380 C.2   1 <1>  -0.3000 
  8 C        2.7220     4.0050     0.8930 C.3   1 <1>  -0.1600 
  9 C        0.4990     5.1490     0.5250 C.3   1 <1>  -0.2400 
 10 C        3.1980     1.7330    -0.1280 C.3   1 <1>   0.2890 
 11 C        3.7980     3.0790     0.2950 C.3   1 <1>  -0.1600 
 12 N        4.2400     0.9560    -0.8240 N.pl3 1 <1>  -0.8690 
 13 C        4.7260    -0.2310    -0.3640 C.ar  1 <1>   0.4100 
 14 N        6.0230    -0.3590    -0.4710 N.ar  1 <1>  -0.6200 
 15 C        3.9330    -1.2530     0.1850 C.ar  1 <1>   0.0000 
 16 C        6.5430    -1.5040    -0.0070 C.ar  1 <1>   0.4700 
 17 C        4.6040    -2.3730     0.6270 C.ar  1 <1>   0.1050 
 18 C        2.5600    -1.5020     0.4310 C.2   1 <1>  -0.1500 
 19 N        5.9280    -2.5210     0.5420 N.ar  1 <1>  -0.5670 
 20 N        3.7100    -3.2650     1.1340 N.pl3 1 <1>   0.0330 
 21 C        2.4580    -2.7240     1.0080 C.2   1 <1>  -0.3020 
 22 H       -0.6790     2.7620     1.6140 H     1 <1>   0.1500 
 23 H        1.8820     4.5970    -0.9780 H     1 <1>   0.0800 
 24 H        2.2890     2.3940    -1.9660 H     1 <1>   0.0800 
 25 H        1.5380     0.9820    -1.2700 H     1 <1>   0.0800 
 26 H       -3.1530     2.5800     1.6310 H     1 <1>   0.1500 
 27 H       -3.1590     2.3130    -0.1390 H     1 <1>   0.1500 
 28 H        2.3780     3.6030     1.8310 H     1 <1>   0.0800 
 29 H        3.1580     4.9680     1.0920 H     1 <1>   0.0800 
 30 H        0.1810     4.8490     1.5050 H     1 <1>   0.0800 
 31 H       -0.3520     5.2360    -0.1280 H     1 <1>   0.0800 
 32 H        0.9450     6.1230     0.6100 H     1 <1>   0.0800 
 33 H        2.8790     1.2030     0.7540 H     1 <1>   0.0800 
 34 H        4.5730     2.9110     1.0220 H     1 <1>   0.0800 
 35 H        4.2310     3.5610    -0.5640 H     1 <1>   0.0800 
 36 H        4.9750     1.5320    -1.2370 H     1 <1>   0.4000 
 37 H        7.6130    -1.5870    -0.1020 H     1 <1>   0.1500 
 38 H        1.7620    -0.8250     0.1840 H     1 <1>   0.1500 
 39 H        3.9680    -4.1770     1.5200 H     1 <1>   0.2700 
 40 H        1.5740    -3.2460     1.3330 H     1 <1>   0.1500 
@<TRIPOS>BOND
  1   1   2  2   
  2   2   3  am  
  3   2   4  1   
  4   3   5  1   
  5   3   6  1   
  6   4   7  2   
  7   4  22  1   
  8   5   8  1   
  9   5   9  1   
 10   5  23  1   
 11   6  10  1   
 12   6  24  1   
 13   6  25  1   
 14   7  26  1   
 15   7  27  1   
 16   8  11  1   
 17   8  28  1   
 18   8  29  1   
 19   9  30  1   
 20   9  31  1   
 21   9  32  1   
 22  10  11  1   
 23  10  12  1   
 24  10  33  1   
 25  11  34  1   
 26  11  35  1   
 27  12  13  1   
 28  12  36  1   
 29  13  14  ar  
 30  13  15  ar  
 31  14  16  ar  
 32  15  17  ar  
 33  15  18  1   
 34  16  19  ar  
 35  16  37  1   
 36  17  19  ar  
 37  17  20  1   
 38  18  21  2   
 39  18  38  1   
 40  20  21  1   
 41  20  39  1   
 42  21  40  1   
@<TRIPOS>SUBSTRUCTURE
  1 ****  10 GROUP 4 **** **** 0

# MOE 2024.06 (io_trps.svl 2023.06)
