@<TRIPOS>MOLECULE
NONAME
48 49 1 0 0 
SMALL
USER_CHARGES


@<TRIPOS>ATOM
  1 O        3.8180     0.8320     0.8560 O.2   1 <1>  -0.5700 
  2 C        2.9130     0.2210     0.3220 C.2   1 <1>   0.5440 
  3 N        1.9720     0.9340    -0.3700 N.am  1 <1>  -0.7300 
  4 C        2.8250    -1.2270     0.4220 C.ar  1 <1>   0.0860 
  5 C        1.9500     2.4110    -0.4760 C.3   1 <1>   0.1400 
  6 C        3.3570    -1.9000     1.5220 C.ar  1 <1>  -0.1500 
  7 C        2.2140    -2.0030    -0.5650 C.ar  1 <1>  -0.1500 
  8 C        2.8580     2.8550    -1.6180 C.3   1 <1>  -0.0990 
  9 C        3.2710    -3.2760     1.6410 C.ar  1 <1>  -0.1500 
 10 C        2.1250    -3.3790    -0.4510 C.ar  1 <1>  -0.1500 
 11 C        2.9460     4.3600    -1.6340 C.2   1 <1>   0.5690 
 12 C        2.6510    -4.0240     0.6550 C.ar  1 <1>  -0.1430 
 13 O        2.0810     4.9930    -2.1860 O.2   1 <1>  -0.5700 
 14 N        3.9860     4.9570    -1.0110 N.am  1 <1>  -0.7300 
 15 C        2.5570    -5.5340     0.7830 C.3   1 <1>  -0.0970 
 16 C        4.2050     6.4080    -0.9610 C.3   1 <1>   0.3210 
 17 C        5.6890     6.6430    -0.7960 C.2   1 <1>  -0.1810 
 18 C        6.6420     6.5840    -1.8060 C.2   1 <1>   0.1390 
 19 C        6.3920     6.9410     0.3180 C.2   1 <1>  -0.3020 
 20 N        7.8390     6.8250    -1.3660 N.2   1 <1>  -0.7070 
 21 N        7.6860     7.0440    -0.0470 N.pl3 1 <1>   0.3140 
 22 C        8.8300     7.3480     0.8330 C.3   1 <1>   0.0960 
 23 C        9.3030     6.0870     1.5710 C.3   1 <1>  -0.1600 
 24 C       10.4900     6.3900     2.4910 C.3   1 <1>  -0.2400 
 25 H        1.1600     0.4460    -0.7510 H     1 <1>   0.3700 
 26 H        2.2980     2.8380     0.4510 H     1 <1>   0.0800 
 27 H        0.9420     2.7510    -0.6480 H     1 <1>   0.0800 
 28 H        3.8440    -1.3300     2.2940 H     1 <1>   0.1500 
 29 H        1.8090    -1.5290    -1.4400 H     1 <1>   0.1500 
 30 H        2.4600     2.5180    -2.5570 H     1 <1>   0.0800 
 31 H        3.8420     2.4420    -1.4870 H     1 <1>   0.0800 
 32 H        3.6920    -3.7610     2.5040 H     1 <1>   0.1500 
 33 H        1.6480    -3.9490    -1.2290 H     1 <1>   0.1500 
 34 H        4.7070     4.4030    -0.5430 H     1 <1>   0.3700 
 35 H        2.5020    -5.8210     1.8180 H     1 <1>   0.0800 
 36 H        3.4240    -5.9910     0.3420 H     1 <1>   0.0800 
 37 H        1.6780    -5.9010     0.2840 H     1 <1>   0.0800 
 38 H        3.6700     6.8200    -0.1230 H     1 <1>   0.0800 
 39 H        3.8470     6.8710    -1.8650 H     1 <1>   0.0800 
 40 H        6.4240     6.3630    -2.8370 H     1 <1>   0.1500 
 41 H        6.0570     7.0790     1.3290 H     1 <1>   0.1500 
 42 H        8.5280     8.1030     1.5350 H     1 <1>   0.0800 
 43 H        9.6250     7.7400     0.2250 H     1 <1>   0.0800 
 44 H        9.5970     5.3460     0.8460 H     1 <1>   0.0800 
 45 H        8.4930     5.6870     2.1570 H     1 <1>   0.0800 
 46 H       11.3210     6.7700     1.9220 H     1 <1>   0.0800 
 47 H       10.8050     5.4910     2.9920 H     1 <1>   0.0800 
 48 H       10.2170     7.1170     3.2360 H     1 <1>   0.0800 
@<TRIPOS>BOND
  1   1   2  2   
  2   2   3  am  
  3   2   4  1   
  4   3   5  1   
  5   3  25  1   
  6   4   6  ar  
  7   4   7  ar  
  8   5   8  1   
  9   5  26  1   
 10   5  27  1   
 11   6   9  ar  
 12   6  28  1   
 13   7  10  ar  
 14   7  29  1   
 15   8  11  1   
 16   8  30  1   
 17   8  31  1   
 18   9  12  ar  
 19   9  32  1   
 20  10  12  ar  
 21  10  33  1   
 22  11  13  2   
 23  11  14  am  
 24  12  15  1   
 25  14  16  1   
 26  14  34  1   
 27  15  35  1   
 28  15  36  1   
 29  15  37  1   
 30  16  17  1   
 31  16  38  1   
 32  16  39  1   
 33  17  18  1   
 34  17  19  2   
 35  18  20  2   
 36  18  40  1   
 37  19  21  1   
 38  19  41  1   
 39  20  21  1   
 40  21  22  1   
 41  22  23  1   
 42  22  42  1   
 43  22  43  1   
 44  23  24  1   
 45  23  44  1   
 46  23  45  1   
 47  24  46  1   
 48  24  47  1   
 49  24  48  1   
@<TRIPOS>SUBSTRUCTURE
  1 ****   1 GROUP 4 **** **** 0

# MOE 2024.06 (io_trps.svl 2023.06)
