@<TRIPOS>MOLECULE
NONAME
50 54 1 0 0 
SMALL
USER_CHARGES


@<TRIPOS>ATOM
  1 O       -0.3730     5.2760     1.2140 O.2   1 <1>  -0.5700 
  2 C       -0.2190     4.2280     0.6130 C.2   1 <1>   0.5440 
  3 N       -1.3180     3.4270     0.3800 N.am  1 <1>  -0.6600 
  4 C        1.0960     3.8950     0.1040 C.ar  1 <1>   0.0860 
  5 C       -2.6490     3.7170     0.9910 C.3   1 <1>   0.1400 
  6 C       -1.3090     2.3000    -0.6010 C.3   1 <1>   0.1400 
  7 C        1.7820     2.7380     0.4850 C.ar  1 <1>   0.0820 
  8 C        1.7180     4.7510    -0.8070 C.ar  1 <1>  -0.1500 
  9 C       -3.6610     4.1550    -0.0910 C.3   1 <1>   0.1440 
 10 C       -2.7020     2.0620    -1.2110 C.3   1 <1>  -0.1600 
 11 O        1.2150     1.8820     1.3740 O.3   1 <1>  -0.3630 
 12 C        3.0470     2.4610    -0.0420 C.ar  1 <1>   0.0820 
 13 C        2.9630     4.4690    -1.3370 C.ar  1 <1>  -0.1500 
 14 C       -5.0550     3.9690     0.4860 C.ar  1 <1>   0.1670 
 15 C       -3.4550     3.3860    -1.4250 C.3   1 <1>  -0.1600 
 16 C       -3.6090     5.6880    -0.3160 C.3   1 <1>  -0.1600 
 17 C        1.7980     0.6060     1.5510 C.3   1 <1>   0.1200 
 18 O        3.7410     1.3570     0.3340 O.3   1 <1>  -0.3630 
 19 C        3.6290     3.3180    -0.9560 C.ar  1 <1>  -0.1500 
 20 N       -5.6820     2.8200     0.6250 N.ar  1 <1>  -0.6200 
 21 C       -5.6000     5.1580     0.8710 C.ar  1 <1>  -0.1430 
 22 C       -4.6640     6.3120     0.6120 C.3   1 <1>  -0.0170 
 23 C        3.3260     0.7150     1.5230 C.3   1 <1>   0.1200 
 24 C       -6.8900     2.9170     1.1610 C.ar  1 <1>   0.4770 
 25 C       -6.8580     5.1400     1.4180 C.ar  1 <1>   0.1600 
 26 N       -7.5200     4.0110     1.5680 N.ar  1 <1>  -0.6200 
 27 C       -7.6380     1.6180     1.3350 C.3   1 <1>  -0.0970 
 28 H       -2.5700     4.4690     1.7570 H     1 <1>   0.0800 
 29 H       -3.0010     2.8170     1.4660 H     1 <1>   0.0800 
 30 H       -0.9680     1.4040    -0.1120 H     1 <1>   0.0800 
 31 H       -0.6190     2.5340    -1.3940 H     1 <1>   0.0800 
 32 H        1.2060     5.6530    -1.0960 H     1 <1>   0.1500 
 33 H       -3.2750     1.4280    -0.5560 H     1 <1>   0.0800 
 34 H       -2.5960     1.5420    -2.1460 H     1 <1>   0.0800 
 35 H        3.4180     5.1450    -2.0420 H     1 <1>   0.1500 
 36 H       -2.8700     3.9860    -2.0990 H     1 <1>   0.0800 
 37 H       -4.4060     3.2010    -1.8930 H     1 <1>   0.0800 
 38 H       -3.8890     5.9130    -1.3300 H     1 <1>   0.0800 
 39 H       -2.6270     6.0920    -0.1370 H     1 <1>   0.0800 
 40 H        1.4540    -0.0320     0.7570 H     1 <1>   0.0800 
 41 H        1.4590     0.2150     2.4930 H     1 <1>   0.0800 
 42 H        4.6000     3.0860    -1.3570 H     1 <1>   0.1500 
 43 H       -5.1650     7.1400     0.1430 H     1 <1>   0.0800 
 44 H       -4.2140     6.6300     1.5370 H     1 <1>   0.0800 
 45 H        3.7820    -0.2580     1.5530 H     1 <1>   0.0800 
 46 H        3.6760     1.2970     2.3580 H     1 <1>   0.0800 
 47 H       -7.3280     6.0540     1.7370 H     1 <1>   0.1500 
 48 H       -7.3930     0.9430     0.5350 H     1 <1>   0.0800 
 49 H       -8.6970     1.7960     1.3290 H     1 <1>   0.0800 
 50 H       -7.3590     1.1730     2.2700 H     1 <1>   0.0800 
@<TRIPOS>BOND
  1   1   2  2   
  2   2   3  am  
  3   2   4  1   
  4   3   5  1   
  5   3   6  1   
  6   4   7  ar  
  7   4   8  ar  
  8   5   9  1   
  9   5  28  1   
 10   5  29  1   
 11   6  10  1   
 12   6  30  1   
 13   6  31  1   
 14   7  11  1   
 15   7  12  ar  
 16   8  13  ar  
 17   8  32  1   
 18   9  14  1   
 19   9  15  1   
 20   9  16  1   
 21  10  15  1   
 22  10  33  1   
 23  10  34  1   
 24  11  17  1   
 25  12  18  1   
 26  12  19  ar  
 27  13  19  ar  
 28  13  35  1   
 29  14  20  ar  
 30  14  21  ar  
 31  15  36  1   
 32  15  37  1   
 33  16  22  1   
 34  16  38  1   
 35  16  39  1   
 36  17  23  1   
 37  17  40  1   
 38  17  41  1   
 39  18  23  1   
 40  19  42  1   
 41  20  24  ar  
 42  21  22  1   
 43  21  25  ar  
 44  22  43  1   
 45  22  44  1   
 46  23  45  1   
 47  23  46  1   
 48  24  26  ar  
 49  24  27  1   
 50  25  26  ar  
 51  25  47  1   
 52  27  48  1   
 53  27  49  1   
 54  27  50  1   
@<TRIPOS>SUBSTRUCTURE
  1 ****   3 GROUP 4 **** **** 0

# MOE 2024.06 (io_trps.svl 2023.06)
