@<TRIPOS>MOLECULE
NONAME
49 52 1 0 0 
SMALL
USER_CHARGES


@<TRIPOS>ATOM
  1 F       -2.1750    -2.5680    -2.5930 F     1 <1>  -0.1900 
  2 C       -2.5900    -2.7140    -1.3650 C.ar  1 <1>   0.1900 
  3 C       -3.4660    -1.7830    -0.8460 C.ar  1 <1>  -0.1500 
  4 C       -2.1450    -3.8010    -0.6380 C.ar  1 <1>  -0.1500 
  5 C       -3.9450    -1.9420     0.4510 C.ar  1 <1>   0.0540 
  6 C       -2.5950    -3.9510     0.6630 C.ar  1 <1>  -0.1500 
  7 C       -4.9150    -1.0220     0.9940 C.2   1 <1>   0.2350 
  8 C       -3.4800    -3.0270     1.1970 C.ar  1 <1>  -0.1500 
  9 N       -4.6730     0.2340     1.2400 N.2   1 <1>  -0.7070 
 10 C       -6.2400    -1.3420     1.3060 C.2   1 <1>  -0.1810 
 11 N       -5.8110     0.7320     1.7460 N.pl3 1 <1>   0.3000 
 12 C       -6.7790    -0.2040     1.7930 C.2   1 <1>  -0.3020 
 13 C       -6.8760    -2.6980     1.0980 C.3   1 <1>   0.5240 
 14 N       -6.9540    -2.9280    -0.3730 N.4   1 <1>  -0.9590 
 15 C       -8.3140    -2.8580    -0.9820 C.3   1 <1>   0.4230 
 16 C       -6.2410    -4.1830    -0.7660 C.3   1 <1>   0.2630 
 17 C       -9.3140    -3.8680    -0.4200 C.3   1 <1>  -0.1600 
 18 C       -8.9910    -1.5050    -0.7910 C.3   1 <1>  -0.1600 
 19 C      -10.6840    -3.3080    -0.8270 C.3   1 <1>  -0.0800 
 20 C      -10.4830    -1.7820    -1.0150 C.3   1 <1>  -0.0800 
 21 C      -11.8230    -3.7250     0.1290 C.3   1 <1>   0.1400 
 22 C      -11.3940    -0.9050    -0.1330 C.3   1 <1>  -0.0990 
 23 N      -12.9520    -2.7850    -0.0010 N.am  1 <1>  -0.7300 
 24 C      -12.8040    -1.4500    -0.1180 C.2   1 <1>   0.5690 
 25 O      -13.7490    -0.7110    -0.1960 O.2   1 <1>  -0.5700 
 26 H       -3.7680    -0.9380    -1.4380 H     1 <1>   0.1500 
 27 H       -1.4560    -4.5010    -1.0780 H     1 <1>   0.1500 
 28 H       -2.2450    -4.7780     1.2590 H     1 <1>   0.1500 
 29 H       -3.8050    -3.1390     2.2180 H     1 <1>   0.1500 
 30 H       -5.8940     1.7140     2.0480 H     1 <1>   0.2700 
 31 H       -7.7670     0.0090     2.1630 H     1 <1>   0.1500 
 32 H       -7.8560    -2.7100     1.5430 H     1 <1>   0.0800 
 33 H       -6.2710    -3.4540     1.5710 H     1 <1>   0.0800 
 34 H       -6.4260    -2.1370    -0.7710 H     1 <1>   0.4500 
 35 H       -8.2340    -3.0310    -2.0440 H     1 <1>   0.0800 
 36 H       -6.7360    -5.0450    -0.3490 H     1 <1>   0.0800 
 37 H       -5.2230    -4.1650    -0.4130 H     1 <1>   0.0800 
 38 H       -6.2240    -4.2820    -1.8400 H     1 <1>   0.0800 
 39 H       -9.1640    -4.8490    -0.8340 H     1 <1>   0.0800 
 40 H       -9.2550    -3.9150     0.6520 H     1 <1>   0.0800 
 41 H       -8.8500    -1.1400     0.2070 H     1 <1>   0.0800 
 42 H       -8.6230    -0.7760    -1.4930 H     1 <1>   0.0800 
 43 H      -10.9300    -3.7140    -1.7960 H     1 <1>   0.0800 
 44 H      -10.7230    -1.5560    -2.0430 H     1 <1>   0.0800 
 45 H      -11.4880    -3.7060     1.1530 H     1 <1>   0.0800 
 46 H      -12.1540    -4.7240    -0.1020 H     1 <1>   0.0800 
 47 H      -11.4080     0.1060    -0.5000 H     1 <1>   0.0800 
 48 H      -11.0480    -0.8890     0.8840 H     1 <1>   0.0800 
 49 H      -13.9090    -3.1470     0.0490 H     1 <1>   0.3700 
@<TRIPOS>BOND
  1   1   2  1   
  2   2   3  ar  
  3   2   4  ar  
  4   3   5  ar  
  5   3  26  1   
  6   4   6  ar  
  7   4  27  1   
  8   5   7  1   
  9   5   8  ar  
 10   6   8  ar  
 11   6  28  1   
 12   7   9  2   
 13   7  10  1   
 14   8  29  1   
 15   9  11  1   
 16  10  12  2   
 17  10  13  1   
 18  11  12  1   
 19  11  30  1   
 20  12  31  1   
 21  13  14  1   
 22  13  32  1   
 23  13  33  1   
 24  14  15  1   
 25  14  16  1   
 26  14  34  1   
 27  15  17  1   
 28  15  18  1   
 29  15  35  1   
 30  16  36  1   
 31  16  37  1   
 32  16  38  1   
 33  17  19  1   
 34  17  39  1   
 35  17  40  1   
 36  18  20  1   
 37  18  41  1   
 38  18  42  1   
 39  19  20  1   
 40  19  21  1   
 41  19  43  1   
 42  20  22  1   
 43  20  44  1   
 44  21  23  1   
 45  21  45  1   
 46  21  46  1   
 47  22  24  1   
 48  22  47  1   
 49  22  48  1   
 50  23  24  am  
 51  23  49  1   
 52  24  25  2   
@<TRIPOS>SUBSTRUCTURE
  1 ****  14 GROUP 4 **** **** 0

# MOE 2024.06 (io_trps.svl 2023.06)
