@<TRIPOS>MOLECULE
NONAME
47 49 1 0 0 
SMALL
USER_CHARGES


@<TRIPOS>ATOM
  1 S        0.1870    -0.3570     0.5040 S.3   1 <1>  -0.0800 
  2 C       -1.3550    -0.9600    -0.0170 C.2   1 <1>   0.4420 
  3 C       -0.3710     1.2240     0.0790 C.2   1 <1>   0.1980 
  4 N       -2.1170    -0.0180    -0.4460 N.2   1 <1>  -0.3380 
  5 N       -1.5510    -2.3220     0.0790 N.am  1 <1>  -0.4940 
  6 N       -1.5500     1.2230    -0.3870 N.2   1 <1>  -0.3380 
  7 C        0.5490     2.4050     0.2920 C.3   1 <1>   0.0200 
  8 C       -2.6940    -3.0580    -0.1180 C.2   1 <1>   0.5440 
  9 C       -0.1960     3.6870    -0.1010 C.3   1 <1>   0.3430 
 10 O       -3.7630    -2.4950    -0.2240 O.2   1 <1>  -0.5700 
 11 C       -2.6170    -4.5060    -0.1510 C.ar  1 <1>   0.0860 
 12 N        0.6080     4.9330     0.1360 N.4   1 <1>  -0.9590 
 13 C       -1.4910    -5.1850    -0.6260 C.ar  1 <1>  -0.1500 
 14 C       -3.6800    -5.2910     0.2980 C.ar  1 <1>  -0.1500 
 15 C       -0.2760     6.1320    -0.0080 C.3   1 <1>   0.2630 
 16 C        1.7780     5.0480    -0.7940 C.3   1 <1>   0.2630 
 17 C       -1.4270    -6.5660    -0.6290 C.ar  1 <1>  -0.1500 
 18 C       -3.6160    -6.6700     0.2950 C.ar  1 <1>  -0.1500 
 19 C       -2.4850    -7.3400    -0.1610 C.ar  1 <1>   0.1170 
 20 N       -2.4160    -8.7420    -0.1470 N.am  1 <1>  -0.4770 
 21 C       -3.4250    -9.6280    -0.4050 C.2   1 <1>   0.5690 
 22 C       -1.2010    -9.4520     0.3080 C.3   1 <1>   0.1400 
 23 O       -4.5430    -9.3630    -0.7720 O.2   1 <1>  -0.5700 
 24 C       -2.9890   -11.0480    -0.1690 C.3   1 <1>  -0.0990 
 25 C       -1.4740   -10.9360     0.0350 C.3   1 <1>  -0.1600 
 26 H       -0.7430    -2.8550     0.3840 H     1 <1>   0.3700 
 27 H        1.4240     2.2700    -0.3160 H     1 <1>   0.0800 
 28 H        0.8290     2.4420     1.3290 H     1 <1>   0.0800 
 29 H       -1.1060     3.7340     0.4770 H     1 <1>   0.0800 
 30 H       -0.4790     3.6260    -1.1400 H     1 <1>   0.0800 
 31 H        0.9560     4.9190     1.1080 H     1 <1>   0.4500 
 32 H       -0.6570    -4.6300    -1.0160 H     1 <1>   0.1500 
 33 H       -4.5730    -4.8030     0.6520 H     1 <1>   0.1500 
 34 H       -0.6710     6.1890    -1.0100 H     1 <1>   0.0800 
 35 H        0.2780     7.0340     0.1950 H     1 <1>   0.0800 
 36 H       -1.1020     6.0740     0.6830 H     1 <1>   0.0800 
 37 H        1.4440     5.0510    -1.8190 H     1 <1>   0.0800 
 38 H        2.4560     4.2220    -0.6550 H     1 <1>   0.0800 
 39 H        2.3160     5.9640    -0.6060 H     1 <1>   0.0800 
 40 H       -0.5490    -7.0500    -1.0150 H     1 <1>   0.1500 
 41 H       -4.4590    -7.2390     0.6490 H     1 <1>   0.1500 
 42 H       -1.0680    -9.2770     1.3630 H     1 <1>   0.0800 
 43 H       -0.3310    -9.1190    -0.2280 H     1 <1>   0.0800 
 44 H       -3.2370   -11.6670    -1.0120 H     1 <1>   0.0800 
 45 H       -3.4760   -11.4190     0.7150 H     1 <1>   0.0800 
 46 H       -1.1260   -11.5580     0.8410 H     1 <1>   0.0800 
 47 H       -0.9650   -11.2240    -0.8680 H     1 <1>   0.0800 
@<TRIPOS>BOND
  1   1   2  1   
  2   1   3  1   
  3   2   4  2   
  4   2   5  1   
  5   3   6  2   
  6   3   7  1   
  7   4   6  1   
  8   5   8  am  
  9   5  26  1   
 10   7   9  1   
 11   7  27  1   
 12   7  28  1   
 13   8  10  2   
 14   8  11  1   
 15   9  12  1   
 16   9  29  1   
 17   9  30  1   
 18  11  13  ar  
 19  11  14  ar  
 20  12  15  1   
 21  12  16  1   
 22  12  31  1   
 23  13  17  ar  
 24  13  32  1   
 25  14  18  ar  
 26  14  33  1   
 27  15  34  1   
 28  15  35  1   
 29  15  36  1   
 30  16  37  1   
 31  16  38  1   
 32  16  39  1   
 33  17  19  ar  
 34  17  40  1   
 35  18  19  ar  
 36  18  41  1   
 37  19  20  1   
 38  20  21  am  
 39  20  22  1   
 40  21  23  2   
 41  21  24  1   
 42  22  25  1   
 43  22  42  1   
 44  22  43  1   
 45  24  25  1   
 46  24  44  1   
 47  24  45  1   
 48  25  46  1   
 49  25  47  1   
@<TRIPOS>SUBSTRUCTURE
  1 ****   5 GROUP 4 **** **** 0

# MOE 2024.06 (io_trps.svl 2023.06)
