@<TRIPOS>MOLECULE
NONAME
21 21 1 0 0 
SMALL
USER_CHARGES


@<TRIPOS>ATOM
  1 N       -5.7660     1.0320     0.3260 N.ar  1 <1>  -0.2100 
  2 C       -6.6700     0.2640     0.9750 C.ar  1 <1>   0.2110 
  3 C       -4.8740     0.4570    -0.5120 C.ar  1 <1>   0.2110 
  4 C       -5.7550     2.5050     0.5320 C.3   1 <1>   0.3280 
  5 C       -6.6960    -1.1060     0.7960 C.ar  1 <1>  -0.1500 
  6 C       -4.8700    -0.9090    -0.7150 C.ar  1 <1>  -0.1500 
  7 C       -6.6700     3.1870    -0.4860 C.3   1 <1>  -0.2400 
  8 C       -5.7870    -1.7130    -0.0560 C.ar  1 <1>  -0.1430 
  9 C       -5.8000    -3.2180    -0.2670 C.3   1 <1>  -0.0970 
 10 H       -7.3810     0.7300     1.6380 H     1 <1>   0.1500 
 11 H       -4.1590     1.0760    -1.0290 H     1 <1>   0.1500 
 12 H       -4.7490     2.8770     0.4250 H     1 <1>   0.0800 
 13 H       -6.0850     2.7330     1.5310 H     1 <1>   0.0800 
 14 H       -7.4240    -1.7020     1.3200 H     1 <1>   0.1500 
 15 H       -4.1530    -1.3500    -1.3870 H     1 <1>   0.1500 
 16 H       -6.3380     2.9930    -1.4910 H     1 <1>   0.0800 
 17 H       -6.6550     4.2520    -0.3290 H     1 <1>   0.0800 
 18 H       -7.6860     2.8480    -0.3750 H     1 <1>   0.0800 
 19 H       -6.1480    -3.7230     0.6170 H     1 <1>   0.0800 
 20 H       -4.8110    -3.5790    -0.4900 H     1 <1>   0.0800 
 21 H       -6.4500    -3.4700    -1.0850 H     1 <1>   0.0800 
@<TRIPOS>BOND
  1   1   2  ar  
  2   1   3  ar  
  3   1   4  1   
  4   2   5  ar  
  5   2  10  1   
  6   3   6  ar  
  7   3  11  1   
  8   4   7  1   
  9   4  12  1   
 10   4  13  1   
 11   5   8  ar  
 12   5  14  1   
 13   6   8  ar  
 14   6  15  1   
 15   7  16  1   
 16   7  17  1   
 17   7  18  1   
 18   8   9  1   
 19   9  19  1   
 20   9  20  1   
 21   9  21  1   
@<TRIPOS>SUBSTRUCTURE
  1 ****   1 GROUP 4 **** **** 0

# MOE 2024.06 (io_trps.svl 2023.06)
