@<TRIPOS>MOLECULE
NONAME
23 23 1 0 0 
SMALL
USER_CHARGES


@<TRIPOS>ATOM
  1 C        7.5100     3.3100    -0.9050 C.2   1 <1>  -0.2880 
  2 C        6.2250     3.2330    -0.5500 C.2   1 <1>  -0.1500 
  3 C        8.0540     4.7120    -0.6720 C.3   1 <1>   0.1160 
  4 C        5.7910     4.5040    -0.0660 C.2   1 <1>  -0.1500 
  5 C        6.7990     5.3880    -0.1140 C.2   1 <1>  -0.2760 
  6 C        6.8290     6.8640     0.2910 C.3   1 <1>   0.1380 
  7 C        7.1840     7.7300    -0.9230 C.3   1 <1>  -0.2400 
  8 C        5.4550     7.3010     0.8170 C.3   1 <1>  -0.2400 
  9 C        7.8650     7.0790     1.4000 C.3   1 <1>  -0.2400 
 10 H        8.1550     2.5500    -1.3070 H     1 <1>   0.1500 
 11 H        5.5680     2.3820    -0.5960 H     1 <1>   0.1500 
 12 H        8.3740     5.1570    -1.5960 H     1 <1>   0.0800 
 13 H        8.8550     4.6970     0.0450 H     1 <1>   0.0800 
 14 H        4.7810     4.6570     0.2730 H     1 <1>   0.1500 
 15 H        6.4890     7.5450    -1.7220 H     1 <1>   0.0800 
 16 H        8.1750     7.5110    -1.2740 H     1 <1>   0.0800 
 17 H        7.1420     8.7740    -0.6670 H     1 <1>   0.0800 
 18 H        4.7050     7.1700     0.0570 H     1 <1>   0.0800 
 19 H        5.4690     8.3380     1.1030 H     1 <1>   0.0800 
 20 H        5.1800     6.7160     1.6760 H     1 <1>   0.0800 
 21 H        8.8560     6.8600     1.0470 H     1 <1>   0.0800 
 22 H        7.6500     6.4360     2.2340 H     1 <1>   0.0800 
 23 H        7.8480     8.0990     1.7400 H     1 <1>   0.0800 
@<TRIPOS>BOND
  1   1   2  2   
  2   1   3  1   
  3   1  10  1   
  4   2   4  1   
  5   2  11  1   
  6   3   5  1   
  7   3  12  1   
  8   3  13  1   
  9   4   5  2   
 10   4  14  1   
 11   5   6  1   
 12   6   7  1   
 13   6   8  1   
 14   6   9  1   
 15   7  15  1   
 16   7  16  1   
 17   7  17  1   
 18   8  18  1   
 19   8  19  1   
 20   8  20  1   
 21   9  21  1   
 22   9  22  1   
 23   9  23  1   
@<TRIPOS>SUBSTRUCTURE
  1 ****   5 GROUP 4 **** **** 0

# MOE 2024.06 (io_trps.svl 2023.06)
