@<TRIPOS>MOLECULE
NONAME
45 46 1 0 0 
SMALL
USER_CHARGES


@<TRIPOS>ATOM
  1 O        1.2540     2.2420    -1.1330 O.co2 1 <1>  -0.9000 
  2 C        0.4900     2.2250    -0.1660 C.2   1 <1>   0.9060 
  3 O        0.2180     1.2160     0.4780 O.co2 1 <1>  -0.9000 
  4 C       -0.1060     3.5220     0.2720 C.3   1 <1>  -0.1860 
  5 C       -1.0870     3.9980    -0.8030 C.3   1 <1>   0.2000 
  6 C        1.0920     4.4440     0.4630 C.3   1 <1>   0.3430 
  7 O       -2.1870     4.5610    -0.1740 O.3   1 <1>  -0.6800 
  8 C       -0.4640     5.0720    -1.6910 C.3   1 <1>  -0.1600 
  9 N        0.6820     5.8780     0.4230 N.4   1 <1>  -0.9590 
 10 C        0.0240     6.2680    -0.8690 C.3   1 <1>   0.3430 
 11 C       -0.1530     6.2360     1.6070 C.3   1 <1>   0.3430 
 12 C       -0.1600     7.7510     1.8500 C.3   1 <1>   0.1200 
 13 O        1.1700     8.2300     1.7800 O.3   1 <1>  -0.3630 
 14 C        1.4800     9.0920     0.7790 C.ar  1 <1>   0.0830 
 15 C        2.4200     8.7270    -0.1880 C.ar  1 <1>   0.0830 
 16 C        0.8710    10.3370     0.7320 C.ar  1 <1>  -0.1500 
 17 O        2.9820     7.4870    -0.1020 O.3   1 <1>  -0.3630 
 18 C        2.7300     9.6260    -1.2040 C.ar  1 <1>  -0.1500 
 19 C        1.1850    11.2200    -0.2850 C.ar  1 <1>  -0.1500 
 20 C        4.1600     7.1730    -0.8100 C.3   1 <1>   0.1200 
 21 C        2.1110    10.8650    -1.2500 C.ar  1 <1>  -0.1500 
 22 C        4.5910     5.7650    -0.4090 C.3   1 <1>  -0.2400 
 23 H       -0.6020     3.3450     1.2070 H     1 <1>   0.0800 
 24 H       -1.4370     3.1700    -1.4020 H     1 <1>   0.0800 
 25 H        1.7950     4.2660    -0.3360 H     1 <1>   0.0800 
 26 H        1.5870     4.2110     1.3910 H     1 <1>   0.0800 
 27 H       -2.7340     3.8390     0.2010 H     1 <1>   0.4000 
 28 H        0.3670     4.6440    -2.2250 H     1 <1>   0.0800 
 29 H       -1.1760     5.3970    -2.4270 H     1 <1>   0.0800 
 30 H        1.5440     6.4560     0.5000 H     1 <1>   0.4500 
 31 H       -0.8230     6.8990    -0.6570 H     1 <1>   0.0800 
 32 H        0.7170     6.8400    -1.4650 H     1 <1>   0.0800 
 33 H       -1.1600     5.8790     1.4720 H     1 <1>   0.0800 
 34 H        0.2510     5.7570     2.4830 H     1 <1>   0.0800 
 35 H       -0.5430     7.9710     2.8300 H     1 <1>   0.0800 
 36 H       -0.7690     8.2480     1.1160 H     1 <1>   0.0800 
 37 H        0.1650    10.6220     1.4900 H     1 <1>   0.1500 
 38 H        3.4450     9.3870    -1.9680 H     1 <1>   0.1500 
 39 H        0.7130    12.1880    -0.3240 H     1 <1>   0.1500 
 40 H        3.9550     7.2150    -1.8660 H     1 <1>   0.0800 
 41 H        4.9170     7.8930    -0.5480 H     1 <1>   0.0800 
 42 H        2.3540    11.5580    -2.0380 H     1 <1>   0.1500 
 43 H        3.8520     5.0450    -0.7100 H     1 <1>   0.0800 
 44 H        4.7430     5.7090     0.6540 H     1 <1>   0.0800 
 45 H        5.5160     5.5180    -0.8980 H     1 <1>   0.0800 
@<TRIPOS>BOND
  1   1   2  ar  
  2   2   3  ar  
  3   2   4  1   
  4   4   5  1   
  5   4   6  1   
  6   4  23  1   
  7   5   7  1   
  8   5   8  1   
  9   5  24  1   
 10   6   9  1   
 11   6  25  1   
 12   6  26  1   
 13   7  27  1   
 14   8  10  1   
 15   8  28  1   
 16   8  29  1   
 17   9  10  1   
 18   9  11  1   
 19   9  30  1   
 20  10  31  1   
 21  10  32  1   
 22  11  12  1   
 23  11  33  1   
 24  11  34  1   
 25  12  13  1   
 26  12  35  1   
 27  12  36  1   
 28  13  14  1   
 29  14  15  ar  
 30  14  16  ar  
 31  15  17  1   
 32  15  18  ar  
 33  16  19  ar  
 34  16  37  1   
 35  17  20  1   
 36  18  21  ar  
 37  18  38  1   
 38  19  21  ar  
 39  19  39  1   
 40  20  22  1   
 41  20  40  1   
 42  20  41  1   
 43  21  42  1   
 44  22  43  1   
 45  22  44  1   
 46  22  45  1   
@<TRIPOS>SUBSTRUCTURE
  1 ****   9 GROUP 4 **** **** 0

# MOE 2024.06 (io_trps.svl 2023.06)
