@<TRIPOS>MOLECULE
NONAME
54 56 1 0 0 
SMALL
USER_CHARGES


@<TRIPOS>ATOM
  1 O        0.5820     1.8000    -1.0450 O.2   1 <1>  -0.5700 
  2 C        0.0030     2.8620    -1.0360 C.2   1 <1>   0.5690 
  3 N       -0.6190     3.3800     0.0670 N.am  1 <1>  -0.5090 
  4 C       -0.0350     3.6860    -2.3160 C.3   1 <1>   0.1810 
  5 C       -1.3220     4.7020    -0.0140 C.3   1 <1>   0.3640 
  6 C       -0.4680     2.7870     1.4180 C.3   1 <1>   0.0490 
  7 O        0.1510     5.0460    -2.0260 O.3   1 <1>  -0.5600 
  8 C       -2.8380     4.5080    -0.1360 C.ar  1 <1>  -0.1440 
  9 C       -0.8370     5.6220    -1.1750 C.3   1 <1>   0.2610 
 10 C       -0.9260     1.3790     1.6340 C.3   1 <1>  -0.2000 
 11 C       -1.6730     2.5090     2.2640 C.3   1 <1>  -0.2000 
 12 C       -3.4080     3.4120    -0.7740 C.ar  1 <1>  -0.1500 
 13 C       -3.6780     5.4740     0.4040 C.ar  1 <1>  -0.1500 
 14 C       -0.3300     6.9410    -0.5840 C.2   1 <1>   0.5690 
 15 C       -4.7830     3.2900    -0.8690 C.ar  1 <1>  -0.1500 
 16 C       -5.0530     5.3550     0.3100 C.ar  1 <1>  -0.1500 
 17 O       -1.0810     7.6090     0.0880 O.2   1 <1>  -0.5700 
 18 N        0.9540     7.3230    -0.8170 N.am  1 <1>  -0.7300 
 19 C       -5.6150     4.2570    -0.3310 C.ar  1 <1>   0.0830 
 20 C        1.6170     8.5350    -0.2980 C.3   1 <1>   0.1400 
 21 O       -6.9500     4.0620    -0.4690 O.3   1 <1>  -0.3630 
 22 C        2.8550     8.1170     0.4990 C.3   1 <1>  -0.1600 
 23 C       -7.8820     4.9870     0.0450 C.3   1 <1>   0.0400 
 24 C        3.5580     9.3020     1.1840 C.3   1 <1>  -0.0800 
 25 C        4.1190    10.3070     0.1680 C.3   1 <1>  -0.2400 
 26 C        4.6960     8.7860     2.0720 C.3   1 <1>  -0.2400 
 27 H       -0.9760     3.5590    -2.8190 H     1 <1>   0.0800 
 28 H        0.7620     3.3750    -2.9680 H     1 <1>   0.0800 
 29 H       -1.1420     5.2100     0.9180 H     1 <1>   0.0800 
 30 H        0.4420     3.0990     1.9030 H     1 <1>   0.1000 
 31 H       -1.6770     5.8650    -1.8000 H     1 <1>   0.0800 
 32 H       -1.3680     0.8530     0.8060 H     1 <1>   0.1000 
 33 H       -0.3320     0.7390     2.2620 H     1 <1>   0.1000 
 34 H       -1.5980     2.6300     3.3300 H     1 <1>   0.1000 
 35 H       -2.6640     2.7120     1.8980 H     1 <1>   0.1000 
 36 H       -2.7960     2.6360    -1.1980 H     1 <1>   0.1500 
 37 H       -3.2640     6.3360     0.9030 H     1 <1>   0.1500 
 38 H       -5.2210     2.4410    -1.3600 H     1 <1>   0.1500 
 39 H       -5.6660     6.1240     0.7400 H     1 <1>   0.1500 
 40 H        1.5160     6.7130    -1.4200 H     1 <1>   0.3700 
 41 H        1.8920     9.1650    -1.1260 H     1 <1>   0.0800 
 42 H        0.9380     9.0800     0.3370 H     1 <1>   0.0800 
 43 H        2.5450     7.4190     1.2570 H     1 <1>   0.0800 
 44 H        3.5490     7.6190    -0.1560 H     1 <1>   0.0800 
 45 H       -8.8700     4.6270    -0.1820 H     1 <1>   0.0800 
 46 H       -7.7230     5.9400    -0.4270 H     1 <1>   0.0800 
 47 H       -7.7540     5.0560     1.1100 H     1 <1>   0.0800 
 48 H        2.8470     9.8110     1.8140 H     1 <1>   0.0800 
 49 H        4.7960     9.8210    -0.5130 H     1 <1>   0.0800 
 50 H        4.6540    11.0890     0.6770 H     1 <1>   0.0800 
 51 H        3.3290    10.7670    -0.3970 H     1 <1>   0.0800 
 52 H        5.4350     8.2720     1.4820 H     1 <1>   0.0800 
 53 H        4.3140     8.1060     2.8130 H     1 <1>   0.0800 
 54 H        5.1730     9.6040     2.5820 H     1 <1>   0.0800 
@<TRIPOS>BOND
  1   1   2  2   
  2   2   3  am  
  3   2   4  1   
  4   3   5  1   
  5   3   6  1   
  6   4   7  1   
  7   4  27  1   
  8   4  28  1   
  9   5   8  1   
 10   5   9  1   
 11   5  29  1   
 12   6  10  1   
 13   6  11  1   
 14   6  30  1   
 15   7   9  1   
 16   8  12  ar  
 17   8  13  ar  
 18   9  14  1   
 19   9  31  1   
 20  10  11  1   
 21  10  32  1   
 22  10  33  1   
 23  11  34  1   
 24  11  35  1   
 25  12  15  ar  
 26  12  36  1   
 27  13  16  ar  
 28  13  37  1   
 29  14  17  2   
 30  14  18  am  
 31  15  19  ar  
 32  15  38  1   
 33  16  19  ar  
 34  16  39  1   
 35  18  20  1   
 36  18  40  1   
 37  19  21  1   
 38  20  22  1   
 39  20  41  1   
 40  20  42  1   
 41  21  23  1   
 42  22  24  1   
 43  22  43  1   
 44  22  44  1   
 45  23  45  1   
 46  23  46  1   
 47  23  47  1   
 48  24  25  1   
 49  24  26  1   
 50  24  48  1   
 51  25  49  1   
 52  25  50  1   
 53  25  51  1   
 54  26  52  1   
 55  26  53  1   
 56  26  54  1   
@<TRIPOS>SUBSTRUCTURE
  1 ****   5 GROUP 4 **** **** 0

# MOE 2024.06 (io_trps.svl 2023.06)
