@<TRIPOS>MOLECULE
NONAME
50 53 1 0 0 
SMALL
USER_CHARGES


@<TRIPOS>ATOM
  1 O        0.8810    -0.0330     1.7420 O.2   1 <1>  -0.5700 
  2 C        1.4300    -0.2130     0.6750 C.2   1 <1>   0.7150 
  3 N        1.7320     0.8890    -0.1110 N.am  1 <1>  -0.6600 
  4 C        1.8190    -1.5500     0.3000 C.2   1 <1>   0.0550 
  5 C        1.8850     0.8290    -1.6050 C.3   1 <1>   0.1400 
  6 C        1.7800     2.2650     0.4610 C.3   1 <1>   0.1400 
  7 O        2.7780    -1.7580    -0.5730 O.3   1 <1>  -0.0190 
  8 C        1.4210    -2.7750     0.7090 C.2   1 <1>  -0.1500 
  9 C        3.3660     0.7780    -2.0450 C.3   1 <1>   0.3430 
 10 C        3.2350     2.6910     0.7010 C.3   1 <1>  -0.1600 
 11 N        3.0370    -3.0090    -0.7680 N.2   1 <1>  -0.4100 
 12 C        2.2270    -3.6540    -0.0020 C.2   1 <1>   0.2030 
 13 N        4.2920     1.1680    -0.9340 N.4   1 <1>  -0.9590 
 14 C        4.1540     2.5950    -0.5220 C.3   1 <1>   0.3430 
 15 C        2.1720    -5.1670     0.1030 C.3   1 <1>  -0.0140 
 16 C        5.6940     0.7320    -1.1640 C.3   1 <1>   0.5240 
 17 C        2.1220    -5.8360     1.4440 C.3   1 <1>  -0.2000 
 18 C        3.3620    -5.9230     0.6110 C.3   1 <1>  -0.2000 
 19 C        6.4440     0.8950     0.1340 C.2   1 <1>  -0.1810 
 20 C        6.3390     0.1990     1.2800 C.2   1 <1>  -0.0400 
 21 C        7.4200     1.8500     0.4230 C.2   1 <1>   0.1080 
 22 O        7.1570     0.7330     2.1440 O.3   1 <1>  -0.0190 
 23 C        5.5070    -0.9950     1.7070 C.3   1 <1>  -0.0600 
 24 N        7.8140     1.7340     1.6370 N.2   1 <1>  -0.4100 
 25 C        7.9820     2.8920    -0.5240 C.3   1 <1>  -0.0590 
 26 H        1.4160     1.6910    -2.0470 H     1 <1>   0.0800 
 27 H        1.3690    -0.0320    -1.9950 H     1 <1>   0.0800 
 28 H        1.2420     2.3030     1.3960 H     1 <1>   0.0800 
 29 H        1.2940     2.9550    -0.2080 H     1 <1>   0.0800 
 30 H        0.6630    -3.0330     1.4260 H     1 <1>   0.1500 
 31 H        3.5130     1.4120    -2.9040 H     1 <1>   0.0800 
 32 H        3.5840    -0.2330    -2.3500 H     1 <1>   0.0800 
 33 H        3.6490     2.1160     1.5120 H     1 <1>   0.0800 
 34 H        3.2260     3.7150     1.0300 H     1 <1>   0.0800 
 35 H        3.9680     0.6380    -0.1120 H     1 <1>   0.4500 
 36 H        5.1170     2.9950    -0.2500 H     1 <1>   0.0800 
 37 H        3.7610     3.1870    -1.3330 H     1 <1>   0.0800 
 38 H        1.6140    -5.6130    -0.7020 H     1 <1>   0.1000 
 39 H        6.1540     1.3210    -1.9410 H     1 <1>   0.0800 
 40 H        5.7150    -0.3060    -1.4560 H     1 <1>   0.0800 
 41 H        1.5140    -6.7170     1.5590 H     1 <1>   0.1000 
 42 H        2.1500    -5.2360     2.3370 H     1 <1>   0.1000 
 43 H        4.2330    -5.3680     0.9130 H     1 <1>   0.1000 
 44 H        3.6130    -6.8590     0.1430 H     1 <1>   0.1000 
 45 H        4.9770    -1.4150     0.8740 H     1 <1>   0.0800 
 46 H        4.8050    -0.7030     2.4670 H     1 <1>   0.0800 
 47 H        6.1530    -1.7540     2.1130 H     1 <1>   0.0800 
 48 H        7.2280     3.6090    -0.7890 H     1 <1>   0.0800 
 49 H        8.3630     2.4210    -1.4110 H     1 <1>   0.0800 
 50 H        8.7930     3.4140    -0.0450 H     1 <1>   0.0800 
@<TRIPOS>BOND
  1   1   2  2   
  2   2   3  am  
  3   2   4  1   
  4   3   5  1   
  5   3   6  1   
  6   4   7  1   
  7   4   8  2   
  8   5   9  1   
  9   5  26  1   
 10   5  27  1   
 11   6  10  1   
 12   6  28  1   
 13   6  29  1   
 14   7  11  1   
 15   8  12  1   
 16   8  30  1   
 17   9  13  1   
 18   9  31  1   
 19   9  32  1   
 20  10  14  1   
 21  10  33  1   
 22  10  34  1   
 23  11  12  2   
 24  12  15  1   
 25  13  14  1   
 26  13  16  1   
 27  13  35  1   
 28  14  36  1   
 29  14  37  1   
 30  15  17  1   
 31  15  18  1   
 32  15  38  1   
 33  16  19  1   
 34  16  39  1   
 35  16  40  1   
 36  17  18  1   
 37  17  41  1   
 38  17  42  1   
 39  18  43  1   
 40  18  44  1   
 41  19  20  2   
 42  19  21  1   
 43  20  22  1   
 44  20  23  1   
 45  21  24  2   
 46  21  25  1   
 47  22  24  1   
 48  23  45  1   
 49  23  46  1   
 50  23  47  1   
 51  25  48  1   
 52  25  49  1   
 53  25  50  1   
@<TRIPOS>SUBSTRUCTURE
  1 ****   7 GROUP 4 **** **** 0

# MOE 2024.06 (io_trps.svl 2023.06)
