@<TRIPOS>MOLECULE
NONAME
42 44 1 0 0 
SMALL
USER_CHARGES


@<TRIPOS>ATOM
  1 CL      -0.7180     0.2010    -0.9040 Cl    1 <1>  -0.1770 
  2 C       -0.6780     1.8840    -0.4230 C.ar  1 <1>   0.1770 
  3 C        0.5260     2.5420    -0.2430 C.ar  1 <1>   0.1900 
  4 C       -1.8660     2.5600    -0.2250 C.ar  1 <1>  -0.1500 
  5 F        1.6570     1.9080    -0.4310 F     1 <1>  -0.1900 
  6 C        0.5690     3.8720     0.1320 C.ar  1 <1>  -0.1500 
  7 C       -1.8530     3.9010     0.1570 C.ar  1 <1>   0.1170 
  8 C       -0.6270     4.5430     0.3290 C.ar  1 <1>  -0.1500 
  9 N       -3.0310     4.6330     0.3560 N.am  1 <1>  -0.5470 
 10 C       -4.2780     4.2300     0.7420 C.2   1 <1>   0.6900 
 11 O       -4.4760     3.0860     1.1080 O.2   1 <1>  -0.5700 
 12 N       -5.2950     5.1500     0.7350 N.am  1 <1>  -0.6600 
 13 C       -6.6120     4.8260     1.3570 C.3   1 <1>   0.1400 
 14 C       -5.2860     6.3760    -0.1200 C.3   1 <1>   0.1400 
 15 C       -7.6770     4.5420     0.2720 C.3   1 <1>   0.0000 
 16 C       -6.6970     6.7430    -0.6130 C.3   1 <1>  -0.1600 
 17 C       -9.0830     4.6150     0.8970 C.3   1 <1>   0.2000 
 18 C       -7.5010     5.4810    -0.9650 C.3   1 <1>  -0.1600 
 19 C       -7.6470     3.0780    -0.1950 C.3   1 <1>  -0.1600 
 20 O       -9.5640     5.9100     0.9760 O.3   1 <1>  -0.6800 
 21 C       -9.9900     3.7530     0.0190 C.3   1 <1>  -0.1600 
 22 C       -9.0530     2.7990    -0.7360 C.3   1 <1>  -0.1600 
 23 H       -2.7960     2.0410    -0.3700 H     1 <1>   0.1500 
 24 H        1.5170     4.3630     0.2660 H     1 <1>   0.1500 
 25 H       -0.6070     5.5770     0.6240 H     1 <1>   0.1500 
 26 H       -2.9400     5.6420     0.3440 H     1 <1>   0.3700 
 27 H       -6.5240     3.9880     2.0280 H     1 <1>   0.0800 
 28 H       -6.9220     5.6710     1.9480 H     1 <1>   0.0800 
 29 H       -4.8710     7.1990     0.4360 H     1 <1>   0.0800 
 30 H       -4.6640     6.1960    -0.9810 H     1 <1>   0.0800 
 31 H       -7.2090     7.3010     0.1520 H     1 <1>   0.0800 
 32 H       -6.6150     7.3800    -1.4750 H     1 <1>   0.0800 
 33 H       -9.0640     4.2080     1.8950 H     1 <1>   0.0800 
 34 H       -6.9520     4.9650    -1.7340 H     1 <1>   0.0800 
 35 H       -8.4490     5.7480    -1.3950 H     1 <1>   0.0800 
 36 H       -6.8780     2.8810    -0.9220 H     1 <1>   0.0800 
 37 H       -7.4690     2.4330     0.6490 H     1 <1>   0.0800 
 38 H       -9.5570     6.3100     0.0880 H     1 <1>   0.4000 
 39 H      -10.6770     3.2010     0.6360 H     1 <1>   0.0800 
 40 H      -10.5430     4.3520    -0.6830 H     1 <1>   0.0800 
 41 H       -9.3290     1.7690    -0.5890 H     1 <1>   0.0800 
 42 H       -9.0860     3.0200    -1.7900 H     1 <1>   0.0800 
@<TRIPOS>BOND
  1   1   2  1   
  2   2   3  ar  
  3   2   4  ar  
  4   3   5  1   
  5   3   6  ar  
  6   4   7  ar  
  7   4  23  1   
  8   6   8  ar  
  9   6  24  1   
 10   7   8  ar  
 11   7   9  1   
 12   8  25  1   
 13   9  10  am  
 14   9  26  1   
 15  10  11  2   
 16  10  12  am  
 17  12  13  1   
 18  12  14  1   
 19  13  15  1   
 20  13  27  1   
 21  13  28  1   
 22  14  16  1   
 23  14  29  1   
 24  14  30  1   
 25  15  17  1   
 26  15  18  1   
 27  15  19  1   
 28  16  18  1   
 29  16  31  1   
 30  16  32  1   
 31  17  20  1   
 32  17  21  1   
 33  17  33  1   
 34  18  34  1   
 35  18  35  1   
 36  19  22  1   
 37  19  36  1   
 38  19  37  1   
 39  20  38  1   
 40  21  22  1   
 41  21  39  1   
 42  21  40  1   
 43  22  41  1   
 44  22  42  1   
@<TRIPOS>SUBSTRUCTURE
  1 ****  10 GROUP 4 **** **** 0

# MOE 2024.06 (io_trps.svl 2023.06)
