@<TRIPOS>MOLECULE
NONAME
58 61 1 0 0 
SMALL
USER_CHARGES


@<TRIPOS>ATOM
  1 CL      -1.8730    -6.6200     1.0330 Cl    1 <1>  -0.1770 
  2 C       -2.5670    -5.0400     0.7730 C.ar  1 <1>   0.1770 
  3 C       -2.7460    -4.5820    -0.5170 C.ar  1 <1>  -0.1500 
  4 C       -2.9290    -4.2710     1.8610 C.ar  1 <1>  -0.1500 
  5 C       -3.2990    -3.3280    -0.7170 C.ar  1 <1>  -0.1500 
  6 C       -3.4820    -3.0180     1.6530 C.ar  1 <1>  -0.1500 
  7 C       -3.6720    -2.5340     0.3620 C.ar  1 <1>  -0.1080 
  8 C       -4.2910    -1.1590     0.0620 C.3   1 <1>   0.1610 
  9 C       -5.5980    -1.2590    -0.7630 C.2   1 <1>   0.5770 
 10 C       -3.2090    -0.1950    -0.5290 C.3   1 <1>   0.0000 
 11 C       -4.3960    -0.1290     1.2360 C.3   1 <1>   0.0000 
 12 O       -5.6190    -0.7310    -1.8530 O.2   1 <1>  -0.5700 
 13 N       -6.7080    -1.9410    -0.2960 N.am  1 <1>  -0.6600 
 14 C       -3.8940     0.9550     0.2500 C.3   1 <1>   0.0000 
 15 C       -7.9130    -2.0690    -1.1760 C.3   1 <1>   0.2200 
 16 C       -6.7380    -2.6400     1.0250 C.3   1 <1>   0.0600 
 17 C       -9.1080    -1.2780    -0.6620 C.3   1 <1>  -0.1600 
 18 C       -8.4470    -3.4910    -1.3280 C.3   1 <1>  -0.1600 
 19 C      -10.3130    -1.8900    -1.3920 C.3   1 <1>  -0.0800 
 20 C       -9.8860    -3.3000    -1.8300 C.3   1 <1>  -0.0800 
 21 C      -11.5520    -2.0650    -0.5070 C.3   1 <1>  -0.1600 
 22 C      -10.8950    -4.2720    -1.2070 C.3   1 <1>  -0.1600 
 23 C      -11.5050    -3.5150    -0.0290 C.3   1 <1>   0.4230 
 24 N      -12.8630    -4.0280     0.3150 N.4   1 <1>  -0.9590 
 25 C      -13.5030    -3.2310     1.4100 C.3   1 <1>   0.2630 
 26 C      -12.8380    -5.4770     0.6940 C.3   1 <1>   0.2630 
 27 H       -2.4570    -5.1970    -1.3500 H     1 <1>   0.1500 
 28 H       -2.7770    -4.6510     2.8550 H     1 <1>   0.1500 
 29 H       -3.4400    -2.9700    -1.7240 H     1 <1>   0.1500 
 30 H       -3.7600    -2.4360     2.5130 H     1 <1>   0.1500 
 31 H       -2.2200    -0.3970    -0.1520 H     1 <1>   0.0000 
 32 H       -3.2210    -0.0710    -1.5970 H     1 <1>   0.0000 
 33 H       -5.3950     0.0560     1.5900 H     1 <1>   0.0000 
 34 H       -3.6870    -0.2830     2.0300 H     1 <1>   0.0000 
 35 H       -4.6910     1.4240    -0.3020 H     1 <1>   0.0000 
 36 H       -3.2040     1.6550     0.6870 H     1 <1>   0.0000 
 37 H       -7.6900    -1.7100    -2.1680 H     1 <1>   0.0800 
 38 H       -7.7430    -2.7160     1.3960 H     1 <1>   0.0800 
 39 H       -6.1620    -2.1060     1.7570 H     1 <1>   0.0800 
 40 H       -6.3300    -3.6310     0.9160 H     1 <1>   0.0800 
 41 H       -9.2030    -1.3970     0.4010 H     1 <1>   0.0800 
 42 H       -8.9980    -0.2320    -0.8940 H     1 <1>   0.0800 
 43 H       -7.8550    -4.0470    -2.0340 H     1 <1>   0.0800 
 44 H       -8.4500    -4.0040    -0.3850 H     1 <1>   0.0800 
 45 H      -10.5450    -1.2900    -2.2580 H     1 <1>   0.0800 
 46 H       -9.9000    -3.3720    -2.9060 H     1 <1>   0.0800 
 47 H      -12.4240    -1.9070    -1.1170 H     1 <1>   0.0800 
 48 H      -11.5580    -1.3660     0.3110 H     1 <1>   0.0800 
 49 H      -10.4250    -5.1900    -0.9040 H     1 <1>   0.0800 
 50 H      -11.6530    -4.4830    -1.9410 H     1 <1>   0.0800 
 51 H      -10.8420    -3.5860     0.8190 H     1 <1>   0.0800 
 52 H      -13.4380    -3.9270    -0.5340 H     1 <1>   0.4500 
 53 H      -12.9100    -3.2840     2.3090 H     1 <1>   0.0800 
 54 H      -14.4880    -3.6130     1.6240 H     1 <1>   0.0800 
 55 H      -13.5960    -2.1970     1.1190 H     1 <1>   0.0800 
 56 H      -12.2160    -5.6270     1.5610 H     1 <1>   0.0800 
 57 H      -12.4500    -6.0720    -0.1160 H     1 <1>   0.0800 
 58 H      -13.8340    -5.8210     0.9210 H     1 <1>   0.0800 
@<TRIPOS>BOND
  1   1   2  1   
  2   2   3  ar  
  3   2   4  ar  
  4   3   5  ar  
  5   3  27  1   
  6   4   6  ar  
  7   4  28  1   
  8   5   7  ar  
  9   5  29  1   
 10   6   7  ar  
 11   6  30  1   
 12   7   8  1   
 13   8   9  1   
 14   8  10  1   
 15   8  11  1   
 16   9  12  2   
 17   9  13  am  
 18  10  14  1   
 19  10  31  1   
 20  10  32  1   
 21  11  14  1   
 22  11  33  1   
 23  11  34  1   
 24  13  15  1   
 25  13  16  1   
 26  14  35  1   
 27  14  36  1   
 28  15  17  1   
 29  15  18  1   
 30  15  37  1   
 31  16  38  1   
 32  16  39  1   
 33  16  40  1   
 34  17  19  1   
 35  17  41  1   
 36  17  42  1   
 37  18  20  1   
 38  18  43  1   
 39  18  44  1   
 40  19  20  1   
 41  19  21  1   
 42  19  45  1   
 43  20  22  1   
 44  20  46  1   
 45  21  23  1   
 46  21  47  1   
 47  21  48  1   
 48  22  23  1   
 49  22  49  1   
 50  22  50  1   
 51  23  24  1   
 52  23  51  1   
 53  24  25  1   
 54  24  26  1   
 55  24  52  1   
 56  25  53  1   
 57  25  54  1   
 58  25  55  1   
 59  26  56  1   
 60  26  57  1   
 61  26  58  1   
@<TRIPOS>SUBSTRUCTURE
  1 ****  13 GROUP 4 **** **** 0

# MOE 2024.06 (io_trps.svl 2023.06)
