@<TRIPOS>MOLECULE
NONAME
48 51 1 0 0 
SMALL
USER_CHARGES


@<TRIPOS>ATOM
  1 S       -0.4630     0.4790     0.9610 S.o2  1 <1>   1.3330 
  2 O        0.5650    -0.0500     1.8290 O.2   1 <1>  -0.6500 
  3 O       -1.4530     1.3920     1.4910 O.2   1 <1>  -0.6500 
  4 N       -1.2930    -0.8270     0.2660 N.am  1 <1>  -0.8490 
  5 C        0.3440     1.2100    -0.4660 C.3   1 <1>  -0.0550 
  6 C       -2.5880    -0.4270    -0.2960 C.3   1 <1>   0.1960 
  7 C       -1.4720    -1.9300     1.2200 C.3   1 <1>   0.1960 
  8 C        1.2840     2.3800    -0.1280 C.3   1 <1>  -0.0800 
  9 C       -3.1910    -1.5880    -1.0840 C.3   1 <1>  -0.1600 
 10 C       -2.0470    -3.1510     0.5020 C.3   1 <1>  -0.1600 
 11 C        0.5660     3.6230     0.3950 C.3   1 <1>  -0.1600 
 12 C        2.0400     2.8930    -1.3510 C.3   1 <1>  -0.1600 
 13 C       -3.3700    -2.8170    -0.1880 C.3   1 <1>   0.4600 
 14 C        1.5040     4.7940     0.0930 C.3   1 <1>  -0.1600 
 15 C        2.5050     4.2940    -0.9550 C.3   1 <1>  -0.1600 
 16 O       -4.2860    -2.5080     0.8440 O.3   1 <1>  -0.5600 
 17 C       -3.9020    -4.0130    -0.9690 C.2   1 <1>  -0.1400 
 18 C       -5.6630    -2.6030     0.5610 C.3   1 <1>   0.1200 
 19 S       -2.9750    -4.8190    -2.2260 S.3   1 <1>  -0.0800 
 20 C       -5.0990    -4.5940    -0.8170 C.2   1 <1>  -0.1810 
 21 C       -6.0690    -4.0470     0.2060 C.3   1 <1>   0.0210 
 22 C       -4.2820    -5.9640    -2.4990 C.2   1 <1>  -0.1100 
 23 C       -5.3220    -5.7120    -1.6810 C.2   1 <1>  -0.1500 
 24 H       -0.3980     1.5460    -1.1620 H     1 <1>   0.0800 
 25 H        0.9210     0.4470    -0.9500 H     1 <1>   0.0800 
 26 H       -2.4560     0.4140    -0.9550 H     1 <1>   0.0800 
 27 H       -3.2580    -0.1290     0.4960 H     1 <1>   0.0800 
 28 H       -2.1240    -1.6210     2.0220 H     1 <1>   0.0800 
 29 H       -0.5220    -2.2060     1.6470 H     1 <1>   0.0800 
 30 H        2.0040     2.0600     0.6090 H     1 <1>   0.0800 
 31 H       -2.5310    -1.8320    -1.8950 H     1 <1>   0.0800 
 32 H       -4.1320    -1.3000    -1.5110 H     1 <1>   0.0800 
 33 H       -2.2030    -3.9510     1.2010 H     1 <1>   0.0800 
 34 H       -1.3300    -3.4850    -0.2250 H     1 <1>   0.0800 
 35 H        0.3510     3.5490     1.4480 H     1 <1>   0.0800 
 36 H       -0.3590     3.7670    -0.1370 H     1 <1>   0.0800 
 37 H        1.3710     2.9700    -2.1910 H     1 <1>   0.0800 
 38 H        2.8670     2.2560    -1.6130 H     1 <1>   0.0800 
 39 H        2.0290     5.0890     0.9850 H     1 <1>   0.0800 
 40 H        0.9460     5.6380    -0.2750 H     1 <1>   0.0800 
 41 H        2.5480     4.9480    -1.8090 H     1 <1>   0.0800 
 42 H        3.4840     4.2350    -0.5110 H     1 <1>   0.0800 
 43 H       -5.8910    -1.9390    -0.2540 H     1 <1>   0.0800 
 44 H       -6.2000    -2.2710     1.4330 H     1 <1>   0.0800 
 45 H       -7.0670    -4.0490    -0.1920 H     1 <1>   0.0800 
 46 H       -6.0510    -4.6600     1.0890 H     1 <1>   0.0800 
 47 H       -4.1290    -6.7160    -3.2530 H     1 <1>   0.1500 
 48 H       -6.2420    -6.2680    -1.6490 H     1 <1>   0.1500 
@<TRIPOS>BOND
  1   1   2  2   
  2   1   3  2   
  3   1   4  am  
  4   1   5  1   
  5   4   6  1   
  6   4   7  1   
  7   5   8  1   
  8   5  24  1   
  9   5  25  1   
 10   6   9  1   
 11   6  26  1   
 12   6  27  1   
 13   7  10  1   
 14   7  28  1   
 15   7  29  1   
 16   8  11  1   
 17   8  12  1   
 18   8  30  1   
 19   9  13  1   
 20   9  31  1   
 21   9  32  1   
 22  10  13  1   
 23  10  33  1   
 24  10  34  1   
 25  11  14  1   
 26  11  35  1   
 27  11  36  1   
 28  12  15  1   
 29  12  37  1   
 30  12  38  1   
 31  13  16  1   
 32  13  17  1   
 33  14  15  1   
 34  14  39  1   
 35  14  40  1   
 36  15  41  1   
 37  15  42  1   
 38  16  18  1   
 39  17  19  1   
 40  17  20  2   
 41  18  21  1   
 42  18  43  1   
 43  18  44  1   
 44  19  22  1   
 45  20  21  1   
 46  20  23  1   
 47  21  45  1   
 48  21  46  1   
 49  22  23  2   
 50  22  47  1   
 51  23  48  1   
@<TRIPOS>SUBSTRUCTURE
  1 ****   4 GROUP 4 **** **** 0

# MOE 2024.06 (io_trps.svl 2023.06)
