@<TRIPOS>MOLECULE
NONAME
45 46 1 0 0 
SMALL
USER_CHARGES


@<TRIPOS>ATOM
  1 S       -0.5150     0.2510     1.0070 S.o2  1 <1>   1.5010 
  2 O       -0.3430    -0.9830     1.7380 O.2   1 <1>  -0.6500 
  3 O       -1.0970     1.3920     1.6720 O.2   1 <1>  -0.6500 
  4 N       -1.5920    -0.0460    -0.2510 N.am  1 <1>  -0.9140 
  5 C        1.0170     0.7280     0.1670 C.2   1 <1>  -0.0630 
  6 C       -1.6840    -1.3770    -0.8580 C.3   1 <1>   0.2760 
  7 C        1.1810     1.7360    -0.7180 C.2   1 <1>  -0.1400 
  8 C        2.2420     0.0110     0.4010 C.2   1 <1>  -0.1500 
  9 C       -2.3810    -2.4160     0.0270 C.3   1 <1>  -0.0800 
 10 C       -0.3670    -2.0470    -1.2690 C.3   1 <1>   0.1200 
 11 S        2.8350     1.8180    -1.2960 S.3   1 <1>  -0.0800 
 12 C        0.2270     2.7730    -1.2810 C.3   1 <1>  -0.0600 
 13 C        3.2990     0.4580    -0.2980 C.2   1 <1>  -0.1400 
 14 C       -1.3520    -3.5480     0.0940 C.3   1 <1>   0.1200 
 15 C       -3.7010    -2.8870    -0.6130 C.3   1 <1>  -0.0550 
 16 O       -0.5850    -3.4030    -1.0550 O.3   1 <1>  -0.5600 
 17 C        4.7430     0.0100    -0.3620 C.3   1 <1>  -0.0600 
 18 S       -4.7460    -3.8250     0.5010 S.o2  1 <1>   1.3330 
 19 O       -4.1110    -5.0770     0.8420 O.2   1 <1>  -0.6500 
 20 O       -5.1670    -2.9220     1.5480 O.2   1 <1>  -0.6500 
 21 N       -6.0940    -4.1730    -0.4700 N.am  1 <1>  -0.8490 
 22 C       -7.3230    -4.3170     0.3170 C.3   1 <1>   0.1160 
 23 C       -5.9080    -5.3560    -1.3190 C.3   1 <1>   0.1160 
 24 H       -2.4940     0.1940     0.1560 H     1 <1>   0.4200 
 25 H       -2.2540    -1.2620    -1.7650 H     1 <1>   0.0800 
 26 H        2.2640    -0.8160     1.0920 H     1 <1>   0.1500 
 27 H       -2.5780    -2.0420     1.0170 H     1 <1>   0.0800 
 28 H        0.4650    -1.7600    -0.6560 H     1 <1>   0.0800 
 29 H       -0.1380    -1.8920    -2.3080 H     1 <1>   0.0800 
 30 H       -0.7570     2.6540    -0.8650 H     1 <1>   0.0800 
 31 H        0.1660     2.6730    -2.3490 H     1 <1>   0.0800 
 32 H        0.5810     3.7600    -1.0430 H     1 <1>   0.0800 
 33 H       -1.7820    -4.5340     0.1070 H     1 <1>   0.0800 
 34 H       -0.7020    -3.4310     0.9460 H     1 <1>   0.0800 
 35 H       -3.4820    -3.4730    -1.4840 H     1 <1>   0.0800 
 36 H       -4.2580    -2.0270    -0.9310 H     1 <1>   0.0800 
 37 H        4.9020    -0.8280     0.2920 H     1 <1>   0.0800 
 38 H        5.3900     0.8150    -0.0610 H     1 <1>   0.0800 
 39 H        4.9930    -0.2800    -1.3670 H     1 <1>   0.0800 
 40 H       -8.1590    -4.5210    -0.3290 H     1 <1>   0.0800 
 41 H       -7.5280    -3.4040     0.8520 H     1 <1>   0.0800 
 42 H       -7.2200    -5.1190     1.0300 H     1 <1>   0.0800 
 43 H       -6.7510    -5.4750    -1.9780 H     1 <1>   0.0800 
 44 H       -5.8100    -6.2430    -0.7130 H     1 <1>   0.0800 
 45 H       -5.0210    -5.2490    -1.9190 H     1 <1>   0.0800 
@<TRIPOS>BOND
  1   1   2  2   
  2   1   3  2   
  3   1   4  am  
  4   1   5  1   
  5   4   6  1   
  6   4  24  1   
  7   5   7  2   
  8   5   8  1   
  9   6   9  1   
 10   6  10  1   
 11   6  25  1   
 12   7  11  1   
 13   7  12  1   
 14   8  13  2   
 15   8  26  1   
 16   9  14  1   
 17   9  15  1   
 18   9  27  1   
 19  10  16  1   
 20  10  28  1   
 21  10  29  1   
 22  11  13  1   
 23  12  30  1   
 24  12  31  1   
 25  12  32  1   
 26  13  17  1   
 27  14  16  1   
 28  14  33  1   
 29  14  34  1   
 30  15  18  1   
 31  15  35  1   
 32  15  36  1   
 33  17  37  1   
 34  17  38  1   
 35  17  39  1   
 36  18  19  2   
 37  18  20  2   
 38  18  21  am  
 39  21  22  1   
 40  21  23  1   
 41  22  40  1   
 42  22  41  1   
 43  22  42  1   
 44  23  43  1   
 45  23  44  1   
 46  23  45  1   
@<TRIPOS>SUBSTRUCTURE
  1 ****   6 GROUP 4 **** **** 0

# MOE 2024.06 (io_trps.svl 2023.06)
