@<TRIPOS>MOLECULE
NONAME
49 51 1 0 0 
SMALL
USER_CHARGES


@<TRIPOS>ATOM
  1 N       -0.1600     0.1940     1.0790 N.ar  1 <1>  -0.6200 
  2 C        0.7010     1.0980     1.4910 C.ar  1 <1>   0.7710 
  3 C       -1.1380     0.5970     0.2920 C.ar  1 <1>   0.4100 
  4 N        0.6310     2.3930     1.1450 N.ar  1 <1>  -0.1790 
  5 N        1.6770     0.6700     2.2880 N.pl3 1 <1>  -0.9000 
  6 N       -2.0160    -0.3440    -0.1250 N.pl3 1 <1>  -0.8690 
  7 C       -1.2790     1.9470    -0.1180 C.ar  1 <1>  -0.1430 
  8 C       -0.3590     2.8410     0.3360 C.ar  1 <1>   0.2110 
  9 C       -2.0340    -1.7600     0.2750 C.3   1 <1>   0.2890 
 10 C       -2.4430     2.3400    -1.0370 C.3   1 <1>  -0.0170 
 11 C       -1.2650    -2.5760    -0.7590 C.3   1 <1>  -0.1600 
 12 C       -3.4790    -2.2360     0.3740 C.3   1 <1>  -0.1600 
 13 C       -2.5080     3.8270    -1.4090 C.3   1 <1>  -0.2400 
 14 C       -1.3270    -4.0610    -0.4190 C.3   1 <1>   0.3430 
 15 C       -3.5240    -3.7260     0.7030 C.3   1 <1>   0.3430 
 16 N       -2.7500    -4.4980    -0.3190 N.4   1 <1>  -0.9590 
 17 C       -2.8370    -5.9690    -0.0760 C.3   1 <1>   0.4860 
 18 C       -4.2810    -6.4070    -0.1950 C.ar  1 <1>  -0.1430 
 19 C       -4.8690    -6.5240    -1.4470 C.ar  1 <1>   0.1600 
 20 C       -5.0370    -6.6930     0.9260 C.ar  1 <1>  -0.1500 
 21 N       -6.1250    -6.8660    -1.6580 N.ar  1 <1>  -0.6200 
 22 C       -6.3480    -7.0640     0.7170 C.ar  1 <1>  -0.1500 
 23 C       -6.8380    -7.1330    -0.5760 C.ar  1 <1>   0.1600 
 24 H        1.3460     3.0120     1.5160 H     1 <1>   0.4570 
 25 H        2.4370     1.2040     2.7130 H     1 <1>   0.4000 
 26 H        1.6930    -0.3240     2.5330 H     1 <1>   0.4000 
 27 H       -2.7580    -0.0770    -0.7770 H     1 <1>   0.4000 
 28 H       -0.3730     3.8890     0.0860 H     1 <1>   0.1500 
 29 H       -1.5640    -1.8710     1.2400 H     1 <1>   0.0800 
 30 H       -3.3700     2.0760    -0.5570 H     1 <1>   0.0800 
 31 H       -2.3740     1.7710    -1.9490 H     1 <1>   0.0800 
 32 H       -0.2360    -2.2620    -0.7600 H     1 <1>   0.0800 
 33 H       -1.6660    -2.4120    -1.7440 H     1 <1>   0.0800 
 34 H       -4.0030    -2.0580    -0.5480 H     1 <1>   0.0800 
 35 H       -3.9790    -1.6930     1.1570 H     1 <1>   0.0800 
 36 H       -2.6300     4.4400    -0.5320 H     1 <1>   0.0800 
 37 H       -3.3550     4.0000    -2.0510 H     1 <1>   0.0800 
 38 H       -1.6250     4.1310    -1.9430 H     1 <1>   0.0800 
 39 H       -0.8240    -4.2340     0.5190 H     1 <1>   0.0800 
 40 H       -0.8170    -4.6240    -1.1850 H     1 <1>   0.0800 
 41 H       -4.5520    -4.0540     0.7160 H     1 <1>   0.0800 
 42 H       -3.1050    -3.8920     1.6830 H     1 <1>   0.0800 
 43 H       -3.2030    -4.3230    -1.2260 H     1 <1>   0.4500 
 44 H       -2.4630    -6.2080     0.9060 H     1 <1>   0.0800 
 45 H       -2.2450    -6.5010    -0.8040 H     1 <1>   0.0800 
 46 H       -4.2860    -6.3260    -2.3300 H     1 <1>   0.1500 
 47 H       -4.6410    -6.6390     1.9270 H     1 <1>   0.1500 
 48 H       -6.9930    -7.3030     1.5450 H     1 <1>   0.1500 
 49 H       -7.8650    -7.4230    -0.7280 H     1 <1>   0.1500 
@<TRIPOS>BOND
  1   1   2  ar  
  2   1   3  ar  
  3   2   4  ar  
  4   2   5  1   
  5   3   6  1   
  6   3   7  ar  
  7   4   8  ar  
  8   4  24  1   
  9   5  25  1   
 10   5  26  1   
 11   6   9  1   
 12   6  27  1   
 13   7   8  ar  
 14   7  10  1   
 15   8  28  1   
 16   9  11  1   
 17   9  12  1   
 18   9  29  1   
 19  10  13  1   
 20  10  30  1   
 21  10  31  1   
 22  11  14  1   
 23  11  32  1   
 24  11  33  1   
 25  12  15  1   
 26  12  34  1   
 27  12  35  1   
 28  13  36  1   
 29  13  37  1   
 30  13  38  1   
 31  14  16  1   
 32  14  39  1   
 33  14  40  1   
 34  15  16  1   
 35  15  41  1   
 36  15  42  1   
 37  16  17  1   
 38  16  43  1   
 39  17  18  1   
 40  17  44  1   
 41  17  45  1   
 42  18  19  ar  
 43  18  20  ar  
 44  19  21  ar  
 45  19  46  1   
 46  20  22  ar  
 47  20  47  1   
 48  21  23  ar  
 49  22  23  ar  
 50  22  48  1   
 51  23  49  1   
@<TRIPOS>SUBSTRUCTURE
  1 ****   9 GROUP 4 **** **** 0

# MOE 2024.06 (io_trps.svl 2023.06)
