@<TRIPOS>MOLECULE
NONAME
59 62 1 0 0 
SMALL
USER_CHARGES


@<TRIPOS>ATOM
  1 O       -1.4540     0.7680     1.0990 O.3   1 <1>  -0.3630 
  2 C       -0.6840     1.8120     0.6940 C.ar  1 <1>   0.0830 
  3 C       -0.8990    -0.5160     1.3020 C.3   1 <1>   0.0400 
  4 C       -1.2790     3.0650     0.6660 C.ar  1 <1>  -0.1440 
  5 C        0.6460     1.6730     0.3050 C.ar  1 <1>  -0.1500 
  6 C       -0.5640     4.1740     0.2330 C.ar  1 <1>   0.0830 
  7 C       -2.7180     3.2190     1.1100 C.3   1 <1>   0.4870 
  8 C        1.3630     2.7790    -0.1140 C.ar  1 <1>  -0.1500 
  9 O       -1.2180     5.3670     0.1980 O.3   1 <1>  -0.3630 
 10 C        0.7650     4.0250    -0.1540 C.ar  1 <1>  -0.1500 
 11 N       -3.5280     3.5920    -0.0740 N.4   1 <1>  -0.9590 
 12 C       -0.5110     6.5760     0.0000 C.3   1 <1>   0.0400 
 13 C       -4.8950     4.0580     0.3180 C.3   1 <1>   0.3430 
 14 C       -3.5730     2.4800    -1.0650 C.3   1 <1>   0.3430 
 15 C       -5.6960     4.5540    -0.8990 C.3   1 <1>   0.1430 
 16 C       -4.3190     2.9370    -2.3220 C.3   1 <1>  -0.1600 
 17 C       -7.0990     4.8760    -0.4440 C.ar  1 <1>   0.1670 
 18 C       -5.7260     3.4730    -2.0000 C.3   1 <1>  -0.1600 
 19 C       -5.1950     5.9230    -1.4370 C.3   1 <1>  -0.1600 
 20 N       -7.8300     4.0930     0.3050 N.ar  1 <1>  -0.6200 
 21 C       -7.5110     6.0920    -0.8930 C.ar  1 <1>  -0.1430 
 22 C       -6.4500     6.7710    -1.7220 C.3   1 <1>  -0.0170 
 23 C       -9.0430     4.5710     0.6010 C.ar  1 <1>   0.7200 
 24 C       -8.7710     6.5030    -0.5360 C.ar  1 <1>   0.1600 
 25 N       -9.5410     5.7490     0.2120 N.ar  1 <1>  -0.6200 
 26 N       -9.8510     3.7760     1.3880 N.pl3 1 <1>  -0.8380 
 27 C      -11.0780     4.3120     2.0400 C.3   1 <1>   0.1290 
 28 C       -9.6770     2.3000     1.4770 C.3   1 <1>   0.1290 
 29 H       -1.6720    -1.1620     1.6780 H     1 <1>   0.0800 
 30 H       -0.1030    -0.4450     2.0220 H     1 <1>   0.0800 
 31 H       -0.5340    -0.8950     0.3630 H     1 <1>   0.0800 
 32 H        1.1400     0.7190     0.3180 H     1 <1>   0.1500 
 33 H       -2.7690     3.9980     1.8530 H     1 <1>   0.0800 
 34 H       -3.0840     2.3040     1.5450 H     1 <1>   0.0800 
 35 H        2.3920     2.6680    -0.4130 H     1 <1>   0.1500 
 36 H        1.3520     4.8600    -0.4920 H     1 <1>   0.1500 
 37 H       -3.0040     4.3760    -0.4930 H     1 <1>   0.4500 
 38 H       -1.2010     7.3940     0.1070 H     1 <1>   0.0800 
 39 H       -0.0920     6.5820    -0.9910 H     1 <1>   0.0800 
 40 H        0.2640     6.6560     0.7420 H     1 <1>   0.0800 
 41 H       -4.8280     4.8530     1.0420 H     1 <1>   0.0800 
 42 H       -5.4380     3.2430     0.7700 H     1 <1>   0.0800 
 43 H       -4.0780     1.6310    -0.6340 H     1 <1>   0.0800 
 44 H       -2.5720     2.1760    -1.3290 H     1 <1>   0.0800 
 45 H       -4.4050     2.1020    -2.9950 H     1 <1>   0.0800 
 46 H       -3.7350     3.6880    -2.8250 H     1 <1>   0.0800 
 47 H       -6.1880     3.8640    -2.8910 H     1 <1>   0.0800 
 48 H       -6.3370     2.6520    -1.6610 H     1 <1>   0.0800 
 49 H       -4.5830     5.8320    -2.3170 H     1 <1>   0.0800 
 50 H       -4.6230     6.4240    -0.6750 H     1 <1>   0.0800 
 51 H       -6.7200     6.7200    -2.7630 H     1 <1>   0.0800 
 52 H       -6.3130     7.7990    -1.4310 H     1 <1>   0.0800 
 53 H       -9.1510     7.4550    -0.8640 H     1 <1>   0.1500 
 54 H      -10.9460     5.3500     2.2970 H     1 <1>   0.0800 
 55 H      -11.2880     3.7650     2.9420 H     1 <1>   0.0800 
 56 H      -11.9120     4.2240     1.3660 H     1 <1>   0.0800 
 57 H       -9.0730     1.9360     0.6650 H     1 <1>   0.0800 
 58 H      -10.6360     1.8140     1.4260 H     1 <1>   0.0800 
 59 H       -9.2020     2.0500     2.4090 H     1 <1>   0.0800 
@<TRIPOS>BOND
  1   1   2  1   
  2   1   3  1   
  3   2   4  ar  
  4   2   5  ar  
  5   3  29  1   
  6   3  30  1   
  7   3  31  1   
  8   4   6  ar  
  9   4   7  1   
 10   5   8  ar  
 11   5  32  1   
 12   6   9  1   
 13   6  10  ar  
 14   7  11  1   
 15   7  33  1   
 16   7  34  1   
 17   8  10  ar  
 18   8  35  1   
 19   9  12  1   
 20  10  36  1   
 21  11  13  1   
 22  11  14  1   
 23  11  37  1   
 24  12  38  1   
 25  12  39  1   
 26  12  40  1   
 27  13  15  1   
 28  13  41  1   
 29  13  42  1   
 30  14  16  1   
 31  14  43  1   
 32  14  44  1   
 33  15  17  1   
 34  15  18  1   
 35  15  19  1   
 36  16  18  1   
 37  16  45  1   
 38  16  46  1   
 39  17  20  ar  
 40  17  21  ar  
 41  18  47  1   
 42  18  48  1   
 43  19  22  1   
 44  19  49  1   
 45  19  50  1   
 46  20  23  ar  
 47  21  22  1   
 48  21  24  ar  
 49  22  51  1   
 50  22  52  1   
 51  23  25  ar  
 52  23  26  1   
 53  24  25  ar  
 54  24  53  1   
 55  26  27  1   
 56  26  28  1   
 57  27  54  1   
 58  27  55  1   
 59  27  56  1   
 60  28  57  1   
 61  28  58  1   
 62  28  59  1   
@<TRIPOS>SUBSTRUCTURE
  1 ****  13 GROUP 4 **** **** 0

# MOE 2024.06 (io_trps.svl 2023.06)
