@<TRIPOS>MOLECULE
NONAME
41 43 1 0 0 
SMALL
USER_CHARGES


@<TRIPOS>ATOM
  1 S       -0.0510    -0.2300     0.0690 S.3   1 <1>  -0.0800 
  2 C       -1.4040    -1.0140    -0.6750 C.2   1 <1>   0.4420 
  3 C       -0.3870     1.1470    -0.9300 C.2   1 <1>   0.1980 
  4 N       -1.9710    -0.2740    -1.5560 N.2   1 <1>  -0.3380 
  5 N       -1.6910    -2.2900    -0.2420 N.am  1 <1>  -0.4940 
  6 N       -1.3870     0.9540    -1.6960 N.2   1 <1>  -0.3380 
  7 C        0.5280     2.3650    -0.7980 C.3   1 <1>   0.3800 
  8 C       -2.6620    -3.1770    -0.6460 C.2   1 <1>   0.6300 
  9 O        0.7020     2.6660     0.5590 O.3   1 <1>  -0.5600 
 10 C       -0.0440     3.6060    -1.4920 C.3   1 <1>  -0.2400 
 11 O       -3.4200    -2.8820    -1.5500 O.2   1 <1>  -0.5700 
 12 C       -2.7550    -4.4670     0.0280 C.2   1 <1>   0.4360 
 13 C        1.9050     3.2840     0.8960 C.3   1 <1>   0.0400 
 14 N       -1.9090    -4.7590     0.9890 N.2   1 <1>  -0.5760 
 15 C       -3.7680    -5.4060    -0.3640 C.2   1 <1>  -0.1360 
 16 C       -2.0400    -5.9790     1.5880 C.2   1 <1>   0.3120 
 17 C       -3.8940    -6.6220     0.2370 C.2   1 <1>  -0.1690 
 18 N       -1.2950    -6.4210     2.5520 N.2   1 <1>  -0.5650 
 19 N       -2.9870    -6.9010     1.2470 N.pl3 1 <1>   0.6010 
 20 C       -4.9320    -7.6930    -0.1070 C.3   1 <1>   0.0580 
 21 C       -1.8310    -7.6200     2.7660 C.2   1 <1>   0.3660 
 22 N       -2.8400    -7.9670     2.0270 N.2   1 <1>  -0.7070 
 23 C       -4.3030    -8.7550    -1.0140 C.3   1 <1>  -0.2400 
 24 C       -6.1830    -7.1120    -0.7790 C.3   1 <1>  -0.2400 
 25 H       -1.1020    -2.6460     0.5120 H     1 <1>   0.3700 
 26 H        1.4850     2.1090    -1.2210 H     1 <1>   0.0800 
 27 H       -0.9830     3.8740    -1.0440 H     1 <1>   0.0800 
 28 H       -0.2150     3.3920    -2.5320 H     1 <1>   0.0800 
 29 H        0.6360     4.4340    -1.4270 H     1 <1>   0.0800 
 30 H        1.9090     3.4440     1.9600 H     1 <1>   0.0800 
 31 H        1.9820     4.2310     0.3920 H     1 <1>   0.0800 
 32 H        2.7250     2.6400     0.6270 H     1 <1>   0.0800 
 33 H       -4.4230    -5.1030    -1.1620 H     1 <1>   0.1500 
 34 H       -5.2520    -8.1690     0.8060 H     1 <1>   0.0800 
 35 H       -1.4300    -8.2670     3.5310 H     1 <1>   0.1500 
 36 H       -3.9610    -8.3150    -1.9330 H     1 <1>   0.0800 
 37 H       -5.0220    -9.5220    -1.2440 H     1 <1>   0.0800 
 38 H       -3.4660    -9.2190    -0.5210 H     1 <1>   0.0800 
 39 H       -5.9530    -6.7130    -1.7510 H     1 <1>   0.0800 
 40 H       -6.6050    -6.3320    -0.1690 H     1 <1>   0.0800 
 41 H       -6.9250    -7.8820    -0.8990 H     1 <1>   0.0800 
@<TRIPOS>BOND
  1   1   2  1   
  2   1   3  1   
  3   2   4  2   
  4   2   5  1   
  5   3   6  2   
  6   3   7  1   
  7   4   6  1   
  8   5   8  am  
  9   5  25  1   
 10   7   9  1   
 11   7  10  1   
 12   7  26  1   
 13   8  11  2   
 14   8  12  1   
 15   9  13  1   
 16  10  27  1   
 17  10  28  1   
 18  10  29  1   
 19  12  14  2   
 20  12  15  1   
 21  13  30  1   
 22  13  31  1   
 23  13  32  1   
 24  14  16  1   
 25  15  17  2   
 26  15  33  1   
 27  16  18  2   
 28  16  19  1   
 29  17  19  1   
 30  17  20  1   
 31  18  21  1   
 32  19  22  1   
 33  20  23  1   
 34  20  24  1   
 35  20  34  1   
 36  21  22  2   
 37  21  35  1   
 38  23  36  1   
 39  23  37  1   
 40  23  38  1   
 41  24  39  1   
 42  24  40  1   
 43  24  41  1   
@<TRIPOS>SUBSTRUCTURE
  1 ****   8 GROUP 4 **** **** 0

# MOE 2024.06 (io_trps.svl 2023.06)
