@<TRIPOS>MOLECULE
NONAME
53 56 1 0 0 
SMALL
USER_CHARGES


@<TRIPOS>ATOM
  1 O       -0.5180    -0.5990    -0.3120 O.2   1 <1>  -0.5700 
  2 C       -0.4530    -1.4930     0.5040 C.2   1 <1>   0.5690 
  3 N        0.3220    -1.3990     1.6360 N.am  1 <1>  -0.6600 
  4 C       -1.3060    -2.7400     0.2060 C.3   1 <1>   0.4040 
  5 C        1.1200    -0.1690     1.9270 C.3   1 <1>   0.0600 
  6 C        0.4830    -2.4620     2.6710 C.3   1 <1>   0.0600 
  7 N       -2.4020    -2.4610    -0.7960 N.4   1 <1>  -0.9590 
  8 C       -3.4830    -1.6140    -0.1860 C.3   1 <1>   0.3430 
  9 C       -2.9460    -3.6840    -1.4470 C.3   1 <1>   0.3430 
 10 C       -4.5040    -1.1530    -1.2390 C.3   1 <1>   0.1430 
 11 C       -3.9350    -3.2800    -2.5450 C.3   1 <1>  -0.1600 
 12 C       -5.6250    -0.4280    -0.5330 C.ar  1 <1>   0.1670 
 13 C       -5.0580    -2.3680    -2.0150 C.3   1 <1>  -0.1600 
 14 C       -3.9360    -0.0600    -2.1850 C.3   1 <1>  -0.1600 
 15 N       -6.2460    -0.8780     0.5280 N.ar  1 <1>  -0.6200 
 16 C       -5.9090     0.7640    -1.1210 C.ar  1 <1>  -0.1440 
 17 C       -5.0250     1.0240    -2.3160 C.3   1 <1>  -0.0170 
 18 C       -7.2120    -0.0810     1.0110 C.ar  1 <1>   0.6200 
 19 C       -6.9070     1.5220    -0.5660 C.ar  1 <1>   0.1600 
 20 N       -7.5590     1.1080     0.4970 N.ar  1 <1>  -0.6200 
 21 C       -7.9330    -0.5410     2.1880 C.ar  1 <1>   0.0000 
 22 C       -8.1920    -1.8970     2.4050 C.ar  1 <1>  -0.1500 
 23 C       -8.3990     0.3540     3.1560 C.ar  1 <1>  -0.1500 
 24 C       -8.8720    -2.3370     3.5260 C.ar  1 <1>  -0.1500 
 25 C       -9.0800    -0.0790     4.2790 C.ar  1 <1>  -0.1500 
 26 C       -9.3180    -1.4280     4.4670 C.ar  1 <1>  -0.1500 
 27 H       -1.7350    -3.1000     1.1250 H     1 <1>   0.0800 
 28 H       -0.6470    -3.4960    -0.1820 H     1 <1>   0.0800 
 29 H        0.9510     0.5910     1.1840 H     1 <1>   0.0800 
 30 H        2.1690    -0.4080     1.9360 H     1 <1>   0.0800 
 31 H        0.8430     0.2290     2.8880 H     1 <1>   0.0800 
 32 H        0.0030    -3.3800     2.3830 H     1 <1>   0.0800 
 33 H        0.0600    -2.1260     3.6030 H     1 <1>   0.0800 
 34 H        1.5310    -2.6620     2.8220 H     1 <1>   0.0800 
 35 H       -1.9490    -1.8660    -1.5100 H     1 <1>   0.4500 
 36 H       -3.0540    -0.7430     0.2830 H     1 <1>   0.0800 
 37 H       -4.0030    -2.1770     0.5710 H     1 <1>   0.0800 
 38 H       -3.4520    -4.2920    -0.7140 H     1 <1>   0.0800 
 39 H       -2.1460    -4.2640    -1.8790 H     1 <1>   0.0800 
 40 H       -4.3740    -4.1710    -2.9610 H     1 <1>   0.0800 
 41 H       -3.4010    -2.7920    -3.3420 H     1 <1>   0.0800 
 42 H       -5.6790    -2.0340    -2.8290 H     1 <1>   0.0800 
 43 H       -5.6850    -2.9440    -1.3550 H     1 <1>   0.0800 
 44 H       -3.6550    -0.4400    -3.1500 H     1 <1>   0.0800 
 45 H       -3.0690     0.3950    -1.7350 H     1 <1>   0.0800 
 46 H       -5.5930     0.8890    -3.2210 H     1 <1>   0.0800 
 47 H       -4.6050     2.0150    -2.2940 H     1 <1>   0.0800 
 48 H       -7.1740     2.4750    -0.9920 H     1 <1>   0.1500 
 49 H       -7.8570    -2.6180     1.6810 H     1 <1>   0.1500 
 50 H       -8.2240     1.4080     3.0240 H     1 <1>   0.1500 
 51 H       -9.0580    -3.3880     3.6670 H     1 <1>   0.1500 
 52 H       -9.4260     0.6350     5.0060 H     1 <1>   0.1500 
 53 H       -9.8480    -1.7670     5.3400 H     1 <1>   0.1500 
@<TRIPOS>BOND
  1   1   2  2   
  2   2   3  am  
  3   2   4  1   
  4   3   5  1   
  5   3   6  1   
  6   4   7  1   
  7   4  27  1   
  8   4  28  1   
  9   5  29  1   
 10   5  30  1   
 11   5  31  1   
 12   6  32  1   
 13   6  33  1   
 14   6  34  1   
 15   7   8  1   
 16   7   9  1   
 17   7  35  1   
 18   8  10  1   
 19   8  36  1   
 20   8  37  1   
 21   9  11  1   
 22   9  38  1   
 23   9  39  1   
 24  10  12  1   
 25  10  13  1   
 26  10  14  1   
 27  11  13  1   
 28  11  40  1   
 29  11  41  1   
 30  12  15  ar  
 31  12  16  ar  
 32  13  42  1   
 33  13  43  1   
 34  14  17  1   
 35  14  44  1   
 36  14  45  1   
 37  15  18  ar  
 38  16  17  1   
 39  16  19  ar  
 40  17  46  1   
 41  17  47  1   
 42  18  20  ar  
 43  18  21  1   
 44  19  20  ar  
 45  19  48  1   
 46  21  22  ar  
 47  21  23  ar  
 48  22  24  ar  
 49  22  49  1   
 50  23  25  ar  
 51  23  50  1   
 52  24  26  ar  
 53  24  51  1   
 54  25  26  ar  
 55  25  52  1   
 56  26  53  1   
@<TRIPOS>SUBSTRUCTURE
  1 ****  12 GROUP 4 **** **** 0

# MOE 2024.06 (io_trps.svl 2023.06)
