@<TRIPOS>MOLECULE
NONAME
40 43 1 0 0 
SMALL
USER_CHARGES


@<TRIPOS>ATOM
  1 O       -0.0910    -0.0150    -0.2880 O.2   1 <1>  -0.5700 
  2 C        0.9100    -0.5390     0.1400 C.2   1 <1>   0.6300 
  3 N        2.0990     0.1030     0.2870 N.am  1 <1>  -0.4930 
  4 C        0.8540    -2.0000     0.5600 C.3   1 <1>  -0.1000 
  5 C        2.4450     1.4430    -0.0190 C.2   1 <1>   0.0630 
  6 C        1.9910    -2.9480     0.2560 C.3   1 <1>  -0.1950 
  7 C        0.7010    -3.0800    -0.4780 C.3   1 <1>  -0.1950 
  8 C        3.6570     2.0180     0.1450 C.2   1 <1>  -0.3320 
  9 C        1.6400     2.4530    -0.5460 C.2   1 <1>   0.1390 
 10 C        2.2230    -4.3460     0.8610 C.3   1 <1>   0.0150 
 11 C        0.2800    -4.5440    -0.2460 C.3   1 <1>   0.0150 
 12 N        3.5340     3.3040    -0.2770 N.pl3 1 <1>   0.3140 
 13 C        4.9460     1.4150     0.6850 C.3   1 <1>  -0.0600 
 14 N        2.2860     3.5690    -0.7010 N.2   1 <1>  -0.7070 
 15 C        0.8060    -4.8240     1.1570 C.3   1 <1>  -0.1600 
 16 C        2.5830    -5.2780    -0.3120 C.3   1 <1>  -0.1600 
 17 C        1.2440    -5.4120    -1.0770 C.3   1 <1>  -0.1600 
 18 C        4.5770     4.3530    -0.3010 C.3   1 <1>   0.0960 
 19 C        5.3730     4.3150    -1.6130 C.3   1 <1>  -0.2400 
 20 H        2.8560    -0.4630     0.6580 H     1 <1>   0.3700 
 21 H        0.3050    -2.1020     1.4760 H     1 <1>   0.1000 
 22 H        2.8370    -2.5770    -0.2980 H     1 <1>   0.1000 
 23 H        0.6420    -2.7660    -1.5070 H     1 <1>   0.1000 
 24 H        0.6000     2.3270    -0.7970 H     1 <1>   0.1500 
 25 H        2.9060    -4.3740     1.6920 H     1 <1>   0.0800 
 26 H       -0.7670    -4.7420    -0.4000 H     1 <1>   0.0800 
 27 H        4.8050     0.3830     0.9480 H     1 <1>   0.0800 
 28 H        5.2640     1.9470     1.5640 H     1 <1>   0.0800 
 29 H        5.7220     1.4710    -0.0580 H     1 <1>   0.0800 
 30 H        0.3110    -4.2540     1.9220 H     1 <1>   0.0800 
 31 H        0.7650    -5.8690     1.4130 H     1 <1>   0.0800 
 32 H        3.3590    -4.8620    -0.9310 H     1 <1>   0.0800 
 33 H        2.9000    -6.2390     0.0550 H     1 <1>   0.0800 
 34 H        0.9150    -6.4370    -1.0820 H     1 <1>   0.0800 
 35 H        1.3220    -5.0590    -2.0910 H     1 <1>   0.0800 
 36 H        4.0900     5.3060    -0.1990 H     1 <1>   0.0800 
 37 H        5.2300     4.2140     0.5400 H     1 <1>   0.0800 
 38 H        4.7100     4.4680    -2.4460 H     1 <1>   0.0800 
 39 H        5.8710     3.3700    -1.7260 H     1 <1>   0.0800 
 40 H        6.1110     5.0970    -1.6150 H     1 <1>   0.0800 
@<TRIPOS>BOND
  1   1   2  2   
  2   2   3  am  
  3   2   4  1   
  4   3   5  1   
  5   3  20  1   
  6   4   6  1   
  7   4   7  1   
  8   4  21  1   
  9   5   8  2   
 10   5   9  1   
 11   6   7  1   
 12   6  10  1   
 13   6  22  1   
 14   7  11  1   
 15   7  23  1   
 16   8  12  1   
 17   8  13  1   
 18   9  14  2   
 19   9  24  1   
 20  10  15  1   
 21  10  16  1   
 22  10  25  1   
 23  11  15  1   
 24  11  17  1   
 25  11  26  1   
 26  12  14  1   
 27  12  18  1   
 28  13  27  1   
 29  13  28  1   
 30  13  29  1   
 31  15  30  1   
 32  15  31  1   
 33  16  17  1   
 34  16  32  1   
 35  16  33  1   
 36  17  34  1   
 37  17  35  1   
 38  18  19  1   
 39  18  36  1   
 40  18  37  1   
 41  19  38  1   
 42  19  39  1   
 43  19  40  1   
@<TRIPOS>SUBSTRUCTURE
  1 ****   3 GROUP 4 **** **** 0

# MOE 2024.06 (io_trps.svl 2023.06)
