@<TRIPOS>MOLECULE
NONAME
44 47 1 0 0 
SMALL
USER_CHARGES


@<TRIPOS>ATOM
  1 O        3.7020    -1.5550    -1.8790 O.2   1 <1>  -0.5700 
  2 C        2.8650    -1.5080    -0.9940 C.2   1 <1>   0.5440 
  3 N        2.7400    -0.3000    -0.3570 N.am  1 <1>  -0.6600 
  4 C        2.1100    -2.6790    -0.5810 C.ar  1 <1>   0.0860 
  5 C        3.4940    -0.1330     0.9350 C.3   1 <1>   0.2200 
  6 C        2.4470     0.9090    -1.1900 C.3   1 <1>   0.1400 
  7 C        0.9930    -2.5850     0.2400 C.ar  1 <1>  -0.1500 
  8 C        2.5020    -3.9680    -1.0090 C.ar  1 <1>  -0.1500 
  9 C        2.9470     1.0060     1.8090 C.3   1 <1>   0.1200 
 10 C        5.0140     0.0510     0.6770 C.3   1 <1>   0.3430 
 11 C        3.3700     2.1180    -0.9410 C.3   1 <1>  -0.0800 
 12 C        0.3020    -3.7320     0.6310 C.ar  1 <1>  -0.1520 
 13 C        1.8260    -5.1020    -0.6270 C.ar  1 <1>  -0.1500 
 14 O        3.5450     2.2210     1.4680 O.3   1 <1>  -0.5600 
 15 N        5.3250     0.4660    -0.7360 N.4   1 <1>  -0.9590 
 16 C        3.0170     2.8630     0.3570 C.3   1 <1>   0.1200 
 17 C        4.8860     1.8550    -1.0750 C.3   1 <1>   0.3430 
 18 N       -0.8100    -3.8890     1.4220 N.pl3 1 <1>   0.0330 
 19 C        0.7120    -4.9910     0.2070 C.ar  1 <1>   0.0000 
 20 C        6.7550     0.2360    -1.0770 C.3   1 <1>   0.2630 
 21 C       -1.0930    -5.2230     1.4990 C.2   1 <1>  -0.3020 
 22 C       -0.1860    -5.9190     0.7710 C.2   1 <1>  -0.1500 
 23 H        3.3670    -1.0380     1.5040 H     1 <1>   0.0800 
 24 H        2.5110     0.6390    -2.2320 H     1 <1>   0.0800 
 25 H        1.4260     1.2020    -1.0110 H     1 <1>   0.0800 
 26 H        0.6440    -1.6270     0.5790 H     1 <1>   0.1500 
 27 H        3.3570    -4.0570    -1.6560 H     1 <1>   0.1500 
 28 H        3.2080     0.8180     2.8360 H     1 <1>   0.0800 
 29 H        1.8750     1.0850     1.7450 H     1 <1>   0.0800 
 30 H        5.4940    -0.8920     0.8760 H     1 <1>   0.0800 
 31 H        5.4140     0.7700     1.3730 H     1 <1>   0.0800 
 32 H        3.1300     2.8210    -1.7180 H     1 <1>   0.0800 
 33 H        2.1340    -6.0780    -0.9580 H     1 <1>   0.1500 
 34 H        4.7430    -0.1800    -1.3200 H     1 <1>   0.4500 
 35 H        1.9520     2.9670     0.4820 H     1 <1>   0.0800 
 36 H        3.4460     3.8500     0.3380 H     1 <1>   0.0800 
 37 H        5.4170     2.5610    -0.4580 H     1 <1>   0.0800 
 38 H        5.1610     2.0500    -2.0990 H     1 <1>   0.0800 
 39 H       -1.3410    -3.1330     1.8670 H     1 <1>   0.2700 
 40 H        7.3900     0.8670    -0.4760 H     1 <1>   0.0800 
 41 H        6.9290     0.4570    -2.1180 H     1 <1>   0.0800 
 42 H        7.0190    -0.7940    -0.9000 H     1 <1>   0.0800 
 43 H       -1.9260    -5.6000     2.0670 H     1 <1>   0.1500 
 44 H       -0.1280    -6.9830     0.6250 H     1 <1>   0.1500 
@<TRIPOS>BOND
  1   1   2  2   
  2   2   3  am  
  3   2   4  1   
  4   3   5  1   
  5   3   6  1   
  6   4   7  ar  
  7   4   8  ar  
  8   5   9  1   
  9   5  10  1   
 10   5  23  1   
 11   6  11  1   
 12   6  24  1   
 13   6  25  1   
 14   7  12  ar  
 15   7  26  1   
 16   8  13  ar  
 17   8  27  1   
 18   9  14  1   
 19   9  28  1   
 20   9  29  1   
 21  10  15  1   
 22  10  30  1   
 23  10  31  1   
 24  11  16  1   
 25  11  17  1   
 26  11  32  1   
 27  12  18  1   
 28  12  19  ar  
 29  13  19  ar  
 30  13  33  1   
 31  14  16  1   
 32  15  17  1   
 33  15  20  1   
 34  15  34  1   
 35  16  35  1   
 36  16  36  1   
 37  17  37  1   
 38  17  38  1   
 39  18  21  1   
 40  18  39  1   
 41  19  22  1   
 42  20  40  1   
 43  20  41  1   
 44  20  42  1   
 45  21  22  2   
 46  21  43  1   
 47  22  44  1   
@<TRIPOS>SUBSTRUCTURE
  1 ****   2 GROUP 4 **** **** 0

# MOE 2024.06 (io_trps.svl 2023.06)
