@<TRIPOS>MOLECULE
NONAME
35 36 1 0 0 
SMALL
USER_CHARGES


@<TRIPOS>ATOM
  1 S       -0.1830    -0.2750    -0.8670 S.3   1 <1>  -0.4600 
  2 C        0.7980     0.3010     0.5410 C.3   1 <1>   1.2500 
  3 C       -0.5560    -1.9940    -0.4190 C.3   1 <1>   0.0700 
  4 F        1.8830    -0.4480     0.6670 F     1 <1>  -0.3400 
  5 F        1.1640     1.5580     0.3480 F     1 <1>  -0.3400 
  6 F        0.0820     0.2260     1.6530 F     1 <1>  -0.3400 
  7 C       -1.4310    -2.5980    -1.5160 C.3   1 <1>   0.1400 
  8 N       -1.6500    -4.0360    -1.2480 N.am  1 <1>  -0.7300 
  9 C       -2.5470    -4.5670    -0.3630 C.2   1 <1>   0.7160 
 10 O       -3.2070    -3.8050     0.3220 O.2   1 <1>  -0.5700 
 11 C       -2.6690    -6.0130    -0.2600 C.2   1 <1>   0.2030 
 12 N       -1.9560    -6.8890    -0.9500 N.2   1 <1>  -0.7070 
 13 C       -3.5520    -6.6830     0.5810 C.2   1 <1>  -0.1500 
 14 N       -2.3830    -8.0910    -0.5490 N.pl3 1 <1>   0.3140 
 15 C       -3.3550    -8.0130     0.3900 C.2   1 <1>  -0.2370 
 16 C       -1.7820    -9.3090    -1.1100 C.3   1 <1>   0.0960 
 17 C       -4.0360    -9.1100     1.0150 C.2   1 <1>   0.7150 
 18 C       -1.2660   -10.1890     0.0250 C.3   1 <1>   0.2000 
 19 O       -5.0560    -8.9100     1.6360 O.2   1 <1>  -0.5700 
 20 N       -3.6370   -10.4070     0.9760 N.am  1 <1>  -0.7300 
 21 O       -0.2670   -11.0150    -0.4760 O.3   1 <1>  -0.6800 
 22 C       -2.3480   -11.0800     0.6530 C.3   1 <1>   0.1400 
 23 H       -1.0750    -1.9830     0.5250 H     1 <1>   0.0800 
 24 H        0.3800    -2.5170    -0.3330 H     1 <1>   0.0800 
 25 H       -0.9540    -2.4840    -2.4740 H     1 <1>   0.0800 
 26 H       -2.3810    -2.0890    -1.5400 H     1 <1>   0.0800 
 27 H       -1.1200    -4.7200    -1.7970 H     1 <1>   0.3700 
 28 H       -4.2530    -6.2110     1.2490 H     1 <1>   0.1500 
 29 H       -0.9640    -9.0090    -1.7400 H     1 <1>   0.0800 
 30 H       -2.5210    -9.8210    -1.6970 H     1 <1>   0.0800 
 31 H       -0.8040    -9.5780     0.7830 H     1 <1>   0.0800 
 32 H       -4.3050   -11.0080     1.4650 H     1 <1>   0.3700 
 33 H       -0.5890   -11.5750    -1.2090 H     1 <1>   0.4000 
 34 H       -1.9520   -11.5060     1.5590 H     1 <1>   0.0800 
 35 H       -2.5680   -11.8870    -0.0250 H     1 <1>   0.0800 
@<TRIPOS>BOND
  1   1   2  1   
  2   1   3  1   
  3   2   4  1   
  4   2   5  1   
  5   2   6  1   
  6   3   7  1   
  7   3  23  1   
  8   3  24  1   
  9   7   8  1   
 10   7  25  1   
 11   7  26  1   
 12   8   9  am  
 13   8  27  1   
 14   9  10  2   
 15   9  11  1   
 16  11  12  2   
 17  11  13  1   
 18  12  14  1   
 19  13  15  2   
 20  13  28  1   
 21  14  15  1   
 22  14  16  1   
 23  15  17  1   
 24  16  18  1   
 25  16  29  1   
 26  16  30  1   
 27  17  19  2   
 28  17  20  am  
 29  18  21  1   
 30  18  22  1   
 31  18  31  1   
 32  20  22  1   
 33  20  32  1   
 34  21  33  1   
 35  22  34  1   
 36  22  35  1   
@<TRIPOS>SUBSTRUCTURE
  1 ****  11 GROUP 4 **** **** 0

# MOE 2024.06 (io_trps.svl 2023.06)
