@<TRIPOS>MOLECULE
NONAME
41 43 1 0 0 
SMALL
USER_CHARGES


@<TRIPOS>ATOM
  1 O       -1.5730    -0.3590     2.0990 O.co2 1 <1>  -0.9000 
  2 C       -2.3020     0.3510     1.3720 C.2   1 <1>   0.9790 
  3 O       -1.8600     1.4730     1.0530 O.co2 1 <1>  -0.9000 
  4 C       -3.5970    -0.1670     0.9060 C.ar  1 <1>   0.1310 
  5 N       -4.5860     0.6300     0.4470 N.ar  1 <1>  -0.6200 
  6 C       -3.7630    -1.5540     0.9590 C.ar  1 <1>   0.1600 
  7 C       -5.6740    -0.0150     0.0620 C.ar  1 <1>   0.4100 
  8 N       -4.8420    -2.2280     0.5750 N.ar  1 <1>  -0.6200 
  9 N       -6.7350     0.7480    -0.4130 N.pl3 1 <1>  -0.8380 
 10 C       -5.7730    -1.4120     0.1260 C.ar  1 <1>   0.1600 
 11 C       -8.0100     0.7110     0.3610 C.3   1 <1>   0.2090 
 12 C       -6.4430     2.0940    -0.9740 C.3   1 <1>   0.2090 
 13 C       -9.2090     1.0750    -0.5490 C.3   1 <1>   0.0000 
 14 C       -7.5950     2.5300    -1.8890 C.3   1 <1>  -0.1600 
 15 C      -10.5360     1.0300     0.2270 C.3   1 <1>   0.2000 
 16 C       -8.9590     2.4640    -1.1780 C.3   1 <1>  -0.1600 
 17 C       -9.4300    -0.0160    -1.6130 C.3   1 <1>  -0.1600 
 18 O      -10.3910     1.5320     1.5210 O.3   1 <1>  -0.5600 
 19 C      -10.9590    -0.4430     0.2520 C.3   1 <1>  -0.1600 
 20 C      -10.2210    -1.1230    -0.9080 C.3   1 <1>  -0.1600 
 21 C      -11.5850     1.8400     2.1700 C.3   1 <1>   0.0400 
 22 H       -2.9460    -2.1420     1.3440 H     1 <1>   0.1500 
 23 H       -6.6870    -1.8480    -0.2240 H     1 <1>   0.1500 
 24 H       -8.1530    -0.2620     0.7970 H     1 <1>   0.0800 
 25 H       -7.9370     1.4200     1.1680 H     1 <1>   0.0800 
 26 H       -6.3190     2.7950    -0.1650 H     1 <1>   0.0800 
 27 H       -5.5230     2.0630    -1.5340 H     1 <1>   0.0800 
 28 H       -7.4100     3.5340    -2.2260 H     1 <1>   0.0800 
 29 H       -7.6000     1.8920    -2.7550 H     1 <1>   0.0800 
 30 H      -11.2720     1.6150    -0.3000 H     1 <1>   0.0800 
 31 H       -9.7420     2.7080    -1.8740 H     1 <1>   0.0800 
 32 H       -8.9750     3.2020    -0.3940 H     1 <1>   0.0800 
 33 H      -10.0280     0.3790    -2.4160 H     1 <1>   0.0800 
 34 H       -8.5080    -0.3870    -2.0270 H     1 <1>   0.0800 
 35 H      -10.6680    -0.9020     1.1820 H     1 <1>   0.0800 
 36 H      -12.0240    -0.5280     0.1270 H     1 <1>   0.0800 
 37 H       -9.5400    -1.8620    -0.5200 H     1 <1>   0.0800 
 38 H      -10.9030    -1.6040    -1.5880 H     1 <1>   0.0800 
 39 H      -11.3440     2.2260     3.1440 H     1 <1>   0.0800 
 40 H      -12.1790     0.9500     2.2710 H     1 <1>   0.0800 
 41 H      -12.1130     2.5890     1.6050 H     1 <1>   0.0800 
@<TRIPOS>BOND
  1   1   2  ar  
  2   2   3  ar  
  3   2   4  1   
  4   4   5  ar  
  5   4   6  ar  
  6   5   7  ar  
  7   6   8  ar  
  8   6  22  1   
  9   7   9  1   
 10   7  10  ar  
 11   8  10  ar  
 12   9  11  1   
 13   9  12  1   
 14  10  23  1   
 15  11  13  1   
 16  11  24  1   
 17  11  25  1   
 18  12  14  1   
 19  12  26  1   
 20  12  27  1   
 21  13  15  1   
 22  13  16  1   
 23  13  17  1   
 24  14  16  1   
 25  14  28  1   
 26  14  29  1   
 27  15  18  1   
 28  15  19  1   
 29  15  30  1   
 30  16  31  1   
 31  16  32  1   
 32  17  20  1   
 33  17  33  1   
 34  17  34  1   
 35  18  21  1   
 36  19  20  1   
 37  19  35  1   
 38  19  36  1   
 39  20  37  1   
 40  20  38  1   
 41  21  39  1   
 42  21  40  1   
 43  21  41  1   
@<TRIPOS>SUBSTRUCTURE
  1 ****   9 GROUP 4 **** **** 0

# MOE 2024.06 (io_trps.svl 2023.06)
