@<TRIPOS>MOLECULE
NONAME
42 44 1 0 0 
SMALL
USER_CHARGES


@<TRIPOS>ATOM
  1 O        0.9500    -0.3680    -2.4370 O.3   1 <1>  -0.6800 
  2 C        2.2270    -0.3070    -1.8920 C.3   1 <1>   0.2000 
  3 C        2.4380    -1.4380    -0.8920 C.3   1 <1>  -0.0800 
  4 C        2.4260     0.9680    -1.0820 C.3   1 <1>   0.2090 
  5 C        3.3950    -0.8620     0.1580 C.3   1 <1>   0.2090 
  6 C        2.9790    -2.7170    -1.5490 C.3   1 <1>   0.0210 
  7 N        3.4320     0.6100    -0.0470 N.pl3 1 <1>  -0.8380 
  8 C        3.2350    -3.7950    -0.5160 C.2   1 <1>   0.1080 
  9 C        4.6770     1.1820    -0.1640 C.ar  1 <1>   0.4100 
 10 N        2.2800    -4.3890     0.1280 N.2   1 <1>  -0.7070 
 11 C        4.4920    -4.2580    -0.1390 C.2   1 <1>  -0.1500 
 12 N        5.3460     0.9330    -1.2740 N.ar  1 <1>  -0.6200 
 13 C        5.2090     1.9760     0.8410 C.ar  1 <1>  -0.1430 
 14 N        2.9080    -5.2590     0.9420 N.pl3 1 <1>   0.3000 
 15 C        4.2490    -5.1970     0.7990 C.2   1 <1>  -0.3320 
 16 C        6.5370     1.4900    -1.3600 C.ar  1 <1>   0.4770 
 17 C        6.4590     2.4920     0.6260 C.ar  1 <1>   0.1600 
 18 C        4.4360     2.2600     2.1230 C.3   1 <1>  -0.0970 
 19 C        5.2310    -6.0510     1.5790 C.3   1 <1>  -0.0600 
 20 N        7.1440     2.2590    -0.4760 N.ar  1 <1>  -0.6200 
 21 C        7.3130     1.2150    -2.6260 C.3   1 <1>  -0.0970 
 22 H        0.7880    -1.2490    -2.8240 H     1 <1>   0.4000 
 23 H        2.9520    -0.3390    -2.6870 H     1 <1>   0.0800 
 24 H        1.5100    -1.6550    -0.3920 H     1 <1>   0.0800 
 25 H        1.5090     1.2510    -0.5950 H     1 <1>   0.0800 
 26 H        2.7760     1.7720    -1.7060 H     1 <1>   0.0800 
 27 H        4.3860    -1.2690     0.0410 H     1 <1>   0.0800 
 28 H        3.0450    -1.0880     1.1510 H     1 <1>   0.0800 
 29 H        3.8940    -2.5020    -2.0730 H     1 <1>   0.0800 
 30 H        2.2650    -3.0910    -2.2600 H     1 <1>   0.0800 
 31 H        5.4360    -3.9200    -0.5290 H     1 <1>   0.1500 
 32 H        2.3950    -5.8790     1.5800 H     1 <1>   0.2700 
 33 H        6.9230     3.1160     1.3710 H     1 <1>   0.1500 
 34 H        4.9940     2.9010     2.7810 H     1 <1>   0.0800 
 35 H        4.2270     1.3360     2.6320 H     1 <1>   0.0800 
 36 H        3.5020     2.7370     1.8840 H     1 <1>   0.0800 
 37 H        6.2390    -5.8130     1.2900 H     1 <1>   0.0800 
 38 H        5.0560    -7.0940     1.3810 H     1 <1>   0.0800 
 39 H        5.1250    -5.8710     2.6340 H     1 <1>   0.0800 
 40 H        7.6460     2.1430    -3.0500 H     1 <1>   0.0800 
 41 H        6.6980     0.7040    -3.3430 H     1 <1>   0.0800 
 42 H        8.1650     0.6060    -2.3940 H     1 <1>   0.0800 
@<TRIPOS>BOND
  1   1   2  1   
  2   1  22  1   
  3   2   3  1   
  4   2   4  1   
  5   2  23  1   
  6   3   5  1   
  7   3   6  1   
  8   3  24  1   
  9   4   7  1   
 10   4  25  1   
 11   4  26  1   
 12   5   7  1   
 13   5  27  1   
 14   5  28  1   
 15   6   8  1   
 16   6  29  1   
 17   6  30  1   
 18   7   9  1   
 19   8  10  2   
 20   8  11  1   
 21   9  12  ar  
 22   9  13  ar  
 23  10  14  1   
 24  11  15  2   
 25  11  31  1   
 26  12  16  ar  
 27  13  17  ar  
 28  13  18  1   
 29  14  15  1   
 30  14  32  1   
 31  15  19  1   
 32  16  20  ar  
 33  16  21  1   
 34  17  20  ar  
 35  17  33  1   
 36  18  34  1   
 37  18  35  1   
 38  18  36  1   
 39  19  37  1   
 40  19  38  1   
 41  19  39  1   
 42  21  40  1   
 43  21  41  1   
 44  21  42  1   
@<TRIPOS>SUBSTRUCTURE
  1 ****   5 GROUP 4 **** **** 0

# MOE 2024.06 (io_trps.svl 2023.06)
