@<TRIPOS>MOLECULE
NONAME
51 53 1 0 0 
SMALL
USER_CHARGES


@<TRIPOS>ATOM
  1 O       -1.8780    -0.6580     0.8420 O.3   1 <1>  -0.3630 
  2 C       -2.3510     0.5670     0.5020 C.ar  1 <1>   0.3920 
  3 C       -0.9030    -0.7880     1.8670 C.3   1 <1>   0.0400 
  4 N       -2.0000     1.6030     1.2480 N.ar  1 <1>  -0.6200 
  5 C       -3.1950     0.6480    -0.6020 C.ar  1 <1>  -0.1430 
  6 C       -2.4920     2.7740     0.8780 C.ar  1 <1>   0.1600 
  7 C       -3.7020     1.8770    -0.9730 C.ar  1 <1>  -0.1500 
  8 C       -3.5440    -0.6040    -1.3760 C.3   1 <1>   0.4870 
  9 C       -3.3320     2.9620    -0.2050 C.ar  1 <1>  -0.1500 
 10 N       -4.2360    -1.5610    -0.4600 N.4   1 <1>  -0.9590 
 11 C       -4.3470    -2.9460    -1.0450 C.3   1 <1>   0.3430 
 12 C       -5.5360    -0.9950     0.0190 C.3   1 <1>   0.3430 
 13 C       -5.1330    -3.9600    -0.1460 C.3   1 <1>   0.4230 
 14 C       -6.1740    -1.9840     0.9910 C.3   1 <1>  -0.1600 
 15 N       -5.2700    -5.3730    -0.7220 N.4   1 <1>  -0.9590 
 16 C       -6.4850    -3.3550     0.3260 C.3   1 <1>   0.0000 
 17 C       -6.3840    -6.1840    -0.1120 C.3   1 <1>   0.3430 
 18 C       -5.3630    -5.4880    -2.2190 C.3   1 <1>   0.2630 
 19 C       -7.1310    -4.2740     1.3990 C.3   1 <1>  -0.1600 
 20 C       -7.4460    -3.1950    -0.8920 C.3   1 <1>   0.1200 
 21 C       -6.6650    -5.7400     1.3210 C.3   1 <1>  -0.1600 
 22 O       -8.3570    -2.1780    -0.6880 O.3   1 <1>  -0.6800 
 23 H       -0.6260    -1.8230     1.9550 H     1 <1>   0.0800 
 24 H       -1.3170    -0.4360     2.7960 H     1 <1>   0.0800 
 25 H       -0.0390    -0.2010     1.6040 H     1 <1>   0.0800 
 26 H       -2.2110     3.6300     1.4700 H     1 <1>   0.1500 
 27 H       -4.3550     2.0110    -1.8210 H     1 <1>   0.1500 
 28 H       -2.6320    -1.0400    -1.7500 H     1 <1>   0.0800 
 29 H       -4.1770    -0.3560    -2.2120 H     1 <1>   0.0800 
 30 H       -3.6890     3.9500    -0.4410 H     1 <1>   0.1500 
 31 H       -3.6030    -1.5780     0.3630 H     1 <1>   0.4500 
 32 H       -4.8500    -2.8710    -1.9940 H     1 <1>   0.0800 
 33 H       -3.3560    -3.3320    -1.2190 H     1 <1>   0.0800 
 34 H       -5.3700    -0.0540     0.5210 H     1 <1>   0.0800 
 35 H       -6.2030    -0.8190    -0.8120 H     1 <1>   0.0800 
 36 H       -4.5450    -4.0630     0.7520 H     1 <1>   0.0800 
 37 H       -5.5190    -2.1080     1.8370 H     1 <1>   0.0800 
 38 H       -7.0790    -1.5430     1.3760 H     1 <1>   0.0800 
 39 H       -4.4120    -5.8780    -0.4450 H     1 <1>   0.4500 
 40 H       -7.2860    -6.0640    -0.6900 H     1 <1>   0.0800 
 41 H       -6.1250    -7.2320    -0.1240 H     1 <1>   0.0800 
 42 H       -6.2470    -4.9910    -2.5850 H     1 <1>   0.0800 
 43 H       -5.4170    -6.5260    -2.5090 H     1 <1>   0.0800 
 44 H       -4.4970    -5.0560    -2.6930 H     1 <1>   0.0800 
 45 H       -6.9090    -3.9200     2.3940 H     1 <1>   0.0800 
 46 H       -8.2050    -4.2370     1.3080 H     1 <1>   0.0800 
 47 H       -7.9980    -4.0970    -1.0940 H     1 <1>   0.0800 
 48 H       -6.9090    -2.9280    -1.7840 H     1 <1>   0.0800 
 49 H       -7.4280    -6.3730     1.7430 H     1 <1>   0.0800 
 50 H       -5.7790    -5.8820     1.9170 H     1 <1>   0.0800 
 51 H       -9.1330    -2.4710    -0.1620 H     1 <1>   0.4000 
@<TRIPOS>BOND
  1   1   2  1   
  2   1   3  1   
  3   2   4  ar  
  4   2   5  ar  
  5   3  23  1   
  6   3  24  1   
  7   3  25  1   
  8   4   6  ar  
  9   5   7  ar  
 10   5   8  1   
 11   6   9  ar  
 12   6  26  1   
 13   7   9  ar  
 14   7  27  1   
 15   8  10  1   
 16   8  28  1   
 17   8  29  1   
 18   9  30  1   
 19  10  11  1   
 20  10  12  1   
 21  10  31  1   
 22  11  13  1   
 23  11  32  1   
 24  11  33  1   
 25  12  14  1   
 26  12  34  1   
 27  12  35  1   
 28  13  15  1   
 29  13  16  1   
 30  13  36  1   
 31  14  16  1   
 32  14  37  1   
 33  14  38  1   
 34  15  17  1   
 35  15  18  1   
 36  15  39  1   
 37  16  19  1   
 38  16  20  1   
 39  17  21  1   
 40  17  40  1   
 41  17  41  1   
 42  18  42  1   
 43  18  43  1   
 44  18  44  1   
 45  19  21  1   
 46  19  45  1   
 47  19  46  1   
 48  20  22  1   
 49  20  47  1   
 50  20  48  1   
 51  21  49  1   
 52  21  50  1   
 53  22  51  1   
@<TRIPOS>SUBSTRUCTURE
  1 ****  10 GROUP 4 **** **** 0

# MOE 2024.06 (io_trps.svl 2023.06)
