@<TRIPOS>MOLECULE
NONAME
48 50 1 0 0 
SMALL
USER_CHARGES


@<TRIPOS>ATOM
  1 O        4.0090    -1.7810    -2.7070 O.2   1 <1>  -0.5700 
  2 C        3.5100    -1.8680    -1.6100 C.2   1 <1>   0.5690 
  3 N        3.4750    -0.7640    -0.7820 N.am  1 <1>  -0.6600 
  4 C        2.9570    -3.2360    -1.2090 C.3   1 <1>   0.1810 
  5 C        3.1670    -0.8520     0.6980 C.3   1 <1>   0.2200 
  6 C        3.5470     0.5790    -1.4500 C.3   1 <1>   0.1400 
  7 O        1.6870    -3.1110    -0.5850 O.3   1 <1>  -0.3630 
  8 C        1.8450    -0.1590     1.0600 C.3   1 <1>   0.1200 
  9 C        4.3320    -0.3220     1.5710 C.3   1 <1>   0.3430 
 10 C        3.5200     1.8030    -0.5180 C.3   1 <1>  -0.0800 
 11 C        1.0970    -4.1700     0.0210 C.ar  1 <1>   0.0820 
 12 O        2.0520     1.2020     1.2970 O.3   1 <1>  -0.5600 
 13 N        5.2890     0.5530     0.8110 N.4   1 <1>  -0.9590 
 14 C        2.1570     1.9960     0.1630 C.3   1 <1>   0.1200 
 15 C        4.6950     1.8840     0.4730 C.3   1 <1>   0.3430 
 16 C       -0.0090    -3.9000     0.8080 C.ar  1 <1>  -0.1500 
 17 C        1.5450    -5.4820    -0.1070 C.ar  1 <1>  -0.1500 
 18 C        6.5880     0.7010     1.5290 C.3   1 <1>   0.2630 
 19 C       -0.6640    -4.9150     1.4820 C.ar  1 <1>   0.0820 
 20 C        0.8910    -6.5020     0.5630 C.ar  1 <1>  -0.1500 
 21 O       -1.7330    -4.5560     2.2370 O.3   1 <1>  -0.3630 
 22 C       -0.2080    -6.2250     1.3580 C.ar  1 <1>  -0.1500 
 23 C       -2.5030    -5.5180     2.9230 C.3   1 <1>   0.0400 
 24 H        3.6350    -3.7130    -0.5260 H     1 <1>   0.0800 
 25 H        2.8370    -3.8450    -2.0880 H     1 <1>   0.0800 
 26 H        3.0410    -1.8820     0.9730 H     1 <1>   0.0800 
 27 H        4.4460     0.6170    -2.0440 H     1 <1>   0.0800 
 28 H        2.7220     0.6510    -2.1410 H     1 <1>   0.0800 
 29 H        1.4660    -0.5750     1.9770 H     1 <1>   0.0800 
 30 H        1.0990    -0.2990     0.2960 H     1 <1>   0.0800 
 31 H        4.8650    -1.1750     1.9550 H     1 <1>   0.0800 
 32 H        3.9310     0.2120     2.4170 H     1 <1>   0.0800 
 33 H        3.6210     2.6570    -1.1650 H     1 <1>   0.0800 
 34 H        5.4330     0.0590    -0.0880 H     1 <1>   0.4500 
 35 H        1.3380     1.7780    -0.5030 H     1 <1>   0.0800 
 36 H        2.0560     3.0170     0.4920 H     1 <1>   0.0800 
 37 H        4.3660     2.3780     1.3740 H     1 <1>   0.0800 
 38 H        5.4620     2.4970     0.0280 H     1 <1>   0.0800 
 39 H       -0.3700    -2.8930     0.9000 H     1 <1>   0.1500 
 40 H        2.3880    -5.7330    -0.7220 H     1 <1>   0.1500 
 41 H        6.4390     1.2010     2.4720 H     1 <1>   0.0800 
 42 H        7.2790     1.2800     0.9360 H     1 <1>   0.0800 
 43 H        7.0250    -0.2660     1.7150 H     1 <1>   0.0800 
 44 H        1.2370    -7.5170     0.4650 H     1 <1>   0.1500 
 45 H       -0.6950    -7.0360     1.8660 H     1 <1>   0.1500 
 46 H       -3.3000    -5.0060     3.4320 H     1 <1>   0.0800 
 47 H       -1.8770    -6.0210     3.6390 H     1 <1>   0.0800 
 48 H       -2.9110    -6.2120     2.2100 H     1 <1>   0.0800 
@<TRIPOS>BOND
  1   1   2  2   
  2   2   3  am  
  3   2   4  1   
  4   3   5  1   
  5   3   6  1   
  6   4   7  1   
  7   4  24  1   
  8   4  25  1   
  9   5   8  1   
 10   5   9  1   
 11   5  26  1   
 12   6  10  1   
 13   6  27  1   
 14   6  28  1   
 15   7  11  1   
 16   8  12  1   
 17   8  29  1   
 18   8  30  1   
 19   9  13  1   
 20   9  31  1   
 21   9  32  1   
 22  10  14  1   
 23  10  15  1   
 24  10  33  1   
 25  11  16  ar  
 26  11  17  ar  
 27  12  14  1   
 28  13  15  1   
 29  13  18  1   
 30  13  34  1   
 31  14  35  1   
 32  14  36  1   
 33  15  37  1   
 34  15  38  1   
 35  16  19  ar  
 36  16  39  1   
 37  17  20  ar  
 38  17  40  1   
 39  18  41  1   
 40  18  42  1   
 41  18  43  1   
 42  19  21  1   
 43  19  22  ar  
 44  20  22  ar  
 45  20  44  1   
 46  21  23  1   
 47  22  45  1   
 48  23  46  1   
 49  23  47  1   
 50  23  48  1   
@<TRIPOS>SUBSTRUCTURE
  1 ****   5 GROUP 4 **** **** 0

# MOE 2024.06 (io_trps.svl 2023.06)
