@<TRIPOS>MOLECULE
NONAME
49 51 1 0 0 
SMALL
USER_CHARGES


@<TRIPOS>ATOM
  1 O       -0.1220     0.2720    -0.3420 O.2   1 <1>  -0.5700 
  2 C       -1.1100     0.9600    -0.4800 C.2   1 <1>   0.5690 
  3 N       -2.3500     0.3590    -0.4510 N.am  1 <1>  -0.6600 
  4 C       -0.9260     2.4960    -0.6820 C.3   1 <1>   0.2040 
  5 C       -3.6990     0.9910    -0.4850 C.3   1 <1>   0.1400 
  6 C       -2.4990    -1.1010    -0.2040 C.3   1 <1>   0.1400 
  7 C       -1.6450     3.2800     0.4380 C.ar  1 <1>  -0.1440 
  8 C        0.5620     2.9080    -0.6060 C.3   1 <1>  -0.2400 
  9 C       -1.4110     2.8750    -2.1000 C.3   1 <1>  -0.2400 
 10 C       -4.5860     0.0260     0.2970 C.3   1 <1>   0.2000 
 11 C       -4.0040    -1.3450    -0.0510 C.3   1 <1>  -0.0800 
 12 C       -1.5350     2.8280     1.7500 C.ar  1 <1>  -0.1500 
 13 C       -2.4030     4.4230     0.2010 C.ar  1 <1>  -0.1500 
 14 O       -4.4080     0.2820     1.6480 O.3   1 <1>  -0.6800 
 15 C       -4.3520    -2.4800     0.9280 C.3   1 <1>   0.0210 
 16 C       -2.1760     3.4800     2.7870 C.ar  1 <1>  -0.1500 
 17 C       -3.0450     5.0780     1.2370 C.ar  1 <1>  -0.1500 
 18 C       -3.7430    -3.7910     0.4700 C.2   1 <1>   0.1080 
 19 C       -2.9360     4.6060     2.5320 C.ar  1 <1>  -0.1500 
 20 N       -4.1120    -4.3970    -0.6150 N.2   1 <1>  -0.7070 
 21 C       -2.7340    -4.4760     1.1380 C.2   1 <1>  -0.1500 
 22 N       -3.3410    -5.4990    -0.6670 N.pl3 1 <1>   0.3000 
 23 C       -2.4960    -5.5680     0.3830 C.2   1 <1>  -0.3320 
 24 C       -1.4990    -6.6910     0.6030 C.3   1 <1>  -0.0600 
 25 H       -3.7230     1.9720    -0.0480 H     1 <1>   0.0800 
 26 H       -4.0330     1.0420    -1.5060 H     1 <1>   0.0800 
 27 H       -2.0920    -1.6700    -1.0230 H     1 <1>   0.0800 
 28 H       -1.9730    -1.3600     0.7000 H     1 <1>   0.0800 
 29 H        0.6670     3.9710    -0.7230 H     1 <1>   0.0800 
 30 H        1.1290     2.4150    -1.3760 H     1 <1>   0.0800 
 31 H        0.9780     2.6290     0.3460 H     1 <1>   0.0800 
 32 H       -1.1530     3.8920    -2.3370 H     1 <1>   0.0800 
 33 H       -2.4740     2.7620    -2.1880 H     1 <1>   0.0800 
 34 H       -0.9430     2.2350    -2.8260 H     1 <1>   0.0800 
 35 H       -5.6330     0.1190     0.0620 H     1 <1>   0.0800 
 36 H       -4.3790    -1.6220    -1.0220 H     1 <1>   0.0800 
 37 H       -0.9410     1.9590     1.9770 H     1 <1>   0.1500 
 38 H       -2.5110     4.8290    -0.7880 H     1 <1>   0.1500 
 39 H       -3.4570     0.4610     1.8030 H     1 <1>   0.4000 
 40 H       -5.4200    -2.5960     0.9800 H     1 <1>   0.0800 
 41 H       -3.9950    -2.2520     1.9160 H     1 <1>   0.0800 
 42 H       -2.0830     3.1120     3.7940 H     1 <1>   0.1500 
 43 H       -3.6300     5.9580     1.0370 H     1 <1>   0.1500 
 44 H       -3.4370     5.1140     3.3370 H     1 <1>   0.1500 
 45 H       -2.2630    -4.1740     2.0570 H     1 <1>   0.1500 
 46 H       -3.4160    -6.1820    -1.4310 H     1 <1>   0.2700 
 47 H       -0.9430    -6.5180     1.5080 H     1 <1>   0.0800 
 48 H       -0.8080    -6.7410    -0.2190 H     1 <1>   0.0800 
 49 H       -2.0110    -7.6320     0.6910 H     1 <1>   0.0800 
@<TRIPOS>BOND
  1   1   2  2   
  2   2   3  am  
  3   2   4  1   
  4   3   5  1   
  5   3   6  1   
  6   4   7  1   
  7   4   8  1   
  8   4   9  1   
  9   5  10  1   
 10   5  25  1   
 11   5  26  1   
 12   6  11  1   
 13   6  27  1   
 14   6  28  1   
 15   7  12  ar  
 16   7  13  ar  
 17   8  29  1   
 18   8  30  1   
 19   8  31  1   
 20   9  32  1   
 21   9  33  1   
 22   9  34  1   
 23  10  11  1   
 24  10  14  1   
 25  10  35  1   
 26  11  15  1   
 27  11  36  1   
 28  12  16  ar  
 29  12  37  1   
 30  13  17  ar  
 31  13  38  1   
 32  14  39  1   
 33  15  18  1   
 34  15  40  1   
 35  15  41  1   
 36  16  19  ar  
 37  16  42  1   
 38  17  19  ar  
 39  17  43  1   
 40  18  20  2   
 41  18  21  1   
 42  19  44  1   
 43  20  22  1   
 44  21  23  2   
 45  21  45  1   
 46  22  23  1   
 47  22  46  1   
 48  23  24  1   
 49  24  47  1   
 50  24  48  1   
 51  24  49  1   
@<TRIPOS>SUBSTRUCTURE
  1 ****   3 GROUP 4 **** **** 0

# MOE 2024.06 (io_trps.svl 2023.06)
