@<TRIPOS>MOLECULE
NONAME
44 45 1 0 0 
SMALL
USER_CHARGES


@<TRIPOS>ATOM
  1 O       -0.0320    -0.3760     0.0510 O.3   1 <1>  -0.3630 
  2 C       -1.2270    -1.0250    -0.0060 C.ar  1 <1>   0.0830 
  3 C        1.1710    -1.0700    -0.1620 C.3   1 <1>   0.1200 
  4 C       -2.3510    -0.2900     0.3340 C.ar  1 <1>  -0.1500 
  5 C       -1.3700    -2.3590    -0.3770 C.ar  1 <1>  -0.1500 
  6 C        2.3120    -0.0750     0.0440 C.3   1 <1>  -0.1600 
  7 C       -3.6130    -0.8630     0.3110 C.ar  1 <1>  -0.1440 
  8 C       -2.6270    -2.9330    -0.4050 C.ar  1 <1>  -0.1500 
  9 C        3.6640    -0.7510    -0.1680 C.3   1 <1>   0.3430 
 10 C       -3.7530    -2.1960    -0.0700 C.ar  1 <1>   0.1000 
 11 C       -4.8250    -0.0360     0.7140 C.3   1 <1>   0.2640 
 12 N        4.7740     0.1920     0.1440 N.4   1 <1>  -0.9590 
 13 N       -5.0040    -2.7860    -0.1330 N.pl3 1 <1>  -0.9000 
 14 O       -5.6170     0.1580    -0.4060 O.3   1 <1>  -0.6800 
 15 C        4.9040     1.2790    -0.8750 C.3   1 <1>   0.3430 
 16 C        6.0590    -0.5480     0.3130 C.3   1 <1>   0.3430 
 17 C        5.9740     2.2790    -0.4310 C.3   1 <1>  -0.1600 
 18 C        7.1520     0.4130     0.7850 C.3   1 <1>  -0.1600 
 19 C        7.3230     1.5950    -0.1780 C.3   1 <1>  -0.1600 
 20 H        1.1640    -1.4540    -1.1680 H     1 <1>   0.0800 
 21 H        1.2240    -1.8780     0.5490 H     1 <1>   0.0800 
 22 H       -2.2230     0.7380     0.6230 H     1 <1>   0.1500 
 23 H       -0.5270    -2.9660    -0.6460 H     1 <1>   0.1500 
 24 H        2.2510     0.3070     1.0480 H     1 <1>   0.0800 
 25 H        2.1810     0.7300    -0.6560 H     1 <1>   0.0800 
 26 H       -2.7400    -3.9640    -0.6860 H     1 <1>   0.1500 
 27 H        3.7490    -1.0990    -1.1860 H     1 <1>   0.0800 
 28 H        3.7280    -1.6070     0.4860 H     1 <1>   0.0800 
 29 H       -4.5340     0.9280     1.0910 H     1 <1>   0.0800 
 30 H       -5.4100    -0.5470     1.4600 H     1 <1>   0.0800 
 31 H        4.5680     0.6450     1.0440 H     1 <1>   0.4500 
 32 H       -5.0940    -3.5450    -0.8130 H     1 <1>   0.4000 
 33 H       -5.7560    -2.0940    -0.2630 H     1 <1>   0.4000 
 34 H       -5.0370     0.3790    -1.1610 H     1 <1>   0.4000 
 35 H        3.9660     1.7970    -0.9940 H     1 <1>   0.0800 
 36 H        5.1800     0.8560    -1.8280 H     1 <1>   0.0800 
 37 H        6.3520    -0.9910    -0.6260 H     1 <1>   0.0800 
 38 H        5.9410    -1.3370     1.0390 H     1 <1>   0.0800 
 39 H        5.6430     2.7830     0.4610 H     1 <1>   0.0800 
 40 H        6.0940     3.0280    -1.1960 H     1 <1>   0.0800 
 41 H        8.0830    -0.1220     0.8580 H     1 <1>   0.0800 
 42 H        6.9120     0.7730     1.7700 H     1 <1>   0.0800 
 43 H        8.0220     2.3050     0.2330 H     1 <1>   0.0800 
 44 H        7.7280     1.2420    -1.1120 H     1 <1>   0.0800 
@<TRIPOS>BOND
  1   1   2  1   
  2   1   3  1   
  3   2   4  ar  
  4   2   5  ar  
  5   3   6  1   
  6   3  20  1   
  7   3  21  1   
  8   4   7  ar  
  9   4  22  1   
 10   5   8  ar  
 11   5  23  1   
 12   6   9  1   
 13   6  24  1   
 14   6  25  1   
 15   7  10  ar  
 16   7  11  1   
 17   8  10  ar  
 18   8  26  1   
 19   9  12  1   
 20   9  27  1   
 21   9  28  1   
 22  10  13  1   
 23  11  14  1   
 24  11  29  1   
 25  11  30  1   
 26  12  15  1   
 27  12  16  1   
 28  12  31  1   
 29  13  32  1   
 30  13  33  1   
 31  14  34  1   
 32  15  17  1   
 33  15  35  1   
 34  15  36  1   
 35  16  18  1   
 36  16  37  1   
 37  16  38  1   
 38  17  19  1   
 39  17  39  1   
 40  17  40  1   
 41  18  19  1   
 42  18  41  1   
 43  18  42  1   
 44  19  43  1   
 45  19  44  1   
@<TRIPOS>SUBSTRUCTURE
  1 ****   1 GROUP 4 **** **** 0

# MOE 2024.06 (io_trps.svl 2023.06)
