@<TRIPOS>MOLECULE
NONAME
52 54 1 0 0 
SMALL
USER_CHARGES


@<TRIPOS>ATOM
  1 O        0.0120     1.1810     2.0480 O.2   1 <1>  -0.5700 
  2 C        0.0510     2.3380     1.7130 C.2   1 <1>   0.5690 
  3 N       -1.0850     3.0000     1.4000 N.am  1 <1>  -0.7300 
  4 C        1.3990     3.0630     1.6090 C.3   1 <1>   0.1810 
  5 C       -1.1120     4.4430     1.0610 C.3   1 <1>   0.3640 
  6 O        1.2750     4.4690     1.5730 O.3   1 <1>  -0.5600 
  7 C       -2.0950     4.6790    -0.0780 C.ar  1 <1>  -0.1440 
  8 C        0.2950     4.9550     0.6700 C.3   1 <1>   0.2610 
  9 C       -2.1380     3.8370    -1.1810 C.ar  1 <1>   0.1600 
 10 C       -2.9520     5.7630    -0.0410 C.ar  1 <1>  -0.1500 
 11 C        0.3020     6.4930     0.6030 C.2   1 <1>   0.5690 
 12 N       -2.9390     3.9900    -2.2220 N.ar  1 <1>  -0.6200 
 13 C       -3.7990     5.9320    -1.1140 C.ar  1 <1>  -0.1500 
 14 O       -0.2840     7.0930     1.4790 O.2   1 <1>  -0.5700 
 15 N        0.9180     7.1740    -0.4250 N.am  1 <1>  -0.6600 
 16 C       -3.7530     5.0310    -2.1630 C.ar  1 <1>   0.1600 
 17 C        0.9530     8.6680    -0.4210 C.3   1 <1>   0.2840 
 18 C        1.5710     6.5390    -1.6040 C.3   1 <1>   0.1400 
 19 C        2.3750     9.1660    -0.2150 C.ar  1 <1>  -0.1430 
 20 C        2.9550     6.0050    -1.2350 C.3   1 <1>  -0.2400 
 21 C        3.0040     8.9640     1.0030 C.ar  1 <1>  -0.1500 
 22 C        3.0580     9.8170    -1.2300 C.ar  1 <1>  -0.1500 
 23 C        4.3000     9.4040     1.2030 C.ar  1 <1>  -0.1500 
 24 C        4.3550    10.2570    -1.0290 C.ar  1 <1>  -0.1500 
 25 C        4.9850    10.0520     0.1880 C.ar  1 <1>  -0.1430 
 26 C        6.4090    10.5330     0.4080 C.3   1 <1>  -0.0170 
 27 C        6.4150    11.9690     0.9370 C.3   1 <1>  -0.2400 
 28 H       -1.9800     2.5260     1.5320 H     1 <1>   0.3700 
 29 H        1.9070     2.7450     0.7170 H     1 <1>   0.0800 
 30 H        2.0050     2.8110     2.4600 H     1 <1>   0.0800 
 31 H       -1.4480     4.9780     1.9340 H     1 <1>   0.0800 
 32 H        0.5340     4.5570    -0.2960 H     1 <1>   0.0800 
 33 H       -1.4770     2.9860    -1.2160 H     1 <1>   0.1500 
 34 H       -2.9580     6.4550     0.7860 H     1 <1>   0.1500 
 35 H       -4.4900     6.7560    -1.1400 H     1 <1>   0.1500 
 36 H       -4.4200     5.1740    -2.9970 H     1 <1>   0.1500 
 37 H        0.5630     9.0330    -1.3550 H     1 <1>   0.0800 
 38 H        0.3320     9.0680     0.3620 H     1 <1>   0.0800 
 39 H        0.9520     5.7450    -1.9840 H     1 <1>   0.0800 
 40 H        1.6740     7.2650    -2.3940 H     1 <1>   0.0800 
 41 H        2.8980     5.2830    -0.4430 H     1 <1>   0.0800 
 42 H        3.5980     6.8100    -0.9250 H     1 <1>   0.0800 
 43 H        3.4010     5.5350    -2.0920 H     1 <1>   0.0800 
 44 H        2.4820     8.4560     1.7970 H     1 <1>   0.1500 
 45 H        2.5870     9.9850    -2.1820 H     1 <1>   0.1500 
 46 H        4.7730     9.2390     2.1550 H     1 <1>   0.1500 
 47 H        4.8740    10.7620    -1.8240 H     1 <1>   0.1500 
 48 H        6.9060     9.8880     1.1110 H     1 <1>   0.0800 
 49 H        6.9550    10.4870    -0.5190 H     1 <1>   0.0800 
 50 H        5.8840    12.0210     1.8710 H     1 <1>   0.0800 
 51 H        5.9360    12.6250     0.2320 H     1 <1>   0.0800 
 52 H        7.4250    12.3040     1.0920 H     1 <1>   0.0800 
@<TRIPOS>BOND
  1   1   2  2   
  2   2   3  am  
  3   2   4  1   
  4   3   5  1   
  5   3  28  1   
  6   4   6  1   
  7   4  29  1   
  8   4  30  1   
  9   5   7  1   
 10   5   8  1   
 11   5  31  1   
 12   6   8  1   
 13   7   9  ar  
 14   7  10  ar  
 15   8  11  1   
 16   8  32  1   
 17   9  12  ar  
 18   9  33  1   
 19  10  13  ar  
 20  10  34  1   
 21  11  14  2   
 22  11  15  am  
 23  12  16  ar  
 24  13  16  ar  
 25  13  35  1   
 26  15  17  1   
 27  15  18  1   
 28  16  36  1   
 29  17  19  1   
 30  17  37  1   
 31  17  38  1   
 32  18  20  1   
 33  18  39  1   
 34  18  40  1   
 35  19  21  ar  
 36  19  22  ar  
 37  20  41  1   
 38  20  42  1   
 39  20  43  1   
 40  21  23  ar  
 41  21  44  1   
 42  22  24  ar  
 43  22  45  1   
 44  23  25  ar  
 45  23  46  1   
 46  24  25  ar  
 47  24  47  1   
 48  25  26  1   
 49  26  27  1   
 50  26  48  1   
 51  26  49  1   
 52  27  50  1   
 53  27  51  1   
 54  27  52  1   
@<TRIPOS>SUBSTRUCTURE
  1 ****  11 GROUP 4 **** **** 0

# MOE 2024.06 (io_trps.svl 2023.06)
