@<TRIPOS>MOLECULE
NONAME
55 58 1 0 0 
SMALL
USER_CHARGES


@<TRIPOS>ATOM
  1 O        0.9570    -1.7780     1.5530 O.2   1 <1>  -0.5700 
  2 C        1.4580    -0.7840     1.0480 C.2   1 <1>   0.5440 
  3 N        0.7030     0.3660     0.9980 N.am  1 <1>  -0.6600 
  4 C        2.7920    -0.8200     0.5030 C.ar  1 <1>   0.0860 
  5 C        1.1400     1.6440     0.3860 C.3   1 <1>   0.1400 
  6 C       -0.5440     0.5500     1.7720 C.3   1 <1>   0.1400 
  7 C        3.0550    -1.4150    -0.7440 C.ar  1 <1>   0.4100 
  8 C        3.8600    -0.2580     1.1890 C.ar  1 <1>  -0.1500 
  9 C        0.2100     2.6980     0.9750 C.3   1 <1>  -0.1600 
 10 C       -1.0480     1.9310     1.3740 C.3   1 <1>  -0.1600 
 11 N        4.2540    -1.4570    -1.3130 N.ar  1 <1>  -0.6200 
 12 N        2.0630    -2.0330    -1.4700 N.pl3 1 <1>  -0.8380 
 13 C        5.1040    -0.3040     0.6020 C.ar  1 <1>  -0.1500 
 14 C        5.2420    -0.9060    -0.6370 C.ar  1 <1>   0.1600 
 15 C        2.0350    -3.5150    -1.5280 C.3   1 <1>   0.2090 
 16 C        1.3120    -1.3040    -2.5070 C.3   1 <1>   0.2090 
 17 C        0.9690    -4.0400    -0.5540 C.3   1 <1>   0.3430 
 18 C       -0.1250    -1.8320    -2.5750 C.3   1 <1>  -0.1600 
 19 N       -0.4590    -3.5980    -0.8030 N.4   1 <1>  -0.9590 
 20 C       -0.6930    -2.1720    -1.1940 C.3   1 <1>   0.3430 
 21 C       -1.2380    -3.8960     0.4340 C.3   1 <1>   0.4860 
 22 C       -1.4300    -5.4050     0.5650 C.ar  1 <1>   0.1670 
 23 N       -1.6990    -6.0650    -0.5590 N.ar  1 <1>  -0.6200 
 24 C       -1.3080    -6.0050     1.8100 C.ar  1 <1>  -0.1500 
 25 C       -1.8650    -7.3740    -0.4270 C.ar  1 <1>   0.1600 
 26 C       -1.4770    -7.3680     1.9260 C.ar  1 <1>  -0.1500 
 27 C       -1.7650    -8.0610     0.7700 C.ar  1 <1>  -0.1500 
 28 H        1.0120     1.5870    -0.6820 H     1 <1>   0.0800 
 29 H        2.1680     1.8650     0.6160 H     1 <1>   0.0800 
 30 H       -0.3100     0.5230     2.8240 H     1 <1>   0.0800 
 31 H       -1.2610    -0.2190     1.5430 H     1 <1>   0.0800 
 32 H        3.7110     0.1990     2.1520 H     1 <1>   0.1500 
 33 H        0.0050     3.4890     0.2750 H     1 <1>   0.0800 
 34 H        0.6710     3.1210     1.8500 H     1 <1>   0.0800 
 35 H       -1.5800     2.4090     2.1770 H     1 <1>   0.0800 
 36 H       -1.7040     1.8370     0.5270 H     1 <1>   0.0800 
 37 H        5.9620     0.1200     1.0930 H     1 <1>   0.1500 
 38 H        6.2200    -0.9350    -1.0900 H     1 <1>   0.1500 
 39 H        2.9970    -3.9000    -1.2330 H     1 <1>   0.0800 
 40 H        1.8400    -3.8560    -2.5300 H     1 <1>   0.0800 
 41 H        1.8040    -1.4180    -3.4590 H     1 <1>   0.0800 
 42 H        1.3060    -0.2560    -2.2580 H     1 <1>   0.0800 
 43 H        1.2680    -3.7240     0.4310 H     1 <1>   0.0800 
 44 H        1.0030    -5.1170    -0.5620 H     1 <1>   0.0800 
 45 H       -0.1860    -2.6820    -3.2290 H     1 <1>   0.0800 
 46 H       -0.7280    -1.0560    -3.0110 H     1 <1>   0.0800 
 47 H       -0.8650    -4.2360    -1.5050 H     1 <1>   0.4500 
 48 H       -1.7550    -1.9940    -1.2190 H     1 <1>   0.0800 
 49 H       -0.2700    -1.5100    -0.4590 H     1 <1>   0.0800 
 50 H       -2.2110    -3.4410     0.3690 H     1 <1>   0.0800 
 51 H       -0.7310    -3.5010     1.2990 H     1 <1>   0.0800 
 52 H       -1.0830    -5.4230     2.6870 H     1 <1>   0.1500 
 53 H       -2.0940    -7.9330    -1.3190 H     1 <1>   0.1500 
 54 H       -1.3920    -7.8710     2.8760 H     1 <1>   0.1500 
 55 H       -1.9120    -9.1260     0.7950 H     1 <1>   0.1500 
@<TRIPOS>BOND
  1   1   2  2   
  2   2   3  am  
  3   2   4  1   
  4   3   5  1   
  5   3   6  1   
  6   4   7  ar  
  7   4   8  ar  
  8   5   9  1   
  9   5  28  1   
 10   5  29  1   
 11   6  10  1   
 12   6  30  1   
 13   6  31  1   
 14   7  11  ar  
 15   7  12  1   
 16   8  13  ar  
 17   8  32  1   
 18   9  10  1   
 19   9  33  1   
 20   9  34  1   
 21  10  35  1   
 22  10  36  1   
 23  11  14  ar  
 24  12  15  1   
 25  12  16  1   
 26  13  14  ar  
 27  13  37  1   
 28  14  38  1   
 29  15  17  1   
 30  15  39  1   
 31  15  40  1   
 32  16  18  1   
 33  16  41  1   
 34  16  42  1   
 35  17  19  1   
 36  17  43  1   
 37  17  44  1   
 38  18  20  1   
 39  18  45  1   
 40  18  46  1   
 41  19  20  1   
 42  19  21  1   
 43  19  47  1   
 44  20  48  1   
 45  20  49  1   
 46  21  22  1   
 47  21  50  1   
 48  21  51  1   
 49  22  23  ar  
 50  22  24  ar  
 51  23  25  ar  
 52  24  26  ar  
 53  24  52  1   
 54  25  27  ar  
 55  25  53  1   
 56  26  27  ar  
 57  26  54  1   
 58  27  55  1   
@<TRIPOS>SUBSTRUCTURE
  1 ****   1 GROUP 4 **** **** 0

# MOE 2024.06 (io_trps.svl 2023.06)
