@<TRIPOS>MOLECULE
NONAME
45 47 1 0 0 
SMALL
USER_CHARGES


@<TRIPOS>ATOM
  1 S       -0.0840    -0.2540     1.6660 S.o2  1 <1>   1.4470 
  2 O       -0.7440    -1.3510     2.3400 O.2   1 <1>  -0.6500 
  3 O        0.3020     0.9150     2.4270 O.2   1 <1>  -0.6500 
  4 N       -1.1290     0.2850     0.4460 N.am  1 <1>  -0.8490 
  5 C        1.3380    -0.8960     0.7380 C.ar  1 <1>  -0.0090 
  6 C       -2.4840     0.5200     0.9730 C.3   1 <1>   0.1960 
  7 C       -0.6220     1.4830    -0.2280 C.3   1 <1>   0.1960 
  8 C        1.1590    -1.8090    -0.2970 C.ar  1 <1>  -0.1500 
  9 C        2.6370    -0.4930     1.0380 C.ar  1 <1>  -0.1500 
 10 C       -3.5000     0.8530    -0.1480 C.3   1 <1>   0.0000 
 11 C       -1.5240     1.8430    -1.4100 C.3   1 <1>  -0.1600 
 12 C        2.2370    -2.3000    -1.0140 C.ar  1 <1>  -0.1500 
 13 C        3.7240    -0.9770     0.3290 C.ar  1 <1>  -0.1500 
 14 C       -4.8810     1.0960     0.4980 C.3   1 <1>   0.2000 
 15 C       -2.9740     2.0630    -0.9570 C.3   1 <1>  -0.1600 
 16 C       -3.7460    -0.3860    -1.0340 C.3   1 <1>  -0.1600 
 17 C        3.5140    -1.8810    -0.6980 C.ar  1 <1>   0.1010 
 18 O       -5.7220     1.7420    -0.3910 O.3   1 <1>  -0.6800 
 19 C       -5.4620    -0.2970     0.7320 C.3   1 <1>  -0.1600 
 20 C       -4.8500    -1.2020    -0.3460 C.3   1 <1>  -0.1600 
 21 S        4.8660    -2.5600    -1.6740 S.3   1 <1>  -0.3320 
 22 C        6.4270    -1.8410    -0.9980 C.3   1 <1>  -0.0100 
 23 H       -2.8170    -0.3620     1.4940 H     1 <1>   0.0800 
 24 H       -2.4520     1.3280     1.6860 H     1 <1>   0.0800 
 25 H       -0.5820     2.3090     0.4650 H     1 <1>   0.0800 
 26 H        0.3760     1.3020    -0.5930 H     1 <1>   0.0800 
 27 H        0.1620    -2.1360    -0.5410 H     1 <1>   0.1500 
 28 H        2.7980     0.2100     1.8390 H     1 <1>   0.1500 
 29 H       -1.1550     2.7390    -1.8770 H     1 <1>   0.0800 
 30 H       -1.4790     1.0520    -2.1380 H     1 <1>   0.0800 
 31 H        2.0900    -3.0060    -1.8130 H     1 <1>   0.1500 
 32 H        4.7110    -0.6440     0.5870 H     1 <1>   0.1500 
 33 H       -4.8310     1.6870     1.3970 H     1 <1>   0.0800 
 34 H       -3.5930     2.2460    -1.8170 H     1 <1>   0.0800 
 35 H       -3.0180     2.9420    -0.3360 H     1 <1>   0.0800 
 36 H       -4.0980    -0.0760    -2.0020 H     1 <1>   0.0800 
 37 H       -2.8540    -0.9710    -1.1750 H     1 <1>   0.0800 
 38 H       -5.8150     1.1920    -1.1910 H     1 <1>   0.4000 
 39 H       -5.1480    -0.6460     1.7000 H     1 <1>   0.0800 
 40 H       -6.5390    -0.2960     0.7100 H     1 <1>   0.0800 
 41 H       -4.4360    -2.0860     0.1090 H     1 <1>   0.0800 
 42 H       -5.5960    -1.5010    -1.0640 H     1 <1>   0.0800 
 43 H        7.2440    -2.2470    -1.5670 H     1 <1>   0.0800 
 44 H        6.5040    -2.1260     0.0360 H     1 <1>   0.0800 
 45 H        6.3780    -0.7730    -1.1110 H     1 <1>   0.0800 
@<TRIPOS>BOND
  1   1   2  2   
  2   1   3  2   
  3   1   4  am  
  4   1   5  1   
  5   4   6  1   
  6   4   7  1   
  7   5   8  ar  
  8   5   9  ar  
  9   6  10  1   
 10   6  23  1   
 11   6  24  1   
 12   7  11  1   
 13   7  25  1   
 14   7  26  1   
 15   8  12  ar  
 16   8  27  1   
 17   9  13  ar  
 18   9  28  1   
 19  10  14  1   
 20  10  15  1   
 21  10  16  1   
 22  11  15  1   
 23  11  29  1   
 24  11  30  1   
 25  12  17  ar  
 26  12  31  1   
 27  13  17  ar  
 28  13  32  1   
 29  14  18  1   
 30  14  19  1   
 31  14  33  1   
 32  15  34  1   
 33  15  35  1   
 34  16  20  1   
 35  16  36  1   
 36  16  37  1   
 37  17  21  1   
 38  18  38  1   
 39  19  20  1   
 40  19  39  1   
 41  19  40  1   
 42  20  41  1   
 43  20  42  1   
 44  21  22  1   
 45  22  43  1   
 46  22  44  1   
 47  22  45  1   
@<TRIPOS>SUBSTRUCTURE
  1 ****   4 GROUP 4 **** **** 0

# MOE 2024.06 (io_trps.svl 2023.06)
