@<TRIPOS>MOLECULE
NONAME
37 39 1 0 0 
SMALL
USER_CHARGES


@<TRIPOS>ATOM
  1 O       -1.6770     0.3990    -2.0990 O.2   1 <1>  -0.5700 
  2 C       -1.7810     0.6540    -0.9110 C.2   1 <1>   0.5440 
  3 N       -1.6620    -0.3730    -0.0160 N.am  1 <1>  -0.7300 
  4 C       -2.0670     1.9960    -0.4180 C.ar  1 <1>   0.3960 
  5 C       -1.7740    -1.8100    -0.3270 C.3   1 <1>   0.2200 
  6 N       -2.3670     2.1350     0.8760 N.ar  1 <1>  -0.6200 
  7 C       -2.0320     3.0810    -1.2990 C.ar  1 <1>   0.1600 
  8 C       -3.1500    -2.3190     0.0440 C.3   1 <1>  -0.0800 
  9 C       -0.8610    -2.6800     0.5280 C.3   1 <1>   0.1200 
 10 C       -2.6290     3.3990     1.2180 C.ar  1 <1>   0.1390 
 11 N       -2.2850     4.3510    -0.9780 N.ar  1 <1>  -0.6200 
 12 C       -2.8840    -3.7880     0.3560 C.3   1 <1>   0.1200 
 13 C       -4.1960    -2.0820    -1.0550 C.3   1 <1>  -0.0160 
 14 O       -1.5440    -3.8830     0.7430 O.3   1 <1>  -0.5600 
 15 O       -2.9290     3.6080     2.4120 O.3   1 <1>  -0.8290 
 16 C       -2.5810     4.4690     0.2950 C.ar  1 <1>   0.1600 
 17 C       -5.5690    -2.5520    -0.6030 C.ar  1 <1>  -0.1440 
 18 C       -6.3320    -1.7930     0.2600 C.ar  1 <1>  -0.1500 
 19 C       -6.1210    -3.7460    -1.0210 C.ar  1 <1>  -0.1500 
 20 C       -7.5770    -2.2530     0.6570 C.ar  1 <1>   0.1600 
 21 C       -7.3760    -4.1130    -0.5640 C.ar  1 <1>   0.1600 
 22 N       -8.1170    -3.3970     0.2660 N.ar  1 <1>  -0.6200 
 23 H       -1.8380    -0.0890     0.9590 H     1 <1>   0.3700 
 24 H       -1.5610    -1.9910    -1.3670 H     1 <1>   0.0800 
 25 H       -1.7830     2.8890    -2.3260 H     1 <1>   0.1500 
 26 H       -3.4720    -1.8450     0.9560 H     1 <1>   0.0800 
 27 H       -0.6850    -2.2290     1.4880 H     1 <1>   0.0800 
 28 H        0.0710    -2.8900     0.0330 H     1 <1>   0.0800 
 29 H       -3.0120    -4.4040    -0.5170 H     1 <1>   0.0800 
 30 H       -3.5090    -4.1510     1.1540 H     1 <1>   0.0800 
 31 H       -3.9070    -2.5900    -1.9580 H     1 <1>   0.0800 
 32 H       -4.2440    -1.0300    -1.2790 H     1 <1>   0.0800 
 33 H       -2.8090     5.4390     0.6940 H     1 <1>   0.1500 
 34 H       -5.9700    -0.8490     0.6280 H     1 <1>   0.1500 
 35 H       -5.5910    -4.3920    -1.6950 H     1 <1>   0.1500 
 36 H       -8.1560    -1.6460     1.3320 H     1 <1>   0.1500 
 37 H       -7.7930    -5.0480    -0.8990 H     1 <1>   0.1500 
@<TRIPOS>BOND
  1   1   2  2   
  2   2   3  am  
  3   2   4  1   
  4   3   5  1   
  5   3  23  1   
  6   4   6  ar  
  7   4   7  ar  
  8   5   8  1   
  9   5   9  1   
 10   5  24  1   
 11   6  10  ar  
 12   7  11  ar  
 13   7  25  1   
 14   8  12  1   
 15   8  13  1   
 16   8  26  1   
 17   9  14  1   
 18   9  27  1   
 19   9  28  1   
 20  10  15  1   
 21  10  16  ar  
 22  11  16  ar  
 23  12  14  1   
 24  12  29  1   
 25  12  30  1   
 26  13  17  1   
 27  13  31  1   
 28  13  32  1   
 29  16  33  1   
 30  17  18  ar  
 31  17  19  ar  
 32  18  20  ar  
 33  18  34  1   
 34  19  21  ar  
 35  19  35  1   
 36  20  22  ar  
 37  20  36  1   
 38  21  22  ar  
 39  21  37  1   
@<TRIPOS>SUBSTRUCTURE
  1 ****   3 GROUP 4 **** **** 0

# MOE 2024.06 (io_trps.svl 2023.06)
