@<TRIPOS>MOLECULE
NONAME
45 47 1 0 0 
SMALL
USER_CHARGES


@<TRIPOS>ATOM
  1 O        2.5170    -0.6390     1.4770 O.3   1 <1>  -0.5600 
  2 C        1.3830    -0.9450     0.7100 C.3   1 <1>   0.2000 
  3 C        2.2580     0.1990     2.5660 C.3   1 <1>   0.0400 
  4 C        1.7890    -1.5310    -0.6560 C.3   1 <1>   0.0000 
  5 C        0.5210    -2.0200     1.3810 C.3   1 <1>  -0.1600 
  6 C        2.9490    -2.5400    -0.4800 C.3   1 <1>   0.3430 
  7 C        2.1550    -0.4060    -1.6660 C.3   1 <1>  -0.1600 
  8 C        0.5250    -2.3030    -1.0560 C.3   1 <1>  -0.1600 
  9 C        0.0000    -2.9160     0.2470 C.3   1 <1>  -0.1600 
 10 N        4.2160    -1.7760    -0.3600 N.4   1 <1>  -0.9590 
 11 C        3.3980    -0.7580    -2.5030 C.3   1 <1>  -0.1600 
 12 C        4.6190    -1.0970    -1.6330 C.3   1 <1>   0.3430 
 13 C        5.3030    -2.5310     0.3070 C.3   1 <1>   0.4860 
 14 C        6.3790    -1.5550     0.7170 C.ar  1 <1>  -0.1440 
 15 C        6.1810    -0.6710     1.7550 C.ar  1 <1>   0.1600 
 16 C        7.5930    -1.4970     0.0700 C.ar  1 <1>   0.1600 
 17 N        7.0850     0.2080     2.1020 N.ar  1 <1>  -0.6200 
 18 N        8.5130    -0.6260     0.3980 N.ar  1 <1>  -0.6200 
 19 C        8.2000     0.1880     1.3920 C.ar  1 <1>   0.7200 
 20 N        9.1240     1.0860     1.7270 N.pl3 1 <1>  -0.9000 
 21 H        0.7990    -0.0510     0.5580 H     1 <1>   0.0800 
 22 H        3.1840     0.3890     3.0800 H     1 <1>   0.0800 
 23 H        1.5680    -0.2830     3.2380 H     1 <1>   0.0800 
 24 H        1.8480     1.1300     2.2130 H     1 <1>   0.0800 
 25 H        1.1030    -2.6050     2.0730 H     1 <1>   0.0800 
 26 H       -0.3000    -1.5630     1.9050 H     1 <1>   0.0800 
 27 H        2.9970    -3.2010    -1.3300 H     1 <1>   0.0800 
 28 H        2.7750    -3.1270     0.4070 H     1 <1>   0.0800 
 29 H        1.3280    -0.1920    -2.3210 H     1 <1>   0.0800 
 30 H        2.3690     0.5030    -1.1290 H     1 <1>   0.0800 
 31 H       -0.2200    -1.6200    -1.4300 H     1 <1>   0.0800 
 32 H        0.7070    -3.0500    -1.8100 H     1 <1>   0.0800 
 33 H        0.3790    -3.9170     0.3700 H     1 <1>   0.0800 
 34 H       -1.0770    -2.9590     0.2450 H     1 <1>   0.0800 
 35 H        3.9340    -1.0240     0.3010 H     1 <1>   0.4500 
 36 H        3.6480     0.0660    -3.1490 H     1 <1>   0.0800 
 37 H        3.1750    -1.5970    -3.1390 H     1 <1>   0.0800 
 38 H        5.1490    -0.1880    -1.3910 H     1 <1>   0.0800 
 39 H        5.2860    -1.7280    -2.1980 H     1 <1>   0.0800 
 40 H        4.9200    -3.0260     1.1850 H     1 <1>   0.0800 
 41 H        5.7050    -3.2760    -0.3610 H     1 <1>   0.0800 
 42 H        5.2590    -0.6770     2.3130 H     1 <1>   0.1500 
 43 H        7.8220    -2.1720    -0.7380 H     1 <1>   0.1500 
 44 H       10.0690     0.8940     1.4050 H     1 <1>   0.4000 
 45 H        9.0290     1.5010     2.6490 H     1 <1>   0.4000 
@<TRIPOS>BOND
  1   1   2  1   
  2   1   3  1   
  3   2   4  1   
  4   2   5  1   
  5   2  21  1   
  6   3  22  1   
  7   3  23  1   
  8   3  24  1   
  9   4   6  1   
 10   4   7  1   
 11   4   8  1   
 12   5   9  1   
 13   5  25  1   
 14   5  26  1   
 15   6  10  1   
 16   6  27  1   
 17   6  28  1   
 18   7  11  1   
 19   7  29  1   
 20   7  30  1   
 21   8   9  1   
 22   8  31  1   
 23   8  32  1   
 24   9  33  1   
 25   9  34  1   
 26  10  12  1   
 27  10  13  1   
 28  10  35  1   
 29  11  12  1   
 30  11  36  1   
 31  11  37  1   
 32  12  38  1   
 33  12  39  1   
 34  13  14  1   
 35  13  40  1   
 36  13  41  1   
 37  14  15  ar  
 38  14  16  ar  
 39  15  17  ar  
 40  15  42  1   
 41  16  18  ar  
 42  16  43  1   
 43  17  19  ar  
 44  18  19  ar  
 45  19  20  1   
 46  20  44  1   
 47  20  45  1   
@<TRIPOS>SUBSTRUCTURE
  1 ****  10 GROUP 4 **** **** 0

# MOE 2024.06 (io_trps.svl 2023.06)
