@<TRIPOS>MOLECULE
NONAME
44 46 1 0 0 
SMALL
USER_CHARGES


@<TRIPOS>ATOM
  1 F       -0.3470     0.4240     0.2240 F     1 <1>  -0.1900 
  2 C       -0.0960     1.6870     0.4520 C.ar  1 <1>   0.1900 
  3 C       -0.7610     2.7100    -0.2330 C.ar  1 <1>   0.0820 
  4 C        0.8700     1.9600     1.4020 C.ar  1 <1>  -0.1500 
  5 O       -1.7260     2.5690    -1.1860 O.3   1 <1>  -0.3630 
  6 C       -0.4180     4.0170     0.0700 C.ar  1 <1>  -0.1500 
  7 C        1.1910     3.2770     1.6780 C.ar  1 <1>  -0.1500 
  8 C       -2.3130     1.3260    -1.5030 C.3   1 <1>   0.0400 
  9 C        0.5610     4.3300     1.0130 C.ar  1 <1>   0.0860 
 10 C        0.9240     5.7040     1.3000 C.2   1 <1>   0.5440 
 11 O        0.8940     6.0950     2.4520 O.2   1 <1>  -0.5700 
 12 N        1.3290     6.5890     0.3130 N.am  1 <1>  -0.6600 
 13 C        1.5770     8.0200     0.6870 C.3   1 <1>   0.1400 
 14 C        1.8500     6.1040    -1.0060 C.3   1 <1>   0.1400 
 15 C        3.0720     8.3610     0.9220 C.3   1 <1>   0.4230 
 16 C        3.2950     6.5400    -1.3380 C.3   1 <1>  -0.0800 
 17 N        3.7810     8.8120    -0.3320 N.4   1 <1>  -0.9590 
 18 C        3.8960     7.2480     1.6280 C.3   1 <1>   0.1200 
 19 C        4.3880     5.9810    -0.4010 C.3   1 <1>   0.1200 
 20 C        3.3970     8.0510    -1.5590 C.3   1 <1>   0.3430 
 21 C        3.6230    10.2830    -0.5540 C.3   1 <1>   0.2630 
 22 O        4.0150     6.0260     0.9390 O.3   1 <1>  -0.5600 
 23 H        1.3600     1.1540     1.9170 H     1 <1>   0.1500 
 24 H       -0.9290     4.8140    -0.4390 H     1 <1>   0.1500 
 25 H        1.9400     3.5060     2.4180 H     1 <1>   0.1500 
 26 H       -3.1010     1.5000    -2.2140 H     1 <1>   0.0800 
 27 H       -2.7200     0.8910    -0.6070 H     1 <1>   0.0800 
 28 H       -1.5660     0.6860    -1.9380 H     1 <1>   0.0800 
 29 H        1.1560     8.6640    -0.0630 H     1 <1>   0.0800 
 30 H        1.0460     8.2430     1.5960 H     1 <1>   0.0800 
 31 H        1.8280     5.0280    -1.0340 H     1 <1>   0.0800 
 32 H        1.1830     6.4490    -1.7790 H     1 <1>   0.0800 
 33 H        3.0770     9.1960     1.6010 H     1 <1>   0.0800 
 34 H        3.4970     6.1110    -2.3030 H     1 <1>   0.0800 
 35 H        4.7770     8.6170    -0.1620 H     1 <1>   0.4500 
 36 H        3.4230     7.0170     2.5680 H     1 <1>   0.0800 
 37 H        4.8880     7.6000     1.8440 H     1 <1>   0.0800 
 38 H        5.3310     6.4850    -0.5210 H     1 <1>   0.0800 
 39 H        4.5410     4.9390    -0.6280 H     1 <1>   0.0800 
 40 H        2.4500     8.4090    -1.9290 H     1 <1>   0.0800 
 41 H        4.1340     8.2380    -2.3240 H     1 <1>   0.0800 
 42 H        2.5870    10.5280    -0.7270 H     1 <1>   0.0800 
 43 H        4.1990    10.5970    -1.4100 H     1 <1>   0.0800 
 44 H        3.9670    10.8320     0.3080 H     1 <1>   0.0800 
@<TRIPOS>BOND
  1   1   2  1   
  2   2   3  ar  
  3   2   4  ar  
  4   3   5  1   
  5   3   6  ar  
  6   4   7  ar  
  7   4  23  1   
  8   5   8  1   
  9   6   9  ar  
 10   6  24  1   
 11   7   9  ar  
 12   7  25  1   
 13   8  26  1   
 14   8  27  1   
 15   8  28  1   
 16   9  10  1   
 17  10  11  2   
 18  10  12  am  
 19  12  13  1   
 20  12  14  1   
 21  13  15  1   
 22  13  29  1   
 23  13  30  1   
 24  14  16  1   
 25  14  31  1   
 26  14  32  1   
 27  15  17  1   
 28  15  18  1   
 29  15  33  1   
 30  16  19  1   
 31  16  20  1   
 32  16  34  1   
 33  17  20  1   
 34  17  21  1   
 35  17  35  1   
 36  18  22  1   
 37  18  36  1   
 38  18  37  1   
 39  19  22  1   
 40  19  38  1   
 41  19  39  1   
 42  20  40  1   
 43  20  41  1   
 44  21  42  1   
 45  21  43  1   
 46  21  44  1   
@<TRIPOS>SUBSTRUCTURE
  1 ****  10 GROUP 4 **** **** 0

# MOE 2024.06 (io_trps.svl 2023.06)
