@<TRIPOS>MOLECULE
NONAME
44 46 1 0 0 
SMALL
USER_CHARGES


@<TRIPOS>ATOM
  1 O       -2.7310     1.3560    -1.9100 O.2   1 <1>  -0.5700 
  2 C       -2.2660     1.1910    -0.8100 C.2   1 <1>   0.5690 
  3 N       -2.1250    -0.0430    -0.2700 N.am  1 <1>  -0.7300 
  4 C       -1.8230     2.3950    -0.0110 C.3   1 <1>  -0.0990 
  5 C       -2.5050    -1.3040    -0.9450 C.3   1 <1>   0.2200 
  6 C       -0.5150     2.9720    -0.5650 C.3   1 <1>  -0.0170 
  7 C       -3.7930    -1.8280    -0.3340 C.3   1 <1>  -0.0800 
  8 C       -1.5170    -2.4020    -0.5720 C.3   1 <1>   0.1200 
  9 C       -0.0810     4.1820     0.2470 C.ar  1 <1>  -0.1440 
 10 C       -3.2860    -2.6010     0.8900 C.3   1 <1>   0.1200 
 11 C       -4.5590    -2.7310    -1.3200 C.3   1 <1>  -0.0170 
 12 O       -1.9320    -2.8800     0.6720 O.3   1 <1>  -0.5600 
 13 C        0.8350     4.0570     1.2820 C.ar  1 <1>   0.1600 
 14 C       -0.5980     5.4310    -0.0330 C.ar  1 <1>  -0.1500 
 15 C       -5.8620    -3.2340    -0.7190 C.ar  1 <1>  -0.1440 
 16 N        1.2620     5.0520     2.0430 N.ar  1 <1>  -0.6200 
 17 C       -0.1630     6.4800     0.7480 C.ar  1 <1>  -0.1500 
 18 C       -6.0160    -4.5340    -0.2810 C.ar  1 <1>  -0.1500 
 19 C       -6.9620    -2.4110    -0.5830 C.ar  1 <1>  -0.1500 
 20 C        0.7530     6.2390     1.7570 C.ar  1 <1>   0.1600 
 21 C       -7.2260    -4.9340     0.2620 C.ar  1 <1>   0.1600 
 22 C       -8.1270    -2.9110    -0.0260 C.ar  1 <1>   0.1600 
 23 N       -8.2850    -4.1530     0.4020 N.ar  1 <1>  -0.6200 
 24 H       -1.7560    -0.1690     0.6750 H     1 <1>   0.3700 
 25 H       -2.5960     3.1400    -0.0650 H     1 <1>   0.0800 
 26 H       -1.6940     2.1230     1.0200 H     1 <1>   0.0800 
 27 H       -2.5680    -1.1550    -2.0110 H     1 <1>   0.0800 
 28 H       -0.6570     3.2600    -1.5940 H     1 <1>   0.0800 
 29 H        0.2530     2.2190    -0.5420 H     1 <1>   0.0800 
 30 H       -4.4380    -1.0190    -0.0380 H     1 <1>   0.0800 
 31 H       -0.5040    -2.0450    -0.5050 H     1 <1>   0.0800 
 32 H       -1.5700    -3.2170    -1.2710 H     1 <1>   0.0800 
 33 H       -3.8090    -3.5270     1.0520 H     1 <1>   0.0800 
 34 H       -3.3530    -1.9960     1.7770 H     1 <1>   0.0800 
 35 H       -3.9490    -3.5680    -1.6120 H     1 <1>   0.0800 
 36 H       -4.7870    -2.1710    -2.2110 H     1 <1>   0.0800 
 37 H        1.2400     3.0850     1.5000 H     1 <1>   0.1500 
 38 H       -1.3110     5.5840    -0.8260 H     1 <1>   0.1500 
 39 H       -0.5290     7.4760     0.5780 H     1 <1>   0.1500 
 40 H       -5.2090    -5.2400    -0.3550 H     1 <1>   0.1500 
 41 H       -6.9240    -1.3860    -0.9040 H     1 <1>   0.1500 
 42 H        1.0850     7.0670     2.3600 H     1 <1>   0.1500 
 43 H       -7.3280    -5.9520     0.5990 H     1 <1>   0.1500 
 44 H       -8.9740    -2.2540     0.0730 H     1 <1>   0.1500 
@<TRIPOS>BOND
  1   1   2  2   
  2   2   3  am  
  3   2   4  1   
  4   3   5  1   
  5   3  24  1   
  6   4   6  1   
  7   4  25  1   
  8   4  26  1   
  9   5   7  1   
 10   5   8  1   
 11   5  27  1   
 12   6   9  1   
 13   6  28  1   
 14   6  29  1   
 15   7  10  1   
 16   7  11  1   
 17   7  30  1   
 18   8  12  1   
 19   8  31  1   
 20   8  32  1   
 21   9  13  ar  
 22   9  14  ar  
 23  10  12  1   
 24  10  33  1   
 25  10  34  1   
 26  11  15  1   
 27  11  35  1   
 28  11  36  1   
 29  13  16  ar  
 30  13  37  1   
 31  14  17  ar  
 32  14  38  1   
 33  15  18  ar  
 34  15  19  ar  
 35  16  20  ar  
 36  17  20  ar  
 37  17  39  1   
 38  18  21  ar  
 39  18  40  1   
 40  19  22  ar  
 41  19  41  1   
 42  20  42  1   
 43  21  23  ar  
 44  21  43  1   
 45  22  23  ar  
 46  22  44  1   
@<TRIPOS>SUBSTRUCTURE
  1 ****   3 GROUP 4 **** **** 0

# MOE 2024.06 (io_trps.svl 2023.06)
