@<TRIPOS>MOLECULE
NONAME
40 42 1 0 0 
SMALL
USER_CHARGES


@<TRIPOS>ATOM
  1 CL      -1.3080    -0.3030    -1.8420 Cl    1 <1>  -0.1400 
  2 C       -2.3260     0.5660    -0.7130 C.2   1 <1>   0.1540 
  3 C       -1.7660     1.6700     0.0030 C.2   1 <1>   0.6160 
  4 C       -3.6180     0.1830    -0.5350 C.2   1 <1>  -0.1500 
  5 O       -0.6210     2.0820    -0.1060 O.2   1 <1>  -0.5700 
  6 N       -2.5950     2.3170     0.8820 N.am  1 <1>  -0.5390 
  7 C       -4.4600     0.8870     0.3820 C.2   1 <1>   0.0140 
  8 C       -3.9010     1.9360     1.0740 C.2   1 <1>  -0.0410 
  9 C       -5.8300     0.4640     0.5620 C.2   1 <1>   0.6160 
 10 O       -6.0690    -0.7260     0.6530 O.2   1 <1>  -0.5700 
 11 N       -6.8780     1.3620     0.6340 N.am  1 <1>  -0.6600 
 12 C       -8.2220     0.9510     1.1480 C.3   1 <1>   0.1400 
 13 C       -6.8440     2.7280     0.0420 C.3   1 <1>   0.1400 
 14 C       -9.3130     1.0300     0.0520 C.3   1 <1>   0.0000 
 15 C       -7.8970     2.8440    -1.0640 C.3   1 <1>  -0.1600 
 16 C      -10.6680     0.6460     0.6850 C.3   1 <1>   0.2000 
 17 C       -9.2970     2.4490    -0.5690 C.3   1 <1>  -0.1600 
 18 C       -9.1060    -0.0760    -1.0020 C.3   1 <1>  -0.1600 
 19 O      -11.7140     1.0410    -0.1310 O.3   1 <1>  -0.6800 
 20 C      -10.6770    -0.8820     0.7140 C.3   1 <1>  -0.1600 
 21 C       -9.7730    -1.3390    -0.4410 C.3   1 <1>  -0.1600 
 22 H       -4.0340    -0.6540    -1.0700 H     1 <1>   0.1500 
 23 H       -2.1510     3.0870     1.3890 H     1 <1>   0.3700 
 24 H       -4.4790     2.4870     1.7980 H     1 <1>   0.1500 
 25 H       -8.1740    -0.0450     1.5520 H     1 <1>   0.0800 
 26 H       -8.4870     1.6090     1.9570 H     1 <1>   0.0800 
 27 H       -7.0470     3.4500     0.8150 H     1 <1>   0.0800 
 28 H       -5.8770     2.9440    -0.3770 H     1 <1>   0.0800 
 29 H       -7.9190     3.8570    -1.4250 H     1 <1>   0.0800 
 30 H       -7.6090     2.2140    -1.8870 H     1 <1>   0.0800 
 31 H      -10.8220     1.0840     1.6570 H     1 <1>   0.0800 
 32 H       -9.9890     2.5090    -1.3910 H     1 <1>   0.0800 
 33 H       -9.6210     3.1580     0.1740 H     1 <1>   0.0800 
 34 H       -9.6000     0.1980    -1.9180 H     1 <1>   0.0800 
 35 H       -8.0670    -0.2480    -1.2230 H     1 <1>   0.0800 
 36 H      -11.6140     0.6060    -0.9980 H     1 <1>   0.4000 
 37 H      -10.2470    -1.2140     1.6430 H     1 <1>   0.0800 
 38 H      -11.6730    -1.2840     0.6430 H     1 <1>   0.0800 
 39 H       -9.0240    -2.0190    -0.0710 H     1 <1>   0.0800 
 40 H      -10.3440    -1.8360    -1.2060 H     1 <1>   0.0800 
@<TRIPOS>BOND
  1   1   2  1   
  2   2   3  1   
  3   2   4  2   
  4   3   5  2   
  5   3   6  am  
  6   4   7  1   
  7   4  22  1   
  8   6   8  1   
  9   6  23  1   
 10   7   8  2   
 11   7   9  1   
 12   8  24  1   
 13   9  10  2   
 14   9  11  am  
 15  11  12  1   
 16  11  13  1   
 17  12  14  1   
 18  12  25  1   
 19  12  26  1   
 20  13  15  1   
 21  13  27  1   
 22  13  28  1   
 23  14  16  1   
 24  14  17  1   
 25  14  18  1   
 26  15  17  1   
 27  15  29  1   
 28  15  30  1   
 29  16  19  1   
 30  16  20  1   
 31  16  31  1   
 32  17  32  1   
 33  17  33  1   
 34  18  21  1   
 35  18  34  1   
 36  18  35  1   
 37  19  36  1   
 38  20  21  1   
 39  20  37  1   
 40  20  38  1   
 41  21  39  1   
 42  21  40  1   
@<TRIPOS>SUBSTRUCTURE
  1 ****   9 GROUP 4 **** **** 0

# MOE 2024.06 (io_trps.svl 2023.06)
