@<TRIPOS>MOLECULE
NONAME
53 56 1 0 0 
SMALL
USER_CHARGES


@<TRIPOS>ATOM
  1 O       -3.0810     1.2740    -2.5050 O.2   1 <1>  -0.5700 
  2 C       -2.7040     1.2380    -1.3460 C.2   1 <1>   0.5440 
  3 N       -2.8930     0.0360    -0.6770 N.am  1 <1>  -0.6600 
  4 C       -2.1070     2.4370    -0.7460 C.ar  1 <1>   0.3960 
  5 C       -3.1720    -0.0660     0.7770 C.3   1 <1>   0.1400 
  6 C       -2.8960    -1.2520    -1.4130 C.3   1 <1>   0.1400 
  7 N       -1.3370     2.3500     0.3550 N.ar  1 <1>  -0.6200 
  8 C       -2.3440     3.6780    -1.3550 C.ar  1 <1>   0.1600 
  9 C       -4.5450    -0.7160     0.9610 C.3   1 <1>  -0.1600 
 10 C       -4.2740    -1.8930    -1.2710 C.3   1 <1>  -0.1600 
 11 C       -0.8630     3.5130     0.7610 C.ar  1 <1>   0.1600 
 12 N       -1.8780     4.8470    -0.9420 N.ar  1 <1>  -0.6200 
 13 C       -4.6430    -2.0450     0.2080 C.3   1 <1>   0.4230 
 14 C       -1.1250     4.7240     0.1340 C.ar  1 <1>   0.1600 
 15 N       -6.0320    -2.5330     0.3250 N.4   1 <1>  -0.9060 
 16 C       -6.2640    -3.9450    -0.0850 C.3   1 <1>   0.4230 
 17 C       -7.7670    -4.2140    -0.0420 C.3   1 <1>  -0.0800 
 18 C       -5.7830    -4.8610     1.0350 C.3   1 <1>   0.1200 
 19 C       -8.0040    -4.6250     1.4240 C.3   1 <1>   0.1200 
 20 C       -8.1750    -5.3260    -1.0280 C.3   1 <1>  -0.0160 
 21 O       -6.7400    -4.6640     2.0200 O.3   1 <1>  -0.5600 
 22 C       -9.6760    -5.5640    -0.9860 C.ar  1 <1>  -0.1430 
 23 C      -10.2290    -6.6480    -0.3340 C.ar  1 <1>  -0.1500 
 24 C      -10.5660    -4.7070    -1.6040 C.ar  1 <1>  -0.1500 
 25 C      -11.6050    -6.8100    -0.3190 C.ar  1 <1>   0.1600 
 26 C      -11.9250    -4.9610    -1.5300 C.ar  1 <1>   0.1600 
 27 N      -12.4640    -5.9890    -0.8980 N.ar  1 <1>  -0.6200 
 28 H       -2.3990    -0.6510     1.2480 H     1 <1>   0.0800 
 29 H       -3.1830     0.9070     1.2360 H     1 <1>   0.0800 
 30 H       -2.6680    -1.0940    -2.4560 H     1 <1>   0.0800 
 31 H       -2.1320    -1.8920    -1.0050 H     1 <1>   0.0800 
 32 H       -2.9600     3.6960    -2.2380 H     1 <1>   0.1500 
 33 H       -5.2870    -0.0250     0.6000 H     1 <1>   0.0800 
 34 H       -4.7080    -0.8730     2.0120 H     1 <1>   0.0800 
 35 H       -4.2470    -2.8490    -1.7590 H     1 <1>   0.0800 
 36 H       -4.9850    -1.2640    -1.7790 H     1 <1>   0.0800 
 37 H       -0.2330     3.5140     1.6340 H     1 <1>   0.1500 
 38 H       -3.9640    -2.7460     0.6690 H     1 <1>   0.0800 
 39 H       -0.6940     5.6230     0.5400 H     1 <1>   0.1500 
 40 H       -6.6510    -1.9000    -0.1900 H     1 <1>   0.4500 
 41 H       -6.3150    -2.4990     1.3170 H     1 <1>   0.4500 
 42 H       -5.8230    -4.1670    -1.0430 H     1 <1>   0.0800 
 43 H       -8.3360    -3.3330    -0.2800 H     1 <1>   0.0800 
 44 H       -4.8090    -4.6120     1.4180 H     1 <1>   0.0800 
 45 H       -5.8050    -5.8970     0.7420 H     1 <1>   0.0800 
 46 H       -8.4480    -5.6020     1.5150 H     1 <1>   0.0800 
 47 H       -8.6100    -3.9100     1.9550 H     1 <1>   0.0800 
 48 H       -7.6630    -6.2460    -0.8010 H     1 <1>   0.0800 
 49 H       -7.9040    -5.0450    -2.0320 H     1 <1>   0.0800 
 50 H       -9.6130    -7.3740     0.1640 H     1 <1>   0.1500 
 51 H      -10.2240    -3.8440    -2.1460 H     1 <1>   0.1500 
 52 H      -12.0200    -7.6600     0.1950 H     1 <1>   0.1500 
 53 H      -12.6070    -4.2840    -2.0170 H     1 <1>   0.1500 
@<TRIPOS>BOND
  1   1   2  2   
  2   2   3  am  
  3   2   4  1   
  4   3   5  1   
  5   3   6  1   
  6   4   7  ar  
  7   4   8  ar  
  8   5   9  1   
  9   5  28  1   
 10   5  29  1   
 11   6  10  1   
 12   6  30  1   
 13   6  31  1   
 14   7  11  ar  
 15   8  12  ar  
 16   8  32  1   
 17   9  13  1   
 18   9  33  1   
 19   9  34  1   
 20  10  13  1   
 21  10  35  1   
 22  10  36  1   
 23  11  14  ar  
 24  11  37  1   
 25  12  14  ar  
 26  13  15  1   
 27  13  38  1   
 28  14  39  1   
 29  15  16  1   
 30  15  40  1   
 31  15  41  1   
 32  16  17  1   
 33  16  18  1   
 34  16  42  1   
 35  17  19  1   
 36  17  20  1   
 37  17  43  1   
 38  18  21  1   
 39  18  44  1   
 40  18  45  1   
 41  19  21  1   
 42  19  46  1   
 43  19  47  1   
 44  20  22  1   
 45  20  48  1   
 46  20  49  1   
 47  22  23  ar  
 48  22  24  ar  
 49  23  25  ar  
 50  23  50  1   
 51  24  26  ar  
 52  24  51  1   
 53  25  27  ar  
 54  25  52  1   
 55  26  27  ar  
 56  26  53  1   
@<TRIPOS>SUBSTRUCTURE
  1 ****  15 GROUP 4 **** **** 0

# MOE 2024.06 (io_trps.svl 2023.06)
