@<TRIPOS>MOLECULE
NONAME
41 41 1 0 0 
SMALL
USER_CHARGES


@<TRIPOS>ATOM
  1 F        1.3330     0.0840     0.8890 F     1 <1>  -0.1900 
  2 C        2.2030     0.8700     0.2930 C.ar  1 <1>   0.1900 
  3 C        2.1020     2.2460     0.3630 C.ar  1 <1>   0.3920 
  4 C        3.2370     0.3260    -0.4170 C.ar  1 <1>   0.1600 
  5 O        1.0910     2.8080     1.0630 O.3   1 <1>  -0.3630 
  6 N        2.9790     3.0240    -0.2400 N.ar  1 <1>  -0.6200 
  7 N        4.1250     1.0880    -1.0230 N.ar  1 <1>  -0.6200 
  8 C        0.9660     4.2130     1.1620 C.3   1 <1>   0.0400 
  9 C        3.9560     2.4080    -0.9030 C.ar  1 <1>   0.7200 
 10 N        4.9010     3.2030    -1.5220 N.pl3 1 <1>  -0.8380 
 11 C        5.0990     4.6480    -1.1530 C.3   1 <1>   0.2090 
 12 C        5.5690     2.7250    -2.7690 C.3   1 <1>   0.1290 
 13 C        6.1410     4.8850    -0.0200 C.3   1 <1>   0.0000 
 14 C        7.4880     4.2050    -0.3720 C.3   1 <1>   0.1200 
 15 C        6.3840     6.4160     0.1240 C.3   1 <1>  -0.1600 
 16 C        5.6120     4.2680     1.3070 C.3   1 <1>  -0.1600 
 17 O        7.9750     4.6390    -1.5990 O.3   1 <1>  -0.6800 
 18 C        5.1710     7.2550     0.5630 C.3   1 <1>  -0.2400 
 19 C        6.4570     4.5260     2.5670 C.3   1 <1>  -0.2400 
 20 H        3.3380    -0.7420    -0.4880 H     1 <1>   0.1500 
 21 H        0.1000     4.4340     1.7600 H     1 <1>   0.0800 
 22 H        0.8480     4.6230     0.1740 H     1 <1>   0.0800 
 23 H        1.8500     4.6090     1.6300 H     1 <1>   0.0800 
 24 H        4.1570     5.0730    -0.8580 H     1 <1>   0.0800 
 25 H        5.4050     5.1930    -2.0290 H     1 <1>   0.0800 
 26 H        4.9700     1.9710    -3.2510 H     1 <1>   0.0800 
 27 H        6.5260     2.2980    -2.5260 H     1 <1>   0.0800 
 28 H        5.7010     3.5360    -3.4630 H     1 <1>   0.0800 
 29 H        7.3720     3.1350    -0.4190 H     1 <1>   0.0800 
 30 H        8.2350     4.4350     0.3650 H     1 <1>   0.0800 
 31 H        6.7280     6.8060    -0.8200 H     1 <1>   0.0800 
 32 H        7.1850     6.5850     0.8230 H     1 <1>   0.0800 
 33 H        5.5370     3.2010     1.1840 H     1 <1>   0.0800 
 34 H        4.6130     4.6220     1.4910 H     1 <1>   0.0800 
 35 H        7.3540     4.3740    -2.3020 H     1 <1>   0.4000 
 36 H        4.3660     7.1810    -0.1450 H     1 <1>   0.0800 
 37 H        5.4580     8.2900     0.6310 H     1 <1>   0.0800 
 38 H        4.8150     6.9470     1.5300 H     1 <1>   0.0800 
 39 H        7.4560     4.1450     2.4520 H     1 <1>   0.0800 
 40 H        6.0070     4.0270     3.4070 H     1 <1>   0.0800 
 41 H        6.5070     5.5750     2.7950 H     1 <1>   0.0800 
@<TRIPOS>BOND
  1   1   2  1   
  2   2   3  ar  
  3   2   4  ar  
  4   3   5  1   
  5   3   6  ar  
  6   4   7  ar  
  7   4  20  1   
  8   5   8  1   
  9   6   9  ar  
 10   7   9  ar  
 11   8  21  1   
 12   8  22  1   
 13   8  23  1   
 14   9  10  1   
 15  10  11  1   
 16  10  12  1   
 17  11  13  1   
 18  11  24  1   
 19  11  25  1   
 20  12  26  1   
 21  12  27  1   
 22  12  28  1   
 23  13  14  1   
 24  13  15  1   
 25  13  16  1   
 26  14  17  1   
 27  14  29  1   
 28  14  30  1   
 29  15  18  1   
 30  15  31  1   
 31  15  32  1   
 32  16  19  1   
 33  16  33  1   
 34  16  34  1   
 35  17  35  1   
 36  18  36  1   
 37  18  37  1   
 38  18  38  1   
 39  19  39  1   
 40  19  40  1   
 41  19  41  1   
@<TRIPOS>SUBSTRUCTURE
  1 ****   9 GROUP 4 **** **** 0

# MOE 2024.06 (io_trps.svl 2023.06)
