@<TRIPOS>MOLECULE
NONAME
43 45 1 0 0 
SMALL
USER_CHARGES


@<TRIPOS>ATOM
  1 O        0.6820     1.9030    -1.9460 O.3   1 <1>  -0.0190 
  2 N        0.7870     0.6930    -2.3520 N.2   1 <1>  -0.4100 
  3 C        1.7320     2.2370    -1.2460 C.2   1 <1>   0.4250 
  4 C        1.9130     0.3200    -1.8810 C.2   1 <1>   0.3350 
  5 N        2.5580     1.2520    -1.1740 N.2   1 <1>  -0.5650 
  6 C        1.8620     3.5570    -0.6730 C.ar  1 <1>   0.0530 
  7 C        2.5120    -1.0510    -2.0800 C.3   1 <1>  -0.0590 
  8 C        2.9670     3.9310     0.0730 C.ar  1 <1>  -0.1500 
  9 C        0.8980     4.5470    -0.8220 C.ar  1 <1>  -0.1500 
 10 C        3.0690     5.2040     0.6140 C.ar  1 <1>   0.4100 
 11 C        1.0860     5.7900    -0.2530 C.ar  1 <1>   0.1600 
 12 N        2.1470     6.1410     0.4520 N.ar  1 <1>  -0.6200 
 13 N        4.1800     5.5420     1.3460 N.pl3 1 <1>  -0.8690 
 14 C        4.1670     6.5920     2.4020 C.3   1 <1>   0.3890 
 15 C        5.3410     7.5400     2.2250 C.2   1 <1>   0.0070 
 16 N        6.2680     7.7130     3.1070 N.2   1 <1>  -0.3380 
 17 N        5.5400     8.3070     1.1470 N.pl3 1 <1>   0.0480 
 18 N        7.1130     8.6190     2.6140 N.2   1 <1>  -0.3380 
 19 C        6.6630     8.9560     1.4560 C.2   1 <1>   0.0370 
 20 C        4.7550     8.4200    -0.1020 C.3   1 <1>   0.0960 
 21 C        3.5530     9.3520     0.0820 C.3   1 <1>  -0.1600 
 22 C        2.6980     9.3730    -1.1820 C.3   1 <1>   0.1200 
 23 O        1.6550    10.2630    -0.9700 O.3   1 <1>  -0.5600 
 24 C        0.7960    10.3980    -2.0550 C.3   1 <1>   0.0400 
 25 H        1.8550    -1.6590    -2.6720 H     1 <1>   0.0800 
 26 H        2.6620    -1.5200    -1.1250 H     1 <1>   0.0800 
 27 H        3.4570    -0.9610    -2.5820 H     1 <1>   0.0800 
 28 H        3.7600     3.2280     0.2380 H     1 <1>   0.1500 
 29 H        0.0010     4.3500    -1.3810 H     1 <1>   0.1500 
 30 H        0.3240     6.5410    -0.3820 H     1 <1>   0.1500 
 31 H        4.8750     4.8140     1.5210 H     1 <1>   0.4000 
 32 H        4.2400     6.1200     3.3660 H     1 <1>   0.0800 
 33 H        3.2520     7.1570     2.3860 H     1 <1>   0.0800 
 34 H        7.1270     9.6730     0.8040 H     1 <1>   0.1500 
 35 H        4.4240     7.4410    -0.3950 H     1 <1>   0.0800 
 36 H        5.3960     8.7990    -0.8780 H     1 <1>   0.0800 
 37 H        3.8960    10.3490     0.2970 H     1 <1>   0.0800 
 38 H        2.9430     9.0010     0.8960 H     1 <1>   0.0800 
 39 H        2.2870     8.3970    -1.3790 H     1 <1>   0.0800 
 40 H        3.2730     9.7120    -2.0280 H     1 <1>   0.0800 
 41 H        0.0240    11.0960    -1.7840 H     1 <1>   0.0800 
 42 H        0.3570     9.4420    -2.2840 H     1 <1>   0.0800 
 43 H        1.3460    10.7770    -2.8990 H     1 <1>   0.0800 
@<TRIPOS>BOND
  1   1   2  1   
  2   1   3  1   
  3   2   4  2   
  4   3   5  2   
  5   3   6  1   
  6   4   5  1   
  7   4   7  1   
  8   6   8  ar  
  9   6   9  ar  
 10   7  25  1   
 11   7  26  1   
 12   7  27  1   
 13   8  10  ar  
 14   8  28  1   
 15   9  11  ar  
 16   9  29  1   
 17  10  12  ar  
 18  10  13  1   
 19  11  12  ar  
 20  11  30  1   
 21  13  14  1   
 22  13  31  1   
 23  14  15  1   
 24  14  32  1   
 25  14  33  1   
 26  15  16  2   
 27  15  17  1   
 28  16  18  1   
 29  17  19  1   
 30  17  20  1   
 31  18  19  2   
 32  19  34  1   
 33  20  21  1   
 34  20  35  1   
 35  20  36  1   
 36  21  22  1   
 37  21  37  1   
 38  21  38  1   
 39  22  23  1   
 40  22  39  1   
 41  22  40  1   
 42  23  24  1   
 43  24  41  1   
 44  24  42  1   
 45  24  43  1   
@<TRIPOS>SUBSTRUCTURE
  1 ****  10 GROUP 4 **** **** 0

# MOE 2024.06 (io_trps.svl 2023.06)
