@<TRIPOS>MOLECULE
NONAME
44 45 1 0 0 
SMALL
USER_CHARGES


@<TRIPOS>ATOM
  1 S       -0.1190    -0.3160     0.8930 S.o2  1 <1>   1.3330 
  2 O        0.4580     0.9980     0.9970 O.2   1 <1>  -0.6500 
  3 O        0.1310    -1.3160     1.8990 O.2   1 <1>  -0.6500 
  4 N        0.5800    -0.9530    -0.4630 N.am  1 <1>  -0.9780 
  5 C       -1.8680    -0.2060     0.4930 C.3   1 <1>  -0.0550 
  6 C       -2.5240    -1.5540     0.1400 C.3   1 <1>  -0.1600 
  7 C       -4.0280    -1.3990    -0.1620 C.3   1 <1>  -0.0990 
  8 C       -4.7220    -2.6970    -0.5660 C.2   1 <1>   0.5690 
  9 O       -4.1180    -3.7360    -0.4340 O.2   1 <1>  -0.5700 
 10 N       -6.0030    -2.6810    -1.0610 N.am  1 <1>  -0.6600 
 11 C       -6.6050    -3.9530    -1.5600 C.3   1 <1>   0.1400 
 12 C       -6.8900    -1.4820    -1.1050 C.3   1 <1>   0.1400 
 13 C       -7.2200    -4.7640    -0.4100 C.3   1 <1>   0.1400 
 14 C       -8.2940    -1.7500    -0.5420 C.3   1 <1>  -0.1600 
 15 N       -8.4570    -4.1310     0.1500 N.am  1 <1>  -0.6600 
 16 C       -8.3320    -2.7280     0.6390 C.3   1 <1>   0.1400 
 17 C       -9.6910    -4.7460     0.1140 C.2   1 <1>   0.7160 
 18 O      -10.6900    -4.0520     0.0740 O.2   1 <1>  -0.5700 
 19 C       -9.8390    -6.1830     0.1140 C.2   1 <1>  -0.0860 
 20 C      -10.8140    -6.9210    -0.4810 C.2   1 <1>  -0.0100 
 21 C       -9.0260    -7.1470     0.7520 C.2   1 <1>  -0.1500 
 22 O      -10.6430    -8.2050    -0.2720 O.3   1 <1>  -0.2800 
 23 C       -9.5690    -8.3500     0.4740 C.2   1 <1>  -0.0100 
 24 H        0.8810    -1.8790    -0.1650 H     1 <1>   0.4200 
 25 H        1.4310    -0.4060    -0.5720 H     1 <1>   0.4200 
 26 H       -1.9880     0.4650    -0.3350 H     1 <1>   0.0800 
 27 H       -2.3820     0.2190     1.3340 H     1 <1>   0.0800 
 28 H       -2.3940    -2.2400     0.9610 H     1 <1>   0.0800 
 29 H       -2.0330    -1.9770    -0.7200 H     1 <1>   0.0800 
 30 H       -4.1470    -0.6930    -0.9630 H     1 <1>   0.0800 
 31 H       -4.5230    -1.0150     0.7110 H     1 <1>   0.0800 
 32 H       -5.8350    -4.5460    -2.0240 H     1 <1>   0.0800 
 33 H       -7.3500    -3.7510    -2.3100 H     1 <1>   0.0800 
 34 H       -6.9730    -1.1430    -2.1240 H     1 <1>   0.0800 
 35 H       -6.4540    -0.6850    -0.5320 H     1 <1>   0.0800 
 36 H       -6.4900    -4.8870     0.3710 H     1 <1>   0.0800 
 37 H       -7.4520    -5.7390    -0.7980 H     1 <1>   0.0800 
 38 H       -8.9460    -2.1040    -1.3220 H     1 <1>   0.0800 
 39 H       -8.6970    -0.8090    -0.2160 H     1 <1>   0.0800 
 40 H       -9.1830    -2.4970     1.2580 H     1 <1>   0.0800 
 41 H       -7.4510    -2.6280     1.2490 H     1 <1>   0.0800 
 42 H      -11.6560    -6.5890    -1.0630 H     1 <1>   0.1500 
 43 H       -8.1560    -6.9270     1.3440 H     1 <1>   0.1500 
 44 H       -9.2680    -9.3420     0.7620 H     1 <1>   0.1500 
@<TRIPOS>BOND
  1   1   2  2   
  2   1   3  2   
  3   1   4  am  
  4   1   5  1   
  5   4  24  1   
  6   4  25  1   
  7   5   6  1   
  8   5  26  1   
  9   5  27  1   
 10   6   7  1   
 11   6  28  1   
 12   6  29  1   
 13   7   8  1   
 14   7  30  1   
 15   7  31  1   
 16   8   9  2   
 17   8  10  am  
 18  10  11  1   
 19  10  12  1   
 20  11  13  1   
 21  11  32  1   
 22  11  33  1   
 23  12  14  1   
 24  12  34  1   
 25  12  35  1   
 26  13  15  1   
 27  13  36  1   
 28  13  37  1   
 29  14  16  1   
 30  14  38  1   
 31  14  39  1   
 32  15  16  1   
 33  15  17  am  
 34  16  40  1   
 35  16  41  1   
 36  17  18  2   
 37  17  19  1   
 38  19  20  2   
 39  19  21  1   
 40  20  22  1   
 41  20  42  1   
 42  21  23  2   
 43  21  43  1   
 44  22  23  1   
 45  23  44  1   
@<TRIPOS>SUBSTRUCTURE
  1 ****  10 GROUP 4 **** **** 0

# MOE 2024.06 (io_trps.svl 2023.06)
