@<TRIPOS>MOLECULE
NONAME
60 63 1 0 0 
SMALL
USER_CHARGES


@<TRIPOS>ATOM
  1 O        0.8020     0.0340     0.5790 O.2   1 <1>  -0.5700 
  2 C        1.6120    -0.8500     0.6720 C.2   1 <1>   0.5690 
  3 N        2.4010    -1.2320    -0.3760 N.am  1 <1>  -0.3680 
  4 C        1.7830    -1.6160     1.9630 C.3   1 <1>  -0.0990 
  5 N        3.4040    -2.1770    -0.3620 N.2   1 <1>  -0.5120 
  6 C        3.2220    -2.1500     2.0930 C.3   1 <1>  -0.0990 
  7 C        3.8090    -2.6680     0.7650 C.2   1 <1>   0.3890 
  8 C        4.8590    -3.6700     0.8810 C.2   1 <1>   0.6300 
  9 O        5.4310    -3.8390     1.9500 O.2   1 <1>  -0.5700 
 10 N        5.2840    -4.4700    -0.1750 N.am  1 <1>  -0.6600 
 11 C        6.6750    -5.0070    -0.3450 C.3   1 <1>   0.2200 
 12 C        4.3310    -5.0030    -1.1930 C.3   1 <1>   0.1400 
 13 C        6.6800    -6.5400    -0.1460 C.3   1 <1>   0.0000 
 14 C        7.7620    -4.3190     0.5190 C.3   1 <1>   0.3430 
 15 C        4.3010    -6.5370    -1.1270 C.3   1 <1>  -0.1600 
 16 C        8.1170    -7.0400    -0.4340 C.3   1 <1>  -0.1600 
 17 C        5.7070    -7.1690    -1.1740 C.3   1 <1>  -0.1600 
 18 C        6.2510    -6.8840     1.3100 C.3   1 <1>   0.1200 
 19 N        9.1300    -4.9210     0.3300 N.4   1 <1>  -0.9590 
 20 C        9.1380    -6.4030     0.5090 C.3   1 <1>   0.3430 
 21 O        6.5210    -8.2120     1.6010 O.3   1 <1>  -0.6800 
 22 C       10.1100    -4.2670     1.2390 C.3   1 <1>   0.4860 
 23 C       10.2220    -2.8090     0.8440 C.ar  1 <1>  -0.1440 
 24 C       10.9570    -2.4420    -0.2750 C.ar  1 <1>  -0.1500 
 25 C        9.5800    -1.8310     1.5910 C.ar  1 <1>  -0.1500 
 26 C       11.0420    -1.1130    -0.6550 C.ar  1 <1>  -0.1440 
 27 C        9.6630    -0.5040     1.2120 C.ar  1 <1>  -0.1500 
 28 C       10.3890    -0.1470     0.0910 C.ar  1 <1>  -0.1500 
 29 C       11.8450    -0.7100    -1.8800 C.3   1 <1>  -0.0970 
 30 H        2.1860    -0.7520    -1.2570 H     1 <1>   0.3700 
 31 H        1.5410    -0.9810     2.7960 H     1 <1>   0.0800 
 32 H        1.0910    -2.4370     1.9500 H     1 <1>   0.0800 
 33 H        3.2320    -2.9260     2.8370 H     1 <1>   0.0800 
 34 H        3.8580    -1.3550     2.4400 H     1 <1>   0.0800 
 35 H        6.9480    -4.8090    -1.3670 H     1 <1>   0.0800 
 36 H        3.3350    -4.6310    -1.0240 H     1 <1>   0.0800 
 37 H        4.6430    -4.6810    -2.1720 H     1 <1>   0.0800 
 38 H        7.4940    -4.4120     1.5570 H     1 <1>   0.0800 
 39 H        7.7860    -3.2710     0.2700 H     1 <1>   0.0800 
 40 H        3.7900    -6.8350    -0.2290 H     1 <1>   0.0800 
 41 H        3.7180    -6.9070    -1.9530 H     1 <1>   0.0800 
 42 H        8.3950    -6.8280    -1.4520 H     1 <1>   0.0800 
 43 H        8.1660    -8.1090    -0.3190 H     1 <1>   0.0800 
 44 H        6.0980    -7.0280    -2.1680 H     1 <1>   0.0800 
 45 H        5.6280    -8.2310    -1.0140 H     1 <1>   0.0800 
 46 H        5.2020    -6.7070     1.4770 H     1 <1>   0.0800 
 47 H        6.7920    -6.2970     2.0290 H     1 <1>   0.0800 
 48 H        9.4350    -4.6960    -0.6250 H     1 <1>   0.4500 
 49 H       10.1190    -6.7980     0.2950 H     1 <1>   0.0800 
 50 H        8.8870    -6.6580     1.5270 H     1 <1>   0.0800 
 51 H        5.8290    -8.7960     1.2300 H     1 <1>   0.4000 
 52 H        9.7850    -4.3490     2.2630 H     1 <1>   0.0800 
 53 H       11.0770    -4.7350     1.1460 H     1 <1>   0.0800 
 54 H       11.4730    -3.1830    -0.8600 H     1 <1>   0.1500 
 55 H        9.0120    -2.0850     2.4710 H     1 <1>   0.1500 
 56 H        9.1640     0.2570     1.7890 H     1 <1>   0.1500 
 57 H       10.4470     0.8890    -0.1960 H     1 <1>   0.1500 
 58 H       12.2720     0.2670    -1.7420 H     1 <1>   0.0800 
 59 H       11.2070    -0.6870    -2.7450 H     1 <1>   0.0800 
 60 H       12.6470    -1.4040    -2.0570 H     1 <1>   0.0800 
@<TRIPOS>BOND
  1   1   2  2   
  2   2   3  am  
  3   2   4  1   
  4   3   5  1   
  5   3  30  1   
  6   4   6  1   
  7   4  31  1   
  8   4  32  1   
  9   5   7  2   
 10   6   7  1   
 11   6  33  1   
 12   6  34  1   
 13   7   8  1   
 14   8   9  2   
 15   8  10  am  
 16  10  11  1   
 17  10  12  1   
 18  11  13  1   
 19  11  14  1   
 20  11  35  1   
 21  12  15  1   
 22  12  36  1   
 23  12  37  1   
 24  13  16  1   
 25  13  17  1   
 26  13  18  1   
 27  14  19  1   
 28  14  38  1   
 29  14  39  1   
 30  15  17  1   
 31  15  40  1   
 32  15  41  1   
 33  16  20  1   
 34  16  42  1   
 35  16  43  1   
 36  17  44  1   
 37  17  45  1   
 38  18  21  1   
 39  18  46  1   
 40  18  47  1   
 41  19  20  1   
 42  19  22  1   
 43  19  48  1   
 44  20  49  1   
 45  20  50  1   
 46  21  51  1   
 47  22  23  1   
 48  22  52  1   
 49  22  53  1   
 50  23  24  ar  
 51  23  25  ar  
 52  24  26  ar  
 53  24  54  1   
 54  25  27  ar  
 55  25  55  1   
 56  26  28  ar  
 57  26  29  1   
 58  27  28  ar  
 59  27  56  1   
 60  28  57  1   
 61  29  58  1   
 62  29  59  1   
 63  29  60  1   
@<TRIPOS>SUBSTRUCTURE
  1 ****  14 GROUP 4 **** **** 0

# MOE 2024.06 (io_trps.svl 2023.06)
