@<TRIPOS>MOLECULE
NONAME
48 51 1 0 0 
SMALL
USER_CHARGES


@<TRIPOS>ATOM
  1 O       -3.6070     1.6800    -2.2880 O.2   1 <1>  -0.5700 
  2 C       -2.7800     1.5180    -1.4130 C.2   1 <1>   0.7800 
  3 O       -1.4880     1.2920    -1.6540 O.3   1 <1>  -0.2320 
  4 N       -3.0350     1.5120    -0.0700 N.am  1 <1>  -0.4770 
  5 C       -0.8860     1.1640    -0.4560 C.ar  1 <1>   0.0830 
  6 C       -1.8200     1.2960     0.5500 C.ar  1 <1>   0.1170 
  7 C       -4.3130     1.9400     0.5500 C.3   1 <1>   0.1400 
  8 C        0.4490     0.9230    -0.1930 C.ar  1 <1>  -0.1500 
  9 C       -1.4340     1.1910     1.8780 C.ar  1 <1>  -0.1500 
 10 C       -5.0970     0.7580     1.1510 C.3   1 <1>   0.3430 
 11 C        0.8360     0.8130     1.1330 C.ar  1 <1>  -0.1500 
 12 C       -0.0980     0.9460     2.1590 C.ar  1 <1>  -0.1500 
 13 N       -5.1680    -0.4400     0.2590 N.4   1 <1>  -0.9590 
 14 C       -5.7600    -0.2490    -1.1040 C.3   1 <1>   0.3430 
 15 C       -5.8160    -1.6320     0.8580 C.3   1 <1>   0.3430 
 16 C       -6.4460    -1.5720    -1.4650 C.3   1 <1>   0.2000 
 17 C       -6.1400    -2.5470    -0.3220 C.3   1 <1>  -0.0800 
 18 O       -7.8220    -1.3790    -1.5250 O.3   1 <1>  -0.6800 
 19 C       -4.9910    -3.5290    -0.6510 C.3   1 <1>   0.0210 
 20 C       -3.5790    -2.9900    -0.4630 C.2   1 <1>   0.1080 
 21 N       -3.1170    -1.9300    -1.0540 N.2   1 <1>  -0.7070 
 22 C       -2.6270    -3.5850     0.3580 C.2   1 <1>  -0.1500 
 23 N       -1.8260    -1.8540    -0.6620 N.pl3 1 <1>   0.3000 
 24 C       -1.5190    -2.8300     0.2140 C.2   1 <1>  -0.3320 
 25 C       -0.1520    -2.9920     0.8540 C.3   1 <1>  -0.0600 
 26 H       -4.1060     2.6630     1.3190 H     1 <1>   0.0800 
 27 H       -4.9210     2.4270    -0.1930 H     1 <1>   0.0800 
 28 H        1.1600     0.8310    -0.9960 H     1 <1>   0.1500 
 29 H       -2.1480     1.2980     2.6730 H     1 <1>   0.1500 
 30 H       -6.0930     1.0900     1.3920 H     1 <1>   0.0800 
 31 H       -4.6170     0.4760     2.0740 H     1 <1>   0.0800 
 32 H        1.8700     0.6290     1.3760 H     1 <1>   0.1500 
 33 H        0.2280     0.8620     3.1830 H     1 <1>   0.1500 
 34 H       -4.1940    -0.7530     0.0340 H     1 <1>   0.4500 
 35 H       -6.4740     0.5570    -1.1190 H     1 <1>   0.0800 
 36 H       -4.9780    -0.0500    -1.8160 H     1 <1>   0.0800 
 37 H       -5.1670    -2.1190     1.5690 H     1 <1>   0.0800 
 38 H       -6.7310    -1.3410     1.3480 H     1 <1>   0.0800 
 39 H       -6.1230    -1.9310    -2.4280 H     1 <1>   0.0800 
 40 H       -7.0090    -3.1430    -0.1010 H     1 <1>   0.0800 
 41 H       -8.2120    -1.1200    -0.6690 H     1 <1>   0.4000 
 42 H       -5.0900    -3.8820    -1.6630 H     1 <1>   0.0800 
 43 H       -5.0950    -4.3920    -0.0160 H     1 <1>   0.0800 
 44 H       -2.7590    -4.4660     0.9610 H     1 <1>   0.1500 
 45 H       -1.1750    -1.1350    -1.0080 H     1 <1>   0.2700 
 46 H       -0.1440    -3.8520     1.5010 H     1 <1>   0.0800 
 47 H        0.0930    -2.1230     1.4390 H     1 <1>   0.0800 
 48 H        0.6000    -3.1280     0.0980 H     1 <1>   0.0800 
@<TRIPOS>BOND
  1   1   2  2   
  2   2   3  1   
  3   2   4  am  
  4   3   5  1   
  5   4   6  1   
  6   4   7  1   
  7   5   6  ar  
  8   5   8  ar  
  9   6   9  ar  
 10   7  10  1   
 11   7  26  1   
 12   7  27  1   
 13   8  11  ar  
 14   8  28  1   
 15   9  12  ar  
 16   9  29  1   
 17  10  13  1   
 18  10  30  1   
 19  10  31  1   
 20  11  12  ar  
 21  11  32  1   
 22  12  33  1   
 23  13  14  1   
 24  13  15  1   
 25  13  34  1   
 26  14  16  1   
 27  14  35  1   
 28  14  36  1   
 29  15  17  1   
 30  15  37  1   
 31  15  38  1   
 32  16  17  1   
 33  16  18  1   
 34  16  39  1   
 35  17  19  1   
 36  17  40  1   
 37  18  41  1   
 38  19  20  1   
 39  19  42  1   
 40  19  43  1   
 41  20  21  2   
 42  20  22  1   
 43  21  23  1   
 44  22  24  2   
 45  22  44  1   
 46  23  24  1   
 47  23  45  1   
 48  24  25  1   
 49  25  46  1   
 50  25  47  1   
 51  25  48  1   
@<TRIPOS>SUBSTRUCTURE
  1 ****  21 GROUP 4 **** **** 0

# MOE 2024.06 (io_trps.svl 2023.06)
