@<TRIPOS>MOLECULE
NONAME
51 54 1 0 0 
SMALL
USER_CHARGES


@<TRIPOS>ATOM
  1 O        0.3770    -0.0410     0.4300 O.2   1 <1>  -0.5700 
  2 C        1.0220    -1.1000     0.2850 C.2   1 <1>   0.6160 
  3 N        2.3530    -1.0240    -0.1440 N.am  1 <1>  -0.4690 
  4 C        0.4660    -2.3420     0.5530 C.2   1 <1>  -0.1360 
  5 C        3.0380    -2.2070    -0.3940 C.2   1 <1>  -0.0290 
  6 C        3.0790     0.2850    -0.0440 C.3   1 <1>   0.1400 
  7 C        1.1760    -3.5210     0.4090 C.2   1 <1>  -0.1500 
  8 C        2.5300    -3.4490    -0.0890 C.2   1 <1>  -0.2500 
  9 C        4.4520    -2.0850    -0.9400 C.3   1 <1>  -0.0220 
 10 C        4.2030     0.2400     1.0120 C.3   1 <1>   0.2090 
 11 O        0.6360    -4.5940     0.7220 O.3   1 <1>  -0.8500 
 12 C        3.3930    -4.6170    -0.2080 C.2   1 <1>   1.0500 
 13 C        5.3580    -1.8500     0.2610 C.3   1 <1>   0.2090 
 14 N        5.4930    -0.3720     0.5030 N.pl3 1 <1>  -0.8380 
 15 O        3.4750    -5.2810    -1.2660 O.co2 1 <1>  -0.9000 
 16 O        4.3640    -4.7400     0.5850 O.co2 1 <1>  -0.9000 
 17 C        6.6100     0.3610     0.2750 C.ar  1 <1>   0.7710 
 18 N        6.5760     1.6810     0.4060 N.ar  1 <1>  -0.6200 
 19 N        7.7320    -0.2810    -0.0910 N.ar  1 <1>  -0.1790 
 20 C        7.6790     2.3710     0.1820 C.ar  1 <1>   0.4100 
 21 C        8.8810     0.3840    -0.3520 C.ar  1 <1>   0.2110 
 22 N        7.6270     3.7190     0.3510 N.pl3 1 <1>  -0.8380 
 23 C        8.8680     1.7300    -0.2210 C.ar  1 <1>  -0.1500 
 24 C        8.7850     4.5700     0.7850 C.3   1 <1>   0.2090 
 25 C        6.3570     4.4980     0.2170 C.3   1 <1>   0.2090 
 26 C        9.0120     5.7150    -0.2160 C.3   1 <1>   0.2000 
 27 C        6.5580     5.6370    -0.7920 C.3   1 <1>  -0.1600 
 28 O       10.0110     6.5510     0.2520 O.3   1 <1>  -0.6800 
 29 C        7.7420     6.5470    -0.4220 C.3   1 <1>  -0.1600 
 30 H       -0.5440    -2.4000     0.8970 H     1 <1>   0.1500 
 31 H        2.3940     1.0600     0.2440 H     1 <1>   0.0800 
 32 H        3.4750     0.5590    -1.0040 H     1 <1>   0.0800 
 33 H        4.5310    -1.3070    -1.6740 H     1 <1>   0.0800 
 34 H        4.7520    -2.9880    -1.4370 H     1 <1>   0.0800 
 35 H        3.8510    -0.3170     1.8640 H     1 <1>   0.0800 
 36 H        4.3770     1.2450     1.3510 H     1 <1>   0.0800 
 37 H        6.2970    -2.3360     0.0800 H     1 <1>   0.0800 
 38 H        4.9330    -2.3280     1.1330 H     1 <1>   0.0800 
 39 H        7.6430    -1.2900    -0.1500 H     1 <1>   0.4570 
 40 H        9.7560    -0.1700    -0.6550 H     1 <1>   0.1500 
 41 H        9.7390     2.3190    -0.4340 H     1 <1>   0.1500 
 42 H        9.6840     3.9910     0.8800 H     1 <1>   0.0800 
 43 H        8.5550     4.9850     1.7510 H     1 <1>   0.0800 
 44 H        6.0850     4.9000     1.1790 H     1 <1>   0.0800 
 45 H        5.5520     3.8690    -0.1210 H     1 <1>   0.0800 
 46 H        9.3480     5.3050    -1.1530 H     1 <1>   0.0800 
 47 H        5.6580     6.2230    -0.8450 H     1 <1>   0.0800 
 48 H        6.7230     5.2070    -1.7650 H     1 <1>   0.0800 
 49 H        9.6730     7.1200     0.9700 H     1 <1>   0.4000 
 50 H        7.9040     7.2640    -1.2090 H     1 <1>   0.0800 
 51 H        7.5010     7.0750     0.4840 H     1 <1>   0.0800 
@<TRIPOS>BOND
  1   1   2  2   
  2   2   3  am  
  3   2   4  1   
  4   3   5  1   
  5   3   6  1   
  6   4   7  2   
  7   4  30  1   
  8   5   8  2   
  9   5   9  1   
 10   6  10  1   
 11   6  31  1   
 12   6  32  1   
 13   7   8  1   
 14   7  11  1   
 15   8  12  1   
 16   9  13  1   
 17   9  33  1   
 18   9  34  1   
 19  10  14  1   
 20  10  35  1   
 21  10  36  1   
 22  12  15  ar  
 23  12  16  ar  
 24  13  14  1   
 25  13  37  1   
 26  13  38  1   
 27  14  17  1   
 28  17  18  ar  
 29  17  19  ar  
 30  18  20  ar  
 31  19  21  ar  
 32  19  39  1   
 33  20  22  1   
 34  20  23  ar  
 35  21  23  ar  
 36  21  40  1   
 37  22  24  1   
 38  22  25  1   
 39  23  41  1   
 40  24  26  1   
 41  24  42  1   
 42  24  43  1   
 43  25  27  1   
 44  25  44  1   
 45  25  45  1   
 46  26  28  1   
 47  26  29  1   
 48  26  46  1   
 49  27  29  1   
 50  27  47  1   
 51  27  48  1   
 52  28  49  1   
 53  29  50  1   
 54  29  51  1   
@<TRIPOS>SUBSTRUCTURE
  1 ****  14 GROUP 4 **** **** 0

# MOE 2024.06 (io_trps.svl 2023.06)
