@<TRIPOS>MOLECULE
NONAME
47 49 1 0 0 
SMALL
USER_CHARGES


@<TRIPOS>ATOM
  1 O        1.9480     1.9320     1.1910 O.3   1 <1>  -0.0190 
  2 N        2.6890     0.8690     1.2710 N.2   1 <1>  -0.4100 
  3 C        0.9630     1.7790     0.3460 C.2   1 <1>  -0.0400 
  4 C        2.1620     0.0060     0.4780 C.2   1 <1>   0.1080 
  5 C        1.0400     0.5370    -0.1530 C.2   1 <1>  -0.1500 
  6 C       -0.0010     2.9230     0.0910 C.3   1 <1>   0.0200 
  7 C        2.6970    -1.3930     0.2650 C.3   1 <1>  -0.0590 
  8 C        0.7300     4.1130    -0.5620 C.3   1 <1>  -0.0800 
  9 C       -0.1590     5.3000    -0.9320 C.3   1 <1>   0.2000 
 10 C        1.8270     4.7150     0.3300 C.3   1 <1>   0.3430 
 11 O       -1.0430     5.5310     0.1270 O.3   1 <1>  -0.5600 
 12 C        0.8440     6.4500    -0.9710 C.3   1 <1>   0.3430 
 13 N        1.7090     6.2000     0.2210 N.4   1 <1>  -0.9590 
 14 C       -2.2390     6.1600    -0.2230 C.3   1 <1>   0.0400 
 15 C        3.0160     6.9070     0.2400 C.3   1 <1>   0.3430 
 16 C        2.7930     8.4140     0.3270 C.3   1 <1>  -0.1600 
 17 C        4.1290     9.1760     0.3300 C.3   1 <1>   0.0960 
 18 N        3.8900    10.6230     0.1810 N.pl3 1 <1>   0.3140 
 19 N        3.3130    11.1210    -0.9270 N.2   1 <1>  -0.7070 
 20 C        4.1780    11.5960     1.0650 C.2   1 <1>  -0.3020 
 21 C        3.2550    12.4030    -0.7230 C.2   1 <1>   0.1390 
 22 C        3.7820    12.7610     0.5120 C.2   1 <1>  -0.1500 
 23 H        0.4130     0.0340    -0.8670 H     1 <1>   0.1500 
 24 H       -0.7870     2.5820    -0.5600 H     1 <1>   0.0800 
 25 H       -0.4490     3.2130     1.0260 H     1 <1>   0.0800 
 26 H        1.9470    -2.1140     0.5310 H     1 <1>   0.0800 
 27 H        3.5650    -1.5520     0.8790 H     1 <1>   0.0800 
 28 H        2.9700    -1.5280    -0.7650 H     1 <1>   0.0800 
 29 H        1.2060     3.7590    -1.4600 H     1 <1>   0.0800 
 30 H       -0.6990     5.1530    -1.8530 H     1 <1>   0.0800 
 31 H        2.7940     4.3720    -0.0020 H     1 <1>   0.0800 
 32 H        1.6840     4.4100     1.3550 H     1 <1>   0.0800 
 33 H        0.3500     7.4060    -0.9200 H     1 <1>   0.0800 
 34 H        1.4300     6.3910    -1.8730 H     1 <1>   0.0800 
 35 H        1.1370     6.4910     1.0300 H     1 <1>   0.4500 
 36 H       -2.8200     6.2990     0.6730 H     1 <1>   0.0800 
 37 H       -2.7860     5.5340    -0.9080 H     1 <1>   0.0800 
 38 H       -2.0310     7.1180    -0.6680 H     1 <1>   0.0800 
 39 H        3.5900     6.5810     1.0930 H     1 <1>   0.0800 
 40 H        3.5720     6.6700    -0.6530 H     1 <1>   0.0800 
 41 H        2.2520     8.6560     1.2250 H     1 <1>   0.0800 
 42 H        2.2230     8.7370    -0.5260 H     1 <1>   0.0800 
 43 H        4.7400     8.8660    -0.4980 H     1 <1>   0.0800 
 44 H        4.6680     9.0040     1.2440 H     1 <1>   0.0800 
 45 H        4.6410    11.4180     2.0190 H     1 <1>   0.1500 
 46 H        2.8430    13.1000    -1.4340 H     1 <1>   0.1500 
 47 H        3.8450    13.7590     0.9080 H     1 <1>   0.1500 
@<TRIPOS>BOND
  1   1   2  1   
  2   1   3  1   
  3   2   4  2   
  4   3   5  2   
  5   3   6  1   
  6   4   5  1   
  7   4   7  1   
  8   5  23  1   
  9   6   8  1   
 10   6  24  1   
 11   6  25  1   
 12   7  26  1   
 13   7  27  1   
 14   7  28  1   
 15   8   9  1   
 16   8  10  1   
 17   8  29  1   
 18   9  11  1   
 19   9  12  1   
 20   9  30  1   
 21  10  13  1   
 22  10  31  1   
 23  10  32  1   
 24  11  14  1   
 25  12  13  1   
 26  12  33  1   
 27  12  34  1   
 28  13  15  1   
 29  13  35  1   
 30  14  36  1   
 31  14  37  1   
 32  14  38  1   
 33  15  16  1   
 34  15  39  1   
 35  15  40  1   
 36  16  17  1   
 37  16  41  1   
 38  16  42  1   
 39  17  18  1   
 40  17  43  1   
 41  17  44  1   
 42  18  19  1   
 43  18  20  1   
 44  19  21  2   
 45  20  22  2   
 46  20  45  1   
 47  21  22  1   
 48  21  46  1   
 49  22  47  1   
@<TRIPOS>SUBSTRUCTURE
  1 ****  13 GROUP 4 **** **** 0

# MOE 2024.06 (io_trps.svl 2023.06)
