@<TRIPOS>MOLECULE
NONAME
50 52 1 0 0 
SMALL
USER_CHARGES


@<TRIPOS>ATOM
  1 O       -3.1040     1.5380    -2.0760 O.2   1 <1>  -0.5700 
  2 C       -2.5520     1.7740    -1.0170 C.2   1 <1>   0.5440 
  3 N       -2.5910     0.8140    -0.0220 N.am  1 <1>  -0.6600 
  4 C       -1.8870     3.0420    -0.8400 C.ar  1 <1>   0.0860 
  5 C       -3.0220    -0.5790    -0.3540 C.3   1 <1>   0.1400 
  6 C       -2.3440     1.1260     1.4190 C.3   1 <1>   0.1400 
  7 C       -0.5820     3.1130    -0.3580 C.ar  1 <1>   0.1600 
  8 C       -2.5100     4.2480    -1.1450 C.ar  1 <1>  -0.1500 
  9 C       -4.5510    -0.7250    -0.3240 C.3   1 <1>   0.1400 
 10 C       -3.4140     0.5680     2.3680 C.3   1 <1>  -0.1600 
 11 N        0.1070     4.2180    -0.1320 N.ar  1 <1>  -0.6200 
 12 C       -1.8100     5.4090    -0.9260 C.ar  1 <1>  -0.1500 
 13 N       -5.1020    -0.6840     1.0730 N.am  1 <1>  -0.6600 
 14 C       -4.8380     0.5890     1.8040 C.3   1 <1>   0.1400 
 15 C       -0.5160     5.3470    -0.4160 C.ar  1 <1>   0.4100 
 16 C       -5.8620    -1.6790     1.6560 C.2   1 <1>   0.5690 
 17 N        0.2090     6.4630    -0.1840 N.pl3 1 <1>  -0.9000 
 18 O       -6.2830    -1.5500     2.7850 O.2   1 <1>  -0.5700 
 19 C       -6.1830    -2.9860     0.9230 C.3   1 <1>   0.2370 
 20 N       -7.1580    -2.7040    -0.1520 N.pl3 1 <1>   0.3140 
 21 C       -6.7050    -4.1260     1.8250 C.3   1 <1>  -0.2400 
 22 N       -6.9190    -3.0640    -1.4310 N.2   1 <1>  -0.7070 
 23 C       -8.3470    -2.0770    -0.0390 C.2   1 <1>  -0.3020 
 24 C       -7.9600    -2.6570    -2.0910 C.2   1 <1>   0.1390 
 25 C       -8.8910    -2.0280    -1.2720 C.2   1 <1>  -0.1810 
 26 C      -10.2150    -1.4280    -1.6950 C.3   1 <1>  -0.0590 
 27 H       -2.5690    -1.2830     0.3220 H     1 <1>   0.0800 
 28 H       -2.6800    -0.8170    -1.3470 H     1 <1>   0.0800 
 29 H       -2.3220     2.1940     1.5500 H     1 <1>   0.0800 
 30 H       -1.3800     0.7430     1.7040 H     1 <1>   0.0800 
 31 H       -0.0800     2.1850    -0.1460 H     1 <1>   0.1500 
 32 H       -3.5120     4.2540    -1.5420 H     1 <1>   0.1500 
 33 H       -4.7980    -1.6490    -0.8070 H     1 <1>   0.0800 
 34 H       -4.9970     0.0610    -0.9090 H     1 <1>   0.0800 
 35 H       -3.3960     1.1680     3.2600 H     1 <1>   0.0800 
 36 H       -3.1580    -0.4320     2.6690 H     1 <1>   0.0800 
 37 H       -2.2450     6.3670    -1.1380 H     1 <1>   0.1500 
 38 H       -4.9800     1.4300     1.1470 H     1 <1>   0.0800 
 39 H       -5.5370     0.6960     2.6160 H     1 <1>   0.0800 
 40 H        0.0580     7.2930    -0.7550 H     1 <1>   0.4000 
 41 H        1.1860     6.2870     0.0570 H     1 <1>   0.4000 
 42 H       -5.2810    -3.3320     0.4590 H     1 <1>   0.0800 
 43 H       -7.6240    -3.8360     2.3040 H     1 <1>   0.0800 
 44 H       -5.9800    -4.3470     2.5870 H     1 <1>   0.0800 
 45 H       -6.8720    -5.0120     1.2390 H     1 <1>   0.0800 
 46 H       -8.7270    -1.7060     0.8970 H     1 <1>   0.1500 
 47 H       -8.0780    -2.7940    -3.1530 H     1 <1>   0.1500 
 48 H      -10.7220    -1.0130    -0.8430 H     1 <1>   0.0800 
 49 H      -10.8370    -2.1850    -2.1350 H     1 <1>   0.0800 
 50 H      -10.0490    -0.6470    -2.4150 H     1 <1>   0.0800 
@<TRIPOS>BOND
  1   1   2  2   
  2   2   3  am  
  3   2   4  1   
  4   3   5  1   
  5   3   6  1   
  6   4   7  ar  
  7   4   8  ar  
  8   5   9  1   
  9   5  27  1   
 10   5  28  1   
 11   6  10  1   
 12   6  29  1   
 13   6  30  1   
 14   7  11  ar  
 15   7  31  1   
 16   8  12  ar  
 17   8  32  1   
 18   9  13  1   
 19   9  33  1   
 20   9  34  1   
 21  10  14  1   
 22  10  35  1   
 23  10  36  1   
 24  11  15  ar  
 25  12  15  ar  
 26  12  37  1   
 27  13  14  1   
 28  13  16  am  
 29  14  38  1   
 30  14  39  1   
 31  15  17  1   
 32  16  18  2   
 33  16  19  1   
 34  17  40  1   
 35  17  41  1   
 36  19  20  1   
 37  19  21  1   
 38  19  42  1   
 39  20  22  1   
 40  20  23  1   
 41  21  43  1   
 42  21  44  1   
 43  21  45  1   
 44  22  24  2   
 45  23  25  2   
 46  23  46  1   
 47  24  25  1   
 48  24  47  1   
 49  25  26  1   
 50  26  48  1   
 51  26  49  1   
 52  26  50  1   
@<TRIPOS>SUBSTRUCTURE
  1 ****   9 GROUP 4 **** **** 0

# MOE 2024.06 (io_trps.svl 2023.06)
