@<TRIPOS>MOLECULE
NONAME
54 57 1 0 0 
SMALL
USER_CHARGES


@<TRIPOS>ATOM
  1 O        2.5070     5.2250    -1.4870 O.3   1 <1>  -0.0190 
  2 N        3.5590     5.9730    -1.3660 N.2   1 <1>  -0.4100 
  3 C        2.6630     4.0660    -0.9070 C.2   1 <1>  -0.0400 
  4 C        4.4330     5.2690    -0.7390 C.2   1 <1>   0.1080 
  5 C        3.9100     4.0200    -0.4120 C.2   1 <1>  -0.1500 
  6 C        1.5090     3.0790    -0.8670 C.3   1 <1>   0.0200 
  7 C        5.8280     5.7560    -0.4060 C.3   1 <1>  -0.0590 
  8 C        0.2950     3.5810    -0.0460 C.3   1 <1>  -0.0800 
  9 C       -0.4720     4.7200    -0.7340 C.3   1 <1>   0.2000 
 10 C        0.7050     4.1880     1.2980 C.3   1 <1>   0.3430 
 11 O       -1.8310     4.5450    -0.5060 O.3   1 <1>  -0.6800 
 12 C       -0.0080     6.0270    -0.0690 C.3   1 <1>   0.3430 
 13 N        0.9380     5.6270     1.0180 N.4   1 <1>  -0.9590 
 14 C        0.9390     6.5340     2.1930 C.3   1 <1>   0.4860 
 15 C        1.4350     7.8890     1.7320 C.ar  1 <1>  -0.1440 
 16 C        2.7210     8.0160     1.2290 C.ar  1 <1>  -0.1500 
 17 C        0.6190     9.0100     1.7930 C.ar  1 <1>  -0.1500 
 18 C        3.1860     9.2320     0.7630 C.ar  1 <1>   0.0820 
 19 C        1.0860    10.2350     1.3480 C.ar  1 <1>  -0.1500 
 20 O        4.4360     9.2320     0.2460 O.3   1 <1>  -0.3630 
 21 C        2.3650    10.3520     0.8330 C.ar  1 <1>  -0.1500 
 22 C        4.9480    10.3530    -0.4540 C.3   1 <1>   0.2630 
 23 C        6.1790     9.9430    -1.2510 C.ar  1 <1>   0.1670 
 24 N        7.2740    10.6730    -1.0840 N.ar  1 <1>  -0.6200 
 25 C        6.0970     8.8570    -2.1120 C.ar  1 <1>  -0.1500 
 26 C        8.3260    10.2990    -1.7950 C.ar  1 <1>   0.1600 
 27 C        7.2000     8.4820    -2.8480 C.ar  1 <1>  -0.1500 
 28 C        8.3440     9.2310    -2.6760 C.ar  1 <1>  -0.1500 
 29 H        4.4210     3.2360     0.1180 H     1 <1>   0.1500 
 30 H        1.2030     2.8500    -1.8740 H     1 <1>   0.0800 
 31 H        1.8680     2.1620    -0.4310 H     1 <1>   0.0800 
 32 H        6.3000     5.1000     0.3020 H     1 <1>   0.0800 
 33 H        5.7830     6.7450     0.0120 H     1 <1>   0.0800 
 34 H        6.4220     5.7880    -1.3010 H     1 <1>   0.0800 
 35 H       -0.3520     2.7340     0.1120 H     1 <1>   0.0800 
 36 H       -0.3240     4.7460    -1.8010 H     1 <1>   0.0800 
 37 H        1.5870     3.7130     1.6980 H     1 <1>   0.0800 
 38 H       -0.1060     4.0810     2.0010 H     1 <1>   0.0800 
 39 H       -2.0530     4.3810     0.4310 H     1 <1>   0.4000 
 40 H       -0.8580     6.5580     0.3270 H     1 <1>   0.0800 
 41 H        0.5020     6.6540    -0.7840 H     1 <1>   0.0800 
 42 H        1.8740     5.7160     0.5820 H     1 <1>   0.4500 
 43 H       -0.0540     6.6200     2.6040 H     1 <1>   0.0800 
 44 H        1.6000     6.1560     2.9560 H     1 <1>   0.0800 
 45 H        3.3900     7.1760     1.1800 H     1 <1>   0.1500 
 46 H       -0.3820     8.9470     2.1860 H     1 <1>   0.1500 
 47 H        0.4520    11.1050     1.4030 H     1 <1>   0.1500 
 48 H        2.7020    11.3160     0.4980 H     1 <1>   0.1500 
 49 H        4.1960    10.7150    -1.1300 H     1 <1>   0.0800 
 50 H        5.1980    11.1130     0.2650 H     1 <1>   0.0800 
 51 H        5.1750     8.3090    -2.2040 H     1 <1>   0.1500 
 52 H        9.2250    10.8780    -1.6700 H     1 <1>   0.1500 
 53 H        7.1680     7.6460    -3.5250 H     1 <1>   0.1500 
 54 H        9.2400     8.9940    -3.2190 H     1 <1>   0.1500 
@<TRIPOS>BOND
  1   1   2  1   
  2   1   3  1   
  3   2   4  2   
  4   3   5  2   
  5   3   6  1   
  6   4   5  1   
  7   4   7  1   
  8   5  29  1   
  9   6   8  1   
 10   6  30  1   
 11   6  31  1   
 12   7  32  1   
 13   7  33  1   
 14   7  34  1   
 15   8   9  1   
 16   8  10  1   
 17   8  35  1   
 18   9  11  1   
 19   9  12  1   
 20   9  36  1   
 21  10  13  1   
 22  10  37  1   
 23  10  38  1   
 24  11  39  1   
 25  12  13  1   
 26  12  40  1   
 27  12  41  1   
 28  13  14  1   
 29  13  42  1   
 30  14  15  1   
 31  14  43  1   
 32  14  44  1   
 33  15  16  ar  
 34  15  17  ar  
 35  16  18  ar  
 36  16  45  1   
 37  17  19  ar  
 38  17  46  1   
 39  18  20  1   
 40  18  21  ar  
 41  19  21  ar  
 42  19  47  1   
 43  20  22  1   
 44  21  48  1   
 45  22  23  1   
 46  22  49  1   
 47  22  50  1   
 48  23  24  ar  
 49  23  25  ar  
 50  24  26  ar  
 51  25  27  ar  
 52  25  51  1   
 53  26  28  ar  
 54  26  52  1   
 55  27  28  ar  
 56  27  53  1   
 57  28  54  1   
@<TRIPOS>SUBSTRUCTURE
  1 ****   2 GROUP 4 **** **** 0

# MOE 2024.06 (io_trps.svl 2023.06)
