@<TRIPOS>MOLECULE
NONAME
36 38 1 0 0 
SMALL
USER_CHARGES


@<TRIPOS>ATOM
  1 O        0.2250    -0.1510    -0.2490 O.2   1 <1>  -0.5700 
  2 C        0.3550    -1.3400    -0.0070 C.2   1 <1>   0.7800 
  3 O        1.5610    -1.8360     0.2330 O.3   1 <1>  -0.4300 
  4 N       -0.7010    -2.1980     0.0450 N.am  1 <1>  -0.6600 
  5 C        2.6850    -1.2180    -0.3380 C.3   1 <1>   0.2640 
  6 C       -0.5660    -3.6770    -0.2500 C.3   1 <1>   0.1140 
  7 C       -2.0800    -1.7420    -0.1750 C.3   1 <1>   0.2350 
  8 C        3.9350    -1.9680     0.0960 C.ar  1 <1>  -0.1440 
  9 C        0.4980    -4.1280    -1.2800 C.2   1 <1>   0.9060 
 10 C       -1.9640    -4.1120    -0.7030 C.3   1 <1>  -0.0650 
 11 C       -2.8970    -3.0320    -0.1640 C.3   1 <1>  -0.1900 
 12 C        4.0890    -3.3010    -0.2550 C.ar  1 <1>  -0.1500 
 13 C        4.9270    -1.3400     0.8350 C.ar  1 <1>  -0.1500 
 14 O        1.0600    -5.2180    -1.1040 O.co2 1 <1>  -0.9000 
 15 O        0.7440    -3.4340    -2.2780 O.co2 1 <1>  -0.9000 
 16 C       -4.3860    -3.0900    -0.2720 C.3   1 <1>  -0.2000 
 17 C       -3.7140    -3.3480     1.0500 C.3   1 <1>  -0.2000 
 18 C        5.2210    -3.9990     0.1260 C.ar  1 <1>  -0.1500 
 19 C        6.0620    -2.0380     1.2150 C.ar  1 <1>  -0.1500 
 20 C        6.2100    -3.3680     0.8600 C.ar  1 <1>  -0.1500 
 21 H        2.7150    -0.1920    -0.0160 H     1 <1>   0.0800 
 22 H        2.5740    -1.2620    -1.4080 H     1 <1>   0.0800 
 23 H       -0.3330    -4.1700     0.6750 H     1 <1>   0.0800 
 24 H       -2.1420    -1.2670    -1.1390 H     1 <1>   0.0800 
 25 H       -2.3840    -1.0550     0.5950 H     1 <1>   0.0800 
 26 H       -2.1990    -5.1010    -0.3540 H     1 <1>   0.0800 
 27 H       -2.0000    -4.1090    -1.7790 H     1 <1>   0.0800 
 28 H        3.3160    -3.7990    -0.8240 H     1 <1>   0.1500 
 29 H        4.8170    -0.3090     1.1160 H     1 <1>   0.1500 
 30 H       -4.8280    -3.9150    -0.8020 H     1 <1>   0.1000 
 31 H       -4.9290    -2.1710    -0.4090 H     1 <1>   0.1000 
 32 H       -3.7990    -2.6100     1.8280 H     1 <1>   0.1000 
 33 H       -3.7070    -4.3520     1.4380 H     1 <1>   0.1000 
 34 H        5.3180    -5.0330    -0.1530 H     1 <1>   0.1500 
 35 H        6.8280    -1.5460     1.7880 H     1 <1>   0.1500 
 36 H        7.0880    -3.9120     1.1550 H     1 <1>   0.1500 
@<TRIPOS>BOND
  1   1   2  2   
  2   2   3  1   
  3   2   4  am  
  4   3   5  1   
  5   4   6  1   
  6   4   7  1   
  7   5   8  1   
  8   5  21  1   
  9   5  22  1   
 10   6   9  1   
 11   6  10  1   
 12   6  23  1   
 13   7  11  1   
 14   7  24  1   
 15   7  25  1   
 16   8  12  ar  
 17   8  13  ar  
 18   9  14  ar  
 19   9  15  ar  
 20  10  11  1   
 21  10  26  1   
 22  10  27  1   
 23  11  16  1   
 24  11  17  1   
 25  12  18  ar  
 26  12  28  1   
 27  13  19  ar  
 28  13  29  1   
 29  16  17  1   
 30  16  30  1   
 31  16  31  1   
 32  17  32  1   
 33  17  33  1   
 34  18  20  ar  
 35  18  34  1   
 36  19  20  ar  
 37  19  35  1   
 38  20  36  1   
@<TRIPOS>SUBSTRUCTURE
  1 ****   3 GROUP 4 **** **** 0

# MOE 2024.06 (io_trps.svl 2023.06)
