@<TRIPOS>MOLECULE
NONAME
44 46 1 0 0 
SMALL
USER_CHARGES


@<TRIPOS>ATOM
  1 O        0.4960     0.9100     1.0600 O.2   1 <1>  -0.5700 
  2 C        1.2740     1.7360     0.6620 C.2   1 <1>   0.5690 
  3 N        0.9780     2.7400    -0.1690 N.am  1 <1>  -0.7300 
  4 C        2.7230     1.8000     1.0560 C.3   1 <1>  -0.0990 
  5 C        2.0990     3.6630    -0.4380 C.3   1 <1>   0.2810 
  6 C        3.1410     3.2170     0.6150 C.3   1 <1>  -0.1600 
  7 C        1.7130     5.1580    -0.4000 C.2   1 <1>   0.5690 
  8 O        0.5970     5.4740    -0.7430 O.2   1 <1>  -0.5700 
  9 N        2.6600     6.0750    -0.0160 N.am  1 <1>  -0.4940 
 10 C        2.6470     7.4840     0.0970 C.2   1 <1>  -0.0880 
 11 N        1.5980     8.3290     0.3040 N.pl3 1 <1>   0.3140 
 12 C        3.7670     8.2580     0.0500 C.2   1 <1>  -0.0540 
 13 N        2.0130     9.6130     0.3860 N.2   1 <1>  -0.7070 
 14 C        0.1760     8.0250     0.5170 C.3   1 <1>   0.0160 
 15 C        5.1290     7.8270    -0.1350 C.ar  1 <1>   0.0540 
 16 C        3.2930     9.5610     0.2290 C.2   1 <1>   0.1080 
 17 C        5.5240     7.2060    -1.3160 C.ar  1 <1>  -0.1500 
 18 C        6.0810     8.0020     0.8650 C.ar  1 <1>  -0.1500 
 19 C        4.1520    10.8060     0.2420 C.3   1 <1>  -0.0590 
 20 C        6.8240     6.7690    -1.4890 C.ar  1 <1>  -0.1500 
 21 C        7.3840     7.5680     0.6990 C.ar  1 <1>  -0.1500 
 22 C        7.7630     6.9440    -0.4860 C.ar  1 <1>   0.0820 
 23 O        9.0160     6.4860    -0.7340 O.3   1 <1>  -0.3620 
 24 C       10.0650     6.6880     0.1860 C.3   1 <1>   0.0400 
 25 H        0.0240     2.9730    -0.4600 H     1 <1>   0.3700 
 26 H        3.2640     1.0440     0.5160 H     1 <1>   0.0800 
 27 H        2.8380     1.6540     2.1150 H     1 <1>   0.0800 
 28 H        2.4710     3.4440    -1.4240 H     1 <1>   0.0800 
 29 H        4.1420     3.2390     0.2210 H     1 <1>   0.0800 
 30 H        3.0900     3.8660     1.4720 H     1 <1>   0.0800 
 31 H        3.5910     5.6850     0.1430 H     1 <1>   0.3700 
 32 H        0.0860     7.1560     1.1400 H     1 <1>   0.0800 
 33 H       -0.2900     7.8470    -0.4330 H     1 <1>   0.0800 
 34 H       -0.2960     8.8620     0.9970 H     1 <1>   0.0800 
 35 H        4.8020     7.0750    -2.1040 H     1 <1>   0.1500 
 36 H        5.7890     8.4830     1.7820 H     1 <1>   0.1500 
 37 H        5.0070    10.6780    -0.3940 H     1 <1>   0.0800 
 38 H        4.4790    11.0080     1.2450 H     1 <1>   0.0800 
 39 H        3.5780    11.6430    -0.1120 H     1 <1>   0.0800 
 40 H        7.1240     6.2930    -2.4060 H     1 <1>   0.1500 
 41 H        8.0850     7.7220     1.4960 H     1 <1>   0.1500 
 42 H       10.9620     6.2710    -0.2340 H     1 <1>   0.0800 
 43 H        9.8260     6.1870     1.1070 H     1 <1>   0.0800 
 44 H       10.1930     7.7450     0.3440 H     1 <1>   0.0800 
@<TRIPOS>BOND
  1   1   2  2   
  2   2   3  am  
  3   2   4  1   
  4   3   5  1   
  5   3  25  1   
  6   4   6  1   
  7   4  26  1   
  8   4  27  1   
  9   5   6  1   
 10   5   7  1   
 11   5  28  1   
 12   6  29  1   
 13   6  30  1   
 14   7   8  2   
 15   7   9  am  
 16   9  10  1   
 17   9  31  1   
 18  10  11  1   
 19  10  12  2   
 20  11  13  1   
 21  11  14  1   
 22  12  15  1   
 23  12  16  1   
 24  13  16  2   
 25  14  32  1   
 26  14  33  1   
 27  14  34  1   
 28  15  17  ar  
 29  15  18  ar  
 30  16  19  1   
 31  17  20  ar  
 32  17  35  1   
 33  18  21  ar  
 34  18  36  1   
 35  19  37  1   
 36  19  38  1   
 37  19  39  1   
 38  20  22  ar  
 39  20  40  1   
 40  21  22  ar  
 41  21  41  1   
 42  22  23  1   
 43  23  24  1   
 44  24  42  1   
 45  24  43  1   
 46  24  44  1   
@<TRIPOS>SUBSTRUCTURE
  1 ****   9 GROUP 4 **** **** 0

# MOE 2024.06 (io_trps.svl 2023.06)
