@<TRIPOS>MOLECULE
NONAME
53 56 1 0 0 
SMALL
USER_CHARGES


@<TRIPOS>ATOM
  1 S        2.0080    -3.7750    -1.1340 S.o2  1 <1>   1.2040 
  2 O        3.0420    -4.7170    -1.4990 O.2   1 <1>  -0.6500 
  3 O        2.3540    -2.4870    -0.5790 O.2   1 <1>  -0.6500 
  4 C        0.8100    -4.5890    -0.0480 C.ar  1 <1>  -0.0090 
  5 C        1.0500    -3.4680    -2.6050 C.3   1 <1>  -0.1350 
  6 C        1.0110    -5.8930     0.3840 C.ar  1 <1>  -0.1500 
  7 C       -0.3430    -3.9390     0.3780 C.ar  1 <1>  -0.1500 
  8 C        0.0870    -6.5390     1.1840 C.ar  1 <1>  -0.1500 
  9 C       -1.2760    -4.5770     1.1780 C.ar  1 <1>  -0.1500 
 10 C       -1.0700    -5.8880     1.5770 C.ar  1 <1>  -0.1430 
 11 C       -2.0930    -6.6180     2.4230 C.3   1 <1>   0.4860 
 12 N       -2.8150    -7.5520     1.5300 N.4   1 <1>  -0.9590 
 13 C       -3.7010    -6.9020     0.5190 C.3   1 <1>   0.3430 
 14 C       -3.6060    -8.6220     2.1770 C.3   1 <1>   0.3430 
 15 C       -4.8080    -7.9210     0.2120 C.3   1 <1>   0.2000 
 16 C       -4.5030    -9.1630     1.0620 C.3   1 <1>  -0.0800 
 17 O       -6.0320    -7.3920     0.6040 O.3   1 <1>  -0.6800 
 18 C       -3.8260   -10.2980     0.2500 C.3   1 <1>  -0.0170 
 19 C       -2.3560   -10.0730    -0.0980 C.ar  1 <1>   0.1670 
 20 N       -2.0630    -9.0750    -0.8760 N.ar  1 <1>  -0.6200 
 21 C       -1.3890   -10.9360     0.4410 C.ar  1 <1>  -0.1500 
 22 C       -0.7610    -8.8960    -1.2290 C.ar  1 <1>   0.3100 
 23 C       -0.0720   -10.7490     0.1490 C.ar  1 <1>  -0.1500 
 24 C        0.2790    -9.6970    -0.7120 C.ar  1 <1>   0.0000 
 25 C       -0.4320    -7.8720    -2.1320 C.ar  1 <1>  -0.1500 
 26 C        1.6080    -9.4200    -1.0870 C.ar  1 <1>  -0.1500 
 27 C        0.8660    -7.6280    -2.4950 C.ar  1 <1>  -0.1500 
 28 C        1.8970    -8.4060    -1.9590 C.ar  1 <1>  -0.1500 
 29 H        0.6730    -4.3880    -3.0070 H     1 <1>   0.0800 
 30 H        1.6650    -2.9990    -3.3490 H     1 <1>   0.0800 
 31 H        0.2250    -2.8180    -2.3900 H     1 <1>   0.0800 
 32 H        1.9070    -6.4140     0.0870 H     1 <1>   0.1500 
 33 H       -0.5100    -2.9150     0.0850 H     1 <1>   0.1500 
 34 H        0.2890    -7.5530     1.4880 H     1 <1>   0.1500 
 35 H       -2.1570    -4.0360     1.4840 H     1 <1>   0.1500 
 36 H       -2.7770    -5.9210     2.8780 H     1 <1>   0.0800 
 37 H       -1.5840    -7.1640     3.2010 H     1 <1>   0.0800 
 38 H       -2.1030    -8.0270     0.9400 H     1 <1>   0.4500 
 39 H       -4.1350    -5.9950     0.9040 H     1 <1>   0.0800 
 40 H       -3.1380    -6.6830    -0.3740 H     1 <1>   0.0800 
 41 H       -2.9730    -9.3930     2.5880 H     1 <1>   0.0800 
 42 H       -4.2170    -8.2030     2.9600 H     1 <1>   0.0800 
 43 H       -4.8660    -8.1330    -0.8430 H     1 <1>   0.0800 
 44 H       -5.4110    -9.5660     1.4760 H     1 <1>   0.0800 
 45 H       -6.1560    -7.3740     1.5720 H     1 <1>   0.4000 
 46 H       -4.3710   -10.4550    -0.6650 H     1 <1>   0.0800 
 47 H       -3.9120   -11.2110     0.8110 H     1 <1>   0.0800 
 48 H       -1.6900   -11.7490     1.0790 H     1 <1>   0.1500 
 49 H        0.6970   -11.3900     0.5460 H     1 <1>   0.1500 
 50 H       -1.2340    -7.2860    -2.5400 H     1 <1>   0.1500 
 51 H        2.4000   -10.0260    -0.6810 H     1 <1>   0.1500 
 52 H        1.1170    -6.8470    -3.1920 H     1 <1>   0.1500 
 53 H        2.9150    -8.1940    -2.2480 H     1 <1>   0.1500 
@<TRIPOS>BOND
  1   1   2  2   
  2   1   3  2   
  3   1   4  1   
  4   1   5  1   
  5   4   6  ar  
  6   4   7  ar  
  7   5  29  1   
  8   5  30  1   
  9   5  31  1   
 10   6   8  ar  
 11   6  32  1   
 12   7   9  ar  
 13   7  33  1   
 14   8  10  ar  
 15   8  34  1   
 16   9  10  ar  
 17   9  35  1   
 18  10  11  1   
 19  11  12  1   
 20  11  36  1   
 21  11  37  1   
 22  12  13  1   
 23  12  14  1   
 24  12  38  1   
 25  13  15  1   
 26  13  39  1   
 27  13  40  1   
 28  14  16  1   
 29  14  41  1   
 30  14  42  1   
 31  15  16  1   
 32  15  17  1   
 33  15  43  1   
 34  16  18  1   
 35  16  44  1   
 36  17  45  1   
 37  18  19  1   
 38  18  46  1   
 39  18  47  1   
 40  19  20  ar  
 41  19  21  ar  
 42  20  22  ar  
 43  21  23  ar  
 44  21  48  1   
 45  22  24  ar  
 46  22  25  ar  
 47  23  24  ar  
 48  23  49  1   
 49  24  26  ar  
 50  25  27  ar  
 51  25  50  1   
 52  26  28  ar  
 53  26  51  1   
 54  27  28  ar  
 55  27  52  1   
 56  28  53  1   
@<TRIPOS>SUBSTRUCTURE
  1 ****   8 GROUP 4 **** **** 0

# MOE 2024.06 (io_trps.svl 2023.06)
