@<TRIPOS>MOLECULE
NONAME
45 48 1 0 0 
SMALL
USER_CHARGES


@<TRIPOS>ATOM
  1 S       -0.8210     1.1810     2.4110 S.3   1 <1>  -0.0800 
  2 C       -1.2590     1.7430     0.8050 C.2   1 <1>  -0.1400 
  3 C       -2.3790     0.3860     2.5930 C.2   1 <1>  -0.1100 
  4 C       -2.4980     1.3460     0.4870 C.2   1 <1>  -0.1810 
  5 C       -0.3210     2.5700    -0.0660 C.3   1 <1>   0.4600 
  6 C       -3.1430     0.5650     1.4980 C.2   1 <1>  -0.1500 
  7 C       -3.0850     1.7360    -0.8510 C.3   1 <1>   0.0210 
  8 O       -0.9080     2.7170    -1.3450 O.3   1 <1>  -0.5600 
  9 C       -0.0750     3.9600     0.5350 C.3   1 <1>  -0.1600 
 10 C        1.0100     1.8440    -0.2840 C.3   1 <1>  -0.1600 
 11 C       -2.2980     2.9330    -1.4180 C.3   1 <1>   0.1200 
 12 C        0.9000     4.7770    -0.3140 C.3   1 <1>   0.1400 
 13 C        1.9770     2.6800    -1.1240 C.3   1 <1>   0.1400 
 14 N        2.1680     4.0130    -0.4830 N.am  1 <1>  -0.6600 
 15 C        3.4260     4.4870    -0.1810 C.2   1 <1>   0.5690 
 16 O        4.4160     3.8140    -0.3610 O.2   1 <1>  -0.5700 
 17 C        3.6450     5.8670     0.4360 C.3   1 <1>   0.1810 
 18 O        3.1410     6.9040    -0.3960 O.3   1 <1>  -0.3630 
 19 C        3.0610     8.1820     0.0620 C.ar  1 <1>   0.0830 
 20 C        2.1200     9.0410    -0.5050 C.ar  1 <1>   0.1900 
 21 C        3.8840     8.6710     1.0770 C.ar  1 <1>  -0.1500 
 22 F        1.3310     8.5990    -1.4520 F     1 <1>  -0.1900 
 23 C        1.9710    10.3530    -0.1020 C.ar  1 <1>  -0.1500 
 24 C        3.7520     9.9860     1.5020 C.ar  1 <1>  -0.1500 
 25 C        2.8020    10.7990     0.9060 C.ar  1 <1>   0.1900 
 26 F        2.6880    12.0340     1.3150 F     1 <1>  -0.1900 
 27 H       -2.5610    -0.1390     3.5140 H     1 <1>   0.1500 
 28 H       -4.1370     0.1800     1.3570 H     1 <1>   0.1500 
 29 H       -4.1180     2.0100    -0.7370 H     1 <1>   0.0800 
 30 H       -3.0260     0.9050    -1.5310 H     1 <1>   0.0800 
 31 H        0.3410     3.8490     1.5200 H     1 <1>   0.0800 
 32 H       -1.0040     4.4870     0.6420 H     1 <1>   0.0800 
 33 H        0.8250     0.9020    -0.7680 H     1 <1>   0.0800 
 34 H        1.4740     1.6380     0.6630 H     1 <1>   0.0800 
 35 H       -2.5330     3.8280    -0.8700 H     1 <1>   0.0800 
 36 H       -2.5510     3.0880    -2.4520 H     1 <1>   0.0800 
 37 H        1.0690     5.7250     0.1620 H     1 <1>   0.0800 
 38 H        0.4740     4.9660    -1.2860 H     1 <1>   0.0800 
 39 H        1.5780     2.8210    -2.1140 H     1 <1>   0.0800 
 40 H        2.9160     2.1600    -1.2160 H     1 <1>   0.0800 
 41 H        4.6990     6.0270     0.5670 H     1 <1>   0.0800 
 42 H        3.1480     5.9160     1.3860 H     1 <1>   0.0800 
 43 H        4.6320     8.0520     1.5370 H     1 <1>   0.1500 
 44 H        1.2410    10.9990    -0.5520 H     1 <1>   0.1500 
 45 H        4.3780    10.3820     2.2830 H     1 <1>   0.1500 
@<TRIPOS>BOND
  1   1   2  1   
  2   1   3  1   
  3   2   4  2   
  4   2   5  1   
  5   3   6  2   
  6   3  27  1   
  7   4   6  1   
  8   4   7  1   
  9   5   8  1   
 10   5   9  1   
 11   5  10  1   
 12   6  28  1   
 13   7  11  1   
 14   7  29  1   
 15   7  30  1   
 16   8  11  1   
 17   9  12  1   
 18   9  31  1   
 19   9  32  1   
 20  10  13  1   
 21  10  33  1   
 22  10  34  1   
 23  11  35  1   
 24  11  36  1   
 25  12  14  1   
 26  12  37  1   
 27  12  38  1   
 28  13  14  1   
 29  13  39  1   
 30  13  40  1   
 31  14  15  am  
 32  15  16  2   
 33  15  17  1   
 34  17  18  1   
 35  17  41  1   
 36  17  42  1   
 37  18  19  1   
 38  19  20  ar  
 39  19  21  ar  
 40  20  22  1   
 41  20  23  ar  
 42  21  24  ar  
 43  21  43  1   
 44  23  25  ar  
 45  23  44  1   
 46  24  25  ar  
 47  24  45  1   
 48  25  26  1   
@<TRIPOS>SUBSTRUCTURE
  1 ****  12 GROUP 4 **** **** 0

# MOE 2024.06 (io_trps.svl 2023.06)
