@<TRIPOS>MOLECULE
NONAME
53 55 1 0 0 
SMALL
USER_CHARGES


@<TRIPOS>ATOM
  1 S        1.4590     0.5360     0.2640 S.o2  1 <1>   1.3330 
  2 O        0.3530     0.1730     1.1130 O.2   1 <1>  -0.6500 
  3 O        2.6830     1.0010     0.8820 O.2   1 <1>  -0.6500 
  4 N        0.9440     1.8240    -0.7160 N.am  1 <1>  -0.8490 
  5 C        1.7790    -0.7830    -0.8880 C.3   1 <1>  -0.1350 
  6 C        1.9560     2.6490    -1.4110 C.3   1 <1>   0.1960 
  7 C       -0.2790     2.5250    -0.3180 C.3   1 <1>   0.1960 
  8 C        2.8370     3.5610    -0.5170 C.3   1 <1>   0.3430 
  9 C       -0.1120     3.3460     0.9670 C.3   1 <1>  -0.1600 
 10 N        2.3290     3.7480     0.8830 N.4   1 <1>  -0.9590 
 11 C        0.9940     4.3990     0.9330 C.3   1 <1>   0.3430 
 12 C        3.3380     4.3850     1.7820 C.3   1 <1>   0.4860 
 13 C        3.7760     5.7270     1.2360 C.ar  1 <1>  -0.1430 
 14 C        3.0640     6.8800     1.4750 C.ar  1 <1>   0.1600 
 15 C        4.9130     5.8490     0.4720 C.ar  1 <1>   0.1600 
 16 N        3.4180     8.0350     0.9700 N.ar  1 <1>  -0.6200 
 17 N        5.2860     6.9940    -0.0450 N.ar  1 <1>  -0.6200 
 18 C        4.5200     8.0410     0.2290 C.ar  1 <1>   0.4770 
 19 C        4.9600     9.3800    -0.3730 C.3   1 <1>   0.0630 
 20 C        5.2780    10.4240     0.7170 C.3   1 <1>  -0.1600 
 21 C        3.9160     9.9320    -1.3650 C.3   1 <1>  -0.1600 
 22 C        5.7250    11.7610     0.1070 C.3   1 <1>  -0.1600 
 23 C        4.3640    11.2690    -1.9730 C.3   1 <1>  -0.1600 
 24 C        4.6790    12.2970    -0.8790 C.3   1 <1>  -0.1600 
 25 H        2.1090    -1.6570    -0.3620 H     1 <1>   0.0800 
 26 H        2.5370    -0.4970    -1.5900 H     1 <1>   0.0800 
 27 H        0.8830    -1.0280    -1.4250 H     1 <1>   0.0800 
 28 H        1.4570     3.2690    -2.1360 H     1 <1>   0.0800 
 29 H        2.6080     2.0020    -1.9730 H     1 <1>   0.0800 
 30 H       -1.0670     1.8020    -0.1700 H     1 <1>   0.0800 
 31 H       -0.5980     3.1700    -1.1200 H     1 <1>   0.0800 
 32 H        2.9530     4.5190    -1.0000 H     1 <1>   0.0800 
 33 H        3.8150     3.1110    -0.4690 H     1 <1>   0.0800 
 34 H        0.0270     2.6940     1.8110 H     1 <1>   0.0800 
 35 H       -1.0420     3.8580     1.1370 H     1 <1>   0.0800 
 36 H        2.2100     2.7730     1.2280 H     1 <1>   0.4500 
 37 H        0.9160     4.9920     1.8300 H     1 <1>   0.0800 
 38 H        0.8640     5.0560     0.0870 H     1 <1>   0.0800 
 39 H        4.1980     3.7390     1.8690 H     1 <1>   0.0800 
 40 H        2.9230     4.5100     2.7690 H     1 <1>   0.0800 
 41 H        2.1800     6.8700     2.0910 H     1 <1>   0.1500 
 42 H        5.5390     4.9950     0.2690 H     1 <1>   0.1500 
 43 H        5.8680     9.2060    -0.9250 H     1 <1>   0.0800 
 44 H        6.0530    10.0440     1.3590 H     1 <1>   0.0800 
 45 H        4.4010    10.5890     1.3200 H     1 <1>   0.0800 
 46 H        2.9790    10.0750    -0.8530 H     1 <1>   0.0800 
 47 H        3.7570     9.2150    -2.1510 H     1 <1>   0.0800 
 48 H        6.6620    11.6240    -0.4060 H     1 <1>   0.0800 
 49 H        5.8820    12.4800     0.8920 H     1 <1>   0.0800 
 50 H        3.5880    11.6520    -2.6140 H     1 <1>   0.0800 
 51 H        5.2420    11.1110    -2.5770 H     1 <1>   0.0800 
 52 H        5.0420    13.2040    -1.3300 H     1 <1>   0.0800 
 53 H        3.7750    12.5350    -0.3430 H     1 <1>   0.0800 
@<TRIPOS>BOND
  1   1   2  2   
  2   1   3  2   
  3   1   4  am  
  4   1   5  1   
  5   4   6  1   
  6   4   7  1   
  7   5  25  1   
  8   5  26  1   
  9   5  27  1   
 10   6   8  1   
 11   6  28  1   
 12   6  29  1   
 13   7   9  1   
 14   7  30  1   
 15   7  31  1   
 16   8  10  1   
 17   8  32  1   
 18   8  33  1   
 19   9  11  1   
 20   9  34  1   
 21   9  35  1   
 22  10  11  1   
 23  10  12  1   
 24  10  36  1   
 25  11  37  1   
 26  11  38  1   
 27  12  13  1   
 28  12  39  1   
 29  12  40  1   
 30  13  14  ar  
 31  13  15  ar  
 32  14  16  ar  
 33  14  41  1   
 34  15  17  ar  
 35  15  42  1   
 36  16  18  ar  
 37  17  18  ar  
 38  18  19  1   
 39  19  20  1   
 40  19  21  1   
 41  19  43  1   
 42  20  22  1   
 43  20  44  1   
 44  20  45  1   
 45  21  23  1   
 46  21  46  1   
 47  21  47  1   
 48  22  24  1   
 49  22  48  1   
 50  22  49  1   
 51  23  24  1   
 52  23  50  1   
 53  23  51  1   
 54  24  52  1   
 55  24  53  1   
@<TRIPOS>SUBSTRUCTURE
  1 ****  13 GROUP 4 **** **** 0

# MOE 2024.06 (io_trps.svl 2023.06)
