@<TRIPOS>MOLECULE
NONAME
53 55 1 0 0 
SMALL
USER_CHARGES


@<TRIPOS>ATOM
  1 O       -0.8870     0.8140    -1.0820 O.2   1 <1>  -0.5700 
  2 C       -1.2860     1.3880    -0.0950 C.2   1 <1>   0.5690 
  3 N       -2.4510     0.9820     0.5220 N.am  1 <1>  -0.6600 
  4 C       -0.4710     2.5730     0.4320 C.3   1 <1>  -0.0190 
  5 C       -3.1590    -0.2420     0.0450 C.3   1 <1>   0.1400 
  6 C       -3.1570     1.7300     1.6000 C.3   1 <1>   0.1400 
  7 C       -1.0690     3.9470     0.0590 C.3   1 <1>  -0.0220 
  8 C        1.0130     2.6230    -0.0090 C.3   1 <1>  -0.0220 
  9 C       -4.5040     0.0970    -0.6140 C.3   1 <1>   0.1400 
 10 C       -4.2690     2.5810     0.9780 C.3   1 <1>  -0.1600 
 11 C        0.1540     4.8160    -0.0930 C.2   1 <1>  -0.2880 
 12 C        1.2730     4.1050    -0.1260 C.2   1 <1>  -0.2880 
 13 N       -5.5520     0.4340     0.4070 N.am  1 <1>  -0.6600 
 14 C       -5.6230     1.8690     0.8420 C.3   1 <1>   0.1400 
 15 C       -6.4820    -0.4600     0.8940 C.2   1 <1>   0.5690 
 16 O       -7.3470    -0.1110     1.6680 O.2   1 <1>  -0.5700 
 17 C       -6.5270    -1.9540     0.4630 C.3   1 <1>   0.4840 
 18 N       -7.9410    -2.4630     0.3330 N.4   1 <1>  -0.9590 
 19 C       -5.7880    -2.8260     1.4840 C.3   1 <1>  -0.2400 
 20 C       -8.1210    -3.8870    -0.0400 C.3   1 <1>   0.3430 
 21 C       -8.7650    -1.6730    -0.6130 C.3   1 <1>   0.3430 
 22 C       -9.5640    -3.9750    -0.5190 C.3   1 <1>  -0.1600 
 23 C       -9.9870    -2.5440    -0.8640 C.3   1 <1>  -0.1600 
 24 H       -0.4430     2.5110     1.5030 H     1 <1>   0.0800 
 25 H       -3.3040    -0.9100     0.8720 H     1 <1>   0.0800 
 26 H       -2.5510    -0.7610    -0.6760 H     1 <1>   0.0800 
 27 H       -2.4730     2.3700     2.1250 H     1 <1>   0.0800 
 28 H       -3.5660     1.0420     2.3210 H     1 <1>   0.0800 
 29 H       -1.7160     4.3170     0.8340 H     1 <1>   0.0800 
 30 H       -1.5980     3.9030    -0.8770 H     1 <1>   0.0800 
 31 H        1.1770     2.1630    -0.9670 H     1 <1>   0.0800 
 32 H        1.6500     2.1630     0.7260 H     1 <1>   0.0800 
 33 H       -4.8180    -0.7400    -1.2070 H     1 <1>   0.0800 
 34 H       -4.3680     0.9230    -1.2930 H     1 <1>   0.0800 
 35 H       -3.9550     2.9580     0.0210 H     1 <1>   0.0800 
 36 H       -4.4270     3.4390     1.6070 H     1 <1>   0.0800 
 37 H        0.0310     5.8840    -0.1720 H     1 <1>   0.1500 
 38 H        2.2890     4.4460    -0.2390 H     1 <1>   0.1500 
 39 H       -6.2370     2.4140     0.1450 H     1 <1>   0.0800 
 40 H       -6.1110     1.9220     1.8010 H     1 <1>   0.0800 
 41 H       -6.0390    -2.0480    -0.4900 H     1 <1>   0.0800 
 42 H       -8.3680    -2.3050     1.2590 H     1 <1>   0.4500 
 43 H       -6.3010    -2.8150     2.4300 H     1 <1>   0.0800 
 44 H       -4.8000    -2.4370     1.6460 H     1 <1>   0.0800 
 45 H       -5.6840    -3.8370     1.1370 H     1 <1>   0.0800 
 46 H       -7.9370    -4.5450     0.7940 H     1 <1>   0.0800 
 47 H       -7.4560    -4.1390    -0.8510 H     1 <1>   0.0800 
 48 H       -8.2290    -1.5270    -1.5370 H     1 <1>   0.0800 
 49 H       -9.0370    -0.7130    -0.1980 H     1 <1>   0.0800 
 50 H      -10.1850    -4.3710     0.2660 H     1 <1>   0.0800 
 51 H       -9.6360    -4.6290    -1.3710 H     1 <1>   0.0800 
 52 H      -10.3100    -2.4560    -1.8870 H     1 <1>   0.0800 
 53 H      -10.7930    -2.2270    -0.2240 H     1 <1>   0.0800 
@<TRIPOS>BOND
  1   1   2  2   
  2   2   3  am  
  3   2   4  1   
  4   3   5  1   
  5   3   6  1   
  6   4   7  1   
  7   4   8  1   
  8   4  24  1   
  9   5   9  1   
 10   5  25  1   
 11   5  26  1   
 12   6  10  1   
 13   6  27  1   
 14   6  28  1   
 15   7  11  1   
 16   7  29  1   
 17   7  30  1   
 18   8  12  1   
 19   8  31  1   
 20   8  32  1   
 21   9  13  1   
 22   9  33  1   
 23   9  34  1   
 24  10  14  1   
 25  10  35  1   
 26  10  36  1   
 27  11  12  2   
 28  11  37  1   
 29  12  38  1   
 30  13  14  1   
 31  13  15  am  
 32  14  39  1   
 33  14  40  1   
 34  15  16  2   
 35  15  17  1   
 36  17  18  1   
 37  17  19  1   
 38  17  41  1   
 39  18  20  1   
 40  18  21  1   
 41  18  42  1   
 42  19  43  1   
 43  19  44  1   
 44  19  45  1   
 45  20  22  1   
 46  20  46  1   
 47  20  47  1   
 48  21  23  1   
 49  21  48  1   
 50  21  49  1   
 51  22  23  1   
 52  22  50  1   
 53  22  51  1   
 54  23  52  1   
 55  23  53  1   
@<TRIPOS>SUBSTRUCTURE
  1 ****   9 GROUP 4 **** **** 0

# MOE 2024.06 (io_trps.svl 2023.06)
