@<TRIPOS>MOLECULE
NONAME
56 59 1 0 0 
SMALL
USER_CHARGES


@<TRIPOS>ATOM
  1 O       -4.0110    -2.0360     1.1890 O.2   1 <1>  -0.5700 
  2 C       -3.1740    -1.4550     0.5170 C.2   1 <1>   0.7160 
  3 N       -2.0010    -2.1390     0.2850 N.am  1 <1>  -0.6600 
  4 C       -3.4660    -0.2080    -0.1070 C.2   1 <1>  -0.0860 
  5 C       -1.4740    -3.0720     1.3500 C.3   1 <1>   0.2200 
  6 C       -1.5520    -2.3110    -1.1290 C.3   1 <1>   0.1400 
  7 C       -2.6500     0.7820    -0.6000 C.2   1 <1>  -0.0680 
  8 C       -4.7500     0.2660    -0.4090 C.2   1 <1>   0.1390 
  9 C        0.0430    -3.2960     1.2530 C.3   1 <1>   0.1200 
 10 C       -2.2200    -4.4300     1.3400 C.3   1 <1>   0.3430 
 11 C       -1.1000    -3.7420    -1.4790 C.3   1 <1>  -0.0800 
 12 N       -3.4490     1.6990    -1.1720 N.pl3 1 <1>   0.6010 
 13 N       -1.3300     1.1890    -0.7070 N.pl3 1 <1>  -0.5530 
 14 N       -4.7620     1.3920    -1.0550 N.2   1 <1>  -0.7070 
 15 O        0.3300    -4.3450     0.3770 O.3   1 <1>  -0.5600 
 16 N       -2.9700    -4.6600     0.0570 N.4   1 <1>  -0.9590 
 17 C        0.3220    -4.0330    -0.9750 C.3   1 <1>   0.1200 
 18 C       -2.0920    -4.8810    -1.1410 C.3   1 <1>   0.3430 
 19 C       -2.6500     2.7050    -1.6720 C.2   1 <1>  -0.1810 
 20 C       -1.3680     2.3990    -1.3860 C.2   1 <1>  -0.0500 
 21 C       -0.1790     0.7380     0.1060 C.3   1 <1>   0.1290 
 22 C       -4.0350    -5.6930     0.2060 C.3   1 <1>   0.3430 
 23 C       -3.4610    -7.0950     0.4500 C.3   1 <1>  -0.1600 
 24 C       -4.5720    -8.1340     0.6760 C.3   1 <1>  -0.0800 
 25 C       -3.9490    -9.4920     1.0190 C.3   1 <1>  -0.2400 
 26 C       -5.4770    -8.2850    -0.5540 C.3   1 <1>  -0.2400 
 27 H       -1.6530    -2.6080     2.3050 H     1 <1>   0.0800 
 28 H       -2.3590    -2.0380    -1.7890 H     1 <1>   0.0800 
 29 H       -0.7470    -1.6240    -1.3250 H     1 <1>   0.0800 
 30 H       -5.6530    -0.2590    -0.1380 H     1 <1>   0.1500 
 31 H        0.4170    -3.5950     2.2170 H     1 <1>   0.0800 
 32 H        0.5660    -2.4040     0.9510 H     1 <1>   0.0800 
 33 H       -2.9220    -4.4210     2.1580 H     1 <1>   0.0800 
 34 H       -1.5230    -5.2320     1.5180 H     1 <1>   0.0800 
 35 H       -1.0030    -3.7530    -2.5500 H     1 <1>   0.0800 
 36 H       -3.4500    -3.7530    -0.0770 H     1 <1>   0.4500 
 37 H        0.9870    -3.2030    -1.1470 H     1 <1>   0.0800 
 38 H        0.7230    -4.8900    -1.4910 H     1 <1>   0.0800 
 39 H       -1.5290    -5.7900    -1.0070 H     1 <1>   0.0800 
 40 H       -2.7290    -5.0240    -1.9980 H     1 <1>   0.0800 
 41 H       -3.0890     3.5430    -2.1760 H     1 <1>   0.1500 
 42 H       -0.4730     2.9590    -1.6060 H     1 <1>   0.1500 
 43 H        0.5260     0.2200    -0.5180 H     1 <1>   0.0800 
 44 H       -0.5170     0.0860     0.8900 H     1 <1>   0.0800 
 45 H        0.3040     1.5910     0.5500 H     1 <1>   0.0800 
 46 H       -4.6760    -5.4270     1.0320 H     1 <1>   0.0800 
 47 H       -4.6410    -5.7100    -0.6840 H     1 <1>   0.0800 
 48 H       -2.8690    -7.4060    -0.3910 H     1 <1>   0.0800 
 49 H       -2.8340    -7.0820     1.3230 H     1 <1>   0.0800 
 50 H       -5.1790    -7.8290     1.5140 H     1 <1>   0.0800 
 51 H       -3.3400    -9.8520     0.2070 H     1 <1>   0.0800 
 52 H       -4.7190   -10.2190     1.2110 H     1 <1>   0.0800 
 53 H       -3.3370    -9.4180     1.9010 H     1 <1>   0.0800 
 54 H       -4.9020    -8.5600    -1.4220 H     1 <1>   0.0800 
 55 H       -6.0130    -7.3770    -0.7640 H     1 <1>   0.0800 
 56 H       -6.2070    -9.0570    -0.3810 H     1 <1>   0.0800 
@<TRIPOS>BOND
  1   1   2  2   
  2   2   3  am  
  3   2   4  1   
  4   3   5  1   
  5   3   6  1   
  6   4   7  2   
  7   4   8  1   
  8   5   9  1   
  9   5  10  1   
 10   5  27  1   
 11   6  11  1   
 12   6  28  1   
 13   6  29  1   
 14   7  12  1   
 15   7  13  1   
 16   8  14  2   
 17   8  30  1   
 18   9  15  1   
 19   9  31  1   
 20   9  32  1   
 21  10  16  1   
 22  10  33  1   
 23  10  34  1   
 24  11  17  1   
 25  11  18  1   
 26  11  35  1   
 27  12  14  1   
 28  12  19  1   
 29  13  20  1   
 30  13  21  1   
 31  15  17  1   
 32  16  18  1   
 33  16  22  1   
 34  16  36  1   
 35  17  37  1   
 36  17  38  1   
 37  18  39  1   
 38  18  40  1   
 39  19  20  2   
 40  19  41  1   
 41  20  42  1   
 42  21  43  1   
 43  21  44  1   
 44  21  45  1   
 45  22  23  1   
 46  22  46  1   
 47  22  47  1   
 48  23  24  1   
 49  23  48  1   
 50  23  49  1   
 51  24  25  1   
 52  24  26  1   
 53  24  50  1   
 54  25  51  1   
 55  25  52  1   
 56  25  53  1   
 57  26  54  1   
 58  26  55  1   
 59  26  56  1   
@<TRIPOS>SUBSTRUCTURE
  1 ****   3 GROUP 4 **** **** 0

# MOE 2024.06 (io_trps.svl 2023.06)
