@<TRIPOS>MOLECULE
NONAME
60 63 1 0 0 
SMALL
USER_CHARGES


@<TRIPOS>ATOM
  1 O        1.5150     0.2520    -0.5350 O.2   1 <1>  -0.5700 
  2 C        2.5510    -0.3670    -0.6600 C.2   1 <1>   0.7150 
  3 N        3.5610     0.2480    -1.3130 N.am  1 <1>  -0.8000 
  4 C        2.6930    -1.7060    -0.1360 C.2   1 <1>   0.0550 
  5 O        3.7990    -2.4140    -0.3260 O.3   1 <1>  -0.2800 
  6 C        1.8300    -2.4620     0.5900 C.2   1 <1>  -0.1500 
  7 C        3.6850    -3.5920     0.2530 C.2   1 <1>  -0.0400 
  8 C        2.4610    -3.6860     0.8340 C.2   1 <1>  -0.1810 
  9 C        4.8940    -4.5360     0.1350 C.3   1 <1>   0.1800 
 10 C        1.8060    -4.8120     1.6030 C.3   1 <1>   0.5240 
 11 C        6.1630    -3.7980     0.5860 C.3   1 <1>  -0.2400 
 12 C        5.0520    -4.9550    -1.3320 C.3   1 <1>  -0.2400 
 13 C        4.7540    -5.7990     0.9980 C.3   1 <1>  -0.2400 
 14 N        1.0940    -5.6840     0.6350 N.4   1 <1>  -0.9590 
 15 C       -0.0470    -5.0170    -0.0790 C.3   1 <1>   0.3430 
 16 C        0.5690    -6.9400     1.2230 C.3   1 <1>   0.3430 
 17 C       -1.2240    -6.0080    -0.0390 C.3   1 <1>   0.2000 
 18 C       -0.5830    -7.3510     0.3020 C.3   1 <1>  -0.0800 
 19 O       -2.1010    -5.6550     0.9790 O.3   1 <1>  -0.6800 
 20 C       -0.1040    -8.0580    -0.9880 C.3   1 <1>  -0.0170 
 21 C        1.0550    -9.0030    -0.7330 C.ar  1 <1>   0.1670 
 22 N        2.2510    -8.5010    -0.8200 N.ar  1 <1>  -0.6200 
 23 C        0.7840   -10.3400    -0.4020 C.ar  1 <1>  -0.1500 
 24 C        3.2980    -9.3500    -0.6260 C.ar  1 <1>   0.3100 
 25 C        1.8140   -11.1940    -0.1530 C.ar  1 <1>  -0.1500 
 26 C        3.1250   -10.7030    -0.2570 C.ar  1 <1>   0.0000 
 27 C        4.6060    -8.8700    -0.7970 C.ar  1 <1>  -0.1500 
 28 C        4.2630   -11.5020    -0.0250 C.ar  1 <1>  -0.1500 
 29 C        5.7000    -9.6650    -0.5740 C.ar  1 <1>  -0.1500 
 30 C        5.5240   -10.9930    -0.1770 C.ar  1 <1>  -0.1500 
 31 H        3.4380     1.1990    -1.6580 H     1 <1>   0.3700 
 32 H        4.4660    -0.2010    -1.4490 H     1 <1>   0.3700 
 33 H        0.8500    -2.1560     0.9150 H     1 <1>   0.1500 
 34 H        1.1160    -4.4080     2.3250 H     1 <1>   0.0800 
 35 H        2.5540    -5.3790     2.1300 H     1 <1>   0.0800 
 36 H        7.0240    -4.4410     0.5250 H     1 <1>   0.0800 
 37 H        6.0580    -3.4620     1.6020 H     1 <1>   0.0800 
 38 H        6.3440    -2.9390    -0.0340 H     1 <1>   0.0800 
 39 H        5.9020    -5.6010    -1.4560 H     1 <1>   0.0800 
 40 H        5.1960    -4.0890    -1.9540 H     1 <1>   0.0800 
 41 H        4.1720    -5.4690    -1.6750 H     1 <1>   0.0800 
 42 H        5.6330    -6.4120     0.9010 H     1 <1>   0.0800 
 43 H        3.9120    -6.3870     0.6890 H     1 <1>   0.0800 
 44 H        4.6530    -5.5350     2.0350 H     1 <1>   0.0800 
 45 H        1.7860    -5.9660    -0.0790 H     1 <1>   0.4500 
 46 H       -0.3310    -4.0900     0.3910 H     1 <1>   0.0800 
 47 H        0.2360    -4.8210    -1.1000 H     1 <1>   0.0800 
 48 H        1.3330    -7.6990     1.2930 H     1 <1>   0.0800 
 49 H        0.1800    -6.7480     2.2100 H     1 <1>   0.0800 
 50 H       -1.7810    -6.0150    -0.9610 H     1 <1>   0.0800 
 51 H       -1.2660    -8.0050     0.8190 H     1 <1>   0.0800 
 52 H       -1.7180    -5.7300     1.8730 H     1 <1>   0.4000 
 53 H        0.2200    -7.3390    -1.7200 H     1 <1>   0.0800 
 54 H       -0.9230    -8.5990    -1.4290 H     1 <1>   0.0800 
 55 H       -0.2340   -10.6810    -0.3480 H     1 <1>   0.1500 
 56 H        1.6510   -12.2250     0.1100 H     1 <1>   0.1500 
 57 H        4.7290    -7.8560    -1.1190 H     1 <1>   0.1500 
 58 H        4.1230   -12.5270     0.2710 H     1 <1>   0.1500 
 59 H        6.6990    -9.2840    -0.7050 H     1 <1>   0.1500 
 60 H        6.3920   -11.6070     0.0000 H     1 <1>   0.1500 
@<TRIPOS>BOND
  1   1   2  2   
  2   2   3  am  
  3   2   4  1   
  4   3  31  1   
  5   3  32  1   
  6   4   5  1   
  7   4   6  2   
  8   5   7  1   
  9   6   8  1   
 10   6  33  1   
 11   7   8  2   
 12   7   9  1   
 13   8  10  1   
 14   9  11  1   
 15   9  12  1   
 16   9  13  1   
 17  10  14  1   
 18  10  34  1   
 19  10  35  1   
 20  11  36  1   
 21  11  37  1   
 22  11  38  1   
 23  12  39  1   
 24  12  40  1   
 25  12  41  1   
 26  13  42  1   
 27  13  43  1   
 28  13  44  1   
 29  14  15  1   
 30  14  16  1   
 31  14  45  1   
 32  15  17  1   
 33  15  46  1   
 34  15  47  1   
 35  16  18  1   
 36  16  48  1   
 37  16  49  1   
 38  17  18  1   
 39  17  19  1   
 40  17  50  1   
 41  18  20  1   
 42  18  51  1   
 43  19  52  1   
 44  20  21  1   
 45  20  53  1   
 46  20  54  1   
 47  21  22  ar  
 48  21  23  ar  
 49  22  24  ar  
 50  23  25  ar  
 51  23  55  1   
 52  24  26  ar  
 53  24  27  ar  
 54  25  26  ar  
 55  25  56  1   
 56  26  28  ar  
 57  27  29  ar  
 58  27  57  1   
 59  28  30  ar  
 60  28  58  1   
 61  29  30  ar  
 62  29  59  1   
 63  30  60  1   
@<TRIPOS>SUBSTRUCTURE
  1 ****  14 GROUP 4 **** **** 0

# MOE 2024.06 (io_trps.svl 2023.06)
