@<TRIPOS>MOLECULE
NONAME
49 52 1 0 0 
SMALL
USER_CHARGES


@<TRIPOS>ATOM
  1 S        0.1830    -0.5150    -0.8480 S.o2  1 <1>   1.4470 
  2 O       -0.4430    -0.0380    -2.0640 O.2   1 <1>  -0.6500 
  3 O        0.7930    -1.8300    -0.8900 O.2   1 <1>  -0.6500 
  4 N       -0.9880    -0.5480     0.3910 N.am  1 <1>  -0.8490 
  5 C        1.4230     0.6650    -0.2500 C.ar  1 <1>  -0.0090 
  6 C       -2.3000     0.0130     0.0620 C.3   1 <1>   0.1960 
  7 C       -1.0750    -1.7680     1.1970 C.3   1 <1>   0.1960 
  8 C        1.1310     2.0190    -0.0950 C.ar  1 <1>   0.0820 
  9 C        2.7050     0.2330     0.0740 C.ar  1 <1>  -0.1500 
 10 C       -3.1620    -1.0100    -0.6840 C.3   1 <1>  -0.1600 
 11 C       -1.9040    -2.8400     0.4830 C.3   1 <1>  -0.1600 
 12 O       -0.1210     2.4390    -0.4130 O.3   1 <1>  -0.3620 
 13 C        2.1050     2.9010     0.3730 C.ar  1 <1>  -0.1500 
 14 C        3.6710     1.1090     0.5360 C.ar  1 <1>  -0.1500 
 15 C       -3.2910    -2.3160     0.1070 C.3   1 <1>   0.4610 
 16 C       -0.4640     3.8050    -0.4830 C.3   1 <1>   0.0400 
 17 C        3.3740     2.4500     0.6890 C.ar  1 <1>  -0.1440 
 18 O       -3.9530    -2.0530     1.3330 O.3   1 <1>  -0.5600 
 19 C       -4.0640    -3.3720    -0.6870 C.2   1 <1>  -0.1810 
 20 C        4.4340     3.4120     1.1950 C.3   1 <1>  -0.0970 
 21 C       -5.3580    -1.9590     1.3340 C.3   1 <1>   0.1200 
 22 C       -5.2700    -3.7930    -0.2850 C.2   1 <1>  -0.1400 
 23 C       -3.6220    -4.0100    -1.8940 C.2   1 <1>  -0.1500 
 24 C       -6.0060    -3.2930     0.9290 C.3   1 <1>   0.0200 
 25 S       -5.9250    -5.0160    -1.3530 S.3   1 <1>  -0.0800 
 26 C       -4.4990    -4.9130    -2.3760 C.2   1 <1>  -0.1100 
 27 H       -2.1870     0.9040    -0.5310 H     1 <1>   0.0800 
 28 H       -2.7940     0.2920     0.9770 H     1 <1>   0.0800 
 29 H       -1.5460    -1.5280     2.1360 H     1 <1>   0.0800 
 30 H       -0.0890    -2.1420     1.4170 H     1 <1>   0.0800 
 31 H        2.9560    -0.8080    -0.0380 H     1 <1>   0.1500 
 32 H       -2.7150    -1.2180    -1.6380 H     1 <1>   0.0800 
 33 H       -4.1330    -0.5980    -0.8810 H     1 <1>   0.0800 
 34 H       -2.0130    -3.7000     1.1180 H     1 <1>   0.0800 
 35 H       -1.3820    -3.1590    -0.3990 H     1 <1>   0.0800 
 36 H        1.8890     3.9440     0.4980 H     1 <1>   0.1500 
 37 H        4.6540     0.7400     0.7740 H     1 <1>   0.1500 
 38 H       -1.4750     3.8760    -0.8400 H     1 <1>   0.0800 
 39 H        0.2010     4.2970    -1.1720 H     1 <1>   0.0800 
 40 H       -0.3920     4.2350     0.5000 H     1 <1>   0.0800 
 41 H        3.9800     4.2690     1.6590 H     1 <1>   0.0800 
 42 H        5.0460     3.7430     0.3760 H     1 <1>   0.0800 
 43 H        5.0610     2.9270     1.9230 H     1 <1>   0.0800 
 44 H       -5.6490    -1.1800     0.6520 H     1 <1>   0.0800 
 45 H       -5.6690    -1.6820     2.3250 H     1 <1>   0.0800 
 46 H       -2.6750    -3.7630    -2.3420 H     1 <1>   0.1500 
 47 H       -7.0450    -3.1410     0.7020 H     1 <1>   0.0800 
 48 H       -5.9240    -4.0070     1.7280 H     1 <1>   0.0800 
 49 H       -4.4670    -5.5480    -3.2430 H     1 <1>   0.1500 
@<TRIPOS>BOND
  1   1   2  2   
  2   1   3  2   
  3   1   4  am  
  4   1   5  1   
  5   4   6  1   
  6   4   7  1   
  7   5   8  ar  
  8   5   9  ar  
  9   6  10  1   
 10   6  27  1   
 11   6  28  1   
 12   7  11  1   
 13   7  29  1   
 14   7  30  1   
 15   8  12  1   
 16   8  13  ar  
 17   9  14  ar  
 18   9  31  1   
 19  10  15  1   
 20  10  32  1   
 21  10  33  1   
 22  11  15  1   
 23  11  34  1   
 24  11  35  1   
 25  12  16  1   
 26  13  17  ar  
 27  13  36  1   
 28  14  17  ar  
 29  14  37  1   
 30  15  18  1   
 31  15  19  1   
 32  16  38  1   
 33  16  39  1   
 34  16  40  1   
 35  17  20  1   
 36  18  21  1   
 37  19  22  2   
 38  19  23  1   
 39  20  41  1   
 40  20  42  1   
 41  20  43  1   
 42  21  24  1   
 43  21  44  1   
 44  21  45  1   
 45  22  24  1   
 46  22  25  1   
 47  23  26  2   
 48  23  46  1   
 49  24  47  1   
 50  24  48  1   
 51  25  26  1   
 52  26  49  1   
@<TRIPOS>SUBSTRUCTURE
  1 ****   4 GROUP 4 **** **** 0

# MOE 2024.06 (io_trps.svl 2023.06)
