@<TRIPOS>MOLECULE
NONAME
60 63 1 0 0 
SMALL
USER_CHARGES


@<TRIPOS>ATOM
  1 F        0.7000     1.4210    -1.8490 F     1 <1>  -0.1900 
  2 C        1.8510     1.6300    -1.2430 C.ar  1 <1>   0.1900 
  3 C        2.7360     0.5870    -0.9810 C.ar  1 <1>   0.4100 
  4 C        2.1860     2.8990    -0.8660 C.ar  1 <1>   0.1600 
  5 N        3.8830     0.8430    -0.3780 N.ar  1 <1>  -0.6200 
  6 N        2.4750    -0.7370    -1.3150 N.pl3 1 <1>  -0.8380 
  7 N        3.3260     3.1590    -0.2560 N.ar  1 <1>  -0.6200 
  8 C        4.1140     2.1070    -0.0390 C.ar  1 <1>   0.7200 
  9 C        1.2840    -1.4110    -0.7150 C.3   1 <1>   0.2090 
 10 C        3.5960    -1.6960    -1.5600 C.3   1 <1>   0.2090 
 11 N        5.3080     2.3640     0.6060 N.pl3 1 <1>  -0.8380 
 12 C        1.6940    -2.2790     0.4910 C.3   1 <1>   0.1200 
 13 C        3.8810    -2.5400    -0.3050 C.3   1 <1>   0.1200 
 14 C        6.5290     1.5690     0.3420 C.3   1 <1>   0.2090 
 15 C        5.4250     3.4250     1.6340 C.3   1 <1>   0.2090 
 16 O        2.7160    -3.1750     0.1470 O.3   1 <1>  -0.5600 
 17 C        7.6200     2.5300    -0.1270 C.3   1 <1>  -0.1600 
 18 C        6.4890     4.4120     1.1660 C.3   1 <1>  -0.1600 
 19 C        7.8030     3.6750     0.8810 C.3   1 <1>   0.4230 
 20 N        8.8360     4.6490     0.4290 N.4   1 <1>  -0.9590 
 21 C        8.5940     5.3010    -0.9040 C.3   1 <1>   0.3430 
 22 C       10.2430     4.1320     0.5040 C.3   1 <1>   0.3430 
 23 C        9.5980     6.4550    -1.1430 C.3   1 <1>   0.1100 
 24 C       11.2680     5.2330     0.1350 C.3   1 <1>   0.1100 
 25 N       10.6290     6.5540    -0.0740 N.3   1 <1>  -0.8100 
 26 C       11.6470     7.5840    -0.3790 C.3   1 <1>   0.1100 
 27 C       11.0830     9.0040    -0.2450 C.3   1 <1>   0.1200 
 28 O       12.0900     9.9180    -0.5090 O.3   1 <1>  -0.6800 
 29 H        1.5110     3.7120    -1.0670 H     1 <1>   0.1500 
 30 H        0.8170    -2.0330    -1.4580 H     1 <1>   0.0800 
 31 H        0.5630    -0.6820    -0.3930 H     1 <1>   0.0800 
 32 H        4.4850    -1.1640    -1.8490 H     1 <1>   0.0800 
 33 H        3.3290    -2.3500    -2.3710 H     1 <1>   0.0800 
 34 H        0.8550    -2.8560     0.8350 H     1 <1>   0.0800 
 35 H        2.0420    -1.6570     1.2970 H     1 <1>   0.0800 
 36 H        4.2620    -1.9150     0.4850 H     1 <1>   0.0800 
 37 H        4.6070    -3.3020    -0.5260 H     1 <1>   0.0800 
 38 H        6.3510     0.8290    -0.4210 H     1 <1>   0.0800 
 39 H        6.8220     1.0590     1.2440 H     1 <1>   0.0800 
 40 H        5.7060     2.9780     2.5730 H     1 <1>   0.0800 
 41 H        4.4860     3.9320     1.7810 H     1 <1>   0.0800 
 42 H        7.3230     2.9090    -1.0870 H     1 <1>   0.0800 
 43 H        8.5330     1.9760    -0.2390 H     1 <1>   0.0800 
 44 H        6.6350     5.1500     1.9320 H     1 <1>   0.0800 
 45 H        6.1130     4.8950     0.2830 H     1 <1>   0.0800 
 46 H        8.1290     3.2400     1.8120 H     1 <1>   0.0800 
 47 H        8.8490     5.4510     1.0790 H     1 <1>   0.4500 
 48 H        7.5930     5.6950    -0.9530 H     1 <1>   0.0800 
 49 H        8.6970     4.5740    -1.6920 H     1 <1>   0.0800 
 50 H       10.3680     3.2960    -0.1650 H     1 <1>   0.0800 
 51 H       10.4510     3.7870     1.5030 H     1 <1>   0.0800 
 52 H        9.0440     7.3760    -1.1950 H     1 <1>   0.0800 
 53 H       10.0710     6.3120    -2.1010 H     1 <1>   0.0800 
 54 H       11.7950     4.9380    -0.7580 H     1 <1>   0.0800 
 55 H       11.9950     5.3050     0.9270 H     1 <1>   0.0800 
 56 H       12.0290     7.4420    -1.3760 H     1 <1>   0.0800 
 57 H       12.4630     7.4860     0.3170 H     1 <1>   0.0800 
 58 H       10.7140     9.1830     0.7510 H     1 <1>   0.0800 
 59 H       10.3010     9.1790    -0.9610 H     1 <1>   0.0800 
 60 H       12.7380     9.9510     0.2220 H     1 <1>   0.4000 
@<TRIPOS>BOND
  1   1   2  1   
  2   2   3  ar  
  3   2   4  ar  
  4   3   5  ar  
  5   3   6  1   
  6   4   7  ar  
  7   4  29  1   
  8   5   8  ar  
  9   6   9  1   
 10   6  10  1   
 11   7   8  ar  
 12   8  11  1   
 13   9  12  1   
 14   9  30  1   
 15   9  31  1   
 16  10  13  1   
 17  10  32  1   
 18  10  33  1   
 19  11  14  1   
 20  11  15  1   
 21  12  16  1   
 22  12  34  1   
 23  12  35  1   
 24  13  16  1   
 25  13  36  1   
 26  13  37  1   
 27  14  17  1   
 28  14  38  1   
 29  14  39  1   
 30  15  18  1   
 31  15  40  1   
 32  15  41  1   
 33  17  19  1   
 34  17  42  1   
 35  17  43  1   
 36  18  19  1   
 37  18  44  1   
 38  18  45  1   
 39  19  20  1   
 40  19  46  1   
 41  20  21  1   
 42  20  22  1   
 43  20  47  1   
 44  21  23  1   
 45  21  48  1   
 46  21  49  1   
 47  22  24  1   
 48  22  50  1   
 49  22  51  1   
 50  23  25  1   
 51  23  52  1   
 52  23  53  1   
 53  24  25  1   
 54  24  54  1   
 55  24  55  1   
 56  25  26  1   
 57  26  27  1   
 58  26  56  1   
 59  26  57  1   
 60  27  28  1   
 61  27  58  1   
 62  27  59  1   
 63  28  60  1   
@<TRIPOS>SUBSTRUCTURE
  1 ****  11 GROUP 4 **** **** 0

# MOE 2024.06 (io_trps.svl 2023.06)
