@<TRIPOS>MOLECULE
NONAME
43 44 1 0 0 
SMALL
USER_CHARGES


@<TRIPOS>ATOM
  1 F        1.0380     1.2590    -1.4750 F     1 <1>  -0.1900 
  2 C        2.0980     2.0010    -1.2960 C.ar  1 <1>   0.1900 
  3 C        3.1770     1.4700    -0.6170 C.ar  1 <1>  -0.1500 
  4 C        2.1000     3.2910    -1.7910 C.ar  1 <1>  -0.1500 
  5 C        4.2960     2.2640    -0.4310 C.ar  1 <1>  -0.1500 
  6 C        3.2260     4.0740    -1.5990 C.ar  1 <1>  -0.1500 
  7 C        4.3270     3.5650    -0.9190 C.ar  1 <1>  -0.1430 
  8 C        5.5670     4.4270    -0.7120 C.3   1 <1>   0.2540 
  9 N        5.9330     4.5090     0.7170 N.3   1 <1>  -0.8100 
 10 C        7.2620     5.1600     0.8860 C.3   1 <1>   0.1710 
 11 C        4.8830     5.1570     1.5160 C.3   1 <1>   0.0300 
 12 C        7.3720     6.6060     0.3790 C.2   1 <1>   0.5690 
 13 O        7.7330     6.8100    -0.7580 O.2   1 <1>  -0.5700 
 14 N        7.0690     7.6360     1.2180 N.am  1 <1>  -0.7300 
 15 C        7.0680     9.0610     0.8090 C.3   1 <1>   0.1400 
 16 C        8.4870     9.6290     0.8510 C.3   1 <1>   0.0200 
 17 C        8.5530    10.8870     0.0100 C.2   1 <1>   0.0060 
 18 N        8.4390    12.0750     0.5090 N.2   1 <1>  -0.5650 
 19 N        8.7250    10.8710    -1.3360 N.pl3 1 <1>   0.0480 
 20 C        8.5440    12.8820    -0.5620 C.2   1 <1>   0.0770 
 21 C        8.7170    12.1670    -1.6940 C.2   1 <1>  -0.3020 
 22 C        8.8760     9.7090    -2.2330 C.3   1 <1>   0.0160 
 23 H        3.1400     0.4630    -0.2430 H     1 <1>   0.1500 
 24 H        1.2400     3.6680    -2.3140 H     1 <1>   0.1500 
 25 H        5.1490     1.8770     0.1010 H     1 <1>   0.1500 
 26 H        3.2420     5.0800    -1.9790 H     1 <1>   0.1500 
 27 H        5.3970     5.4150    -1.1050 H     1 <1>   0.0800 
 28 H        6.3800     3.9870    -1.2630 H     1 <1>   0.0800 
 29 H        7.9980     4.5740     0.3650 H     1 <1>   0.0800 
 30 H        7.5270     5.1400     1.9270 H     1 <1>   0.0800 
 31 H        3.9780     4.5740     1.4770 H     1 <1>   0.0800 
 32 H        4.6730     6.1450     1.1420 H     1 <1>   0.0800 
 33 H        5.1900     5.2230     2.5450 H     1 <1>   0.0800 
 34 H        6.7720     7.4410     2.1760 H     1 <1>   0.3700 
 35 H        6.4230     9.6350     1.4520 H     1 <1>   0.0800 
 36 H        6.6830     9.1310    -0.1940 H     1 <1>   0.0800 
 37 H        9.1920     8.9130     0.4710 H     1 <1>   0.0800 
 38 H        8.7510     9.8640     1.8660 H     1 <1>   0.0800 
 39 H        8.4880    13.9530    -0.4600 H     1 <1>   0.1500 
 40 H        8.8330    12.5050    -2.7070 H     1 <1>   0.1500 
 41 H        9.7180     9.1210    -1.9190 H     1 <1>   0.0800 
 42 H        9.0320    10.0480    -3.2400 H     1 <1>   0.0800 
 43 H        7.9870     9.1060    -2.1930 H     1 <1>   0.0800 
@<TRIPOS>BOND
  1   1   2  1   
  2   2   3  ar  
  3   2   4  ar  
  4   3   5  ar  
  5   3  23  1   
  6   4   6  ar  
  7   4  24  1   
  8   5   7  ar  
  9   5  25  1   
 10   6   7  ar  
 11   6  26  1   
 12   7   8  1   
 13   8   9  1   
 14   8  27  1   
 15   8  28  1   
 16   9  10  1   
 17   9  11  1   
 18  10  12  1   
 19  10  29  1   
 20  10  30  1   
 21  11  31  1   
 22  11  32  1   
 23  11  33  1   
 24  12  13  2   
 25  12  14  am  
 26  14  15  1   
 27  14  34  1   
 28  15  16  1   
 29  15  35  1   
 30  15  36  1   
 31  16  17  1   
 32  16  37  1   
 33  16  38  1   
 34  17  18  2   
 35  17  19  1   
 36  18  20  1   
 37  19  21  1   
 38  19  22  1   
 39  20  21  2   
 40  20  39  1   
 41  21  40  1   
 42  22  41  1   
 43  22  42  1   
 44  22  43  1   
@<TRIPOS>SUBSTRUCTURE
  1 ****  12 GROUP 4 **** **** 0

# MOE 2024.06 (io_trps.svl 2023.06)
