@<TRIPOS>MOLECULE
NONAME
45 47 1 0 0 
SMALL
USER_CHARGES


@<TRIPOS>ATOM
  1 S        0.1980    -0.5160    -0.0870 S.3   1 <1>  -0.0800 
  2 C       -1.4300    -1.1090     0.0030 C.2   1 <1>   0.4420 
  3 C       -0.4630     1.0820    -0.0700 C.2   1 <1>   0.1980 
  4 N       -2.2880    -0.1530     0.0370 N.2   1 <1>  -0.3380 
  5 N       -1.5890    -2.4770     0.0240 N.am  1 <1>  -0.4940 
  6 N       -1.7300     1.0920    -0.0040 N.2   1 <1>  -0.3380 
  7 C        0.4800     2.2620    -0.1320 C.3   1 <1>   0.0200 
  8 C       -2.7240    -3.2510     0.0900 C.2   1 <1>   0.5440 
  9 C       -0.3470     3.5530    -0.1370 C.3   1 <1>   0.3430 
 10 O       -3.8180    -2.7230     0.1400 O.2   1 <1>  -0.5700 
 11 C       -2.5740    -4.7050     0.0970 C.ar  1 <1>   0.3960 
 12 N        0.4930     4.7920    -0.2620 N.4   1 <1>  -0.9590 
 13 N       -1.3600    -5.2220     0.0390 N.ar  1 <1>  -0.6200 
 14 C       -3.7180    -5.5210     0.1640 C.ar  1 <1>  -0.1500 
 15 C        1.3210     5.0500     0.9600 C.3   1 <1>   0.2630 
 16 C       -0.3920     5.9680    -0.5360 C.3   1 <1>   0.2630 
 17 C       -1.2310    -6.5690     0.0460 C.ar  1 <1>   0.3100 
 18 C       -3.6160    -6.8840     0.1720 C.ar  1 <1>   0.0820 
 19 C       -2.3290    -7.4530     0.1120 C.ar  1 <1>   0.0000 
 20 C        0.0640    -7.1130    -0.0150 C.ar  1 <1>  -0.1500 
 21 O       -4.6770    -7.7180     0.2350 O.3   1 <1>  -0.3620 
 22 C       -2.0820    -8.8420     0.1130 C.ar  1 <1>  -0.1500 
 23 C        0.2790    -8.4650    -0.0130 C.ar  1 <1>  -0.1500 
 24 C       -6.0060    -7.2480     0.2990 C.3   1 <1>   0.0400 
 25 C       -0.8090    -9.3400     0.0520 C.ar  1 <1>  -0.1500 
 26 H       -0.7360    -3.0350    -0.0140 H     1 <1>   0.3700 
 27 H        1.0640     2.1900    -1.0310 H     1 <1>   0.0800 
 28 H        1.1260     2.2260     0.7250 H     1 <1>   0.0800 
 29 H       -0.9360     3.5980     0.7660 H     1 <1>   0.0800 
 30 H       -1.0370     3.5040    -0.9660 H     1 <1>   0.0800 
 31 H        1.1220     4.6810    -1.0730 H     1 <1>   0.4500 
 32 H       -4.6720    -5.0300     0.2080 H     1 <1>   0.1500 
 33 H        0.6880     5.1560     1.8270 H     1 <1>   0.0800 
 34 H        1.8920     5.9570     0.8390 H     1 <1>   0.0800 
 35 H        2.0080     4.2370     1.1320 H     1 <1>   0.0800 
 36 H       -1.0750     6.1230     0.2840 H     1 <1>   0.0800 
 37 H       -0.9650     5.8050    -1.4350 H     1 <1>   0.0800 
 38 H        0.2000     6.8610    -0.6650 H     1 <1>   0.0800 
 39 H        0.8910    -6.4290    -0.0650 H     1 <1>   0.1500 
 40 H       -2.9210    -9.5150     0.1630 H     1 <1>   0.1500 
 41 H        1.2760    -8.8680    -0.0600 H     1 <1>   0.1500 
 42 H       -6.6610    -8.1000     0.3410 H     1 <1>   0.0800 
 43 H       -6.2160    -6.6690    -0.5840 H     1 <1>   0.0800 
 44 H       -6.1250    -6.6520     1.1870 H     1 <1>   0.0800 
 45 H       -0.6310   -10.4020     0.0530 H     1 <1>   0.1500 
@<TRIPOS>BOND
  1   1   2  1   
  2   1   3  1   
  3   2   4  2   
  4   2   5  1   
  5   3   6  2   
  6   3   7  1   
  7   4   6  1   
  8   5   8  am  
  9   5  26  1   
 10   7   9  1   
 11   7  27  1   
 12   7  28  1   
 13   8  10  2   
 14   8  11  1   
 15   9  12  1   
 16   9  29  1   
 17   9  30  1   
 18  11  13  ar  
 19  11  14  ar  
 20  12  15  1   
 21  12  16  1   
 22  12  31  1   
 23  13  17  ar  
 24  14  18  ar  
 25  14  32  1   
 26  15  33  1   
 27  15  34  1   
 28  15  35  1   
 29  16  36  1   
 30  16  37  1   
 31  16  38  1   
 32  17  19  ar  
 33  17  20  ar  
 34  18  19  ar  
 35  18  21  1   
 36  19  22  ar  
 37  20  23  ar  
 38  20  39  1   
 39  21  24  1   
 40  22  25  ar  
 41  22  40  1   
 42  23  25  ar  
 43  23  41  1   
 44  24  42  1   
 45  24  43  1   
 46  24  44  1   
 47  25  45  1   
@<TRIPOS>SUBSTRUCTURE
  1 ****   5 GROUP 4 **** **** 0

# MOE 2024.06 (io_trps.svl 2023.06)
