@<TRIPOS>MOLECULE
NONAME
49 52 1 0 0 
SMALL
USER_CHARGES


@<TRIPOS>ATOM
  1 O       -0.3760    -0.9430     0.6470 O.2   1 <1>  -0.5700 
  2 C       -1.2540    -1.1300    -0.1730 C.2   1 <1>   0.7800 
  3 O       -1.1510    -2.1560    -1.0220 O.3   1 <1>  -0.4300 
  4 N       -2.3930    -0.3890    -0.2400 N.am  1 <1>  -0.6600 
  5 C       -0.0550    -3.0500    -0.9790 C.3   1 <1>   0.1200 
  6 C       -2.6540     0.8380     0.5890 C.3   1 <1>   0.1140 
  7 C       -3.5750    -0.7110    -1.0540 C.3   1 <1>   0.1400 
  8 C       -0.1400    -3.9970     0.2300 C.3   1 <1>   0.2070 
  9 C       -1.8260     2.1010     0.2500 C.2   1 <1>   0.9060 
 10 C       -4.1630     1.0930     0.4120 C.3   1 <1>  -0.1600 
 11 C       -4.7500    -0.1700    -0.2330 C.3   1 <1>   0.0000 
 12 C        0.9480    -5.0600     0.1360 C.ar  1 <1>  -0.1440 
 13 C       -1.3910    -4.8740     0.2180 C.ar  1 <1>  -0.1430 
 14 O       -1.6420     2.4270    -0.9340 O.co2 1 <1>  -0.9000 
 15 O       -1.4350     2.8170     1.1840 O.co2 1 <1>  -0.9000 
 16 C       -5.9630     0.1570    -1.1160 C.3   1 <1>  -0.2400 
 17 C       -5.1620    -1.1800     0.8530 C.3   1 <1>  -0.2400 
 18 C        0.3860    -6.3210     0.0410 C.ar  1 <1>   0.0000 
 19 C        2.3200    -4.8860     0.1350 C.ar  1 <1>  -0.1500 
 20 C       -1.0430    -6.2070     0.0910 C.ar  1 <1>   0.0000 
 21 C       -2.7160    -4.4900     0.3230 C.ar  1 <1>  -0.1500 
 22 C        1.2080    -7.4340    -0.0690 C.ar  1 <1>  -0.1500 
 23 C        3.1380    -6.0000     0.0260 C.ar  1 <1>  -0.1500 
 24 C       -2.0360    -7.1770     0.0490 C.ar  1 <1>  -0.1500 
 25 C       -3.7050    -5.4600     0.2820 C.ar  1 <1>  -0.1500 
 26 C        2.5830    -7.2680    -0.0770 C.ar  1 <1>  -0.1500 
 27 C       -3.3650    -6.7980     0.1430 C.ar  1 <1>  -0.1500 
 28 H       -0.0750    -3.6230    -1.8890 H     1 <1>   0.0800 
 29 H        0.8540    -2.4740    -0.9510 H     1 <1>   0.0800 
 30 H       -2.4500     0.5950     1.6150 H     1 <1>   0.0800 
 31 H       -3.4910    -0.1840    -1.9900 H     1 <1>   0.0800 
 32 H       -3.6580    -1.7680    -1.2380 H     1 <1>   0.0800 
 33 H       -0.0510    -3.4630     1.1590 H     1 <1>   0.0800 
 34 H       -4.6240     1.3460     1.3490 H     1 <1>   0.0800 
 35 H       -4.2830     1.9330    -0.2520 H     1 <1>   0.0800 
 36 H       -6.7480     0.5930    -0.5250 H     1 <1>   0.0800 
 37 H       -6.3370    -0.7350    -1.5860 H     1 <1>   0.0800 
 38 H       -5.6870     0.8580    -1.8850 H     1 <1>   0.0800 
 39 H       -5.9500    -0.7760     1.4610 H     1 <1>   0.0800 
 40 H       -4.3260    -1.4100     1.4920 H     1 <1>   0.0800 
 41 H       -5.5080    -2.0940     0.4050 H     1 <1>   0.0800 
 42 H        2.7470    -3.9010     0.2170 H     1 <1>   0.1500 
 43 H       -2.9740    -3.4510     0.4340 H     1 <1>   0.1500 
 44 H        0.7740    -8.4140    -0.1450 H     1 <1>   0.1500 
 45 H        4.2070    -5.8800     0.0230 H     1 <1>   0.1500 
 46 H       -1.7680    -8.2120    -0.0530 H     1 <1>   0.1500 
 47 H       -4.7380    -5.1720     0.3600 H     1 <1>   0.1500 
 48 H        3.2260    -8.1270    -0.1620 H     1 <1>   0.1500 
 49 H       -4.1380    -7.5460     0.1110 H     1 <1>   0.1500 
@<TRIPOS>BOND
  1   1   2  2   
  2   2   3  1   
  3   2   4  am  
  4   3   5  1   
  5   4   6  1   
  6   4   7  1   
  7   5   8  1   
  8   5  28  1   
  9   5  29  1   
 10   6   9  1   
 11   6  10  1   
 12   6  30  1   
 13   7  11  1   
 14   7  31  1   
 15   7  32  1   
 16   8  12  1   
 17   8  13  1   
 18   8  33  1   
 19   9  14  ar  
 20   9  15  ar  
 21  10  11  1   
 22  10  34  1   
 23  10  35  1   
 24  11  16  1   
 25  11  17  1   
 26  12  18  ar  
 27  12  19  ar  
 28  13  20  ar  
 29  13  21  ar  
 30  16  36  1   
 31  16  37  1   
 32  16  38  1   
 33  17  39  1   
 34  17  40  1   
 35  17  41  1   
 36  18  20  1   
 37  18  22  ar  
 38  19  23  ar  
 39  19  42  1   
 40  20  24  ar  
 41  21  25  ar  
 42  21  43  1   
 43  22  26  ar  
 44  22  44  1   
 45  23  26  ar  
 46  23  45  1   
 47  24  27  ar  
 48  24  46  1   
 49  25  27  ar  
 50  25  47  1   
 51  26  48  1   
 52  27  49  1   
@<TRIPOS>SUBSTRUCTURE
  1 ****   3 GROUP 4 **** **** 0

# MOE 2024.06 (io_trps.svl 2023.06)
