@<TRIPOS>MOLECULE
NONAME
47 48 1 0 0 
SMALL
USER_CHARGES


@<TRIPOS>ATOM
  1 CL       0.3450    -0.5740    -2.3680 Cl    1 <1>  -0.1770 
  2 C        0.1310    -2.0690    -1.4940 C.ar  1 <1>   0.1770 
  3 C        0.8140    -3.1980    -1.9050 C.ar  1 <1>  -0.1500 
  4 C       -0.7190    -2.1020    -0.4050 C.ar  1 <1>  -0.1500 
  5 C        0.6410    -4.3840    -1.2100 C.ar  1 <1>  -0.1500 
  6 C       -0.8870    -3.2910     0.2860 C.ar  1 <1>  -0.1500 
  7 C       -0.2090    -4.4340    -0.1140 C.ar  1 <1>  -0.1430 
  8 C       -0.4010    -5.7390     0.6440 C.3   1 <1>  -0.0160 
  9 C       -1.5730    -6.5330     0.0510 C.3   1 <1>  -0.0990 
 10 C       -1.7960    -7.8810     0.7200 C.2   1 <1>   0.5690 
 11 O       -1.2640    -8.1080     1.7800 O.2   1 <1>  -0.5700 
 12 N       -2.5990    -8.8080     0.1180 N.am  1 <1>  -0.6600 
 13 C       -3.4200    -8.6200    -1.1040 C.3   1 <1>   0.1400 
 14 C       -2.8270   -10.1600     0.6880 C.3   1 <1>   0.1400 
 15 C       -4.5130    -9.6790    -0.9840 C.3   1 <1>   0.2000 
 16 C       -3.8170   -10.8410    -0.2690 C.3   1 <1>  -0.0800 
 17 O       -5.5140    -9.1770    -0.1660 O.3   1 <1>  -0.6800 
 18 C       -4.7840   -11.8340     0.4110 C.3   1 <1>  -0.0550 
 19 S       -3.9970   -13.3210     1.0350 S.o2  1 <1>   1.3330 
 20 O       -5.0150   -14.2520     1.4640 O.2   1 <1>  -0.6500 
 21 O       -2.9560   -12.9240     1.9560 O.2   1 <1>  -0.6500 
 22 N       -3.2530   -13.9730    -0.3460 N.am  1 <1>  -0.8490 
 23 C       -2.0700   -14.7720    -0.0100 C.3   1 <1>   0.1160 
 24 C       -4.1660   -14.7650    -1.1770 C.3   1 <1>   0.1160 
 25 H        1.4700    -3.1460    -2.7540 H     1 <1>   0.1500 
 26 H       -1.2370    -1.2100    -0.1050 H     1 <1>   0.1500 
 27 H        1.1720    -5.2660    -1.5250 H     1 <1>   0.1500 
 28 H       -1.5470    -3.3220     1.1360 H     1 <1>   0.1500 
 29 H        0.4990    -6.3270     0.5900 H     1 <1>   0.0800 
 30 H       -0.5890    -5.5320     1.6830 H     1 <1>   0.0800 
 31 H       -1.3820    -6.6950    -0.9940 H     1 <1>   0.0800 
 32 H       -2.4730    -5.9550     0.1450 H     1 <1>   0.0800 
 33 H       -3.8350    -7.6280    -1.1710 H     1 <1>   0.0800 
 34 H       -2.8100    -8.8190    -1.9680 H     1 <1>   0.0800 
 35 H       -1.9000   -10.7060     0.7540 H     1 <1>   0.0800 
 36 H       -3.2430   -10.0610     1.6770 H     1 <1>   0.0800 
 37 H       -4.9460    -9.9520    -1.9310 H     1 <1>   0.0800 
 38 H       -3.2380   -11.3700    -1.0060 H     1 <1>   0.0800 
 39 H       -5.1020    -8.7880     0.6320 H     1 <1>   0.4000 
 40 H       -5.5350   -12.1170    -0.3000 H     1 <1>   0.0800 
 41 H       -5.2870   -11.3440     1.2220 H     1 <1>   0.0800 
 42 H       -1.6150   -15.1630    -0.9040 H     1 <1>   0.0800 
 43 H       -2.3420   -15.5890     0.6370 H     1 <1>   0.0800 
 44 H       -1.3410   -14.1590     0.4950 H     1 <1>   0.0800 
 45 H       -3.6680   -15.0790    -2.0790 H     1 <1>   0.0800 
 46 H       -5.0250   -14.1780    -1.4500 H     1 <1>   0.0800 
 47 H       -4.5010   -15.6390    -0.6410 H     1 <1>   0.0800 
@<TRIPOS>BOND
  1   1   2  1   
  2   2   3  ar  
  3   2   4  ar  
  4   3   5  ar  
  5   3  25  1   
  6   4   6  ar  
  7   4  26  1   
  8   5   7  ar  
  9   5  27  1   
 10   6   7  ar  
 11   6  28  1   
 12   7   8  1   
 13   8   9  1   
 14   8  29  1   
 15   8  30  1   
 16   9  10  1   
 17   9  31  1   
 18   9  32  1   
 19  10  11  2   
 20  10  12  am  
 21  12  13  1   
 22  12  14  1   
 23  13  15  1   
 24  13  33  1   
 25  13  34  1   
 26  14  16  1   
 27  14  35  1   
 28  14  36  1   
 29  15  16  1   
 30  15  17  1   
 31  15  37  1   
 32  16  18  1   
 33  16  38  1   
 34  17  39  1   
 35  18  19  1   
 36  18  40  1   
 37  18  41  1   
 38  19  20  2   
 39  19  21  2   
 40  19  22  am  
 41  22  23  1   
 42  22  24  1   
 43  23  42  1   
 44  23  43  1   
 45  23  44  1   
 46  24  45  1   
 47  24  46  1   
 48  24  47  1   
@<TRIPOS>SUBSTRUCTURE
  1 ****  12 GROUP 4 **** **** 0

# MOE 2024.06 (io_trps.svl 2023.06)
