@<TRIPOS>MOLECULE
NONAME
49 52 1 0 0 
SMALL
USER_CHARGES


@<TRIPOS>ATOM
  1 O       -0.4280    -0.3360     0.3060 O.2   1 <1>  -0.5700 
  2 C       -1.4310     0.3240     0.1650 C.2   1 <1>   0.5690 
  3 N       -2.6250    -0.2980    -0.1090 N.am  1 <1>  -0.6600 
  4 C       -1.2650     1.8440     0.2960 C.3   1 <1>  -0.0190 
  5 C       -3.9520     0.3040    -0.3980 C.3   1 <1>   0.1400 
  6 C       -2.6880    -1.7730    -0.2740 C.3   1 <1>   0.1400 
  7 C       -2.1960     2.5250     1.3180 C.3   1 <1>  -0.1600 
  8 C       -1.3110     2.5810    -1.0550 C.3   1 <1>  -0.1600 
  9 C       -4.7530    -0.8150    -1.0600 C.3   1 <1>   0.2000 
 10 C       -4.1610    -2.1090    -0.5130 C.3   1 <1>  -0.0800 
 11 C       -1.9360     4.0340     1.3530 C.3   1 <1>   0.1200 
 12 C       -1.1340     4.0900    -0.8550 C.3   1 <1>   0.1200 
 13 O       -6.1010    -0.7360    -0.7450 O.3   1 <1>  -0.6800 
 14 C       -4.3700    -3.3070    -1.4550 C.3   1 <1>  -0.0170 
 15 O       -2.0770     4.5480     0.0650 O.3   1 <1>  -0.5600 
 16 C       -3.8060    -4.5870    -0.8480 C.ar  1 <1>  -0.1440 
 17 C       -4.4910    -5.3160     0.1530 C.ar  1 <1>   0.0000 
 18 C       -2.5960    -5.0650    -1.2590 C.ar  1 <1>  -0.1500 
 19 C       -3.8640    -6.4790     0.6650 C.ar  1 <1>   0.3100 
 20 C       -5.7580    -4.9630     0.6740 C.ar  1 <1>  -0.1500 
 21 C       -2.0670    -6.2300    -0.6900 C.ar  1 <1>   0.1600 
 22 N       -2.6560    -6.9210     0.2330 N.ar  1 <1>  -0.6200 
 23 C       -4.5140    -7.2160     1.6670 C.ar  1 <1>  -0.1500 
 24 C       -6.3660    -5.7060     1.6500 C.ar  1 <1>  -0.1500 
 25 C       -5.7380    -6.8460     2.1560 C.ar  1 <1>  -0.1500 
 26 H       -0.2670     1.9900     0.6740 H     1 <1>   0.0800 
 27 H       -4.4160     0.5900     0.5290 H     1 <1>   0.0800 
 28 H       -3.8730     1.1490    -1.0550 H     1 <1>   0.0800 
 29 H       -2.0840    -2.0500    -1.1220 H     1 <1>   0.0800 
 30 H       -2.3090    -2.2700     0.6030 H     1 <1>   0.0800 
 31 H       -2.0310     2.1070     2.2950 H     1 <1>   0.0800 
 32 H       -3.2270     2.3820     1.0650 H     1 <1>   0.0800 
 33 H       -2.2450     2.4150    -1.5560 H     1 <1>   0.0800 
 34 H       -0.5280     2.2120    -1.6930 H     1 <1>   0.0800 
 35 H       -4.6490    -0.7550    -2.1300 H     1 <1>   0.0800 
 36 H       -4.5940    -2.3210     0.4480 H     1 <1>   0.0800 
 37 H       -0.9440     4.2570     1.7090 H     1 <1>   0.0800 
 38 H       -2.6550     4.5270     1.9840 H     1 <1>   0.0800 
 39 H       -1.2940     4.6160    -1.7800 H     1 <1>   0.0800 
 40 H       -0.1500     4.3250    -0.4850 H     1 <1>   0.0800 
 41 H       -6.2300    -0.7960     0.2210 H     1 <1>   0.4000 
 42 H       -3.8870    -3.1090    -2.3960 H     1 <1>   0.0800 
 43 H       -5.4170    -3.4320    -1.6670 H     1 <1>   0.0800 
 44 H       -2.0180    -4.5680    -2.0170 H     1 <1>   0.1500 
 45 H       -6.2620    -4.0940     0.2970 H     1 <1>   0.1500 
 46 H       -1.1090    -6.5710    -1.0430 H     1 <1>   0.1500 
 47 H       -4.0130    -8.0900     2.0400 H     1 <1>   0.1500 
 48 H       -7.3310    -5.4260     2.0380 H     1 <1>   0.1500 
 49 H       -6.2240    -7.4220     2.9240 H     1 <1>   0.1500 
@<TRIPOS>BOND
  1   1   2  2   
  2   2   3  am  
  3   2   4  1   
  4   3   5  1   
  5   3   6  1   
  6   4   7  1   
  7   4   8  1   
  8   4  26  1   
  9   5   9  1   
 10   5  27  1   
 11   5  28  1   
 12   6  10  1   
 13   6  29  1   
 14   6  30  1   
 15   7  11  1   
 16   7  31  1   
 17   7  32  1   
 18   8  12  1   
 19   8  33  1   
 20   8  34  1   
 21   9  10  1   
 22   9  13  1   
 23   9  35  1   
 24  10  14  1   
 25  10  36  1   
 26  11  15  1   
 27  11  37  1   
 28  11  38  1   
 29  12  15  1   
 30  12  39  1   
 31  12  40  1   
 32  13  41  1   
 33  14  16  1   
 34  14  42  1   
 35  14  43  1   
 36  16  17  ar  
 37  16  18  ar  
 38  17  19  ar  
 39  17  20  ar  
 40  18  21  ar  
 41  18  44  1   
 42  19  22  ar  
 43  19  23  ar  
 44  20  24  ar  
 45  20  45  1   
 46  21  22  ar  
 47  21  46  1   
 48  23  25  ar  
 49  23  47  1   
 50  24  25  ar  
 51  24  48  1   
 52  25  49  1   
@<TRIPOS>SUBSTRUCTURE
  1 ****   6 GROUP 4 **** **** 0

# MOE 2024.06 (io_trps.svl 2023.06)
