@<TRIPOS>MOLECULE
F1913-1530
31 32 1 0 0 
SMALL
USER_CHARGES


@<TRIPOS>ATOM
  1 F        0.0310     0.1870     0.3690 F     1 <1>  -0.3400 
  2 C        0.4760    -0.9900    -0.0550 C.3   1 <1>   1.0200 
  3 F       -0.0210    -1.1660    -1.2720 F     1 <1>  -0.3400 
  4 F       -0.1030    -1.9010     0.7180 F     1 <1>  -0.3400 
  5 C        2.0220    -1.1120    -0.0020 C.3   1 <1>   0.1100 
  6 N        2.8100    -0.1880    -0.8760 N.3   1 <1>  -0.6890 
  7 C        4.2850    -0.4040    -0.7630 C.3   1 <1>   0.2100 
  8 C        2.9850     1.1810    -0.2930 C.3   1 <1>   0.2100 
  9 C        4.3480     0.7350     0.2860 C.3   1 <1>   0.2580 
 10 O        5.3540     1.6700     0.0350 O.3   1 <1>  -0.5380 
 11 C        6.6120     1.2860     0.4930 C.3   1 <1>   0.2640 
 12 C        7.6220     2.3740     0.1640 C.ar  1 <1>  -0.1440 
 13 C        7.3610     3.6970     0.4900 C.ar  1 <1>  -0.1500 
 14 C        8.8210     2.0550    -0.4580 C.ar  1 <1>  -0.1500 
 15 C        8.2850     4.6870     0.2040 C.ar  1 <1>  -0.1500 
 16 C        9.7460     3.0440    -0.7450 C.ar  1 <1>  -0.1500 
 17 C        9.4790     4.3610    -0.4130 C.ar  1 <1>  -0.1500 
 18 H        2.2550    -2.1190    -0.2940 H     1 <1>   0.0800 
 19 H        2.3230    -0.9940     1.0230 H     1 <1>   0.0800 
 20 H        4.7780    -0.1600    -1.6880 H     1 <1>   0.0000 
 21 H        4.5290    -1.3770    -0.3750 H     1 <1>   0.0000 
 22 H        2.2490     1.4150     0.4540 H     1 <1>   0.0000 
 23 H        3.0720     1.9190    -1.0720 H     1 <1>   0.0000 
 24 H        4.3190     0.4270     1.3170 H     1 <1>   0.0000 
 25 H        6.8860     0.3610     0.0160 H     1 <1>   0.0800 
 26 H        6.5630     1.1450     1.5590 H     1 <1>   0.0800 
 27 H        6.4310     3.9560     0.9650 H     1 <1>   0.1500 
 28 H        9.0430     1.0370    -0.7230 H     1 <1>   0.1500 
 29 H        8.0720     5.7100     0.4610 H     1 <1>   0.1500 
 30 H       10.6730     2.7890    -1.2270 H     1 <1>   0.1500 
 31 H       10.1980     5.1300    -0.6370 H     1 <1>   0.1500 
@<TRIPOS>BOND
  1   1   2  1   
  2   2   3  1   
  3   2   4  1   
  4   2   5  1   
  5   5   6  1   
  6   5  18  1   
  7   5  19  1   
  8   6   7  1   
  9   6   8  1   
 10   7   9  1   
 11   7  20  1   
 12   7  21  1   
 13   8   9  1   
 14   8  22  1   
 15   8  23  1   
 16   9  10  1   
 17   9  24  1   
 18  10  11  1   
 19  11  12  1   
 20  11  25  1   
 21  11  26  1   
 22  12  13  ar  
 23  12  14  ar  
 24  13  15  ar  
 25  13  27  1   
 26  14  16  ar  
 27  14  28  1   
 28  15  17  ar  
 29  15  29  1   
 30  16  17  ar  
 31  16  30  1   
 32  17  31  1   
@<TRIPOS>SUBSTRUCTURE
  1 ****   9 GROUP 4 **** **** 0

# MOE 2024.06 (io_trps.svl 2023.06)
