@<TRIPOS>MOLECULE
NONAME
38 39 1 0 0 
SMALL
USER_CHARGES


@<TRIPOS>ATOM
  1 F       -0.6790    -0.0490    -0.7010 F     1 <1>  -0.1900 
  2 C       -1.7480    -0.7780    -0.4620 C.ar  1 <1>   0.1900 
  3 C       -2.5910    -0.5700     0.6250 C.ar  1 <1>   0.3920 
  4 C       -2.0410    -1.7970    -1.3300 C.ar  1 <1>   0.1600 
  5 O       -2.4420     0.3850     1.5730 O.3   1 <1>  -0.3630 
  6 N       -3.6450    -1.3370     0.8070 N.ar  1 <1>  -0.6200 
  7 N       -3.0910    -2.5710    -1.1570 N.ar  1 <1>  -0.6200 
  8 C       -1.4270     1.3640     1.5740 C.3   1 <1>   0.0400 
  9 C       -3.8390    -2.2850    -0.0940 C.ar  1 <1>   0.7200 
 10 N       -4.9360    -3.0410     0.1310 N.pl3 1 <1>  -0.8690 
 11 C       -5.0920    -4.4120    -0.3820 C.3   1 <1>   0.2090 
 12 C       -6.3470    -5.0320     0.2260 C.3   1 <1>  -0.1600 
 13 C       -6.5690    -6.4570    -0.2910 C.3   1 <1>   0.0210 
 14 C       -7.8130    -7.0600     0.3370 C.2   1 <1>  -0.1810 
 15 C       -7.8780    -7.7920     1.5220 C.2   1 <1>   0.1080 
 16 C       -9.0880    -7.0170    -0.1100 C.2   1 <1>  -0.3320 
 17 N       -9.0830    -8.1790     1.7950 N.2   1 <1>  -0.7070 
 18 C       -6.7110    -8.1270     2.4220 C.3   1 <1>  -0.0590 
 19 N       -9.8300    -7.7000     0.7860 N.pl3 1 <1>   0.3000 
 20 C       -9.6780    -6.3610    -1.3470 C.3   1 <1>  -0.0600 
 21 H       -1.4030    -1.9790    -2.1780 H     1 <1>   0.1500 
 22 H       -1.5790     1.9990     2.4280 H     1 <1>   0.0800 
 23 H       -1.4980     1.9450     0.6720 H     1 <1>   0.0800 
 24 H       -0.4700     0.8780     1.6480 H     1 <1>   0.0800 
 25 H       -5.3490    -2.8490     1.0430 H     1 <1>   0.4000 
 26 H       -4.2220    -4.9930    -0.1210 H     1 <1>   0.0800 
 27 H       -5.1740    -4.3790    -1.4560 H     1 <1>   0.0800 
 28 H       -7.2020    -4.4310    -0.0310 H     1 <1>   0.0800 
 29 H       -6.2540    -5.0560     1.2970 H     1 <1>   0.0800 
 30 H       -5.7170    -7.0730    -0.0600 H     1 <1>   0.0800 
 31 H       -6.6810    -6.4430    -1.3600 H     1 <1>   0.0800 
 32 H       -6.1090    -7.2540     2.5900 H     1 <1>   0.0800 
 33 H       -6.1130    -8.8940     1.9670 H     1 <1>   0.0800 
 34 H       -7.0730    -8.4840     3.3690 H     1 <1>   0.0800 
 35 H      -10.8440    -7.8560     0.7390 H     1 <1>   0.2700 
 36 H       -8.9180    -5.8400    -1.9000 H     1 <1>   0.0800 
 37 H      -10.4350    -5.6530    -1.0640 H     1 <1>   0.0800 
 38 H      -10.1160    -7.1060    -1.9880 H     1 <1>   0.0800 
@<TRIPOS>BOND
  1   1   2  1   
  2   2   3  ar  
  3   2   4  ar  
  4   3   5  1   
  5   3   6  ar  
  6   4   7  ar  
  7   4  21  1   
  8   5   8  1   
  9   6   9  ar  
 10   7   9  ar  
 11   8  22  1   
 12   8  23  1   
 13   8  24  1   
 14   9  10  1   
 15  10  11  1   
 16  10  25  1   
 17  11  12  1   
 18  11  26  1   
 19  11  27  1   
 20  12  13  1   
 21  12  28  1   
 22  12  29  1   
 23  13  14  1   
 24  13  30  1   
 25  13  31  1   
 26  14  15  1   
 27  14  16  2   
 28  15  17  2   
 29  15  18  1   
 30  16  19  1   
 31  16  20  1   
 32  17  19  1   
 33  18  32  1   
 34  18  33  1   
 35  18  34  1   
 36  19  35  1   
 37  20  36  1   
 38  20  37  1   
 39  20  38  1   
@<TRIPOS>SUBSTRUCTURE
  1 ****  11 GROUP 4 **** **** 0

# MOE 2024.06 (io_trps.svl 2023.06)
