@<TRIPOS>MOLECULE
NONAME
52 54 1 0 0 
SMALL
USER_CHARGES


@<TRIPOS>ATOM
  1 O        0.4950    -0.2090    -1.0300 O.2   1 <1>  -0.5700 
  2 C        0.0890    -1.2060    -0.4730 C.2   1 <1>   0.5440 
  3 N       -1.2310    -1.2120    -0.1660 N.am  1 <1>  -0.8000 
  4 C        0.9740    -2.2920    -0.1270 C.ar  1 <1>   0.0860 
  5 C        0.6130    -3.6430    -0.2880 C.ar  1 <1>   0.4100 
  6 C        2.2340    -2.0230     0.3820 C.ar  1 <1>  -0.1500 
  7 N        1.3940    -4.6620     0.0680 N.ar  1 <1>  -0.6200 
  8 N       -0.6000    -3.9980    -0.8490 N.pl3 1 <1>  -0.8690 
  9 C        3.0540    -3.0730     0.7340 C.ar  1 <1>  -0.1430 
 10 C        2.5800    -4.3690     0.5630 C.ar  1 <1>   0.1670 
 11 C       -0.8650    -5.3370    -1.4190 C.3   1 <1>   0.2090 
 12 C        4.4400    -2.7740     1.2920 C.3   1 <1>  -0.0970 
 13 C        3.4370    -5.5630     0.9450 C.3   1 <1>  -0.0970 
 14 C       -1.4200    -6.2570    -0.3220 C.3   1 <1>  -0.0800 
 15 C       -1.2500    -7.7270    -0.7370 C.3   1 <1>   0.3430 
 16 C       -2.8780    -5.9200     0.0440 C.3   1 <1>  -0.1600 
 17 N       -2.2820    -8.6220    -0.1180 N.4   1 <1>  -0.9590 
 18 C       -3.3850    -6.8370     1.1740 C.3   1 <1>  -0.1600 
 19 C       -2.6600    -8.1870     1.2560 C.3   1 <1>   0.3430 
 20 C       -1.8770   -10.0550    -0.1530 C.3   1 <1>   0.5230 
 21 C       -3.1200   -10.9250    -0.2070 C.2   1 <1>  -0.0400 
 22 O       -3.9810   -10.8880     0.7940 O.3   1 <1>  -0.2800 
 23 C       -3.5410   -11.7900    -1.1560 C.2   1 <1>  -0.1500 
 24 C       -4.9600   -11.7240     0.5110 C.2   1 <1>  -0.0100 
 25 C       -4.7500   -12.3140    -0.6840 C.2   1 <1>  -0.1500 
 26 H       -1.7690    -0.3600    -0.3320 H     1 <1>   0.3700 
 27 H       -1.6350    -1.8930     0.4780 H     1 <1>   0.3700 
 28 H        2.5520    -1.0000     0.4950 H     1 <1>   0.1500 
 29 H       -1.1060    -3.2300    -1.3080 H     1 <1>   0.4000 
 30 H        0.0560    -5.7350    -1.8130 H     1 <1>   0.0800 
 31 H       -1.5640    -5.2500    -2.2340 H     1 <1>   0.0800 
 32 H        4.6580    -1.7220     1.2400 H     1 <1>   0.0800 
 33 H        5.1900    -3.2970     0.7260 H     1 <1>   0.0800 
 34 H        4.4980    -3.0800     2.3210 H     1 <1>   0.0800 
 35 H        2.8550    -6.4660     0.9260 H     1 <1>   0.0800 
 36 H        3.8330    -5.4390     1.9360 H     1 <1>   0.0800 
 37 H        4.2480    -5.6640     0.2470 H     1 <1>   0.0800 
 38 H       -0.8110    -6.1130     0.5540 H     1 <1>   0.0800 
 39 H       -0.2610    -8.0450    -0.4480 H     1 <1>   0.0800 
 40 H       -1.3210    -7.8040    -1.8100 H     1 <1>   0.0800 
 41 H       -3.5010    -6.0440    -0.8260 H     1 <1>   0.0800 
 42 H       -2.9560    -4.8910     0.3540 H     1 <1>   0.0800 
 43 H       -3.1460    -8.5620    -0.6710 H     1 <1>   0.4500 
 44 H       -4.4410    -7.0040     1.0540 H     1 <1>   0.0800 
 45 H       -3.2550    -6.3390     2.1200 H     1 <1>   0.0800 
 46 H       -1.7700    -8.0800     1.8560 H     1 <1>   0.0800 
 47 H       -3.3030    -8.9110     1.7310 H     1 <1>   0.0800 
 48 H       -1.2910   -10.3030     0.7170 H     1 <1>   0.0800 
 49 H       -1.2860   -10.2490    -1.0320 H     1 <1>   0.0800 
 50 H       -3.0840   -12.0600    -2.0940 H     1 <1>   0.1500 
 51 H       -5.7690   -11.8430     1.2130 H     1 <1>   0.1500 
 52 H       -5.3620   -13.0410    -1.1910 H     1 <1>   0.1500 
@<TRIPOS>BOND
  1   1   2  2   
  2   2   3  am  
  3   2   4  1   
  4   3  26  1   
  5   3  27  1   
  6   4   5  ar  
  7   4   6  ar  
  8   5   7  ar  
  9   5   8  1   
 10   6   9  ar  
 11   6  28  1   
 12   7  10  ar  
 13   8  11  1   
 14   8  29  1   
 15   9  10  ar  
 16   9  12  1   
 17  10  13  1   
 18  11  14  1   
 19  11  30  1   
 20  11  31  1   
 21  12  32  1   
 22  12  33  1   
 23  12  34  1   
 24  13  35  1   
 25  13  36  1   
 26  13  37  1   
 27  14  15  1   
 28  14  16  1   
 29  14  38  1   
 30  15  17  1   
 31  15  39  1   
 32  15  40  1   
 33  16  18  1   
 34  16  41  1   
 35  16  42  1   
 36  17  19  1   
 37  17  20  1   
 38  17  43  1   
 39  18  19  1   
 40  18  44  1   
 41  18  45  1   
 42  19  46  1   
 43  19  47  1   
 44  20  21  1   
 45  20  48  1   
 46  20  49  1   
 47  21  22  1   
 48  21  23  2   
 49  22  24  1   
 50  23  25  1   
 51  23  50  1   
 52  24  25  2   
 53  24  51  1   
 54  25  52  1   
@<TRIPOS>SUBSTRUCTURE
  1 ****  14 GROUP 4 **** **** 0

# MOE 2024.06 (io_trps.svl 2023.06)
