@<TRIPOS>MOLECULE
NONAME
49 50 1 0 0 
SMALL
USER_CHARGES


@<TRIPOS>ATOM
  1 S       -0.1890    -0.0500    -0.0210 S.o2  1 <1>   1.3330 
  2 O       -0.1630    -0.8490     1.1830 O.2   1 <1>  -0.6500 
  3 O       -0.8580     1.2310    -0.0110 O.2   1 <1>  -0.6500 
  4 N       -0.8680    -0.9960    -1.2560 N.am  1 <1>  -0.8490 
  5 C        1.4840     0.2150    -0.6110 C.3   1 <1>  -0.0550 
  6 C       -0.5930    -2.4300    -1.1090 C.3   1 <1>   0.1160 
  7 C       -2.3110    -0.7780    -1.3940 C.3   1 <1>   0.1160 
  8 C        2.3240     1.1330     0.3010 C.3   1 <1>  -0.0800 
  9 C        3.6380     1.5080    -0.3620 C.3   1 <1>   0.2200 
 10 C        2.8010     0.4080     1.5650 C.3   1 <1>   0.1200 
 11 N        4.1460     2.7620     0.2370 N.am  1 <1>  -0.7300 
 12 C        4.5370     0.3460     0.0440 C.3   1 <1>   0.1200 
 13 O        4.0800    -0.0850     1.2920 O.3   1 <1>  -0.5600 
 14 C        4.3260     3.9230    -0.4350 C.2   1 <1>   0.5690 
 15 O        4.0910     4.0220    -1.6140 O.2   1 <1>  -0.5700 
 16 C        4.8510     5.1270     0.3160 C.3   1 <1>  -0.0990 
 17 C        6.1950     5.6100    -0.2610 C.3   1 <1>  -0.0990 
 18 C        6.7760     6.8190     0.4670 C.2   1 <1>   0.4230 
 19 O        6.4130     7.0160     1.5980 O.2   1 <1>  -0.5700 
 20 C        7.7350     7.6770    -0.2040 C.ar  1 <1>   0.0860 
 21 C        8.0310     8.9390     0.3280 C.ar  1 <1>  -0.1500 
 22 C        8.4040     7.3040    -1.3800 C.ar  1 <1>  -0.1500 
 23 C        8.9350     9.7950    -0.2760 C.ar  1 <1>  -0.1500 
 24 C        9.3100     8.1470    -1.9980 C.ar  1 <1>  -0.1500 
 25 C        9.5600     9.3830    -1.4350 C.ar  1 <1>   0.1900 
 26 F       10.4120    10.1800    -2.0130 F     1 <1>  -0.1900 
 27 H        1.9780    -0.7300    -0.7240 H     1 <1>   0.0800 
 28 H        1.4190     0.6690    -1.5810 H     1 <1>   0.0800 
 29 H       -0.9640    -2.9670    -1.9650 H     1 <1>   0.0800 
 30 H       -1.0660    -2.8160    -0.2210 H     1 <1>   0.0800 
 31 H        0.4680    -2.5990    -1.0360 H     1 <1>   0.0800 
 32 H       -2.7060    -1.3800    -2.1940 H     1 <1>   0.0800 
 33 H       -2.5070     0.2560    -1.6260 H     1 <1>   0.0800 
 34 H       -2.8180    -1.0280    -0.4760 H     1 <1>   0.0800 
 35 H        1.7460     2.0090     0.5420 H     1 <1>   0.0800 
 36 H        3.5630     1.6070    -1.4320 H     1 <1>   0.0800 
 37 H        2.1710    -0.4130     1.8590 H     1 <1>   0.0800 
 38 H        2.8880     1.0960     2.3880 H     1 <1>   0.0800 
 39 H        4.3830     2.6940     1.2300 H     1 <1>   0.3700 
 40 H        5.5730     0.6280     0.1150 H     1 <1>   0.0800 
 41 H        4.4300    -0.4750    -0.6420 H     1 <1>   0.0800 
 42 H        4.1240     5.9160     0.2430 H     1 <1>   0.0800 
 43 H        4.9670     4.8800     1.3560 H     1 <1>   0.0800 
 44 H        6.0400     5.8630    -1.2950 H     1 <1>   0.0800 
 45 H        6.9090     4.8080    -0.2120 H     1 <1>   0.0800 
 46 H        7.5380     9.2510     1.2340 H     1 <1>   0.1500 
 47 H        8.2260     6.3410    -1.8240 H     1 <1>   0.1500 
 48 H        9.1530    10.7620     0.1400 H     1 <1>   0.1500 
 49 H        9.8190     7.8580    -2.9010 H     1 <1>   0.1500 
@<TRIPOS>BOND
  1   1   2  2   
  2   1   3  2   
  3   1   4  am  
  4   1   5  1   
  5   4   6  1   
  6   4   7  1   
  7   5   8  1   
  8   5  27  1   
  9   5  28  1   
 10   6  29  1   
 11   6  30  1   
 12   6  31  1   
 13   7  32  1   
 14   7  33  1   
 15   7  34  1   
 16   8   9  1   
 17   8  10  1   
 18   8  35  1   
 19   9  11  1   
 20   9  12  1   
 21   9  36  1   
 22  10  13  1   
 23  10  37  1   
 24  10  38  1   
 25  11  14  am  
 26  11  39  1   
 27  12  13  1   
 28  12  40  1   
 29  12  41  1   
 30  14  15  2   
 31  14  16  1   
 32  16  17  1   
 33  16  42  1   
 34  16  43  1   
 35  17  18  1   
 36  17  44  1   
 37  17  45  1   
 38  18  19  2   
 39  18  20  1   
 40  20  21  ar  
 41  20  22  ar  
 42  21  23  ar  
 43  21  46  1   
 44  22  24  ar  
 45  22  47  1   
 46  23  25  ar  
 47  23  48  1   
 48  24  25  ar  
 49  24  49  1   
 50  25  26  1   
@<TRIPOS>SUBSTRUCTURE
  1 ****  14 GROUP 4 **** **** 0

# MOE 2024.06 (io_trps.svl 2023.06)
