@<TRIPOS>MOLECULE
NONAME
62 64 1 0 0 
SMALL
USER_CHARGES


@<TRIPOS>ATOM
  1 O       -0.3180    -0.1380    -0.2660 O.2   1 <1>  -0.5700 
  2 C        0.4120    -1.0710    -0.0510 C.2   1 <1>   0.5690 
  3 N       -0.0360    -2.1990     0.5380 N.am  1 <1>  -0.7300 
  4 C        1.8780    -1.0110    -0.4200 C.3   1 <1>  -0.0990 
  5 C        0.8360    -3.3520     0.8410 C.3   1 <1>   0.1400 
  6 C        2.3320    -2.3420    -1.0520 C.3   1 <1>  -0.0800 
  7 C        1.7990    -3.6050    -0.3360 C.3   1 <1>  -0.0800 
  8 C        3.8570    -2.4910    -1.1010 C.3   1 <1>  -0.1600 
  9 C        3.0430    -4.4050     0.0710 C.3   1 <1>  -0.1600 
 10 C        4.1290    -3.9840    -0.9230 C.3   1 <1>   0.2200 
 11 N        5.5220    -4.2330    -0.4390 N.am  1 <1>  -0.6600 
 12 C        6.5760    -3.6770    -1.1390 C.2   1 <1>   0.5690 
 13 C        5.7160    -5.4720     0.3700 C.3   1 <1>   0.0600 
 14 O        6.4680    -3.5250    -2.3380 O.2   1 <1>  -0.5700 
 15 C        7.9100    -3.2330    -0.4490 C.3   1 <1>   0.3410 
 16 O        8.3450    -2.0280    -1.0950 O.3   1 <1>  -0.3630 
 17 C        7.7520    -3.0020     1.0750 C.3   1 <1>  -0.2400 
 18 C        9.0180    -4.2670    -0.7050 C.3   1 <1>  -0.2400 
 19 C        8.8420    -0.9510    -0.4390 C.ar  1 <1>   0.0820 
 20 C        8.0480     0.1760    -0.2250 C.ar  1 <1>  -0.1430 
 21 C       10.1630    -0.9760    -0.0150 C.ar  1 <1>  -0.1500 
 22 C        8.6070     1.2530     0.4510 C.ar  1 <1>  -0.1500 
 23 C        6.6030     0.2520    -0.7310 C.3   1 <1>   0.0630 
 24 C       10.7060     0.1030     0.6600 C.ar  1 <1>  -0.1430 
 25 C        9.9180     1.2160     0.8940 C.ar  1 <1>  -0.1500 
 26 C        6.4820     1.2940    -1.8460 C.3   1 <1>  -0.2400 
 27 C        5.6210     0.5650     0.4050 C.3   1 <1>  -0.2400 
 28 C       12.1460     0.0750     1.1370 C.3   1 <1>  -0.0970 
 29 H       -1.0180    -2.2280     0.8200 H     1 <1>   0.3700 
 30 H        2.0460    -0.2000    -1.1040 H     1 <1>   0.0800 
 31 H        2.4290    -0.8140     0.4800 H     1 <1>   0.0800 
 32 H        1.3900    -3.1280     1.7370 H     1 <1>   0.0800 
 33 H        0.2360    -4.2280     1.0220 H     1 <1>   0.0800 
 34 H        1.9580    -2.3670    -2.0620 H     1 <1>   0.0800 
 35 H        1.2640    -4.1840    -1.0700 H     1 <1>   0.0800 
 36 H        4.3060    -1.9600    -0.2810 H     1 <1>   0.0800 
 37 H        4.2540    -2.1210    -2.0300 H     1 <1>   0.0800 
 38 H        2.8530    -5.4620     0.0340 H     1 <1>   0.0800 
 39 H        3.3450    -4.1170     1.0630 H     1 <1>   0.0800 
 40 H        3.9790    -4.4900    -1.8630 H     1 <1>   0.0800 
 41 H        5.4080    -5.2990     1.3860 H     1 <1>   0.0800 
 42 H        6.7460    -5.7760     0.3660 H     1 <1>   0.0800 
 43 H        5.1340    -6.2760    -0.0460 H     1 <1>   0.0800 
 44 H        7.4840    -3.9110     1.5750 H     1 <1>   0.0800 
 45 H        6.9810    -2.2780     1.2590 H     1 <1>   0.0800 
 46 H        8.6710    -2.6660     1.5190 H     1 <1>   0.0800 
 47 H        8.7480    -5.2230    -0.3030 H     1 <1>   0.0800 
 48 H        9.9390    -3.9600    -0.2470 H     1 <1>   0.0800 
 49 H        9.1680    -4.3780    -1.7650 H     1 <1>   0.0800 
 50 H       10.7620    -1.8400    -0.2220 H     1 <1>   0.1500 
 51 H        8.0250     2.1380     0.6320 H     1 <1>   0.1500 
 52 H        6.3180    -0.6950    -1.1520 H     1 <1>   0.0800 
 53 H       10.3230     2.0630     1.4190 H     1 <1>   0.1500 
 54 H        6.7170     2.2770    -1.4800 H     1 <1>   0.0800 
 55 H        5.4840     1.2990    -2.2460 H     1 <1>   0.0800 
 56 H        7.1660     1.0510    -2.6400 H     1 <1>   0.0800 
 57 H        5.8080     1.5380     0.8210 H     1 <1>   0.0800 
 58 H        5.7180    -0.1670     1.1860 H     1 <1>   0.0800 
 59 H        4.6120     0.5440     0.0360 H     1 <1>   0.0800 
 60 H       12.6170     1.0230     0.9490 H     1 <1>   0.0800 
 61 H       12.7030    -0.6880     0.6230 H     1 <1>   0.0800 
 62 H       12.1760    -0.1260     2.1930 H     1 <1>   0.0800 
@<TRIPOS>BOND
  1   1   2  2   
  2   2   3  am  
  3   2   4  1   
  4   3   5  1   
  5   3  29  1   
  6   4   6  1   
  7   4  30  1   
  8   4  31  1   
  9   5   7  1   
 10   5  32  1   
 11   5  33  1   
 12   6   7  1   
 13   6   8  1   
 14   6  34  1   
 15   7   9  1   
 16   7  35  1   
 17   8  10  1   
 18   8  36  1   
 19   8  37  1   
 20   9  10  1   
 21   9  38  1   
 22   9  39  1   
 23  10  11  1   
 24  10  40  1   
 25  11  12  am  
 26  11  13  1   
 27  12  14  2   
 28  12  15  1   
 29  13  41  1   
 30  13  42  1   
 31  13  43  1   
 32  15  16  1   
 33  15  17  1   
 34  15  18  1   
 35  16  19  1   
 36  17  44  1   
 37  17  45  1   
 38  17  46  1   
 39  18  47  1   
 40  18  48  1   
 41  18  49  1   
 42  19  20  ar  
 43  19  21  ar  
 44  20  22  ar  
 45  20  23  1   
 46  21  24  ar  
 47  21  50  1   
 48  22  25  ar  
 49  22  51  1   
 50  23  26  1   
 51  23  27  1   
 52  23  52  1   
 53  24  25  ar  
 54  24  28  1   
 55  25  53  1   
 56  26  54  1   
 57  26  55  1   
 58  26  56  1   
 59  27  57  1   
 60  27  58  1   
 61  27  59  1   
 62  28  60  1   
 63  28  61  1   
 64  28  62  1   
@<TRIPOS>SUBSTRUCTURE
  1 ****  12 GROUP 4 **** **** 0

# MOE 2024.06 (io_trps.svl 2023.06)
