@<TRIPOS>MOLECULE
NONAME
52 54 1 0 0 
SMALL
USER_CHARGES


@<TRIPOS>ATOM
  1 F        2.4660     1.4100     2.2080 F     1 <1>  -0.3400 
  2 C        1.4460     2.2500     2.3070 C.3   1 <1>   0.7800 
  3 F        0.3970     1.5500     1.9010 F     1 <1>  -0.3400 
  4 C        1.6660     3.4040     1.3530 C.2   1 <1>  -0.3320 
  5 N        1.8190     3.2030     0.0360 N.pl3 1 <1>   0.3000 
  6 C        1.7470     4.7350     1.5540 C.2   1 <1>  -0.1500 
  7 N        2.0030     4.3570    -0.6260 N.2   1 <1>  -0.7070 
  8 C        1.9560     5.3100     0.2920 C.2   1 <1>   0.2030 
  9 C        2.0790     6.7540     0.0900 C.2   1 <1>   0.7160 
 10 O        1.9690     7.5090     1.0410 O.2   1 <1>  -0.5700 
 11 N        2.3450     7.3530    -1.1340 N.am  1 <1>  -0.6600 
 12 C        3.0880     6.6650    -2.2390 C.3   1 <1>   0.1400 
 13 C        1.7430     8.6770    -1.4570 C.3   1 <1>   0.1400 
 14 C        4.2010     7.5450    -2.8380 C.3   1 <1>   0.3430 
 15 C        2.7170     9.8140    -1.1250 C.3   1 <1>  -0.1600 
 16 N        4.7150     8.5260    -1.8260 N.4   1 <1>  -0.9590 
 17 C        4.0050     9.8290    -1.9490 C.3   1 <1>   0.3430 
 18 C        6.1980     8.6470    -1.8550 C.3   1 <1>   0.3430 
 19 C        6.6990     9.2640    -0.5510 C.3   1 <1>  -0.1600 
 20 C        8.2260     9.3140    -0.5250 C.3   1 <1>   0.1200 
 21 O        8.6000     9.9310     0.6800 O.3   1 <1>  -0.3630 
 22 C        9.9040    10.1260     1.0000 C.ar  1 <1>   0.0820 
 23 C       10.1620    10.7430     2.2140 C.ar  1 <1>  -0.1500 
 24 C       10.9690     9.7460     0.1860 C.ar  1 <1>  -0.1500 
 25 C       11.4630    10.9810     2.6190 C.ar  1 <1>  -0.1500 
 26 C       12.2710     9.9850     0.5930 C.ar  1 <1>  -0.1500 
 27 C       12.5190    10.6020     1.8070 C.ar  1 <1>  -0.1500 
 28 H        1.3110     2.5200     3.3390 H     1 <1>   0.0800 
 29 H        1.7960     2.2840    -0.4290 H     1 <1>   0.2700 
 30 H        1.6690     5.2920     2.4730 H     1 <1>   0.1500 
 31 H        2.3990     6.3580    -3.0080 H     1 <1>   0.0800 
 32 H        3.5630     5.7790    -1.8610 H     1 <1>   0.0800 
 33 H        0.8450     8.8060    -0.8720 H     1 <1>   0.0800 
 34 H        1.4570     8.7090    -2.4950 H     1 <1>   0.0800 
 35 H        3.8160     8.0710    -3.6960 H     1 <1>   0.0800 
 36 H        4.9950     6.9030    -3.1800 H     1 <1>   0.0800 
 37 H        2.9580     9.7820    -0.0760 H     1 <1>   0.0800 
 38 H        2.2080    10.7460    -1.2920 H     1 <1>   0.0800 
 39 H        4.4240     8.1440    -0.9090 H     1 <1>   0.4500 
 40 H        4.6300    10.6280    -1.5840 H     1 <1>   0.0800 
 41 H        3.7800    10.0320    -2.9830 H     1 <1>   0.0800 
 42 H        6.5050     9.2490    -2.6950 H     1 <1>   0.0800 
 43 H        6.6360     7.6670    -1.9620 H     1 <1>   0.0800 
 44 H        6.3640     8.6720     0.2830 H     1 <1>   0.0800 
 45 H        6.3310    10.2690    -0.4460 H     1 <1>   0.0800 
 46 H        8.6130     9.9050    -1.3380 H     1 <1>   0.0800 
 47 H        8.6510     8.3240    -0.5420 H     1 <1>   0.0800 
 48 H        9.3380    11.0350     2.8400 H     1 <1>   0.1500 
 49 H       10.8120     9.2660    -0.7600 H     1 <1>   0.1500 
 50 H       11.6540    11.4610     3.5630 H     1 <1>   0.1500 
 51 H       13.0940     9.6920    -0.0350 H     1 <1>   0.1500 
 52 H       13.5310    10.7870     2.1210 H     1 <1>   0.1500 
@<TRIPOS>BOND
  1   1   2  1   
  2   2   3  1   
  3   2   4  1   
  4   2  28  1   
  5   4   5  1   
  6   4   6  2   
  7   5   7  1   
  8   5  29  1   
  9   6   8  1   
 10   6  30  1   
 11   7   8  2   
 12   8   9  1   
 13   9  10  2   
 14   9  11  am  
 15  11  12  1   
 16  11  13  1   
 17  12  14  1   
 18  12  31  1   
 19  12  32  1   
 20  13  15  1   
 21  13  33  1   
 22  13  34  1   
 23  14  16  1   
 24  14  35  1   
 25  14  36  1   
 26  15  17  1   
 27  15  37  1   
 28  15  38  1   
 29  16  17  1   
 30  16  18  1   
 31  16  39  1   
 32  17  40  1   
 33  17  41  1   
 34  18  19  1   
 35  18  42  1   
 36  18  43  1   
 37  19  20  1   
 38  19  44  1   
 39  19  45  1   
 40  20  21  1   
 41  20  46  1   
 42  20  47  1   
 43  21  22  1   
 44  22  23  ar  
 45  22  24  ar  
 46  23  25  ar  
 47  23  48  1   
 48  24  26  ar  
 49  24  49  1   
 50  25  27  ar  
 51  25  50  1   
 52  26  27  ar  
 53  26  51  1   
 54  27  52  1   
@<TRIPOS>SUBSTRUCTURE
  1 ****  16 GROUP 4 **** **** 0

# MOE 2024.06 (io_trps.svl 2023.06)
