@<TRIPOS>MOLECULE
NONAME
46 49 1 0 0 
SMALL
USER_CHARGES


@<TRIPOS>ATOM
  1 O        1.2710     0.4010     1.4390 O.2   1 <1>  -0.5700 
  2 C        2.3760     0.1800     0.9950 C.2   1 <1>   0.7800 
  3 O        2.9920    -0.9790     1.1860 O.3   1 <1>  -0.4300 
  4 N        3.1490     1.0510     0.3140 N.am  1 <1>  -0.6600 
  5 C        4.2780    -0.9620     0.5930 C.3   1 <1>   0.1200 
  6 C        4.4990     0.4940     0.1590 C.3   1 <1>   0.2200 
  7 C        2.9770     2.5260     0.2520 C.3   1 <1>   0.1400 
  8 C        5.5030     1.2390     1.0670 C.3   1 <1>   0.2090 
  9 C        4.0120     3.2440     1.1400 C.3   1 <1>   0.2090 
 10 N        5.4010     2.7260     0.9070 N.pl3 1 <1>  -0.8380 
 11 C        6.1850     3.3670    -0.0360 C.ar  1 <1>   0.4100 
 12 N        6.5930     2.6520    -1.0790 N.ar  1 <1>  -0.6200 
 13 C        6.5050     4.7070     0.1340 C.ar  1 <1>  -0.1500 
 14 C        7.3160     3.2990    -1.9760 C.ar  1 <1>   0.1600 
 15 C        7.2680     5.3840    -0.7950 C.ar  1 <1>   0.0860 
 16 C        7.6720     4.6300    -1.8880 C.ar  1 <1>  -0.1500 
 17 C        7.6060     6.7840    -0.6380 C.2   1 <1>   0.5440 
 18 O        6.7010     7.5870    -0.5100 O.2   1 <1>  -0.5700 
 19 N        8.9140     7.2250    -0.6210 N.am  1 <1>  -0.6600 
 20 C        9.2490     8.6770    -0.6090 C.3   1 <1>   0.1400 
 21 C       10.0850     6.3310    -0.3990 C.3   1 <1>   0.1400 
 22 C        9.9030     9.0430     0.7270 C.3   1 <1>  -0.1600 
 23 C       10.7500     6.6760     0.9380 C.3   1 <1>  -0.1600 
 24 C       11.1260     8.1630     1.0190 C.3   1 <1>  -0.1600 
 25 H        4.2640    -1.6190    -0.2590 H     1 <1>   0.0800 
 26 H        5.0040    -1.3020     1.3100 H     1 <1>   0.0800 
 27 H        4.8190     0.5490    -0.8670 H     1 <1>   0.0800 
 28 H        1.9830     2.7900     0.5670 H     1 <1>   0.0800 
 29 H        3.1040     2.8480    -0.7660 H     1 <1>   0.0800 
 30 H        6.5040     0.9140     0.8420 H     1 <1>   0.0800 
 31 H        5.3060     0.9920     2.0960 H     1 <1>   0.0800 
 32 H        3.7520     3.0950     2.1730 H     1 <1>   0.0800 
 33 H        3.9690     4.3010     0.9420 H     1 <1>   0.0800 
 34 H        6.1530     5.2240     1.0060 H     1 <1>   0.1500 
 35 H        7.6430     2.7340    -2.8320 H     1 <1>   0.1500 
 36 H        8.2580     5.0900    -2.6620 H     1 <1>   0.1500 
 37 H        8.3660     9.2750    -0.7560 H     1 <1>   0.0800 
 38 H        9.9270     8.8860    -1.4180 H     1 <1>   0.0800 
 39 H       10.7880     6.4690    -1.2020 H     1 <1>   0.0800 
 40 H        9.7900     5.2970    -0.3850 H     1 <1>   0.0800 
 41 H        9.1730     8.9250     1.5100 H     1 <1>   0.0800 
 42 H       10.1970    10.0770     0.7070 H     1 <1>   0.0800 
 43 H       11.6310     6.0730     1.0650 H     1 <1>   0.0800 
 44 H       10.0690     6.4320     1.7360 H     1 <1>   0.0800 
 45 H       11.5120     8.3880     1.9980 H     1 <1>   0.0800 
 46 H       11.8980     8.3750     0.2990 H     1 <1>   0.0800 
@<TRIPOS>BOND
  1   1   2  2   
  2   2   3  1   
  3   2   4  am  
  4   3   5  1   
  5   4   6  1   
  6   4   7  1   
  7   5   6  1   
  8   5  25  1   
  9   5  26  1   
 10   6   8  1   
 11   6  27  1   
 12   7   9  1   
 13   7  28  1   
 14   7  29  1   
 15   8  10  1   
 16   8  30  1   
 17   8  31  1   
 18   9  10  1   
 19   9  32  1   
 20   9  33  1   
 21  10  11  1   
 22  11  12  ar  
 23  11  13  ar  
 24  12  14  ar  
 25  13  15  ar  
 26  13  34  1   
 27  14  16  ar  
 28  14  35  1   
 29  15  16  ar  
 30  15  17  1   
 31  16  36  1   
 32  17  18  2   
 33  17  19  am  
 34  19  20  1   
 35  19  21  1   
 36  20  22  1   
 37  20  37  1   
 38  20  38  1   
 39  21  23  1   
 40  21  39  1   
 41  21  40  1   
 42  22  24  1   
 43  22  41  1   
 44  22  42  1   
 45  23  24  1   
 46  23  43  1   
 47  23  44  1   
 48  24  45  1   
 49  24  46  1   
@<TRIPOS>SUBSTRUCTURE
  1 ****  11 GROUP 4 **** **** 0

# MOE 2024.06 (io_trps.svl 2023.06)
