@<TRIPOS>MOLECULE
NONAME
55 57 1 0 0 
SMALL
USER_CHARGES


@<TRIPOS>ATOM
  1 F       -0.4210     0.7300    -0.7360 F     1 <1>  -0.1900 
  2 C       -1.7160     0.9100    -0.6870 C.ar  1 <1>   0.1900 
  3 C       -2.2840     2.0870    -0.1870 C.ar  1 <1>   0.0830 
  4 C       -2.4980    -0.1270    -1.1600 C.ar  1 <1>  -0.1500 
  5 O       -1.6230     3.1750     0.3040 O.3   1 <1>  -0.3630 
  6 C       -3.6660     2.1800    -0.1810 C.ar  1 <1>  -0.1500 
  7 C       -3.8740     0.0000    -1.1400 C.ar  1 <1>  -0.1500 
  8 C       -0.2180     3.2370     0.4100 C.3   1 <1>   0.0400 
  9 C       -4.4880     1.1520    -0.6450 C.ar  1 <1>   0.0530 
 10 C       -5.9210     1.3030    -0.6250 C.2   1 <1>   0.0870 
 11 O       -6.4480     2.4140    -1.0720 O.3   1 <1>  -0.0190 
 12 C       -6.9510     0.5110    -0.2120 C.2   1 <1>  -0.0860 
 13 N       -7.7510     2.4260    -1.0050 N.2   1 <1>  -0.4100 
 14 C       -8.0810     1.2930    -0.4940 C.2   1 <1>   0.3720 
 15 C       -6.9550    -0.7870     0.3940 C.2   1 <1>   0.7160 
 16 N       -9.4190     0.9170    -0.2820 N.pl3 1 <1>  -0.8210 
 17 O       -5.9580    -1.4820     0.4350 O.2   1 <1>  -0.5700 
 18 N       -8.1030    -1.2780     0.9360 N.am  1 <1>  -0.7300 
 19 C      -10.2740     2.0110     0.2650 C.3   1 <1>   0.1290 
 20 C      -10.0350     0.3030    -1.4900 C.3   1 <1>   0.1290 
 21 C       -8.3370    -2.6290     1.4740 C.3   1 <1>   0.1400 
 22 C       -9.4670    -3.2740     0.6770 C.3   1 <1>  -0.1600 
 23 C       -9.7440    -4.7050     1.1470 C.3   1 <1>   0.0210 
 24 C      -10.8720    -5.3080     0.3280 C.2   1 <1>  -0.1810 
 25 C      -10.8160    -6.0590    -0.7840 C.2   1 <1>  -0.0400 
 26 C      -12.2440    -5.1930     0.5640 C.2   1 <1>   0.1080 
 27 O      -12.0390    -6.3410    -1.1430 O.3   1 <1>  -0.0190 
 28 C       -9.6620    -6.5780    -1.6160 C.3   1 <1>  -0.0600 
 29 N      -12.9150    -5.8200    -0.3340 N.2   1 <1>  -0.4100 
 30 C      -12.8890    -4.4470     1.7120 C.3   1 <1>  -0.0590 
 31 H       -2.0340    -1.0200    -1.5380 H     1 <1>   0.1500 
 32 H       -4.1180     3.0800     0.1990 H     1 <1>   0.1500 
 33 H       -4.4840    -0.8050    -1.5110 H     1 <1>   0.1500 
 34 H        0.0430     4.1850     0.8450 H     1 <1>   0.0800 
 35 H        0.2120     3.1580    -0.5720 H     1 <1>   0.0800 
 36 H        0.1210     2.4390     1.0470 H     1 <1>   0.0800 
 37 H       -8.9250    -0.6670     0.8120 H     1 <1>   0.3700 
 38 H       -9.7730     2.4870     1.0900 H     1 <1>   0.0800 
 39 H      -11.2090     1.6090     0.6130 H     1 <1>   0.0800 
 40 H      -10.4650     2.7500    -0.4950 H     1 <1>   0.0800 
 41 H       -9.4160    -0.5010    -1.8490 H     1 <1>   0.0800 
 42 H      -10.1320     1.0400    -2.2700 H     1 <1>   0.0800 
 43 H      -11.0080    -0.0900    -1.2510 H     1 <1>   0.0800 
 44 H       -8.6040    -2.5540     2.5150 H     1 <1>   0.0800 
 45 H       -7.4380    -3.2180     1.3930 H     1 <1>   0.0800 
 46 H       -9.1960    -3.2990    -0.3640 H     1 <1>   0.0800 
 47 H      -10.3610    -2.6860     0.7830 H     1 <1>   0.0800 
 48 H      -10.0090    -4.7140     2.1890 H     1 <1>   0.0800 
 49 H       -8.8580    -5.3040     1.0270 H     1 <1>   0.0800 
 50 H       -8.7240    -6.2450    -1.2140 H     1 <1>   0.0800 
 51 H       -9.7550    -6.2190    -2.6250 H     1 <1>   0.0800 
 52 H       -9.6780    -7.6520    -1.6260 H     1 <1>   0.0800 
 53 H      -12.6150    -3.4090     1.6760 H     1 <1>   0.0800 
 54 H      -12.5710    -4.8700     2.6460 H     1 <1>   0.0800 
 55 H      -13.9590    -4.5250     1.6430 H     1 <1>   0.0800 
@<TRIPOS>BOND
  1   1   2  1   
  2   2   3  ar  
  3   2   4  ar  
  4   3   5  1   
  5   3   6  ar  
  6   4   7  ar  
  7   4  31  1   
  8   5   8  1   
  9   6   9  ar  
 10   6  32  1   
 11   7   9  ar  
 12   7  33  1   
 13   8  34  1   
 14   8  35  1   
 15   8  36  1   
 16   9  10  1   
 17  10  11  1   
 18  10  12  2   
 19  11  13  1   
 20  12  14  1   
 21  12  15  1   
 22  13  14  2   
 23  14  16  1   
 24  15  17  2   
 25  15  18  am  
 26  16  19  1   
 27  16  20  1   
 28  18  21  1   
 29  18  37  1   
 30  19  38  1   
 31  19  39  1   
 32  19  40  1   
 33  20  41  1   
 34  20  42  1   
 35  20  43  1   
 36  21  22  1   
 37  21  44  1   
 38  21  45  1   
 39  22  23  1   
 40  22  46  1   
 41  22  47  1   
 42  23  24  1   
 43  23  48  1   
 44  23  49  1   
 45  24  25  2   
 46  24  26  1   
 47  25  27  1   
 48  25  28  1   
 49  26  29  2   
 50  26  30  1   
 51  27  29  1   
 52  28  50  1   
 53  28  51  1   
 54  28  52  1   
 55  30  53  1   
 56  30  54  1   
 57  30  55  1   
@<TRIPOS>SUBSTRUCTURE
  1 ****  15 GROUP 4 **** **** 0

# MOE 2024.06 (io_trps.svl 2023.06)
