@<TRIPOS>MOLECULE
NONAME
34 34 1 0 0 
SMALL
USER_CHARGES


@<TRIPOS>ATOM
  1 O       -0.8030     0.1160    -1.3230 O.3   1 <1>  -0.5120 
  2 C       -1.9780    -0.3940    -0.9260 C.2   1 <1>   0.3510 
  3 N       -2.2780    -1.6170    -1.1650 N.2   1 <1>  -0.7070 
  4 C       -2.9650     0.3150    -0.2390 C.2   1 <1>  -0.0860 
  5 N       -3.5320    -1.8040    -0.6300 N.pl3 1 <1>   0.5610 
  6 C       -2.9180     1.6910     0.1670 C.2   1 <1>   0.8060 
  7 C       -3.9340    -0.6270    -0.0730 C.2   1 <1>  -0.3020 
  8 C       -4.2840    -3.0250    -0.6540 C.2   1 <1>   0.7290 
  9 O       -3.8220     2.2370     0.7640 O.2   1 <1>  -0.5700 
 10 O       -1.8180     2.3910    -0.1360 O.3   1 <1>  -0.4300 
 11 O       -3.8870    -4.0550    -1.1620 O.2   1 <1>  -0.5700 
 12 O       -5.4920    -2.9840    -0.0700 O.3   1 <1>  -0.4300 
 13 C       -1.6870     3.7480     0.2250 C.3   1 <1>   0.1200 
 14 C       -6.4370    -4.0260     0.0520 C.3   1 <1>   0.2800 
 15 C       -0.3280     4.2370    -0.2660 C.3   1 <1>  -0.2400 
 16 C       -6.9000    -4.4840    -1.3350 C.3   1 <1>  -0.2400 
 17 C       -7.6180    -3.4100     0.8020 C.3   1 <1>  -0.2400 
 18 C       -5.8520    -5.1740     0.8830 C.3   1 <1>  -0.2400 
 19 H       -0.7260     1.0540    -1.0670 H     1 <1>   0.4500 
 20 H       -4.8880    -0.5140     0.4120 H     1 <1>   0.1500 
 21 H       -1.7630     3.8280     1.2970 H     1 <1>   0.0800 
 22 H       -2.4870     4.3050    -0.2350 H     1 <1>   0.0800 
 23 H        0.4620     3.6720     0.1960 H     1 <1>   0.0800 
 24 H       -0.2020     5.2720    -0.0030 H     1 <1>   0.0800 
 25 H       -0.2620     4.1480    -1.3350 H     1 <1>   0.0800 
 26 H       -7.2400    -3.6450    -1.9150 H     1 <1>   0.0800 
 27 H       -7.7130    -5.1810    -1.2370 H     1 <1>   0.0800 
 28 H       -6.1110    -4.9840    -1.8650 H     1 <1>   0.0800 
 29 H       -8.0270    -2.5860     0.2450 H     1 <1>   0.0800 
 30 H       -7.3060    -3.0600     1.7700 H     1 <1>   0.0800 
 31 H       -8.3940    -4.1400     0.9410 H     1 <1>   0.0800 
 32 H       -5.0610    -5.6750     0.3550 H     1 <1>   0.0800 
 33 H       -6.6150    -5.9030     1.0870 H     1 <1>   0.0800 
 34 H       -5.4750    -4.8070     1.8200 H     1 <1>   0.0800 
@<TRIPOS>BOND
  1   1   2  1   
  2   1  19  1   
  3   2   3  2   
  4   2   4  1   
  5   3   5  1   
  6   4   6  1   
  7   4   7  2   
  8   5   7  1   
  9   5   8  1   
 10   6   9  2   
 11   6  10  1   
 12   7  20  1   
 13   8  11  2   
 14   8  12  1   
 15  10  13  1   
 16  12  14  1   
 17  13  15  1   
 18  13  21  1   
 19  13  22  1   
 20  14  16  1   
 21  14  17  1   
 22  14  18  1   
 23  15  23  1   
 24  15  24  1   
 25  15  25  1   
 26  16  26  1   
 27  16  27  1   
 28  16  28  1   
 29  17  29  1   
 30  17  30  1   
 31  17  31  1   
 32  18  32  1   
 33  18  33  1   
 34  18  34  1   
@<TRIPOS>SUBSTRUCTURE
  1 ****   7 GROUP 4 **** **** 0

# MOE 2024.06 (io_trps.svl 2023.06)
