@<TRIPOS>MOLECULE
NONAME
40 42 1 0 0 
SMALL
USER_CHARGES


@<TRIPOS>ATOM
  1 O        0.3280    -0.1440    -0.6280 O.3   1 <1>  -0.6800 
  2 C        1.6690    -0.2840    -0.9570 C.3   1 <1>   0.2000 
  3 C        2.2840    -1.4660    -0.2160 C.3   1 <1>  -0.0800 
  4 C        2.4800     0.9200    -0.4840 C.3   1 <1>   0.2090 
  5 C        3.7710    -1.1120    -0.1530 C.3   1 <1>   0.2090 
  6 C        2.0040    -2.8240    -0.8830 C.3   1 <1>  -0.0170 
  7 N        3.8390     0.3800    -0.1730 N.pl3 1 <1>  -0.8380 
  8 C        2.7280    -3.9590    -0.1750 C.ar  1 <1>   0.1660 
  9 C        4.9950     1.1020    -0.1530 C.ar  1 <1>   0.1000 
 10 N        3.9810    -4.1780    -0.5460 N.ar  1 <1>  -0.6200 
 11 C        2.0660    -4.6920     0.7990 C.ar  1 <1>  -0.1500 
 12 C        5.1330     2.3510     0.4910 C.ar  1 <1>  -0.1430 
 13 C        6.1360     0.5950    -0.7950 C.ar  1 <1>  -0.1500 
 14 C        4.5950    -5.1740     0.0750 C.ar  1 <1>   0.1600 
 15 C        2.7200    -5.7220     1.4390 C.ar  1 <1>  -0.1500 
 16 C        6.3340     3.0180     0.4420 C.ar  1 <1>   0.2110 
 17 C        3.9890     2.9780     1.2840 C.3   1 <1>  -0.0970 
 18 C        7.3130     1.2900    -0.8150 C.ar  1 <1>   0.2110 
 19 C        4.0220    -5.9620     1.0580 C.ar  1 <1>  -0.1500 
 20 N        7.4030     2.4940    -0.2050 N.ar  1 <1>  -0.1790 
 21 H       -0.1930    -0.8950    -0.9710 H     1 <1>   0.4000 
 22 H        1.7610    -0.3890    -2.0240 H     1 <1>   0.0800 
 23 H        1.9190    -1.4790     0.7970 H     1 <1>   0.0800 
 24 H        2.0350     1.3120     0.4130 H     1 <1>   0.0800 
 25 H        2.5320     1.6780    -1.2440 H     1 <1>   0.0800 
 26 H        4.2720    -1.5100    -1.0180 H     1 <1>   0.0800 
 27 H        4.2290    -1.5070     0.7380 H     1 <1>   0.0800 
 28 H        2.3210    -2.8020    -1.9110 H     1 <1>   0.0800 
 29 H        0.9470    -3.0160    -0.8740 H     1 <1>   0.0800 
 30 H        1.0490    -4.4610     1.0580 H     1 <1>   0.1500 
 31 H        6.0770    -0.3550    -1.2910 H     1 <1>   0.1500 
 32 H        5.6120    -5.3740    -0.2150 H     1 <1>   0.1500 
 33 H        2.2370    -6.3110     2.2000 H     1 <1>   0.1500 
 34 H        6.4530     3.9740     0.9260 H     1 <1>   0.1500 
 35 H        3.5370     2.2380     1.9210 H     1 <1>   0.0800 
 36 H        3.2420     3.3690     0.6160 H     1 <1>   0.0800 
 37 H        4.3340     3.7810     1.9090 H     1 <1>   0.0800 
 38 H        8.1820     0.8920    -1.3150 H     1 <1>   0.1500 
 39 H        4.5890    -6.7520     1.5150 H     1 <1>   0.1500 
 40 H        8.2880     3.0110    -0.2250 H     1 <1>   0.4570 
@<TRIPOS>BOND
  1   1   2  1   
  2   1  21  1   
  3   2   3  1   
  4   2   4  1   
  5   2  22  1   
  6   3   5  1   
  7   3   6  1   
  8   3  23  1   
  9   4   7  1   
 10   4  24  1   
 11   4  25  1   
 12   5   7  1   
 13   5  26  1   
 14   5  27  1   
 15   6   8  1   
 16   6  28  1   
 17   6  29  1   
 18   7   9  1   
 19   8  10  ar  
 20   8  11  ar  
 21   9  12  ar  
 22   9  13  ar  
 23  10  14  ar  
 24  11  15  ar  
 25  11  30  1   
 26  12  16  ar  
 27  12  17  1   
 28  13  18  ar  
 29  13  31  1   
 30  14  19  ar  
 31  14  32  1   
 32  15  19  ar  
 33  15  33  1   
 34  16  20  ar  
 35  16  34  1   
 36  17  35  1   
 37  17  36  1   
 38  17  37  1   
 39  18  20  ar  
 40  18  38  1   
 41  19  39  1   
 42  20  40  1   
@<TRIPOS>SUBSTRUCTURE
  1 ****   5 GROUP 4 **** **** 0

# MOE 2024.06 (io_trps.svl 2023.06)
