@<TRIPOS>MOLECULE
NONAME
48 50 1 0 0 
SMALL
USER_CHARGES


@<TRIPOS>ATOM
  1 O        0.8770    -0.3080     0.8260 O.2   1 <1>  -0.5700 
  2 C        1.8820    -0.9430     0.5740 C.2   1 <1>   0.5440 
  3 N        3.1030    -0.3000     0.6040 N.am  1 <1>  -0.6600 
  4 C        1.7520    -2.3390     0.2390 C.ar  1 <1>   0.0860 
  5 C        4.3000    -0.7680    -0.1690 C.3   1 <1>   0.1400 
  6 C        3.2440     1.0060     1.3100 C.3   1 <1>   0.1400 
  7 C        0.7970    -2.7890    -0.6490 C.ar  1 <1>   0.1600 
  8 C        2.5590    -3.3180     0.7830 C.ar  1 <1>   0.1600 
  9 C        4.7470     0.2450    -1.2330 C.3   1 <1>   0.1400 
 10 C        3.0970     2.1640     0.3150 C.3   1 <1>  -0.1600 
 11 N        0.6710    -4.0540    -0.9930 N.ar  1 <1>  -0.6200 
 12 N        2.4640    -4.5910     0.4650 N.ar  1 <1>  -0.6200 
 13 N        5.3470     1.4590    -0.6010 N.am  1 <1>  -0.6600 
 14 C        4.4030     2.5930    -0.3710 C.3   1 <1>   0.1400 
 15 C        1.5170    -4.8910    -0.4120 C.ar  1 <1>   0.4770 
 16 C        6.6770     1.4370    -0.2430 C.2   1 <1>   0.5690 
 17 C        1.3860    -6.3580    -0.7900 C.3   1 <1>  -0.0160 
 18 O        7.3180     0.4150    -0.3440 O.2   1 <1>  -0.5700 
 19 C        7.3810     2.6870     0.2960 C.3   1 <1>  -0.0190 
 20 C        0.4240    -7.1110     0.1410 C.3   1 <1>  -0.2400 
 21 C        7.5090     3.8190    -0.7480 C.3   1 <1>  -0.0220 
 22 C        8.8070     2.4730     0.8620 C.3   1 <1>  -0.0220 
 23 C        8.8060     4.4850    -0.3640 C.2   1 <1>  -0.2880 
 24 C        9.5020     3.7640     0.5040 C.2   1 <1>  -0.2880 
 25 H        4.0770    -1.6880    -0.6770 H     1 <1>   0.0800 
 26 H        5.1160    -0.9590     0.5070 H     1 <1>   0.0800 
 27 H        4.1930     1.0520     1.8180 H     1 <1>   0.0800 
 28 H        2.4720     1.0870     2.0570 H     1 <1>   0.0800 
 29 H        0.1180    -2.0760    -1.0880 H     1 <1>   0.1500 
 30 H        3.3080    -3.0370     1.5040 H     1 <1>   0.1500 
 31 H        3.9150     0.5170    -1.8580 H     1 <1>   0.0800 
 32 H        5.4850    -0.2210    -1.8640 H     1 <1>   0.0800 
 33 H        2.7150     3.0180     0.8440 H     1 <1>   0.0800 
 34 H        2.3570     1.9090    -0.4230 H     1 <1>   0.0800 
 35 H        4.8650     3.3370     0.2480 H     1 <1>   0.0800 
 36 H        4.1750     3.0570    -1.3160 H     1 <1>   0.0800 
 37 H        2.3570    -6.8170    -0.7510 H     1 <1>   0.0800 
 38 H        1.0310    -6.4270    -1.8030 H     1 <1>   0.0800 
 39 H        6.8030     3.0640     1.1170 H     1 <1>   0.0800 
 40 H        0.7790    -7.0620     1.1550 H     1 <1>   0.0800 
 41 H        0.3530    -8.1430    -0.1540 H     1 <1>   0.0800 
 42 H       -0.5550    -6.6680     0.0960 H     1 <1>   0.0800 
 43 H        6.6850     4.5060    -0.6880 H     1 <1>   0.0800 
 44 H        7.5870     3.4240    -1.7470 H     1 <1>   0.0800 
 45 H        9.3230     1.6570     0.3860 H     1 <1>   0.0800 
 46 H        8.7810     2.3140     1.9250 H     1 <1>   0.0800 
 47 H        9.0580     5.4340    -0.8100 H     1 <1>   0.1500 
 48 H       10.4620     3.9760     0.9440 H     1 <1>   0.1500 
@<TRIPOS>BOND
  1   1   2  2   
  2   2   3  am  
  3   2   4  1   
  4   3   5  1   
  5   3   6  1   
  6   4   7  ar  
  7   4   8  ar  
  8   5   9  1   
  9   5  25  1   
 10   5  26  1   
 11   6  10  1   
 12   6  27  1   
 13   6  28  1   
 14   7  11  ar  
 15   7  29  1   
 16   8  12  ar  
 17   8  30  1   
 18   9  13  1   
 19   9  31  1   
 20   9  32  1   
 21  10  14  1   
 22  10  33  1   
 23  10  34  1   
 24  11  15  ar  
 25  12  15  ar  
 26  13  14  1   
 27  13  16  am  
 28  14  35  1   
 29  14  36  1   
 30  15  17  1   
 31  16  18  2   
 32  16  19  1   
 33  17  20  1   
 34  17  37  1   
 35  17  38  1   
 36  19  21  1   
 37  19  22  1   
 38  19  39  1   
 39  20  40  1   
 40  20  41  1   
 41  20  42  1   
 42  21  23  1   
 43  21  43  1   
 44  21  44  1   
 45  22  24  1   
 46  22  45  1   
 47  22  46  1   
 48  23  24  2   
 49  23  47  1   
 50  24  48  1   
@<TRIPOS>SUBSTRUCTURE
  1 ****   5 GROUP 4 **** **** 0

# MOE 2024.06 (io_trps.svl 2023.06)
