@<TRIPOS>MOLECULE
NONAME
33 33 1 0 0 
SMALL
USER_CHARGES


@<TRIPOS>ATOM
  1 S       -1.7170    -0.9400    -1.2540 S.3   1 <1>  -0.4600 
  2 C       -1.6920    -1.0370     0.5720 C.3   1 <1>   0.2110 
  3 C       -1.2720    -2.6160    -1.7920 C.3   1 <1>  -0.0100 
  4 C       -2.3340    -2.3350     1.1090 C.2   1 <1>   0.5690 
  5 C       -2.2790     0.2720     1.1140 C.3   1 <1>  -0.2400 
  6 O       -1.5840    -3.0880     1.6930 O.2   1 <1>  -0.5700 
  7 N       -3.6590    -2.6790     0.9480 N.am  1 <1>  -0.6600 
  8 C       -4.1350    -4.0090     1.4380 C.3   1 <1>   0.3200 
  9 C       -4.6710    -1.9550     0.1190 C.3   1 <1>   0.1400 
 10 C       -3.7230    -5.1050     0.4700 C.2   1 <1>   0.0060 
 11 C       -5.6880    -1.2360     1.0120 C.3   1 <1>   0.1200 
 12 N       -4.5290    -5.7670    -0.2980 N.2   1 <1>  -0.5650 
 13 N       -2.4320    -5.4760     0.3440 N.pl3 1 <1>   0.0330 
 14 O       -6.5520    -0.4900     0.2240 O.3   1 <1>  -0.6800 
 15 C       -3.7170    -6.6130    -0.9620 C.2   1 <1>   0.0770 
 16 C       -2.4310    -6.4490    -0.5840 C.2   1 <1>  -0.3020 
 17 H       -0.6490    -1.0690     0.8300 H     1 <1>   0.0800 
 18 H       -1.1060    -2.5850    -2.8540 H     1 <1>   0.0800 
 19 H       -2.0910    -3.2740    -1.5570 H     1 <1>   0.0800 
 20 H       -0.3770    -2.9100    -1.2730 H     1 <1>   0.0800 
 21 H       -3.2750     0.4340     0.7510 H     1 <1>   0.0800 
 22 H       -1.6650     1.0980     0.8020 H     1 <1>   0.0800 
 23 H       -2.2970     0.2480     2.1890 H     1 <1>   0.0800 
 24 H       -5.2070    -4.0100     1.5340 H     1 <1>   0.0800 
 25 H       -3.7190    -4.2120     2.4090 H     1 <1>   0.0800 
 26 H       -5.1840    -2.6650    -0.5090 H     1 <1>   0.0800 
 27 H       -4.1960    -1.2380    -0.5190 H     1 <1>   0.0800 
 28 H       -5.1990    -0.5670     1.6980 H     1 <1>   0.0800 
 29 H       -6.2820    -1.9450     1.5610 H     1 <1>   0.0800 
 30 H       -1.6460    -5.0470     0.8530 H     1 <1>   0.2700 
 31 H       -6.0740     0.2110    -0.2620 H     1 <1>   0.4000 
 32 H       -4.1080    -7.3060    -1.6890 H     1 <1>   0.1500 
 33 H       -1.5420    -6.9550    -0.9130 H     1 <1>   0.1500 
@<TRIPOS>BOND
  1   1   2  1   
  2   1   3  1   
  3   2   4  1   
  4   2   5  1   
  5   2  17  1   
  6   3  18  1   
  7   3  19  1   
  8   3  20  1   
  9   4   6  2   
 10   4   7  am  
 11   5  21  1   
 12   5  22  1   
 13   5  23  1   
 14   7   8  1   
 15   7   9  1   
 16   8  10  1   
 17   8  24  1   
 18   8  25  1   
 19   9  11  1   
 20   9  26  1   
 21   9  27  1   
 22  10  12  2   
 23  10  13  1   
 24  11  14  1   
 25  11  28  1   
 26  11  29  1   
 27  12  15  1   
 28  13  16  1   
 29  13  30  1   
 30  14  31  1   
 31  15  16  2   
 32  15  32  1   
 33  16  33  1   
@<TRIPOS>SUBSTRUCTURE
  1 ****   7 GROUP 4 **** **** 0

# MOE 2024.06 (io_trps.svl 2023.06)
