@<TRIPOS>MOLECULE
NONAME
42 43 1 0 0 
SMALL
USER_CHARGES


@<TRIPOS>ATOM
  1 CL      -0.1550     2.3950     1.0670 Cl    1 <1>  -0.1770 
  2 C        1.5450     2.6140     0.7360 C.ar  1 <1>   0.1770 
  3 C        1.9860     2.6070    -0.5730 C.ar  1 <1>  -0.1500 
  4 C        2.4230     2.7900     1.7880 C.ar  1 <1>  -0.1500 
  5 C        3.3350     2.7820    -0.8320 C.ar  1 <1>  -0.1500 
  6 C        3.7710     2.9640     1.5230 C.ar  1 <1>  -0.1500 
  7 C        4.2320     2.9610     0.2130 C.ar  1 <1>  -0.1440 
  8 C        5.7100     3.1580    -0.0810 C.3   1 <1>  -0.0160 
  9 C        5.9910     4.6240    -0.4300 C.3   1 <1>  -0.1600 
 10 C        7.4830     4.8670    -0.7130 C.3   1 <1>  -0.0990 
 11 C        7.7550     6.3000    -1.1300 C.2   1 <1>   0.5690 
 12 O        7.9780     6.5270    -2.2940 O.2   1 <1>  -0.5700 
 13 N        7.7330     7.2620    -0.1660 N.am  1 <1>  -0.4930 
 14 C        7.9490     8.6560    -0.3040 C.2   1 <1>   0.0630 
 15 C        8.2140     9.4020    -1.4530 C.2   1 <1>   0.1390 
 16 C        7.9410     9.5630     0.6940 C.2   1 <1>  -0.3020 
 17 N        8.3630    10.6690    -1.1960 N.2   1 <1>  -0.7070 
 18 N        8.1910    10.7690     0.1380 N.pl3 1 <1>   0.3140 
 19 C        8.2960    12.0590     0.8350 C.3   1 <1>   0.1570 
 20 C        9.7490    12.4160     1.0510 C.2   1 <1>   0.5690 
 21 O       10.0780    12.8460     2.1300 O.2   1 <1>  -0.5700 
 22 N       10.6380    12.2570     0.0330 N.am  1 <1>  -0.7300 
 23 C       12.0890    12.5570     0.0830 C.3   1 <1>   0.0600 
 24 H        1.2830     2.4680    -1.3740 H     1 <1>   0.1500 
 25 H        2.0540     2.7900     2.7980 H     1 <1>   0.1500 
 26 H        3.6840     2.7800    -1.8500 H     1 <1>   0.1500 
 27 H        4.4570     3.1020     2.3400 H     1 <1>   0.1500 
 28 H        5.9970     2.5240    -0.9030 H     1 <1>   0.0800 
 29 H        6.2920     2.8650     0.7750 H     1 <1>   0.0800 
 30 H        5.6650     5.2500     0.3820 H     1 <1>   0.0800 
 31 H        5.4180     4.8940    -1.3020 H     1 <1>   0.0800 
 32 H        7.8070     4.2190    -1.5090 H     1 <1>   0.0800 
 33 H        8.0700     4.6370     0.1570 H     1 <1>   0.0800 
 34 H        7.5270     6.9540     0.7810 H     1 <1>   0.3700 
 35 H        8.2890     8.9810    -2.4420 H     1 <1>   0.1500 
 36 H        7.7800     9.4250     1.7470 H     1 <1>   0.1500 
 37 H        7.7930    11.9940     1.7800 H     1 <1>   0.0800 
 38 H        7.8290    12.8160     0.2360 H     1 <1>   0.0800 
 39 H       10.2910    11.8030    -0.8280 H     1 <1>   0.3700 
 40 H       12.3480    12.9950     1.0330 H     1 <1>   0.0800 
 41 H       12.3450    13.2480    -0.7000 H     1 <1>   0.0800 
 42 H       12.6520    11.6490    -0.0460 H     1 <1>   0.0800 
@<TRIPOS>BOND
  1   1   2  1   
  2   2   3  ar  
  3   2   4  ar  
  4   3   5  ar  
  5   3  24  1   
  6   4   6  ar  
  7   4  25  1   
  8   5   7  ar  
  9   5  26  1   
 10   6   7  ar  
 11   6  27  1   
 12   7   8  1   
 13   8   9  1   
 14   8  28  1   
 15   8  29  1   
 16   9  10  1   
 17   9  30  1   
 18   9  31  1   
 19  10  11  1   
 20  10  32  1   
 21  10  33  1   
 22  11  12  2   
 23  11  13  am  
 24  13  14  1   
 25  13  34  1   
 26  14  15  1   
 27  14  16  2   
 28  15  17  2   
 29  15  35  1   
 30  16  18  1   
 31  16  36  1   
 32  17  18  1   
 33  18  19  1   
 34  19  20  1   
 35  19  37  1   
 36  19  38  1   
 37  20  21  2   
 38  20  22  am  
 39  22  23  1   
 40  22  39  1   
 41  23  40  1   
 42  23  41  1   
 43  23  42  1   
@<TRIPOS>SUBSTRUCTURE
  1 ****  13 GROUP 4 **** **** 0

# MOE 2024.06 (io_trps.svl 2023.06)
