@<TRIPOS>MOLECULE
NONAME
39 40 1 0 0 
SMALL
USER_CHARGES


@<TRIPOS>ATOM
  1 F       -0.2000     0.7090    -0.5420 F     1 <1>  -0.3400 
  2 C        0.6720     0.0220    -1.2700 C.3   1 <1>   1.1640 
  3 F       -0.0140    -0.9680    -1.8270 F     1 <1>  -0.3400 
  4 F        1.0200     0.8250    -2.2700 F     1 <1>  -0.3400 
  5 C        1.8650    -0.4770    -0.4280 C.ar  1 <1>  -0.1440 
  6 C        1.7240    -1.4180     0.6030 C.ar  1 <1>  -0.1440 
  7 C        3.1390     0.0250    -0.6960 C.ar  1 <1>  -0.1500 
  8 C        2.8440    -1.8300     1.3130 C.ar  1 <1>  -0.1500 
  9 C        0.3810    -2.0400     1.0130 C.3   1 <1>   0.0450 
 10 C        4.2440    -0.3900     0.0230 C.ar  1 <1>  -0.1500 
 11 C        4.0960    -1.3210     1.0290 C.ar  1 <1>  -0.1500 
 12 C        0.0100    -3.2800     0.2010 C.2   1 <1>   0.5690 
 13 O        0.8800    -4.0850    -0.0500 O.2   1 <1>  -0.5700 
 14 N       -1.2790    -3.5020    -0.2080 N.am  1 <1>  -0.6600 
 15 C       -1.5640    -4.5890    -1.1900 C.3   1 <1>   0.3200 
 16 C       -2.4930    -2.9350     0.4520 C.3   1 <1>   0.1400 
 17 C       -1.7660    -5.9050    -0.4630 C.2   1 <1>   0.0060 
 18 C       -3.1140    -1.8240    -0.4000 C.3   1 <1>   0.1200 
 19 N       -2.8780    -6.5680    -0.4060 N.2   1 <1>  -0.5650 
 20 N       -0.7510    -6.4900     0.2070 N.pl3 1 <1>   0.0330 
 21 O       -4.2440    -1.3400     0.2410 O.3   1 <1>  -0.6800 
 22 C       -2.5670    -7.6470     0.3400 C.2   1 <1>   0.0770 
 23 C       -1.2720    -7.6160     0.7240 C.2   1 <1>  -0.3020 
 24 H        3.2950     0.7520    -1.4760 H     1 <1>   0.1500 
 25 H        2.7510    -2.5620     2.0960 H     1 <1>   0.1500 
 26 H       -0.3930    -1.3040     0.9440 H     1 <1>   0.0800 
 27 H        0.4260    -2.3370     2.0440 H     1 <1>   0.0800 
 28 H        5.2180     0.0100    -0.2010 H     1 <1>   0.1500 
 29 H        4.9540    -1.6520     1.5890 H     1 <1>   0.1500 
 30 H       -0.7450    -4.6840    -1.8820 H     1 <1>   0.0800 
 31 H       -2.4480    -4.3530    -1.7560 H     1 <1>   0.0800 
 32 H       -2.2380    -2.5450     1.4210 H     1 <1>   0.0800 
 33 H       -3.2120    -3.7250     0.5930 H     1 <1>   0.0800 
 34 H       -3.4050    -2.1870    -1.3700 H     1 <1>   0.0800 
 35 H       -2.4270    -1.0030    -0.5120 H     1 <1>   0.0800 
 36 H        0.1980    -6.0970     0.2920 H     1 <1>   0.2700 
 37 H       -4.9660    -2.0010     0.2260 H     1 <1>   0.4000 
 38 H       -3.3030    -8.4010     0.5650 H     1 <1>   0.1500 
 39 H       -0.7090    -8.3120     1.3190 H     1 <1>   0.1500 
@<TRIPOS>BOND
  1   1   2  1   
  2   2   3  1   
  3   2   4  1   
  4   2   5  1   
  5   5   6  ar  
  6   5   7  ar  
  7   6   8  ar  
  8   6   9  1   
  9   7  10  ar  
 10   7  24  1   
 11   8  11  ar  
 12   8  25  1   
 13   9  12  1   
 14   9  26  1   
 15   9  27  1   
 16  10  11  ar  
 17  10  28  1   
 18  11  29  1   
 19  12  13  2   
 20  12  14  am  
 21  14  15  1   
 22  14  16  1   
 23  15  17  1   
 24  15  30  1   
 25  15  31  1   
 26  16  18  1   
 27  16  32  1   
 28  16  33  1   
 29  17  19  2   
 30  17  20  1   
 31  18  21  1   
 32  18  34  1   
 33  18  35  1   
 34  19  22  1   
 35  20  23  1   
 36  20  36  1   
 37  21  37  1   
 38  22  23  2   
 39  22  38  1   
 40  23  39  1   
@<TRIPOS>SUBSTRUCTURE
  1 ****  12 GROUP 4 **** **** 0

# MOE 2024.06 (io_trps.svl 2023.06)
