@<TRIPOS>MOLECULE
NONAME
62 66 1 0 0 
SMALL
USER_CHARGES


@<TRIPOS>ATOM
  1 O       -1.2230     1.0200     2.6260 O.2   1 <1>  -0.5700 
  2 C       -1.8860     1.2990     1.6430 C.2   1 <1>   0.5440 
  3 N       -2.9470     0.4810     1.3010 N.am  1 <1>  -0.6600 
  4 C       -1.5630     2.4960     0.9060 C.ar  1 <1>   0.0860 
  5 C       -3.8550     0.7660     0.1470 C.3   1 <1>   0.1400 
  6 C       -3.1580    -0.8050     2.0320 C.3   1 <1>   0.1400 
  7 C       -0.9690     2.4390    -0.3650 C.ar  1 <1>   0.3920 
  8 C       -1.8310     3.7470     1.4460 C.ar  1 <1>  -0.1500 
  9 C       -4.2140    -0.5450    -0.5450 C.3   1 <1>  -0.1600 
 10 C       -4.5910    -1.3180     1.8660 C.3   1 <1>  -0.1600 
 11 O       -0.7000     1.2190    -0.8780 O.3   1 <1>  -0.3630 
 12 N       -0.6600     3.5010    -1.1140 N.ar  1 <1>  -0.6200 
 13 C       -1.5060     4.8410     0.6790 C.ar  1 <1>  -0.1440 
 14 C       -5.0330    -1.4470     0.3920 C.3   1 <1>   0.4240 
 15 C       -0.0730     1.0560    -2.1340 C.3   1 <1>   0.0400 
 16 C       -0.9420     4.6610    -0.5590 C.ar  1 <1>   0.1670 
 17 C       -1.6780     6.3030     1.0070 C.3   1 <1>  -0.0160 
 18 O       -6.3390    -0.9290     0.3140 O.3   1 <1>  -0.5600 
 19 C       -4.9790    -2.9160    -0.0880 C.ar  1 <1>  -0.1440 
 20 C       -0.6680     5.9820    -1.2280 C.3   1 <1>  -0.0170 
 21 C       -1.3870     7.0080    -0.3310 C.3   1 <1>  -0.1600 
 22 C       -7.3800    -1.7670     0.7130 C.3   1 <1>   0.1200 
 23 C       -6.1410    -3.6120    -0.4040 C.ar  1 <1>  -0.1440 
 24 C       -3.7590    -3.5760    -0.2000 C.ar  1 <1>  -0.1500 
 25 C       -7.4840    -2.9210    -0.2790 C.3   1 <1>  -0.0170 
 26 C       -6.0820    -4.9320    -0.8220 C.ar  1 <1>  -0.1500 
 27 C       -3.6900    -4.8900    -0.6290 C.ar  1 <1>   0.0820 
 28 C       -4.8670    -5.5850    -0.9220 C.ar  1 <1>   0.0820 
 29 O       -2.4580    -5.4420    -0.7490 O.3   1 <1>  -0.3620 
 30 O       -4.8830    -6.8870    -1.3000 O.3   1 <1>  -0.3620 
 31 C       -2.0480    -5.7750    -2.0570 C.3   1 <1>   0.0400 
 32 C       -4.4530    -7.8230    -0.3360 C.3   1 <1>   0.0400 
 33 H       -3.3850     1.4190    -0.5640 H     1 <1>   0.0800 
 34 H       -4.7490     1.2470     0.5080 H     1 <1>   0.0800 
 35 H       -2.9540    -0.6610     3.0790 H     1 <1>   0.0800 
 36 H       -2.4580    -1.5310     1.6580 H     1 <1>   0.0800 
 37 H       -2.2700     3.8430     2.4230 H     1 <1>   0.1500 
 38 H       -3.2980    -1.0190    -0.8440 H     1 <1>   0.0800 
 39 H       -4.7790    -0.3540    -1.4380 H     1 <1>   0.0800 
 40 H       -5.2360    -0.6280     2.3810 H     1 <1>   0.0800 
 41 H       -4.6770    -2.2710     2.3550 H     1 <1>   0.0800 
 42 H        0.0430     0.0030    -2.3190 H     1 <1>   0.0800 
 43 H        0.8890     1.5360    -2.1060 H     1 <1>   0.0800 
 44 H       -0.6930     1.5010    -2.8920 H     1 <1>   0.0800 
 45 H       -0.9570     6.5910     1.7530 H     1 <1>   0.0800 
 46 H       -2.6720     6.5160     1.3580 H     1 <1>   0.0800 
 47 H       -1.0540     5.9920    -2.2310 H     1 <1>   0.0800 
 48 H        0.3930     6.1570    -1.2440 H     1 <1>   0.0800 
 49 H       -0.7970     7.8970    -0.1920 H     1 <1>   0.0800 
 50 H       -2.3220     7.2780    -0.7920 H     1 <1>   0.0800 
 51 H       -8.2870    -1.1890     0.7170 H     1 <1>   0.0800 
 52 H       -7.1840    -2.1250     1.7090 H     1 <1>   0.0800 
 53 H       -2.8380    -3.0780     0.0370 H     1 <1>   0.1500 
 54 H       -7.7880    -2.5430    -1.2380 H     1 <1>   0.0800 
 55 H       -8.2300    -3.6160     0.0640 H     1 <1>   0.0800 
 56 H       -6.9790    -5.4710    -1.0680 H     1 <1>   0.1500 
 57 H       -1.0260    -6.1050    -2.0150 H     1 <1>   0.0800 
 58 H       -2.1300    -4.9010    -2.6790 H     1 <1>   0.0800 
 59 H       -2.6720    -6.5630    -2.4370 H     1 <1>   0.0800 
 60 H       -4.6260    -8.8100    -0.7250 H     1 <1>   0.0800 
 61 H       -5.0190    -7.6760     0.5660 H     1 <1>   0.0800 
 62 H       -3.4050    -7.6830    -0.1460 H     1 <1>   0.0800 
@<TRIPOS>BOND
  1   1   2  2   
  2   2   3  am  
  3   2   4  1   
  4   3   5  1   
  5   3   6  1   
  6   4   7  ar  
  7   4   8  ar  
  8   5   9  1   
  9   5  33  1   
 10   5  34  1   
 11   6  10  1   
 12   6  35  1   
 13   6  36  1   
 14   7  11  1   
 15   7  12  ar  
 16   8  13  ar  
 17   8  37  1   
 18   9  14  1   
 19   9  38  1   
 20   9  39  1   
 21  10  14  1   
 22  10  40  1   
 23  10  41  1   
 24  11  15  1   
 25  12  16  ar  
 26  13  16  ar  
 27  13  17  1   
 28  14  18  1   
 29  14  19  1   
 30  15  42  1   
 31  15  43  1   
 32  15  44  1   
 33  16  20  1   
 34  17  21  1   
 35  17  45  1   
 36  17  46  1   
 37  18  22  1   
 38  19  23  ar  
 39  19  24  ar  
 40  20  21  1   
 41  20  47  1   
 42  20  48  1   
 43  21  49  1   
 44  21  50  1   
 45  22  25  1   
 46  22  51  1   
 47  22  52  1   
 48  23  25  1   
 49  23  26  ar  
 50  24  27  ar  
 51  24  53  1   
 52  25  54  1   
 53  25  55  1   
 54  26  28  ar  
 55  26  56  1   
 56  27  28  ar  
 57  27  29  1   
 58  28  30  1   
 59  29  31  1   
 60  30  32  1   
 61  31  57  1   
 62  31  58  1   
 63  31  59  1   
 64  32  60  1   
 65  32  61  1   
 66  32  62  1   
@<TRIPOS>SUBSTRUCTURE
  1 ****   9 GROUP 4 **** **** 0

# MOE 2024.06 (io_trps.svl 2023.06)
