@<TRIPOS>MOLECULE
NONAME
51 53 1 0 0 
SMALL
USER_CHARGES


@<TRIPOS>ATOM
  1 O        0.2660     0.2780     1.6630 O.2   1 <1>  -0.5700 
  2 C        1.1690    -0.2870     1.0770 C.2   1 <1>   0.7160 
  3 N        2.3260     0.3810     0.7570 N.am  1 <1>  -0.4940 
  4 C        1.0430    -1.6760     0.7120 C.2   1 <1>  -0.0860 
  5 C        2.6990     1.7320     0.9740 C.2   1 <1>  -0.0880 
  6 C        1.8890    -2.4890     0.0200 C.2   1 <1>  -0.0100 
  7 C       -0.0520    -2.5120     1.0180 C.2   1 <1>  -0.1500 
  8 N        3.9130     2.2780     0.6660 N.pl3 1 <1>   0.3140 
  9 C        1.9620     2.7340     1.5090 C.2   1 <1>  -0.1500 
 10 O        1.3990    -3.6970    -0.1020 O.3   1 <1>  -0.2800 
 11 C        0.2240    -3.7240     0.4940 C.2   1 <1>  -0.0400 
 12 N        3.9560     3.5920     0.9960 N.2   1 <1>  -0.7070 
 13 C        5.1190     1.6210     0.0800 C.3   1 <1>   0.1760 
 14 C        2.7870     3.8490     1.4950 C.2   1 <1>   0.1390 
 15 C       -0.5850    -5.0150     0.5100 C.3   1 <1>   0.2900 
 16 C        4.8410     1.0010    -1.3110 C.3   1 <1>  -0.1600 
 17 C        5.7060     0.6070     1.0870 C.3   1 <1>  -0.1600 
 18 N       -1.0980    -5.3620    -0.8280 N.3   1 <1>  -0.8100 
 19 C        4.1670     1.9740    -2.2890 C.3   1 <1>  -0.2400 
 20 C        7.0760     0.0490     0.6700 C.3   1 <1>  -0.2400 
 21 C       -1.7890    -6.6710    -0.8510 C.3   1 <1>   0.1100 
 22 C       -1.9230    -4.2730    -1.4050 C.3   1 <1>   0.1100 
 23 C       -3.3230    -6.5340    -0.7580 C.3   1 <1>   0.1200 
 24 C       -2.9850    -4.8020    -2.3840 C.3   1 <1>   0.1200 
 25 O       -3.8610    -5.7060    -1.7600 O.3   1 <1>  -0.5600 
 26 H        3.0140    -0.1970     0.2850 H     1 <1>   0.3700 
 27 H        2.8490    -2.2870    -0.4190 H     1 <1>   0.1500 
 28 H       -0.9220    -2.1950     1.5670 H     1 <1>   0.1500 
 29 H        0.9520     2.7020     1.8750 H     1 <1>   0.1500 
 30 H        5.8460     2.4020    -0.0560 H     1 <1>   0.0800 
 31 H        2.4990     4.8210     1.8570 H     1 <1>   0.1500 
 32 H       -1.4100    -4.9090     1.1930 H     1 <1>   0.0800 
 33 H        0.0500    -5.8080     0.8650 H     1 <1>   0.0800 
 34 H        4.2410     0.1160    -1.2160 H     1 <1>   0.0800 
 35 H        5.7790     0.7020    -1.7440 H     1 <1>   0.0800 
 36 H        5.0260    -0.2130     1.2320 H     1 <1>   0.0800 
 37 H        5.8260     1.1070     2.0340 H     1 <1>   0.0800 
 38 H        3.1780     2.2380    -1.9550 H     1 <1>   0.0800 
 39 H        4.0840     1.5220    -3.2620 H     1 <1>   0.0800 
 40 H        4.7470     2.8770    -2.3810 H     1 <1>   0.0800 
 41 H        6.9980    -0.5560    -0.2150 H     1 <1>   0.0800 
 42 H        7.4740    -0.5640     1.4600 H     1 <1>   0.0800 
 43 H        7.7690     0.8520     0.4850 H     1 <1>   0.0800 
 44 H       -1.4280    -7.3010    -0.0560 H     1 <1>   0.0800 
 45 H       -1.5530    -7.1660    -1.7770 H     1 <1>   0.0800 
 46 H       -1.2750    -3.5810    -1.9150 H     1 <1>   0.0800 
 47 H       -2.4320    -3.7340    -0.6240 H     1 <1>   0.0800 
 48 H       -3.5930    -6.1130     0.1940 H     1 <1>   0.0800 
 49 H       -3.7890    -7.4980    -0.8490 H     1 <1>   0.0800 
 50 H       -2.5080    -5.3070    -3.2060 H     1 <1>   0.0800 
 51 H       -3.5740    -3.9920    -2.7740 H     1 <1>   0.0800 
@<TRIPOS>BOND
  1   1   2  2   
  2   2   3  am  
  3   2   4  1   
  4   3   5  1   
  5   3  26  1   
  6   4   6  2   
  7   4   7  1   
  8   5   8  1   
  9   5   9  2   
 10   6  10  1   
 11   6  27  1   
 12   7  11  2   
 13   7  28  1   
 14   8  12  1   
 15   8  13  1   
 16   9  14  1   
 17   9  29  1   
 18  10  11  1   
 19  11  15  1   
 20  12  14  2   
 21  13  16  1   
 22  13  17  1   
 23  13  30  1   
 24  14  31  1   
 25  15  18  1   
 26  15  32  1   
 27  15  33  1   
 28  16  19  1   
 29  16  34  1   
 30  16  35  1   
 31  17  20  1   
 32  17  36  1   
 33  17  37  1   
 34  18  21  1   
 35  18  22  1   
 36  19  38  1   
 37  19  39  1   
 38  19  40  1   
 39  20  41  1   
 40  20  42  1   
 41  20  43  1   
 42  21  23  1   
 43  21  44  1   
 44  21  45  1   
 45  22  24  1   
 46  22  46  1   
 47  22  47  1   
 48  23  25  1   
 49  23  48  1   
 50  23  49  1   
 51  24  25  1   
 52  24  50  1   
 53  24  51  1   
@<TRIPOS>SUBSTRUCTURE
  1 ****   4 GROUP 4 **** **** 0

# MOE 2024.06 (io_trps.svl 2023.06)
