@<TRIPOS>MOLECULE
NONAME
42 44 1 0 0 
SMALL
USER_CHARGES


@<TRIPOS>ATOM
  1 O       -0.9080     0.5770     1.4990 O.2   1 <1>  -0.5700 
  2 C       -1.8060     1.1350     0.8890 C.2   1 <1>   0.5440 
  3 N       -2.8680     0.3350     0.4960 N.am  1 <1>  -0.6600 
  4 C       -1.6870     2.5730     0.5970 C.ar  1 <1>   0.3960 
  5 C       -4.0100     0.7330    -0.3720 C.3   1 <1>   0.1400 
  6 C       -2.8700    -1.1370     0.6950 C.3   1 <1>   0.1400 
  7 N       -2.7830     3.3380     0.4250 N.ar  1 <1>  -0.6200 
  8 C       -0.4120     3.1300     0.5080 C.ar  1 <1>  -0.1500 
  9 C       -4.9060    -0.5030    -0.4300 C.3   1 <1>   0.2000 
 10 C       -3.9290    -1.6720    -0.2730 C.3   1 <1>  -0.0800 
 11 C       -2.5990     4.6210     0.1740 C.ar  1 <1>   0.1600 
 12 C       -0.2300     4.4680     0.2410 C.ar  1 <1>   0.0830 
 13 O       -5.7610    -0.4670     0.6620 O.3   1 <1>  -0.6800 
 14 C       -4.5690    -3.0000     0.1730 C.3   1 <1>   0.0200 
 15 C       -1.3670     5.2340     0.0710 C.ar  1 <1>  -0.1500 
 16 O        1.0330     4.9380     0.1640 O.3   1 <1>  -0.3630 
 17 C       -3.5920    -4.1630     0.1740 C.2   1 <1>  -0.0400 
 18 C        1.3030     6.3000    -0.0840 C.3   1 <1>   0.0400 
 19 O       -3.9880    -5.3120     0.6540 O.3   1 <1>  -0.0190 
 20 C       -2.3200    -4.3090    -0.2340 C.2   1 <1>  -0.1500 
 21 N       -3.0520    -6.2150     0.5930 N.2   1 <1>  -0.4100 
 22 C       -2.0350    -5.6390     0.0620 C.2   1 <1>   0.1080 
 23 C       -0.7120    -6.3220    -0.2000 C.3   1 <1>  -0.0590 
 24 H       -4.5460     1.5770     0.0260 H     1 <1>   0.0800 
 25 H       -3.6380     0.9710    -1.3540 H     1 <1>   0.0800 
 26 H       -1.8970    -1.5510     0.4920 H     1 <1>   0.0800 
 27 H       -3.1370    -1.3490     1.7170 H     1 <1>   0.0800 
 28 H        0.4520     2.5090     0.6520 H     1 <1>   0.1500 
 29 H       -5.4990    -0.5560    -1.3270 H     1 <1>   0.0800 
 30 H       -3.4540    -1.8250    -1.2270 H     1 <1>   0.0800 
 31 H       -3.4830     5.2220     0.0430 H     1 <1>   0.1500 
 32 H       -5.2490    -0.1900     1.4500 H     1 <1>   0.4000 
 33 H       -5.3840    -3.2420    -0.4860 H     1 <1>   0.0800 
 34 H       -4.9750    -2.8970     1.1640 H     1 <1>   0.0800 
 35 H       -1.3170     6.2850    -0.1380 H     1 <1>   0.1500 
 36 H        2.3700     6.4320    -0.0920 H     1 <1>   0.0800 
 37 H        0.8680     6.8910     0.7020 H     1 <1>   0.0800 
 38 H        0.8950     6.5690    -1.0420 H     1 <1>   0.0800 
 39 H       -1.6460    -3.6060    -0.6850 H     1 <1>   0.1500 
 40 H       -0.4720    -6.2660    -1.2450 H     1 <1>   0.0800 
 41 H       -0.7700    -7.3560     0.0880 H     1 <1>   0.0800 
 42 H        0.0640    -5.8450     0.3700 H     1 <1>   0.0800 
@<TRIPOS>BOND
  1   1   2  2   
  2   2   3  am  
  3   2   4  1   
  4   3   5  1   
  5   3   6  1   
  6   4   7  ar  
  7   4   8  ar  
  8   5   9  1   
  9   5  24  1   
 10   5  25  1   
 11   6  10  1   
 12   6  26  1   
 13   6  27  1   
 14   7  11  ar  
 15   8  12  ar  
 16   8  28  1   
 17   9  10  1   
 18   9  13  1   
 19   9  29  1   
 20  10  14  1   
 21  10  30  1   
 22  11  15  ar  
 23  11  31  1   
 24  12  15  ar  
 25  12  16  1   
 26  13  32  1   
 27  14  17  1   
 28  14  33  1   
 29  14  34  1   
 30  15  35  1   
 31  16  18  1   
 32  17  19  1   
 33  17  20  2   
 34  18  36  1   
 35  18  37  1   
 36  18  38  1   
 37  19  21  1   
 38  20  22  1   
 39  20  39  1   
 40  21  22  2   
 41  22  23  1   
 42  23  40  1   
 43  23  41  1   
 44  23  42  1   
@<TRIPOS>SUBSTRUCTURE
  1 ****   3 GROUP 4 **** **** 0

# MOE 2024.06 (io_trps.svl 2023.06)
