@<TRIPOS>MOLECULE
NONAME
54 56 1 0 0 
SMALL
USER_CHARGES


@<TRIPOS>ATOM
  1 O       -1.7150    -0.1870    -0.8910 O.2   1 <1>  -0.5700 
  2 C       -2.2950     0.6760    -0.2360 C.2   1 <1>   0.6160 
  3 N       -2.0410     2.0210    -0.5120 N.am  1 <1>  -0.4690 
  4 C       -3.2470     0.3320     0.7740 C.2   1 <1>   0.0290 
  5 C       -2.7360     3.0090     0.1630 C.2   1 <1>  -0.0290 
  6 C       -0.9830     2.3440    -1.5190 C.3   1 <1>   0.1400 
  7 C       -3.9250     1.3310     1.4330 C.2   1 <1>  -0.1380 
  8 C       -3.4330    -1.0640     1.0470 C.2   1 <1>   0.6160 
  9 C       -3.6560     2.6740     1.1090 C.2   1 <1>  -0.1500 
 10 C       -2.4770     4.4780    -0.1450 C.3   1 <1>  -0.1020 
 11 C        0.3860     2.3860    -0.8390 C.3   1 <1>  -0.2400 
 12 C       -4.9650     1.0730     2.5180 C.3   1 <1>  -0.1020 
 13 O       -2.9600    -1.5520     2.0590 O.2   1 <1>  -0.5700 
 14 N       -4.1980    -1.8640     0.2280 N.am  1 <1>  -0.6600 
 15 C       -4.7270    -1.4770    -1.1030 C.3   1 <1>   0.1400 
 16 C       -4.3850    -3.3140     0.4490 C.3   1 <1>   0.1400 
 17 C       -5.3690    -2.7480    -1.6790 C.3   1 <1>   0.2000 
 18 C       -4.6500    -3.8850    -0.9450 C.3   1 <1>  -0.0800 
 19 O       -6.7300    -2.7880    -1.3520 O.3   1 <1>  -0.5600 
 20 C       -5.4130    -5.2220    -0.9290 C.3   1 <1>   0.0200 
 21 C       -7.5710    -2.1070    -2.2290 C.3   1 <1>   0.0400 
 22 C       -4.5990    -6.3690    -0.3520 C.2   1 <1>  -0.0400 
 23 O       -5.1710    -7.5350    -0.2070 O.3   1 <1>  -0.0190 
 24 C       -3.3300    -6.4830     0.0740 C.2   1 <1>  -0.1500 
 25 N       -4.3570    -8.4200     0.2930 N.2   1 <1>  -0.4100 
 26 C       -3.2400    -7.8120     0.4740 C.2   1 <1>   0.1080 
 27 C       -2.0000    -8.4620     1.0460 C.3   1 <1>  -0.0590 
 28 H       -0.9760     1.5990    -2.2960 H     1 <1>   0.0800 
 29 H       -1.1860     3.2850    -1.9950 H     1 <1>   0.0800 
 30 H       -4.2000     3.4370     1.6400 H     1 <1>   0.1500 
 31 H       -1.4410     4.7180     0.0120 H     1 <1>   0.0800 
 32 H       -3.0640     5.1120     0.4940 H     1 <1>   0.0800 
 33 H       -2.7430     4.6960    -1.1630 H     1 <1>   0.0800 
 34 H        0.6190     1.4220    -0.4220 H     1 <1>   0.0800 
 35 H        0.4000     3.1230    -0.0570 H     1 <1>   0.0800 
 36 H        1.1430     2.6340    -1.5600 H     1 <1>   0.0800 
 37 H       -5.8820     1.5810     2.2760 H     1 <1>   0.0800 
 38 H       -4.6030     1.4420     3.4610 H     1 <1>   0.0800 
 39 H       -5.1840     0.0270     2.6300 H     1 <1>   0.0800 
 40 H       -5.4350    -0.6720    -1.0170 H     1 <1>   0.0800 
 41 H       -3.9080    -1.1770    -1.7320 H     1 <1>   0.0800 
 42 H       -3.5150    -3.7510     0.9070 H     1 <1>   0.0800 
 43 H       -5.2400    -3.4580     1.0880 H     1 <1>   0.0800 
 44 H       -5.2560    -2.8240    -2.7470 H     1 <1>   0.0800 
 45 H       -3.6990    -4.0320    -1.4260 H     1 <1>   0.0800 
 46 H       -5.6970    -5.4810    -1.9330 H     1 <1>   0.0800 
 47 H       -6.3160    -5.1180    -0.3520 H     1 <1>   0.0800 
 48 H       -8.5790    -2.2020    -1.8650 H     1 <1>   0.0800 
 49 H       -7.4990    -2.5510    -3.2070 H     1 <1>   0.0800 
 50 H       -7.2970    -1.0680    -2.2620 H     1 <1>   0.0800 
 51 H       -2.5410    -5.7560     0.1150 H     1 <1>   0.1500 
 52 H       -1.1870    -8.3700     0.3510 H     1 <1>   0.0800 
 53 H       -2.1850    -9.5050     1.2320 H     1 <1>   0.0800 
 54 H       -1.7340    -7.9850     1.9710 H     1 <1>   0.0800 
@<TRIPOS>BOND
  1   1   2  2   
  2   2   3  am  
  3   2   4  1   
  4   3   5  1   
  5   3   6  1   
  6   4   7  2   
  7   4   8  1   
  8   5   9  2   
  9   5  10  1   
 10   6  11  1   
 11   6  28  1   
 12   6  29  1   
 13   7   9  1   
 14   7  12  1   
 15   8  13  2   
 16   8  14  am  
 17   9  30  1   
 18  10  31  1   
 19  10  32  1   
 20  10  33  1   
 21  11  34  1   
 22  11  35  1   
 23  11  36  1   
 24  12  37  1   
 25  12  38  1   
 26  12  39  1   
 27  14  15  1   
 28  14  16  1   
 29  15  17  1   
 30  15  40  1   
 31  15  41  1   
 32  16  18  1   
 33  16  42  1   
 34  16  43  1   
 35  17  18  1   
 36  17  19  1   
 37  17  44  1   
 38  18  20  1   
 39  18  45  1   
 40  19  21  1   
 41  20  22  1   
 42  20  46  1   
 43  20  47  1   
 44  21  48  1   
 45  21  49  1   
 46  21  50  1   
 47  22  23  1   
 48  22  24  2   
 49  23  25  1   
 50  24  26  1   
 51  24  51  1   
 52  25  26  2   
 53  26  27  1   
 54  27  52  1   
 55  27  53  1   
 56  27  54  1   
@<TRIPOS>SUBSTRUCTURE
  1 ****  14 GROUP 4 **** **** 0

# MOE 2024.06 (io_trps.svl 2023.06)
