@<TRIPOS>MOLECULE
NONAME
41 43 1 0 0 
SMALL
USER_CHARGES


@<TRIPOS>ATOM
  1 O       -1.4930     0.8180    -2.3530 O.2   1 <1>  -0.5700 
  2 C       -2.0100     1.3200    -1.3690 C.2   1 <1>   0.5440 
  3 N       -2.7250     0.5210    -0.5190 N.am  1 <1>  -0.6600 
  4 C       -1.8570     2.7430    -1.1540 C.ar  1 <1>   0.0860 
  5 C       -3.4670     0.9890     0.6880 C.3   1 <1>   0.2350 
  6 C       -2.5510    -0.9580    -0.4890 C.3   1 <1>   0.2350 
  7 C       -1.1890     3.3210    -0.0590 C.ar  1 <1>   0.0820 
  8 C       -2.4070     3.6080    -2.1020 C.ar  1 <1>  -0.1500 
  9 C       -4.0540    -0.2590     1.3180 C.3   1 <1>  -0.2420 
 10 C       -3.4770    -1.4600     0.6040 C.3   1 <1>  -0.2420 
 11 O       -0.6020     2.6250     0.9420 O.3   1 <1>  -0.3620 
 12 C       -1.1290     4.7010     0.0720 C.ar  1 <1>  -0.1500 
 13 C       -2.3320     4.9810    -1.9710 C.ar  1 <1>  -0.1500 
 14 C       -4.3860    -0.0090     2.7900 C.2   1 <1>   0.9470 
 15 C       -4.9530    -1.1700     0.5230 C.3   1 <1>  -0.2000 
 16 C       -3.0070    -2.8170     1.1390 C.2   1 <1>   0.9470 
 17 C        0.2890     1.5470     0.7290 C.3   1 <1>   0.1200 
 18 C       -1.6930     5.5320    -0.8750 C.ar  1 <1>  -0.1500 
 19 O       -5.5720    -0.0100     3.1490 O.co2 1 <1>  -0.9000 
 20 O       -3.4860     0.3550     3.5580 O.co2 1 <1>  -0.9000 
 21 O       -3.7790    -3.7860     1.1070 O.co2 1 <1>  -0.9000 
 22 O       -1.8150    -2.9640     1.4450 O.co2 1 <1>  -0.9000 
 23 C        0.1010     0.5360     1.8630 C.3   1 <1>  -0.1600 
 24 C        1.0110    -0.6840     1.6870 C.3   1 <1>  -0.2400 
 25 H       -2.7910     1.4610     1.3780 H     1 <1>   0.0800 
 26 H       -4.2460     1.6780     0.4180 H     1 <1>   0.0800 
 27 H       -2.8080    -1.3930    -1.4380 H     1 <1>   0.0800 
 28 H       -1.5260    -1.1880    -0.2540 H     1 <1>   0.0800 
 29 H       -2.9050     3.1800    -2.9550 H     1 <1>   0.1500 
 30 H       -0.6340     5.1170     0.9310 H     1 <1>   0.1500 
 31 H       -2.7700     5.6210    -2.7180 H     1 <1>   0.1500 
 32 H       -5.3760    -0.8230    -0.4000 H     1 <1>   0.1000 
 33 H       -5.6220    -1.8140     1.0700 H     1 <1>   0.1000 
 34 H        0.1130     1.0840    -0.2210 H     1 <1>   0.0800 
 35 H        1.2880     1.9430     0.7390 H     1 <1>   0.0800 
 36 H       -1.6370     6.6010    -0.7610 H     1 <1>   0.1500 
 37 H        0.3070     1.0070     2.8070 H     1 <1>   0.0800 
 38 H       -0.9210     0.1930     1.8790 H     1 <1>   0.0800 
 39 H        2.0470    -0.4000     1.7030 H     1 <1>   0.0800 
 40 H        0.7870    -1.1810     0.7590 H     1 <1>   0.0800 
 41 H        0.8230    -1.3850     2.4830 H     1 <1>   0.0800 
@<TRIPOS>BOND
  1   1   2  2   
  2   2   3  am  
  3   2   4  1   
  4   3   5  1   
  5   3   6  1   
  6   4   7  ar  
  7   4   8  ar  
  8   5   9  1   
  9   5  25  1   
 10   5  26  1   
 11   6  10  1   
 12   6  27  1   
 13   6  28  1   
 14   7  11  1   
 15   7  12  ar  
 16   8  13  ar  
 17   8  29  1   
 18   9  10  1   
 19   9  14  1   
 20   9  15  1   
 21  10  15  1   
 22  10  16  1   
 23  11  17  1   
 24  12  18  ar  
 25  12  30  1   
 26  13  18  ar  
 27  13  31  1   
 28  14  19  ar  
 29  14  20  ar  
 30  15  32  1   
 31  15  33  1   
 32  16  21  ar  
 33  16  22  ar  
 34  17  23  1   
 35  17  34  1   
 36  17  35  1   
 37  18  36  1   
 38  23  24  1   
 39  23  37  1   
 40  23  38  1   
 41  24  39  1   
 42  24  40  1   
 43  24  41  1   
@<TRIPOS>SUBSTRUCTURE
  1 ****   3 GROUP 4 **** **** 0

# MOE 2024.06 (io_trps.svl 2023.06)
