@<TRIPOS>MOLECULE
NONAME
47 50 1 0 0 
SMALL
USER_CHARGES


@<TRIPOS>ATOM
  1 S        0.3600     0.8620    -0.4950 S.3   1 <1>  -0.1570 
  2 C        2.1280     0.7950    -0.5940 C.2   1 <1>   0.2420 
  3 C        0.2780    -0.9180    -0.3930 C.2   1 <1>  -0.0370 
  4 N        3.0330     1.7110    -0.6940 N.2   1 <1>  -0.5650 
  5 N        2.5440    -0.4830    -0.5500 N.pl3 1 <1>   0.3340 
  6 C        1.5140    -1.4490    -0.4370 C.2   1 <1>  -0.1690 
  7 C       -1.1180    -1.4960    -0.2800 C.3   1 <1>  -0.1020 
  8 C        4.1670     0.9620    -0.7190 C.2   1 <1>   0.0460 
  9 C        3.8880    -0.3660    -0.6320 C.2   1 <1>  -0.3020 
 10 C        1.9120    -2.9160    -0.3790 C.3   1 <1>  -0.1020 
 11 C        5.5400     1.6190    -0.8170 C.3   1 <1>   0.3900 
 12 N        5.6670     2.6050     0.2730 N.pl3 1 <1>  -0.8690 
 13 C        6.6810     3.5160     0.3170 C.ar  1 <1>   0.4100 
 14 N        7.7400     3.2890    -0.4510 N.ar  1 <1>  -0.6200 
 15 C        6.5740     4.6260     1.1480 C.ar  1 <1>  -0.1500 
 16 C        8.7070     4.1890    -0.3860 C.ar  1 <1>   0.1600 
 17 C        7.5860     5.5540     1.1950 C.ar  1 <1>  -0.1500 
 18 C        8.7020     5.3460     0.3890 C.ar  1 <1>   0.0860 
 19 C        9.8200     6.2590     0.3450 C.2   1 <1>   0.5440 
 20 O       10.9500     5.8110     0.2980 O.2   1 <1>  -0.5700 
 21 N        9.6530     7.6290     0.3410 N.am  1 <1>  -0.6600 
 22 C       10.7880     8.5640     0.6120 C.3   1 <1>   0.1400 
 23 C        8.4500     8.3170    -0.2200 C.3   1 <1>   0.1400 
 24 C       11.0480     9.4670    -0.6030 C.3   1 <1>   0.1200 
 25 C        8.8470     9.2480    -1.3790 C.3   1 <1>   0.1200 
 26 O        9.8700    10.1190    -0.9910 O.3   1 <1>  -0.5600 
 27 H       -1.7000    -1.2120    -1.1380 H     1 <1>   0.0800 
 28 H       -1.5970    -1.1170     0.6050 H     1 <1>   0.0800 
 29 H       -1.0850    -2.5680    -0.2230 H     1 <1>   0.0800 
 30 H        4.5440    -1.2150    -0.6190 H     1 <1>   0.1500 
 31 H        2.4450    -3.1880    -1.2730 H     1 <1>   0.0800 
 32 H        1.0460    -3.5460    -0.2940 H     1 <1>   0.0800 
 33 H        2.5470    -3.0920     0.4710 H     1 <1>   0.0800 
 34 H        5.6330     2.1170    -1.7670 H     1 <1>   0.0800 
 35 H        6.3190     0.8820    -0.7300 H     1 <1>   0.0800 
 36 H        4.7330     2.9050     0.5700 H     1 <1>   0.4000 
 37 H        5.6940     4.7390     1.7520 H     1 <1>   0.1500 
 38 H        9.5780     4.0060    -0.9940 H     1 <1>   0.1500 
 39 H        7.5300     6.4150     1.8380 H     1 <1>   0.1500 
 40 H       11.6850     8.0190     0.8500 H     1 <1>   0.0800 
 41 H       10.5440     9.1780     1.4610 H     1 <1>   0.0800 
 42 H        7.9800     8.8980     0.5540 H     1 <1>   0.0800 
 43 H        7.7360     7.6000    -0.5830 H     1 <1>   0.0800 
 44 H       11.4140     8.8870    -1.4320 H     1 <1>   0.0800 
 45 H       11.7760    10.2200    -0.3580 H     1 <1>   0.0800 
 46 H        8.0050     9.8460    -1.6810 H     1 <1>   0.0800 
 47 H        9.1850     8.6760    -2.2260 H     1 <1>   0.0800 
@<TRIPOS>BOND
  1   1   2  1   
  2   1   3  1   
  3   2   4  2   
  4   2   5  1   
  5   3   6  2   
  6   3   7  1   
  7   4   8  1   
  8   5   6  1   
  9   5   9  1   
 10   6  10  1   
 11   7  27  1   
 12   7  28  1   
 13   7  29  1   
 14   8   9  2   
 15   8  11  1   
 16   9  30  1   
 17  10  31  1   
 18  10  32  1   
 19  10  33  1   
 20  11  12  1   
 21  11  34  1   
 22  11  35  1   
 23  12  13  1   
 24  12  36  1   
 25  13  14  ar  
 26  13  15  ar  
 27  14  16  ar  
 28  15  17  ar  
 29  15  37  1   
 30  16  18  ar  
 31  16  38  1   
 32  17  18  ar  
 33  17  39  1   
 34  18  19  1   
 35  19  20  2   
 36  19  21  am  
 37  21  22  1   
 38  21  23  1   
 39  22  24  1   
 40  22  40  1   
 41  22  41  1   
 42  23  25  1   
 43  23  42  1   
 44  23  43  1   
 45  24  26  1   
 46  24  44  1   
 47  24  45  1   
 48  25  26  1   
 49  25  46  1   
 50  25  47  1   
@<TRIPOS>SUBSTRUCTURE
  1 ****  13 GROUP 4 **** **** 0

# MOE 2024.06 (io_trps.svl 2023.06)
