@<TRIPOS>MOLECULE
NONAME
48 51 1 0 0 
SMALL
USER_CHARGES


@<TRIPOS>ATOM
  1 S        0.9890     0.9640    -0.2690 S.3   1 <1>  -0.0800 
  2 C       -0.4120     2.0050     0.0310 C.2   1 <1>  -0.0130 
  3 C        0.2940    -0.3650     0.6350 C.2   1 <1>  -0.1100 
  4 C       -0.4410     3.3480    -0.4970 C.ar  1 <1>   0.6730 
  5 C       -1.3050     1.3070     0.7820 C.2   1 <1>  -0.1500 
  6 C       -0.9120    -0.0210     1.1210 C.2   1 <1>  -0.1500 
  7 N        0.5400     3.7390    -1.3160 N.ar  1 <1>  -0.6200 
  8 N       -1.4590     4.1240    -0.1120 N.ar  1 <1>  -0.6200 
  9 C        0.4900     4.9650    -1.7780 C.ar  1 <1>   0.1600 
 10 C       -1.4820     5.3470    -0.5790 C.ar  1 <1>   0.1600 
 11 C       -0.5020     5.8410    -1.4070 C.ar  1 <1>  -0.1430 
 12 C       -0.5180     7.2910    -1.8590 C.3   1 <1>   0.2540 
 13 N        0.3290     8.1400    -0.9910 N.3   1 <1>  -0.8100 
 14 C        0.2970     7.9000     0.4930 C.3   1 <1>   0.1900 
 15 C        1.5180     8.7290    -1.6540 C.3   1 <1>   0.1100 
 16 C        0.3560     9.2180     1.2850 C.3   1 <1>   0.1200 
 17 C        1.3590     6.8840     0.9970 C.3   1 <1>   0.3430 
 18 C        2.6480     9.1770    -0.7040 C.3   1 <1>  -0.0800 
 19 O        1.6590     9.6920     1.4310 O.3   1 <1>  -0.5600 
 20 N        2.5170     6.8040     0.0710 N.4   1 <1>  -0.9590 
 21 C        2.2100    10.2620     0.2880 C.3   1 <1>   0.1200 
 22 C        3.3720     8.0180     0.0010 C.3   1 <1>   0.3430 
 23 C        3.3350     5.5270     0.0510 C.3   1 <1>   0.2370 
 24 C        4.0800     5.3820    -1.2840 C.2   1 <1>   0.9060 
 25 O        5.1720     4.8180    -1.3170 O.co2 1 <1>  -0.9000 
 26 O        3.5740     5.9620    -2.2610 O.co2 1 <1>  -0.9000 
 27 H        0.8690    -1.2710     0.7070 H     1 <1>   0.1500 
 28 H       -2.2500     1.7020     1.1110 H     1 <1>   0.1500 
 29 H       -1.5500    -0.6570     1.7110 H     1 <1>   0.1500 
 30 H        1.2680     5.2760    -2.4600 H     1 <1>   0.1500 
 31 H       -2.3030     5.9780    -0.2800 H     1 <1>   0.1500 
 32 H       -1.5280     7.6650    -1.8240 H     1 <1>   0.0800 
 33 H       -0.1880     7.3560    -2.8830 H     1 <1>   0.0800 
 34 H       -0.6670     7.4930     0.7370 H     1 <1>   0.0800 
 35 H        1.9290     8.0170    -2.3540 H     1 <1>   0.0800 
 36 H        1.1910     9.5780    -2.2310 H     1 <1>   0.0800 
 37 H       -0.0170     9.0480     2.2800 H     1 <1>   0.0800 
 38 H       -0.2570     9.9740     0.8240 H     1 <1>   0.0800 
 39 H        0.8940     5.9140     1.0560 H     1 <1>   0.0800 
 40 H        1.6890     7.1550     1.9860 H     1 <1>   0.0800 
 41 H        3.3840     9.6450    -1.3320 H     1 <1>   0.0800 
 42 H        2.0940     6.7910    -0.8770 H     1 <1>   0.4500 
 43 H        1.5050    10.9480    -0.1520 H     1 <1>   0.0800 
 44 H        3.0710    10.8230     0.6100 H     1 <1>   0.0800 
 45 H        3.6840     8.3140     0.9890 H     1 <1>   0.0800 
 46 H        4.2550     7.7840    -0.5740 H     1 <1>   0.0800 
 47 H        4.0560     5.5210     0.8470 H     1 <1>   0.0800 
 48 H        2.6910     4.6720     0.1510 H     1 <1>   0.0800 
@<TRIPOS>BOND
  1   1   2  1   
  2   1   3  1   
  3   2   4  1   
  4   2   5  2   
  5   3   6  2   
  6   3  27  1   
  7   4   7  ar  
  8   4   8  ar  
  9   5   6  1   
 10   5  28  1   
 11   6  29  1   
 12   7   9  ar  
 13   8  10  ar  
 14   9  11  ar  
 15   9  30  1   
 16  10  11  ar  
 17  10  31  1   
 18  11  12  1   
 19  12  13  1   
 20  12  32  1   
 21  12  33  1   
 22  13  14  1   
 23  13  15  1   
 24  14  16  1   
 25  14  17  1   
 26  14  34  1   
 27  15  18  1   
 28  15  35  1   
 29  15  36  1   
 30  16  19  1   
 31  16  37  1   
 32  16  38  1   
 33  17  20  1   
 34  17  39  1   
 35  17  40  1   
 36  18  21  1   
 37  18  22  1   
 38  18  41  1   
 39  19  21  1   
 40  20  22  1   
 41  20  23  1   
 42  20  42  1   
 43  21  43  1   
 44  21  44  1   
 45  22  45  1   
 46  22  46  1   
 47  23  24  1   
 48  23  47  1   
 49  23  48  1   
 50  24  25  ar  
 51  24  26  ar  
@<TRIPOS>SUBSTRUCTURE
  1 ****   9 GROUP 4 **** **** 0

# MOE 2024.06 (io_trps.svl 2023.06)
