@<TRIPOS>MOLECULE
NONAME
36 38 1 0 0 
SMALL
USER_CHARGES


@<TRIPOS>ATOM
  1 S        0.6310     0.0800    -0.3860 S.3   1 <1>  -0.0800 
  2 C        0.6920     1.7770    -0.0120 C.2   1 <1>   0.4620 
  3 C       -1.0910     0.1550    -0.1740 C.2   1 <1>   0.1980 
  4 N       -0.4820     2.2510     0.2270 N.2   1 <1>  -0.3380 
  5 N        1.9000     2.4480    -0.0030 N.pl3 1 <1>  -0.8220 
  6 N       -1.4850     1.3290     0.1360 N.2   1 <1>  -0.3380 
  7 C       -1.8790    -1.1440    -0.3760 C.3   1 <1>   1.2000 
  8 C        1.9550     3.9280     0.2510 C.3   1 <1>   0.2090 
  9 C        3.2500     1.8200    -0.2010 C.3   1 <1>   0.2090 
 10 F       -1.7370    -1.6350    -1.6040 F     1 <1>  -0.3400 
 11 F       -3.1870    -1.0090    -0.1830 F     1 <1>  -0.3400 
 12 F       -1.4830    -2.1080     0.4500 F     1 <1>  -0.3400 
 13 C        2.9370     4.2680     1.3870 C.3   1 <1>   0.2090 
 14 C        4.2310     2.1980     0.9290 C.3   1 <1>   0.2090 
 15 N        4.2930     3.6830     1.1170 N.pl3 1 <1>  -0.8380 
 16 C        5.3110     4.4300     0.5660 C.ar  1 <1>   0.7200 
 17 N        5.0080     5.6600     0.1590 N.ar  1 <1>  -0.6200 
 18 N        6.5060     3.8440     0.4860 N.ar  1 <1>  -0.6200 
 19 C        5.9800     6.3750    -0.3610 C.ar  1 <1>   0.3930 
 20 C        7.4750     4.5670    -0.0340 C.ar  1 <1>   0.1600 
 21 O        5.5980     7.6150    -0.7480 O.3   1 <1>  -0.3630 
 22 C        7.2600     5.8450    -0.4730 C.ar  1 <1>   0.1900 
 23 C        6.4660     8.5950    -1.2730 C.3   1 <1>   0.0400 
 24 F        8.2770     6.5040    -0.9840 F     1 <1>  -0.1900 
 25 H        0.9810     4.3060     0.5070 H     1 <1>   0.0800 
 26 H        2.2770     4.4290    -0.6450 H     1 <1>   0.0800 
 27 H        3.6580     2.1610    -1.1370 H     1 <1>   0.0800 
 28 H        3.1780     0.7500    -0.2460 H     1 <1>   0.0800 
 29 H        2.5570     3.8620     2.3080 H     1 <1>   0.0800 
 30 H        2.9930     5.3360     1.5100 H     1 <1>   0.0800 
 31 H        5.2010     1.7930     0.7030 H     1 <1>   0.0800 
 32 H        3.9000     1.7440     1.8460 H     1 <1>   0.0800 
 33 H        8.4560     4.1320    -0.1100 H     1 <1>   0.1500 
 34 H        5.8920     9.4850    -1.4560 H     1 <1>   0.0800 
 35 H        6.8830     8.2360    -2.1980 H     1 <1>   0.0800 
 36 H        7.2390     8.8020    -0.5550 H     1 <1>   0.0800 
@<TRIPOS>BOND
  1   1   2  1   
  2   1   3  1   
  3   2   4  2   
  4   2   5  1   
  5   3   6  2   
  6   3   7  1   
  7   4   6  1   
  8   5   8  1   
  9   5   9  1   
 10   7  10  1   
 11   7  11  1   
 12   7  12  1   
 13   8  13  1   
 14   8  25  1   
 15   8  26  1   
 16   9  14  1   
 17   9  27  1   
 18   9  28  1   
 19  13  15  1   
 20  13  29  1   
 21  13  30  1   
 22  14  15  1   
 23  14  31  1   
 24  14  32  1   
 25  15  16  1   
 26  16  17  ar  
 27  16  18  ar  
 28  17  19  ar  
 29  18  20  ar  
 30  19  21  1   
 31  19  22  ar  
 32  20  22  ar  
 33  20  33  1   
 34  21  23  1   
 35  22  24  1   
 36  23  34  1   
 37  23  35  1   
 38  23  36  1   
@<TRIPOS>SUBSTRUCTURE
  1 ****   5 GROUP 4 **** **** 0

# MOE 2024.06 (io_trps.svl 2023.06)
