@<TRIPOS>MOLECULE
NONAME
54 57 1 0 0 
SMALL
USER_CHARGES


@<TRIPOS>ATOM
  1 O       -0.2100     1.1810    -1.2160 O.2   1 <1>  -0.5700 
  2 C       -0.3500     2.3710    -1.0480 C.2   1 <1>   0.5690 
  3 N       -1.1680     2.9070    -0.0900 N.am  1 <1>  -0.5090 
  4 C        0.4020     3.3170    -1.9790 C.3   1 <1>   0.1810 
  5 C       -1.4980     4.3670    -0.0770 C.3   1 <1>   0.3640 
  6 C       -1.8910     2.0790     0.9060 C.3   1 <1>   0.0490 
  7 O        0.5970     4.5790    -1.3940 O.3   1 <1>  -0.5600 
  8 C       -2.9700     4.5530    -0.4510 C.ar  1 <1>  -0.1440 
  9 C       -0.6020     5.2350    -1.0040 C.3   1 <1>   0.2610 
 10 C       -1.6550     2.3440     2.3610 C.3   1 <1>  -0.2000 
 11 C       -1.1340     1.0900     1.7350 C.3   1 <1>  -0.2000 
 12 C       -3.7580     5.4410     0.2710 C.ar  1 <1>   0.1600 
 13 C       -3.5520     3.8600    -1.4980 C.ar  1 <1>  -0.1500 
 14 C       -0.2780     6.5610    -0.3070 C.2   1 <1>   0.5690 
 15 N       -5.0410     5.6760     0.0430 N.ar  1 <1>  -0.6200 
 16 C       -4.8850     4.0970    -1.7500 C.ar  1 <1>  -0.1500 
 17 O       -1.1710     7.1890     0.2110 O.2   1 <1>  -0.5700 
 18 N        1.0090     6.9980    -0.2750 N.am  1 <1>  -0.7300 
 19 C       -5.5740     5.0010    -0.9610 C.ar  1 <1>   0.1600 
 20 C        1.4960     8.2410     0.3710 C.3   1 <1>   0.1400 
 21 C        2.0000     9.2190    -0.6880 C.3   1 <1>  -0.0170 
 22 C        2.6000    10.4350    -0.0170 C.ar  1 <1>   0.4770 
 23 N        3.8110    10.2740     0.4920 N.ar  1 <1>  -0.6200 
 24 N        1.8540    11.5270     0.0000 N.ar  1 <1>  -0.6200 
 25 C        4.3260    11.3300     1.0770 C.ar  1 <1>   0.1670 
 26 C        2.3870    12.5720     0.5900 C.ar  1 <1>   0.1670 
 27 C        3.6410    12.5190     1.1520 C.ar  1 <1>  -0.1500 
 28 C        5.7120    11.1780     1.6680 C.3   1 <1>  -0.0970 
 29 C        1.5580    13.8370     0.6240 C.3   1 <1>  -0.0970 
 30 H       -0.1430     3.4400    -2.8970 H     1 <1>   0.0800 
 31 H        1.3690     2.9040    -2.1980 H     1 <1>   0.0800 
 32 H       -1.3590     4.7130     0.9330 H     1 <1>   0.0800 
 33 H       -2.8850     1.8140     0.5830 H     1 <1>   0.1000 
 34 H       -1.1420     5.4680    -1.9040 H     1 <1>   0.0800 
 35 H       -0.9360     3.0830     2.6660 H     1 <1>   0.1000 
 36 H       -2.4830     2.2620     3.0430 H     1 <1>   0.1000 
 37 H       -1.6100     0.1560     1.9770 H     1 <1>   0.1000 
 38 H       -0.0770     0.9830     1.5650 H     1 <1>   0.1000 
 39 H       -3.3140     5.9950     1.0820 H     1 <1>   0.1500 
 40 H       -3.0010     3.1530    -2.0960 H     1 <1>   0.1500 
 41 H       -5.3910     3.5860    -2.5490 H     1 <1>   0.1500 
 42 H        1.7160     6.3920    -0.7050 H     1 <1>   0.3700 
 43 H       -6.6160     5.1780    -1.1650 H     1 <1>   0.1500 
 44 H        0.7020     8.7030     0.9350 H     1 <1>   0.0800 
 45 H        2.2940     7.9960     1.0520 H     1 <1>   0.0800 
 46 H        1.1840     9.5200    -1.3190 H     1 <1>   0.0800 
 47 H        2.7550     8.7520    -1.2920 H     1 <1>   0.0800 
 48 H        4.0690    13.3770     1.6320 H     1 <1>   0.1500 
 49 H        6.0440    12.0950     2.1160 H     1 <1>   0.0800 
 50 H        6.4020    10.8960     0.8940 H     1 <1>   0.0800 
 51 H        5.6990    10.4070     2.4170 H     1 <1>   0.0800 
 52 H        2.0820    14.6310     1.1220 H     1 <1>   0.0800 
 53 H        0.6360    13.6470     1.1430 H     1 <1>   0.0800 
 54 H        1.3310    14.1440    -0.3810 H     1 <1>   0.0800 
@<TRIPOS>BOND
  1   1   2  2   
  2   2   3  am  
  3   2   4  1   
  4   3   5  1   
  5   3   6  1   
  6   4   7  1   
  7   4  30  1   
  8   4  31  1   
  9   5   8  1   
 10   5   9  1   
 11   5  32  1   
 12   6  10  1   
 13   6  11  1   
 14   6  33  1   
 15   7   9  1   
 16   8  12  ar  
 17   8  13  ar  
 18   9  14  1   
 19   9  34  1   
 20  10  11  1   
 21  10  35  1   
 22  10  36  1   
 23  11  37  1   
 24  11  38  1   
 25  12  15  ar  
 26  12  39  1   
 27  13  16  ar  
 28  13  40  1   
 29  14  17  2   
 30  14  18  am  
 31  15  19  ar  
 32  16  19  ar  
 33  16  41  1   
 34  18  20  1   
 35  18  42  1   
 36  19  43  1   
 37  20  21  1   
 38  20  44  1   
 39  20  45  1   
 40  21  22  1   
 41  21  46  1   
 42  21  47  1   
 43  22  23  ar  
 44  22  24  ar  
 45  23  25  ar  
 46  24  26  ar  
 47  25  27  ar  
 48  25  28  1   
 49  26  27  ar  
 50  26  29  1   
 51  27  48  1   
 52  28  49  1   
 53  28  50  1   
 54  28  51  1   
 55  29  52  1   
 56  29  53  1   
 57  29  54  1   
@<TRIPOS>SUBSTRUCTURE
  1 ****  14 GROUP 4 **** **** 0

# MOE 2024.06 (io_trps.svl 2023.06)
