@<TRIPOS>MOLECULE
NONAME
38 40 1 0 0 
SMALL
USER_CHARGES


@<TRIPOS>ATOM
  1 S        0.2950    -0.5680     0.8130 S.o2  1 <1>   1.5760 
  2 O        0.9800    -0.5210    -0.4510 O.2   1 <1>  -0.6500 
  3 O        0.9600    -0.5850     2.0850 O.2   1 <1>  -0.6500 
  4 N       -0.8700    -1.7480     0.8150 N.am  1 <1>  -0.9140 
  5 N       -0.7230     0.7170     0.8880 N.am  1 <1>  -0.9780 
  6 C       -1.4350    -2.0190    -0.5000 C.3   1 <1>   0.2760 
  7 C       -2.7190    -2.8280    -0.3550 C.3   1 <1>  -0.0800 
  8 C       -0.5720    -3.0390    -1.2420 C.3   1 <1>   0.1200 
  9 C       -2.2090    -4.2700    -0.2300 C.3   1 <1>   0.1200 
 10 C       -3.6680    -2.3960     0.7820 C.3   1 <1>  -0.0170 
 11 O       -0.8710    -4.2580    -0.6360 O.3   1 <1>  -0.5600 
 12 C       -4.9320    -3.2500     0.7930 C.ar  1 <1>  -0.1430 
 13 C       -5.9890    -3.0600    -0.1280 C.ar  1 <1>   0.0000 
 14 C       -5.0680    -4.2500     1.7120 C.ar  1 <1>  -0.1500 
 15 C       -7.0970    -3.9380    -0.0460 C.ar  1 <1>   0.3100 
 16 C       -6.0150    -2.0530    -1.1220 C.ar  1 <1>  -0.1500 
 17 C       -6.2120    -5.0560     1.7140 C.ar  1 <1>   0.1600 
 18 N       -7.1920    -4.9270     0.8770 N.ar  1 <1>  -0.6200 
 19 C       -8.1530    -3.7870    -0.9590 C.ar  1 <1>  -0.1500 
 20 C       -7.0620    -1.9310    -1.9940 C.ar  1 <1>  -0.1500 
 21 C       -8.1450    -2.8090    -1.9150 C.ar  1 <1>  -0.1500 
 22 H       -0.3730    -2.6010     1.0700 H     1 <1>   0.4200 
 23 H       -0.0960     1.5140     0.8810 H     1 <1>   0.4200 
 24 H       -1.0740     0.6580     1.8370 H     1 <1>   0.4200 
 25 H       -1.5900    -1.1090    -1.0580 H     1 <1>   0.0800 
 26 H       -3.2520    -2.7640    -1.2860 H     1 <1>   0.0800 
 27 H        0.4850    -2.8520    -1.1750 H     1 <1>   0.0800 
 28 H       -0.8600    -3.1030    -2.2780 H     1 <1>   0.0800 
 29 H       -2.7630    -4.9440    -0.8620 H     1 <1>   0.0800 
 30 H       -2.2370    -4.6190     0.7870 H     1 <1>   0.0800 
 31 H       -3.9250    -1.3570     0.6760 H     1 <1>   0.0800 
 32 H       -3.1700    -2.4960     1.7300 H     1 <1>   0.0800 
 33 H       -4.3100    -4.4470     2.4480 H     1 <1>   0.1500 
 34 H       -5.1960    -1.3630    -1.1960 H     1 <1>   0.1500 
 35 H       -6.2800    -5.8330     2.4560 H     1 <1>   0.1500 
 36 H       -8.9770    -4.4720    -0.8770 H     1 <1>   0.1500 
 37 H       -7.0690    -1.1610    -2.7470 H     1 <1>   0.1500 
 38 H       -8.9620    -2.7050    -2.6080 H     1 <1>   0.1500 
@<TRIPOS>BOND
  1   1   2  2   
  2   1   3  2   
  3   1   4  am  
  4   1   5  am  
  5   4   6  1   
  6   4  22  1   
  7   5  23  1   
  8   5  24  1   
  9   6   7  1   
 10   6   8  1   
 11   6  25  1   
 12   7   9  1   
 13   7  10  1   
 14   7  26  1   
 15   8  11  1   
 16   8  27  1   
 17   8  28  1   
 18   9  11  1   
 19   9  29  1   
 20   9  30  1   
 21  10  12  1   
 22  10  31  1   
 23  10  32  1   
 24  12  13  ar  
 25  12  14  ar  
 26  13  15  ar  
 27  13  16  ar  
 28  14  17  ar  
 29  14  33  1   
 30  15  18  ar  
 31  15  19  ar  
 32  16  20  ar  
 33  16  34  1   
 34  17  18  ar  
 35  17  35  1   
 36  19  21  ar  
 37  19  36  1   
 38  20  21  ar  
 39  20  37  1   
 40  21  38  1   
@<TRIPOS>SUBSTRUCTURE
  1 ****  10 GROUP 4 **** **** 0

# MOE 2024.06 (io_trps.svl 2023.06)
