@<TRIPOS>MOLECULE
NONAME
49 52 1 0 0 
SMALL
USER_CHARGES


@<TRIPOS>ATOM
  1 S        2.1110     2.2560     2.7820 S.3   1 <1>  -0.0800 
  2 C        3.2070     2.1490     1.3970 C.2   1 <1>  -0.0450 
  3 C        1.2000     3.5540     2.0140 C.2   1 <1>  -0.1100 
  4 C        4.3200     1.2930     1.2180 C.2   1 <1>   0.8660 
  5 C        2.8490     3.0590     0.4630 C.2   1 <1>   0.0830 
  6 C        1.7150     3.8560     0.8060 C.2   1 <1>  -0.1500 
  7 O        4.7010     0.5090     2.0730 O.2   1 <1>  -0.5700 
  8 N        5.0410     1.3780     0.0490 N.2   1 <1>  -0.6610 
  9 N        3.6220     3.1050    -0.6680 N.pl3 1 <1>  -0.5330 
 10 C        4.6800     2.2490    -0.8310 C.2   1 <1>   0.4390 
 11 C        5.4950     2.4090    -2.1200 C.3   1 <1>   0.2700 
 12 N        6.0000     3.8190    -2.2920 N.pl3 1 <1>  -0.8380 
 13 C        6.5150     4.5370    -1.2570 C.ar  1 <1>   0.4100 
 14 C        5.8240     4.3980    -3.6580 C.3   1 <1>   0.1290 
 15 N        6.2860     5.8340    -1.2410 N.ar  1 <1>  -0.6200 
 16 C        7.2340     3.9060    -0.2240 C.ar  1 <1>  -0.1500 
 17 C        6.7220     6.5410    -0.2050 C.ar  1 <1>   0.7710 
 18 C        7.6600     4.6370     0.8310 C.ar  1 <1>   0.2180 
 19 N        7.3820     5.9600     0.8130 N.ar  1 <1>  -0.1790 
 20 N        6.4870     7.8810    -0.1580 N.pl3 1 <1>  -0.8380 
 21 C        8.4180     4.0500     2.0100 C.3   1 <1>  -0.0970 
 22 C        5.6190     8.5690    -1.1720 C.3   1 <1>   0.2090 
 23 C        6.9800     8.8530     0.8690 C.3   1 <1>   0.2090 
 24 C        4.3920     9.1520    -0.4640 C.3   1 <1>  -0.1600 
 25 C        5.7830     9.4270     1.6310 C.3   1 <1>  -0.1600 
 26 C        4.7870    10.1020     0.6760 C.3   1 <1>  -0.1600 
 27 H        0.3620     3.9550     2.5590 H     1 <1>   0.1500 
 28 H        1.3390     4.6100     0.1380 H     1 <1>   0.1500 
 29 H        3.4810     3.8360    -1.3720 H     1 <1>   0.4000 
 30 H        4.8660     2.1420    -2.9510 H     1 <1>   0.0800 
 31 H        6.3290     1.7290    -2.1090 H     1 <1>   0.0800 
 32 H        6.2050     3.7160    -4.3990 H     1 <1>   0.0800 
 33 H        6.3610     5.3270    -3.7500 H     1 <1>   0.0800 
 34 H        4.7810     4.5820    -3.8490 H     1 <1>   0.0800 
 35 H        7.4290     2.8520    -0.2910 H     1 <1>   0.1500 
 36 H        7.6440     6.5750     1.5700 H     1 <1>   0.4570 
 37 H        8.5480     2.9890     1.8810 H     1 <1>   0.0800 
 38 H        7.8730     4.2090     2.9240 H     1 <1>   0.0800 
 39 H        9.3910     4.5000     2.0950 H     1 <1>   0.0800 
 40 H        5.2920     7.9010    -1.9500 H     1 <1>   0.0800 
 41 H        6.1790     9.3610    -1.6410 H     1 <1>   0.0800 
 42 H        7.5020     9.6550     0.3700 H     1 <1>   0.0800 
 43 H        7.6690     8.4020     1.5590 H     1 <1>   0.0800 
 44 H        3.7970     8.3440    -0.0760 H     1 <1>   0.0800 
 45 H        3.7900     9.6840    -1.1800 H     1 <1>   0.0800 
 46 H        6.1280    10.1490     2.3500 H     1 <1>   0.0800 
 47 H        5.2880     8.6380     2.1700 H     1 <1>   0.0800 
 48 H        3.9080    10.4070     1.2190 H     1 <1>   0.0800 
 49 H        5.2380    10.9870     0.2590 H     1 <1>   0.0800 
@<TRIPOS>BOND
  1   1   2  1   
  2   1   3  1   
  3   2   4  1   
  4   2   5  2   
  5   3   6  2   
  6   3  27  1   
  7   4   7  2   
  8   4   8  1   
  9   5   6  1   
 10   5   9  1   
 11   6  28  1   
 12   8  10  2   
 13   9  10  1   
 14   9  29  1   
 15  10  11  1   
 16  11  12  1   
 17  11  30  1   
 18  11  31  1   
 19  12  13  1   
 20  12  14  1   
 21  13  15  ar  
 22  13  16  ar  
 23  14  32  1   
 24  14  33  1   
 25  14  34  1   
 26  15  17  ar  
 27  16  18  ar  
 28  16  35  1   
 29  17  19  ar  
 30  17  20  1   
 31  18  19  ar  
 32  18  21  1   
 33  19  36  1   
 34  20  22  1   
 35  20  23  1   
 36  21  37  1   
 37  21  38  1   
 38  21  39  1   
 39  22  24  1   
 40  22  40  1   
 41  22  41  1   
 42  23  25  1   
 43  23  42  1   
 44  23  43  1   
 45  24  26  1   
 46  24  44  1   
 47  24  45  1   
 48  25  26  1   
 49  25  46  1   
 50  25  47  1   
 51  26  48  1   
 52  26  49  1   
@<TRIPOS>SUBSTRUCTURE
  1 ****  13 GROUP 4 **** **** 0

# MOE 2024.06 (io_trps.svl 2023.06)
