@<TRIPOS>MOLECULE
NONAME
56 59 1 0 0 
SMALL
USER_CHARGES


@<TRIPOS>ATOM
  1 S        0.3210    -0.9030     0.7390 S.o2  1 <1>   1.4470 
  2 O        0.9110    -2.2120     0.9110 O.2   1 <1>  -0.6500 
  3 O       -0.4250    -0.3700     1.8550 O.2   1 <1>  -0.6500 
  4 N       -0.7910    -1.0590    -0.5420 N.am  1 <1>  -0.8490 
  5 C        1.5500     0.2770     0.1150 C.ar  1 <1>  -0.0090 
  6 C       -1.5090    -2.3350    -0.5340 C.3   1 <1>   0.1960 
  7 C       -1.7430     0.0630    -0.6860 C.3   1 <1>   0.1960 
  8 C        1.5010     1.6210     0.4520 C.ar  1 <1>  -0.1500 
  9 C        2.5610    -0.1400    -0.7470 C.ar  1 <1>  -0.1500 
 10 C       -2.6180    -2.2310     0.5320 C.3   1 <1>   0.4230 
 11 C       -3.0420    -0.0830     0.1650 C.3   1 <1>  -0.1600 
 12 C        2.4200     2.5500    -0.0410 C.ar  1 <1>   0.0860 
 13 C        3.4890     0.7530    -1.2450 C.ar  1 <1>  -0.1500 
 14 N       -2.8430    -3.4340     1.4110 N.4   1 <1>  -0.9590 
 15 C       -3.8660    -1.4580    -0.0900 C.3   1 <1>   0.0000 
 16 C        2.3810     3.9590     0.2860 C.2   1 <1>   0.5440 
 17 C        3.4260     2.0950    -0.8970 C.ar  1 <1>   0.1170 
 18 C       -3.2120    -4.6490     0.6710 C.3   1 <1>   0.3430 
 19 C       -1.6720    -3.6650     2.3200 C.3   1 <1>   0.2630 
 20 C       -4.6700    -2.8210    -0.4210 C.3   1 <1>  -0.1600 
 21 C       -5.1160    -0.6150    -0.6370 C.3   1 <1>   0.1200 
 22 O        1.5150     4.3980     1.0210 O.2   1 <1>  -0.5700 
 23 N        3.3310     4.8190    -0.2430 N.am  1 <1>  -0.4200 
 24 N        4.3460     3.0160    -1.3790 N.am  1 <1>  -0.5470 
 25 C       -4.0240    -4.2270    -0.5370 C.3   1 <1>  -0.1600 
 26 O       -5.7710    -0.0690     0.4630 O.3   1 <1>  -0.6800 
 27 C        4.3280     4.3390    -1.0670 C.2   1 <1>   0.6900 
 28 C        3.2940     6.2690     0.1080 C.3   1 <1>   0.0600 
 29 O        5.1960     5.0510    -1.5260 O.2   1 <1>  -0.5700 
 30 H       -1.9450    -2.4890    -1.5060 H     1 <1>   0.0800 
 31 H       -0.8420    -3.1550    -0.3400 H     1 <1>   0.0800 
 32 H       -1.2530     0.9920    -0.4420 H     1 <1>   0.0800 
 33 H       -2.0270     0.1250    -1.7240 H     1 <1>   0.0800 
 34 H        0.7300     1.9720     1.1200 H     1 <1>   0.1500 
 35 H        2.6190    -1.1800    -1.0270 H     1 <1>   0.1500 
 36 H       -2.1730    -1.5880     1.2630 H     1 <1>   0.0800 
 37 H       -2.8320     0.0620     1.2140 H     1 <1>   0.0800 
 38 H       -3.5390     0.8560    -0.0240 H     1 <1>   0.0800 
 39 H        4.2650     0.4080    -1.9060 H     1 <1>   0.1500 
 40 H       -3.6530    -3.1780     1.9950 H     1 <1>   0.4500 
 41 H       -2.3320    -5.1820     0.3480 H     1 <1>   0.0800 
 42 H       -3.7950    -5.2980     1.3050 H     1 <1>   0.0800 
 43 H       -0.7940    -3.9230     1.7490 H     1 <1>   0.0800 
 44 H       -1.8830    -4.4650     3.0110 H     1 <1>   0.0800 
 45 H       -1.4560    -2.7710     2.8840 H     1 <1>   0.0800 
 46 H       -5.4870    -2.9060     0.2810 H     1 <1>   0.0800 
 47 H       -5.0980    -2.7880    -1.4110 H     1 <1>   0.0800 
 48 H       -5.9070    -1.1040    -1.1790 H     1 <1>   0.0800 
 49 H       -4.8370     0.1760    -1.3160 H     1 <1>   0.0800 
 50 H        5.1110     2.7350    -1.9920 H     1 <1>   0.3700 
 51 H       -3.3910    -4.2660    -1.4060 H     1 <1>   0.0800 
 52 H       -4.7930    -4.9640    -0.6990 H     1 <1>   0.0800 
 53 H       -6.5270     0.4900     0.1860 H     1 <1>   0.4000 
 54 H        2.2750     6.6110     0.1580 H     1 <1>   0.0800 
 55 H        3.8130     6.8540    -0.6310 H     1 <1>   0.0800 
 56 H        3.7610     6.4160     1.0660 H     1 <1>   0.0800 
@<TRIPOS>BOND
  1   1   2  2   
  2   1   3  2   
  3   1   4  am  
  4   1   5  1   
  5   4   6  1   
  6   4   7  1   
  7   5   8  ar  
  8   5   9  ar  
  9   6  10  1   
 10   6  30  1   
 11   6  31  1   
 12   7  11  1   
 13   7  32  1   
 14   7  33  1   
 15   8  12  ar  
 16   8  34  1   
 17   9  13  ar  
 18   9  35  1   
 19  10  14  1   
 20  10  15  1   
 21  10  36  1   
 22  11  15  1   
 23  11  37  1   
 24  11  38  1   
 25  12  16  1   
 26  12  17  ar  
 27  13  17  ar  
 28  13  39  1   
 29  14  18  1   
 30  14  19  1   
 31  14  40  1   
 32  15  20  1   
 33  15  21  1   
 34  16  22  2   
 35  16  23  am  
 36  17  24  1   
 37  18  25  1   
 38  18  41  1   
 39  18  42  1   
 40  19  43  1   
 41  19  44  1   
 42  19  45  1   
 43  20  25  1   
 44  20  46  1   
 45  20  47  1   
 46  21  26  1   
 47  21  48  1   
 48  21  49  1   
 49  23  27  am  
 50  23  28  1   
 51  24  27  am  
 52  24  50  1   
 53  25  51  1   
 54  25  52  1   
 55  26  53  1   
 56  27  29  2   
 57  28  54  1   
 58  28  55  1   
 59  28  56  1   
@<TRIPOS>SUBSTRUCTURE
  1 ****   1 GROUP 4 **** **** 0

# MOE 2024.06 (io_trps.svl 2023.06)
