@<TRIPOS>MOLECULE
NONAME
49 52 1 0 0 
SMALL
USER_CHARGES


@<TRIPOS>ATOM
  1 S       -2.5270     0.2290    -1.6260 S.3   1 <1>  -0.2820 
  2 C       -2.3910    -1.0680    -0.4730 C.2   1 <1>   0.6510 
  3 C       -1.9960     1.3730    -0.3930 C.2   1 <1>   0.5300 
  4 N       -2.6800    -2.3000    -0.7510 N.2   1 <1>  -0.6210 
  5 N       -1.9670    -0.5450     0.7180 N.am  1 <1>  -0.0580 
  6 N       -1.7510     0.8430     0.7330 N.2   1 <1>  -0.5120 
  7 C       -1.8870     2.8310    -0.8020 C.3   1 <1>  -0.0990 
  8 C       -2.5310    -3.1920     0.2750 C.2   1 <1>   0.0330 
  9 C       -1.8250    -1.4320     1.7750 C.2   1 <1>   0.6160 
 10 C       -3.2560     3.4820    -1.0490 C.3   1 <1>  -0.2400 
 11 C       -2.1070    -2.7960     1.5040 C.2   1 <1>  -0.1360 
 12 C       -2.8690    -4.6460    -0.0570 C.3   1 <1>   0.4810 
 13 O       -1.5000    -1.0760     2.8960 O.2   1 <1>  -0.5700 
 14 N       -4.3260    -4.9820     0.1430 N.4   1 <1>  -0.9590 
 15 C       -5.2290    -4.0050    -0.5490 C.3   1 <1>   0.4230 
 16 C       -4.6340    -5.2310     1.5880 C.3   1 <1>   0.2630 
 17 C       -6.4850    -4.6910    -1.0700 C.3   1 <1>  -0.1600 
 18 C       -5.7890    -2.8620     0.3050 C.3   1 <1>  -0.1600 
 19 C       -7.4410    -3.5320    -1.3920 C.3   1 <1>  -0.0800 
 20 C       -6.9740    -2.3430    -0.5150 C.3   1 <1>  -0.0800 
 21 C       -8.9310    -3.9090    -1.2610 C.3   1 <1>   0.1400 
 22 C       -8.0790    -1.7050     0.3530 C.3   1 <1>  -0.0990 
 23 N       -9.7370    -2.6780    -1.1580 N.am  1 <1>  -0.7300 
 24 C       -9.3730    -1.6070    -0.4220 C.2   1 <1>   0.5690 
 25 O      -10.0480    -0.6130    -0.3720 O.2   1 <1>  -0.5700 
 26 H       -1.3790     3.3650    -0.0190 H     1 <1>   0.0800 
 27 H       -1.2860     2.8980    -1.6910 H     1 <1>   0.0800 
 28 H       -3.8660     3.4190    -0.1650 H     1 <1>   0.0800 
 29 H       -3.7700     2.9950    -1.8600 H     1 <1>   0.0800 
 30 H       -3.1300     4.5210    -1.3030 H     1 <1>   0.0800 
 31 H       -1.9660    -3.4700     2.3290 H     1 <1>   0.1500 
 32 H       -2.2640    -5.2970     0.5520 H     1 <1>   0.0800 
 33 H       -2.5990    -4.8200    -1.0860 H     1 <1>   0.0800 
 34 H       -4.4690    -5.8720    -0.3520 H     1 <1>   0.4500 
 35 H       -4.7160    -3.5750    -1.3960 H     1 <1>   0.0800 
 36 H       -4.4620    -4.3380     2.1670 H     1 <1>   0.0800 
 37 H       -4.0110    -6.0200     1.9770 H     1 <1>   0.0800 
 38 H       -5.6660    -5.5220     1.7050 H     1 <1>   0.0800 
 39 H       -6.2850    -5.2790    -1.9490 H     1 <1>   0.0800 
 40 H       -6.9120    -5.3120    -0.3020 H     1 <1>   0.0800 
 41 H       -6.1600    -3.2190     1.2470 H     1 <1>   0.0800 
 42 H       -5.0770    -2.0770     0.4740 H     1 <1>   0.0800 
 43 H       -7.2830    -3.2480    -2.4200 H     1 <1>   0.0800 
 44 H       -6.6140    -1.5790    -1.1870 H     1 <1>   0.0800 
 45 H       -9.0990    -4.4980    -0.3750 H     1 <1>   0.0800 
 46 H       -9.2480    -4.4810    -2.1170 H     1 <1>   0.0800 
 47 H       -7.7800    -0.7240     0.6750 H     1 <1>   0.0800 
 48 H       -8.2760    -2.3000     1.2250 H     1 <1>   0.0800 
 49 H      -10.6320    -2.6250    -1.6530 H     1 <1>   0.3700 
@<TRIPOS>BOND
  1   1   2  1   
  2   1   3  1   
  3   2   4  2   
  4   2   5  1   
  5   3   6  2   
  6   3   7  1   
  7   4   8  1   
  8   5   6  1   
  9   5   9  am  
 10   7  10  1   
 11   7  26  1   
 12   7  27  1   
 13   8  11  2   
 14   8  12  1   
 15   9  11  1   
 16   9  13  2   
 17  10  28  1   
 18  10  29  1   
 19  10  30  1   
 20  11  31  1   
 21  12  14  1   
 22  12  32  1   
 23  12  33  1   
 24  14  15  1   
 25  14  16  1   
 26  14  34  1   
 27  15  17  1   
 28  15  18  1   
 29  15  35  1   
 30  16  36  1   
 31  16  37  1   
 32  16  38  1   
 33  17  19  1   
 34  17  39  1   
 35  17  40  1   
 36  18  20  1   
 37  18  41  1   
 38  18  42  1   
 39  19  20  1   
 40  19  21  1   
 41  19  43  1   
 42  20  22  1   
 43  20  44  1   
 44  21  23  1   
 45  21  45  1   
 46  21  46  1   
 47  22  24  1   
 48  22  47  1   
 49  22  48  1   
 50  23  24  am  
 51  23  49  1   
 52  24  25  2   
@<TRIPOS>SUBSTRUCTURE
  1 ****  18 GROUP 4 **** **** 0

# MOE 2024.06 (io_trps.svl 2023.06)
