@<TRIPOS>MOLECULE
NONAME
49 52 1 0 0 
SMALL
USER_CHARGES


@<TRIPOS>ATOM
  1 S       -1.9100     2.2370    -1.3070 S.3   1 <1>  -0.0800 
  2 C       -0.9520     3.1170    -0.1340 C.2   1 <1>  -0.1400 
  3 C       -0.5200     2.1090    -2.3740 C.2   1 <1>  -0.1100 
  4 C        0.3150     3.2740    -0.5400 C.2   1 <1>  -0.1810 
  5 C       -1.5210     3.6240     1.1630 C.3   1 <1>   0.0200 
  6 C        0.5630     2.7000    -1.8320 C.2   1 <1>  -0.1500 
  7 C        1.3370     4.0020     0.3360 C.3   1 <1>   0.4610 
  8 C       -0.5540     4.6920     1.6970 C.3   1 <1>   0.1200 
  9 O        0.7830     4.2580     1.6140 O.3   1 <1>  -0.5600 
 10 C        2.5620     3.1130     0.5790 C.3   1 <1>  -0.1600 
 11 C        1.7630     5.3320    -0.3010 C.3   1 <1>  -0.1600 
 12 C        3.6370     3.8390     1.3890 C.3   1 <1>   0.1400 
 13 C        2.8430     6.0340     0.5250 C.3   1 <1>   0.1400 
 14 N        3.9980     5.1100     0.6990 N.am  1 <1>  -0.6600 
 15 C        5.2980     5.3820     0.3380 C.2   1 <1>   0.5690 
 16 O        6.1820     4.5710     0.4920 O.2   1 <1>  -0.5700 
 17 C        5.6890     6.6980    -0.3230 C.3   1 <1>   0.1310 
 18 S        5.5220     8.1270     0.8550 S.3   1 <1>  -0.3310 
 19 C        5.8600     9.6190    -0.0970 C.ar  1 <1>   0.1010 
 20 C        5.6450    10.8300     0.5350 C.ar  1 <1>  -0.1500 
 21 C        6.3140     9.5710    -1.4060 C.ar  1 <1>  -0.1500 
 22 C        5.8790    12.0150    -0.1430 C.ar  1 <1>   0.0820 
 23 C        6.5480    10.7550    -2.0850 C.ar  1 <1>  -0.1500 
 24 O        5.6450    13.1650     0.5370 O.3   1 <1>  -0.3620 
 25 C        6.3310    11.9730    -1.4610 C.ar  1 <1>  -0.1500 
 26 C        5.8670    14.4270    -0.0530 C.3   1 <1>   0.0400 
 27 H       -0.6630     1.5960    -3.3090 H     1 <1>   0.1500 
 28 H       -1.6100     2.8150     1.8660 H     1 <1>   0.0800 
 29 H       -2.4930     4.0560     1.0040 H     1 <1>   0.0800 
 30 H        1.5330     2.7540    -2.2920 H     1 <1>   0.1500 
 31 H       -0.7690     4.9030     2.7290 H     1 <1>   0.0800 
 32 H       -0.6540     5.6020     1.1320 H     1 <1>   0.0800 
 33 H        2.9910     2.8150    -0.3590 H     1 <1>   0.0800 
 34 H        2.2550     2.2210     1.0940 H     1 <1>   0.0800 
 35 H        0.9120     5.9750    -0.4200 H     1 <1>   0.0800 
 36 H        2.1540     5.1420    -1.2830 H     1 <1>   0.0800 
 37 H        4.4980     3.2020     1.4980 H     1 <1>   0.0800 
 38 H        3.2660     4.0660     2.3740 H     1 <1>   0.0800 
 39 H        2.4540     6.2940     1.4950 H     1 <1>   0.0800 
 40 H        3.1340     6.9420     0.0310 H     1 <1>   0.0800 
 41 H        5.0610     6.8960    -1.1700 H     1 <1>   0.0800 
 42 H        6.7190     6.6630    -0.6270 H     1 <1>   0.0800 
 43 H        5.2980    10.8560     1.5510 H     1 <1>   0.1500 
 44 H        6.4950     8.6390    -1.9040 H     1 <1>   0.1500 
 45 H        6.9010    10.7300    -3.1020 H     1 <1>   0.1500 
 46 H        6.5200    12.8730    -2.0120 H     1 <1>   0.1500 
 47 H        5.6220    15.1820     0.6720 H     1 <1>   0.0800 
 48 H        5.2310    14.5270    -0.9140 H     1 <1>   0.0800 
 49 H        6.9040    14.5060    -0.3270 H     1 <1>   0.0800 
@<TRIPOS>BOND
  1   1   2  1   
  2   1   3  1   
  3   2   4  2   
  4   2   5  1   
  5   3   6  2   
  6   3  27  1   
  7   4   6  1   
  8   4   7  1   
  9   5   8  1   
 10   5  28  1   
 11   5  29  1   
 12   6  30  1   
 13   7   9  1   
 14   7  10  1   
 15   7  11  1   
 16   8   9  1   
 17   8  31  1   
 18   8  32  1   
 19  10  12  1   
 20  10  33  1   
 21  10  34  1   
 22  11  13  1   
 23  11  35  1   
 24  11  36  1   
 25  12  14  1   
 26  12  37  1   
 27  12  38  1   
 28  13  14  1   
 29  13  39  1   
 30  13  40  1   
 31  14  15  am  
 32  15  16  2   
 33  15  17  1   
 34  17  18  1   
 35  17  41  1   
 36  17  42  1   
 37  18  19  1   
 38  19  20  ar  
 39  19  21  ar  
 40  20  22  ar  
 41  20  43  1   
 42  21  23  ar  
 43  21  44  1   
 44  22  24  1   
 45  22  25  ar  
 46  23  25  ar  
 47  23  45  1   
 48  24  26  1   
 49  25  46  1   
 50  26  47  1   
 51  26  48  1   
 52  26  49  1   
@<TRIPOS>SUBSTRUCTURE
  1 ****  13 GROUP 4 **** **** 0

# MOE 2024.06 (io_trps.svl 2023.06)
