@<TRIPOS>MOLECULE
NONAME
50 53 1 0 0 
SMALL
USER_CHARGES


@<TRIPOS>ATOM
  1 O       -2.4070     0.0310     0.3970 O.2   1 <1>  -0.5700 
  2 C       -2.3800     0.7900    -0.5620 C.2   1 <1>   0.5440 
  3 N       -3.2690     0.5060    -1.5710 N.am  1 <1>  -0.6600 
  4 C       -1.5270     1.9670    -0.6030 C.ar  1 <1>   0.0860 
  5 C       -4.6160     1.1480    -1.4780 C.3   1 <1>   0.1400 
  6 C       -3.3400    -0.9060    -2.0720 C.3   1 <1>   0.1400 
  7 C       -0.7470     2.3550     0.5060 C.ar  1 <1>  -0.1520 
  8 C       -1.4370     2.7820    -1.7270 C.ar  1 <1>  -0.1500 
  9 C       -5.5490     0.3600    -0.5150 C.3   1 <1>   0.4230 
 10 C       -4.4760    -1.7100    -1.3930 C.3   1 <1>   0.3430 
 11 N       -0.6000     1.7560     1.7300 N.pl3 1 <1>   0.0330 
 12 C        0.0450     3.4990     0.4910 C.ar  1 <1>   0.0000 
 13 C       -0.6410     3.9290    -1.7540 C.ar  1 <1>  -0.1500 
 14 N       -4.9830    -1.0010    -0.1670 N.4   1 <1>  -0.9590 
 15 C       -6.9780     0.2340    -1.0910 C.3   1 <1>   0.1200 
 16 C        0.2570     2.5090     2.4810 C.2   1 <1>  -0.3020 
 17 C        0.0970     4.2940    -0.6530 C.ar  1 <1>  -0.1500 
 18 C        0.6660     3.5760     1.7560 C.2   1 <1>  -0.1500 
 19 C       -5.9370    -1.7610     0.7020 C.3   1 <1>   0.4230 
 20 O       -7.7950    -0.5070    -0.2300 O.3   1 <1>  -0.5600 
 21 C       -7.3460    -1.8030     0.0640 C.3   1 <1>   0.1200 
 22 C       -5.3800    -3.1550     1.0290 C.3   1 <1>  -0.1600 
 23 C       -6.1280    -3.8290     2.1900 C.3   1 <1>  -0.1600 
 24 C       -5.4920    -5.1770     2.5390 C.3   1 <1>  -0.2400 
 25 H       -4.5170     2.1610    -1.1250 H     1 <1>   0.0800 
 26 H       -5.0470     1.1960    -2.4640 H     1 <1>   0.0800 
 27 H       -3.4800    -0.9050    -3.1390 H     1 <1>   0.0800 
 28 H       -2.4010    -1.3970    -1.8750 H     1 <1>   0.0800 
 29 H       -1.9910     2.5360    -2.6140 H     1 <1>   0.1500 
 30 H       -5.6280     0.9350     0.3930 H     1 <1>   0.0800 
 31 H       -4.0950    -2.6830    -1.1340 H     1 <1>   0.0800 
 32 H       -5.2820    -1.8490    -2.0940 H     1 <1>   0.0800 
 33 H       -1.0560     0.8740     1.9980 H     1 <1>   0.2700 
 34 H       -0.6060     4.5290    -2.6480 H     1 <1>   0.1500 
 35 H       -4.1190    -0.7890     0.3760 H     1 <1>   0.4500 
 36 H       -6.9720    -0.2470    -2.0540 H     1 <1>   0.0800 
 37 H       -7.4220     1.2080    -1.1980 H     1 <1>   0.0800 
 38 H        0.5260     2.2360     3.4860 H     1 <1>   0.1500 
 39 H        0.7140     5.1750    -0.6560 H     1 <1>   0.1500 
 40 H        1.3410     4.3610     2.0490 H     1 <1>   0.1500 
 41 H       -6.0320    -1.2290     1.6350 H     1 <1>   0.0800 
 42 H       -8.0540    -2.2340     0.7500 H     1 <1>   0.0800 
 43 H       -7.3510    -2.3850    -0.8400 H     1 <1>   0.0800 
 44 H       -5.4410    -3.7940     0.1650 H     1 <1>   0.0800 
 45 H       -4.3460    -3.0580     1.3130 H     1 <1>   0.0800 
 46 H       -6.1020    -3.1970     3.0620 H     1 <1>   0.0800 
 47 H       -7.1600    -3.9960     1.9310 H     1 <1>   0.0800 
 48 H       -4.4660    -5.0490     2.8400 H     1 <1>   0.0800 
 49 H       -5.5250    -5.8450     1.6960 H     1 <1>   0.0800 
 50 H       -6.0260    -5.6360     3.3530 H     1 <1>   0.0800 
@<TRIPOS>BOND
  1   1   2  2   
  2   2   3  am  
  3   2   4  1   
  4   3   5  1   
  5   3   6  1   
  6   4   7  ar  
  7   4   8  ar  
  8   5   9  1   
  9   5  25  1   
 10   5  26  1   
 11   6  10  1   
 12   6  27  1   
 13   6  28  1   
 14   7  11  1   
 15   7  12  ar  
 16   8  13  ar  
 17   8  29  1   
 18   9  14  1   
 19   9  15  1   
 20   9  30  1   
 21  10  14  1   
 22  10  31  1   
 23  10  32  1   
 24  11  16  1   
 25  11  33  1   
 26  12  17  ar  
 27  12  18  1   
 28  13  17  ar  
 29  13  34  1   
 30  14  19  1   
 31  14  35  1   
 32  15  20  1   
 33  15  36  1   
 34  15  37  1   
 35  16  18  2   
 36  16  38  1   
 37  17  39  1   
 38  18  40  1   
 39  19  21  1   
 40  19  22  1   
 41  19  41  1   
 42  20  21  1   
 43  21  42  1   
 44  21  43  1   
 45  22  23  1   
 46  22  44  1   
 47  22  45  1   
 48  23  24  1   
 49  23  46  1   
 50  23  47  1   
 51  24  48  1   
 52  24  49  1   
 53  24  50  1   
@<TRIPOS>SUBSTRUCTURE
  1 ****   1 GROUP 4 **** **** 0

# MOE 2024.06 (io_trps.svl 2023.06)
