@<TRIPOS>MOLECULE
NONAME
57 59 1 0 0 
SMALL
USER_CHARGES


@<TRIPOS>ATOM
  1 O       -1.6330    -0.2070     1.4340 O.3   1 <1>  -0.5600 
  2 C       -2.1970    -0.9720     0.4240 C.3   1 <1>   0.1200 
  3 C       -1.0300     0.9720     0.9990 C.3   1 <1>   0.0400 
  4 C       -2.7860    -2.2250     1.0850 C.3   1 <1>   0.3430 
  5 N       -3.3910    -3.1810     0.1000 N.4   1 <1>  -0.9590 
  6 C       -4.6190    -2.6230    -0.5450 C.3   1 <1>   0.3430 
  7 C       -3.6820    -4.4800     0.7760 C.3   1 <1>   0.3430 
  8 C       -5.1470    -3.6010    -1.5940 C.3   1 <1>  -0.1600 
  9 C       -4.1870    -5.4940    -0.2470 C.3   1 <1>  -0.1600 
 10 C       -5.4410    -4.9750    -0.9730 C.3   1 <1>  -0.0800 
 11 C       -5.9710    -5.9640    -2.0290 C.3   1 <1>   0.2090 
 12 N       -6.2540    -7.2830    -1.4010 N.pl3 1 <1>  -0.8380 
 13 C       -7.4320    -7.5180    -0.7100 C.ar  1 <1>   0.7200 
 14 C       -5.4250    -8.4260    -1.8860 C.3   1 <1>   0.1290 
 15 N       -8.2600    -6.4890    -0.5480 N.ar  1 <1>  -0.6200 
 16 N       -7.6290    -8.7510    -0.2590 N.ar  1 <1>  -0.6200 
 17 C       -9.3720    -6.7270     0.1040 C.ar  1 <1>   0.1670 
 18 C       -8.7410    -8.9740     0.3930 C.ar  1 <1>   0.1670 
 19 C       -9.6700    -7.9750     0.6160 C.ar  1 <1>  -0.1430 
 20 C      -10.3060    -5.5370     0.2730 C.3   1 <1>  -0.0170 
 21 C       -8.9400   -10.3960     0.8830 C.3   1 <1>  -0.0970 
 22 C      -10.9690    -8.2380     1.3810 C.3   1 <1>  -0.0170 
 23 C      -11.7210    -5.9320     0.7150 C.3   1 <1>  -0.1600 
 24 C      -11.6530    -6.9510     1.8550 C.3   1 <1>  -0.1600 
 25 H       -1.4220    -1.2350    -0.2750 H     1 <1>   0.0800 
 26 H       -2.9610    -0.3850    -0.0540 H     1 <1>   0.0800 
 27 H       -0.6300     1.4820     1.8590 H     1 <1>   0.0800 
 28 H       -1.7650     1.5980     0.5210 H     1 <1>   0.0800 
 29 H       -0.2300     0.7370     0.3170 H     1 <1>   0.0800 
 30 H       -3.5310    -1.9220     1.8010 H     1 <1>   0.0800 
 31 H       -1.9900    -2.7200     1.6170 H     1 <1>   0.0800 
 32 H       -2.7030    -3.3770    -0.6390 H     1 <1>   0.4500 
 33 H       -4.3980    -1.6800    -1.0180 H     1 <1>   0.0800 
 34 H       -5.3790    -2.4570     0.2030 H     1 <1>   0.0800 
 35 H       -4.4330    -4.3380     1.5360 H     1 <1>   0.0800 
 36 H       -2.7910    -4.8620     1.2480 H     1 <1>   0.0800 
 37 H       -4.4330    -3.6940    -2.3940 H     1 <1>   0.0800 
 38 H       -6.0550    -3.2010    -2.0130 H     1 <1>   0.0800 
 39 H       -4.4290    -6.4040     0.2770 H     1 <1>   0.0800 
 40 H       -3.4100    -5.7250    -0.9530 H     1 <1>   0.0800 
 41 H       -6.2200    -4.8410    -0.2420 H     1 <1>   0.0800 
 42 H       -5.2500    -6.0820    -2.8190 H     1 <1>   0.0800 
 43 H       -6.8750    -5.5790    -2.4720 H     1 <1>   0.0800 
 44 H       -4.4610    -8.0840    -2.2170 H     1 <1>   0.0800 
 45 H       -5.9290    -8.9150    -2.7020 H     1 <1>   0.0800 
 46 H       -5.2750    -9.1400    -1.0940 H     1 <1>   0.0800 
 47 H      -10.3650    -4.9980    -0.6560 H     1 <1>   0.0800 
 48 H       -9.8750    -4.8810     1.0070 H     1 <1>   0.0800 
 49 H       -8.2870   -11.0660     0.3520 H     1 <1>   0.0800 
 50 H       -9.9510   -10.7190     0.7200 H     1 <1>   0.0800 
 51 H       -8.7080   -10.4520     1.9310 H     1 <1>   0.0800 
 52 H      -10.7750    -8.8560     2.2390 H     1 <1>   0.0800 
 53 H      -11.6410    -8.7710     0.7310 H     1 <1>   0.0800 
 54 H      -12.2480    -6.3630    -0.1190 H     1 <1>   0.0800 
 55 H      -12.2580    -5.0550     1.0330 H     1 <1>   0.0800 
 56 H      -11.0970    -6.5320     2.6770 H     1 <1>   0.0800 
 57 H      -12.6450    -7.1780     2.2050 H     1 <1>   0.0800 
@<TRIPOS>BOND
  1   1   2  1   
  2   1   3  1   
  3   2   4  1   
  4   2  25  1   
  5   2  26  1   
  6   3  27  1   
  7   3  28  1   
  8   3  29  1   
  9   4   5  1   
 10   4  30  1   
 11   4  31  1   
 12   5   6  1   
 13   5   7  1   
 14   5  32  1   
 15   6   8  1   
 16   6  33  1   
 17   6  34  1   
 18   7   9  1   
 19   7  35  1   
 20   7  36  1   
 21   8  10  1   
 22   8  37  1   
 23   8  38  1   
 24   9  10  1   
 25   9  39  1   
 26   9  40  1   
 27  10  11  1   
 28  10  41  1   
 29  11  12  1   
 30  11  42  1   
 31  11  43  1   
 32  12  13  1   
 33  12  14  1   
 34  13  15  ar  
 35  13  16  ar  
 36  14  44  1   
 37  14  45  1   
 38  14  46  1   
 39  15  17  ar  
 40  16  18  ar  
 41  17  19  ar  
 42  17  20  1   
 43  18  19  ar  
 44  18  21  1   
 45  19  22  1   
 46  20  23  1   
 47  20  47  1   
 48  20  48  1   
 49  21  49  1   
 50  21  50  1   
 51  21  51  1   
 52  22  24  1   
 53  22  52  1   
 54  22  53  1   
 55  23  24  1   
 56  23  54  1   
 57  23  55  1   
 58  24  56  1   
 59  24  57  1   
@<TRIPOS>SUBSTRUCTURE
  1 ****  10 GROUP 4 **** **** 0

# MOE 2024.06 (io_trps.svl 2023.06)
