@<TRIPOS>MOLECULE
NONAME
44 46 1 0 0 
SMALL
USER_CHARGES


@<TRIPOS>ATOM
  1 CL       0.2410     1.1540     2.1840 Cl    1 <1>  -0.1230 
  2 C        1.2030     2.3790     1.3770 C.2   1 <1>   0.1230 
  3 C        0.8440     3.0700     0.2310 C.2   1 <1>   0.1390 
  4 C        2.4180     2.8340     1.7340 C.2   1 <1>  -0.3020 
  5 N        1.7760     3.9120    -0.1180 N.2   1 <1>  -0.7070 
  6 N        2.7470     3.7630     0.8130 N.pl3 1 <1>   0.3140 
  7 C        3.9910     4.5520     0.7720 C.3   1 <1>   0.0960 
  8 C        3.9560     5.4810    -0.4500 C.3   1 <1>   0.3430 
  9 N        5.1500     6.3860    -0.5550 N.4   1 <1>  -0.9590 
 10 C        4.9140     7.4140    -1.6060 C.3   1 <1>   0.5240 
 11 C        6.4310     5.6470    -0.8110 C.3   1 <1>   0.2630 
 12 C        5.9680     8.4830    -1.4400 C.2   1 <1>  -0.1810 
 13 C        7.0040     8.7480    -2.3290 C.2   1 <1>   0.1390 
 14 C        6.1500     9.3700    -0.4360 C.2   1 <1>  -0.3020 
 15 N        7.7710     9.6980    -1.9070 N.2   1 <1>  -0.7070 
 16 N        7.2450    10.1180    -0.7300 N.pl3 1 <1>   0.5930 
 17 C        7.8240    11.1230     0.0920 C.ar  1 <1>  -0.0230 
 18 C        7.1510    12.3090     0.4010 C.ar  1 <1>  -0.1440 
 19 C        9.0970    10.9130     0.6160 C.ar  1 <1>  -0.1500 
 20 C        7.7470    13.2350     1.2420 C.ar  1 <1>  -0.1500 
 21 C        5.7770    12.6260    -0.1760 C.3   1 <1>  -0.0970 
 22 C        9.6840    11.8440     1.4510 C.ar  1 <1>  -0.1500 
 23 C        9.0060    13.0060     1.7690 C.ar  1 <1>  -0.1500 
 24 H       -0.0820     2.9280    -0.3000 H     1 <1>   0.1500 
 25 H        3.0340     2.5480     2.5660 H     1 <1>   0.1500 
 26 H        4.8150     3.8680     0.7100 H     1 <1>   0.0800 
 27 H        4.0530     5.1240     1.6790 H     1 <1>   0.0800 
 28 H        3.0610     6.0800    -0.3830 H     1 <1>   0.0800 
 29 H        3.8770     4.8780    -1.3400 H     1 <1>   0.0800 
 30 H        5.2570     6.9250     0.3160 H     1 <1>   0.4500 
 31 H        3.9390     7.8580    -1.4820 H     1 <1>   0.0800 
 32 H        4.9710     6.9760    -2.5900 H     1 <1>   0.0800 
 33 H        6.3720     5.0960    -1.7360 H     1 <1>   0.0800 
 34 H        6.6360     4.9550    -0.0100 H     1 <1>   0.0800 
 35 H        7.2570     6.3380    -0.8760 H     1 <1>   0.0800 
 36 H        7.1760     8.2350    -3.2630 H     1 <1>   0.1500 
 37 H        5.5960     9.5400     0.4680 H     1 <1>   0.1500 
 38 H        9.6340    10.0150     0.3640 H     1 <1>   0.1500 
 39 H        7.2370    14.1490     1.4930 H     1 <1>   0.1500 
 40 H        5.7540    12.4140    -1.2300 H     1 <1>   0.0800 
 41 H        5.5400    13.6680    -0.0460 H     1 <1>   0.0800 
 42 H        5.0210    12.0440     0.3200 H     1 <1>   0.0800 
 43 H       10.6680    11.6680     1.8510 H     1 <1>   0.1500 
 44 H        9.4590    13.7330     2.4200 H     1 <1>   0.1500 
@<TRIPOS>BOND
  1   1   2  1   
  2   2   3  1   
  3   2   4  2   
  4   3   5  2   
  5   3  24  1   
  6   4   6  1   
  7   4  25  1   
  8   5   6  1   
  9   6   7  1   
 10   7   8  1   
 11   7  26  1   
 12   7  27  1   
 13   8   9  1   
 14   8  28  1   
 15   8  29  1   
 16   9  10  1   
 17   9  11  1   
 18   9  30  1   
 19  10  12  1   
 20  10  31  1   
 21  10  32  1   
 22  11  33  1   
 23  11  34  1   
 24  11  35  1   
 25  12  13  1   
 26  12  14  2   
 27  13  15  2   
 28  13  36  1   
 29  14  16  1   
 30  14  37  1   
 31  15  16  1   
 32  16  17  1   
 33  17  18  ar  
 34  17  19  ar  
 35  18  20  ar  
 36  18  21  1   
 37  19  22  ar  
 38  19  38  1   
 39  20  23  ar  
 40  20  39  1   
 41  21  40  1   
 42  21  41  1   
 43  21  42  1   
 44  22  23  ar  
 45  22  43  1   
 46  23  44  1   
@<TRIPOS>SUBSTRUCTURE
  1 ****   9 GROUP 4 **** **** 0

# MOE 2024.06 (io_trps.svl 2023.06)
