@<TRIPOS>MOLECULE
NONAME
47 49 1 0 0 
SMALL
USER_CHARGES


@<TRIPOS>ATOM
  1 O        2.0350    -1.1130    -2.4030 O.2   1 <1>  -0.5700 
  2 C        1.3490    -1.8550    -1.7190 C.2   1 <1>   0.5440 
  3 N        0.3260    -1.2700    -0.9910 N.am  1 <1>  -0.6600 
  4 C        1.6260    -3.2950    -1.7370 C.ar  1 <1>   0.3960 
  5 C        0.0980     0.1910    -0.9630 C.3   1 <1>   0.1400 
  6 C       -0.6920    -1.9770    -0.1780 C.3   1 <1>   0.1400 
  7 N        1.2890    -4.0770    -0.6990 N.ar  1 <1>  -0.6200 
  8 C        2.2420    -3.8350    -2.8730 C.ar  1 <1>   0.1600 
  9 C       -0.9790     0.4020     0.0960 C.3   1 <1>  -0.1600 
 10 C       -1.7410    -0.9190     0.1420 C.3   1 <1>  -0.1600 
 11 C        1.5540    -5.3500    -0.8780 C.ar  1 <1>   0.4100 
 12 N        2.5330    -5.1170    -3.0640 N.ar  1 <1>  -0.6200 
 13 N        1.1480    -6.1470     0.1520 N.pl3 1 <1>  -0.8690 
 14 C        2.1740    -5.8510    -2.0310 C.ar  1 <1>   0.1600 
 15 C       -0.1970    -6.7430     0.0310 C.3   1 <1>   0.4330 
 16 C       -1.2310    -5.7850     0.6480 C.ar  1 <1>   0.1670 
 17 C       -0.1730    -8.1160     0.7180 C.3   1 <1>  -0.1600 
 18 N       -1.0370    -5.3900     1.9040 N.ar  1 <1>  -0.6200 
 19 C       -2.3010    -5.3620    -0.1310 C.ar  1 <1>  -0.1500 
 20 C       -1.4970    -8.8840     0.5780 C.3   1 <1>  -0.2400 
 21 C       -1.9420    -4.5590     2.3930 C.ar  1 <1>   0.1600 
 22 C       -3.2340    -4.4890     0.3890 C.ar  1 <1>  -0.1430 
 23 C       -3.0380    -4.0870     1.6920 C.ar  1 <1>  -0.1500 
 24 C       -4.4120    -4.0010    -0.4350 C.3   1 <1>  -0.0970 
 25 H       -0.2520     0.5080    -1.9310 H     1 <1>   0.0800 
 26 H        1.0070     0.7150    -0.7190 H     1 <1>   0.0800 
 27 H       -0.2340    -2.3390     0.7280 H     1 <1>   0.0800 
 28 H       -1.1190    -2.8030    -0.7200 H     1 <1>   0.0800 
 29 H        2.5040    -3.1610    -3.6710 H     1 <1>   0.1500 
 30 H       -1.6140     1.2370    -0.1410 H     1 <1>   0.0800 
 31 H       -0.5020     0.5810     1.0430 H     1 <1>   0.0800 
 32 H       -2.2040    -1.0950     1.0960 H     1 <1>   0.0800 
 33 H       -2.4960    -0.9350    -0.6250 H     1 <1>   0.0800 
 34 H        1.0900    -5.5820     1.0110 H     1 <1>   0.4000 
 35 H        2.3650    -6.9070    -2.0710 H     1 <1>   0.1500 
 36 H       -0.4230    -6.8870    -1.0110 H     1 <1>   0.0800 
 37 H        0.0450    -7.9800     1.7630 H     1 <1>   0.0800 
 38 H        0.6160    -8.7040     0.2840 H     1 <1>   0.0800 
 39 H       -2.4030    -5.7100    -1.1420 H     1 <1>   0.1500 
 40 H       -2.2990    -8.3450     1.0540 H     1 <1>   0.0800 
 41 H       -1.4130    -9.8460     1.0510 H     1 <1>   0.0800 
 42 H       -1.7430    -9.0330    -0.4590 H     1 <1>   0.0800 
 43 H       -1.8030    -4.2340     3.4100 H     1 <1>   0.1500 
 44 H       -3.7250    -3.4130     2.1700 H     1 <1>   0.1500 
 45 H       -4.1010    -3.7980    -1.4450 H     1 <1>   0.0800 
 46 H       -4.8190    -3.0970    -0.0170 H     1 <1>   0.0800 
 47 H       -5.1810    -4.7520    -0.4510 H     1 <1>   0.0800 
@<TRIPOS>BOND
  1   1   2  2   
  2   2   3  am  
  3   2   4  1   
  4   3   5  1   
  5   3   6  1   
  6   4   7  ar  
  7   4   8  ar  
  8   5   9  1   
  9   5  25  1   
 10   5  26  1   
 11   6  10  1   
 12   6  27  1   
 13   6  28  1   
 14   7  11  ar  
 15   8  12  ar  
 16   8  29  1   
 17   9  10  1   
 18   9  30  1   
 19   9  31  1   
 20  10  32  1   
 21  10  33  1   
 22  11  13  1   
 23  11  14  ar  
 24  12  14  ar  
 25  13  15  1   
 26  13  34  1   
 27  14  35  1   
 28  15  16  1   
 29  15  17  1   
 30  15  36  1   
 31  16  18  ar  
 32  16  19  ar  
 33  17  20  1   
 34  17  37  1   
 35  17  38  1   
 36  18  21  ar  
 37  19  22  ar  
 38  19  39  1   
 39  20  40  1   
 40  20  41  1   
 41  20  42  1   
 42  21  23  ar  
 43  21  43  1   
 44  22  23  ar  
 45  22  24  1   
 46  23  44  1   
 47  24  45  1   
 48  24  46  1   
 49  24  47  1   
@<TRIPOS>SUBSTRUCTURE
  1 ****   7 GROUP 4 **** **** 0

# MOE 2024.06 (io_trps.svl 2023.06)
