@<TRIPOS>MOLECULE
NONAME
44 45 1 0 0 
SMALL
USER_CHARGES


@<TRIPOS>ATOM
  1 CL      -0.6730     3.1490     2.8790 Cl    1 <1>  -0.1770 
  2 C       -0.5420     3.0890     1.1370 C.ar  1 <1>   0.1770 
  3 C       -1.5890     2.6140     0.3550 C.ar  1 <1>  -0.1440 
  4 C        0.6420     3.5410     0.5740 C.ar  1 <1>  -0.1500 
  5 C       -1.3870     2.6210    -1.0180 C.ar  1 <1>   0.1900 
  6 C       -2.8970     2.0980     0.9590 C.3   1 <1>   0.0440 
  7 C        0.8090     3.5310    -0.8010 C.ar  1 <1>  -0.1500 
  8 F       -2.3360     2.1930    -1.8080 F     1 <1>  -0.1900 
  9 C       -0.2170     3.0670    -1.6070 C.ar  1 <1>  -0.1500 
 10 C       -2.9100     0.5780     1.0770 C.2   1 <1>   0.5690 
 11 O       -2.0960     0.0670     1.8080 O.2   1 <1>  -0.5700 
 12 N       -3.8220    -0.1910     0.3980 N.am  1 <1>  -0.6600 
 13 C       -4.8670     0.2710    -0.5510 C.3   1 <1>   0.1400 
 14 C       -3.8500    -1.6690     0.5290 C.3   1 <1>   0.1400 
 15 C       -5.4550    -1.0100    -1.1390 C.3   1 <1>   0.2000 
 16 C       -5.1740    -2.0990    -0.1080 C.3   1 <1>  -0.0800 
 17 O       -6.8190    -0.9020    -1.3530 O.3   1 <1>  -0.6800 
 18 C       -5.1520    -3.5030    -0.7370 C.3   1 <1>  -0.0550 
 19 S       -4.9700    -4.8160     0.4690 S.o2  1 <1>   1.3330 
 20 O       -6.1100    -4.7570     1.3550 O.2   1 <1>  -0.6500 
 21 O       -3.6330    -4.7700     1.0150 O.2   1 <1>  -0.6500 
 22 N       -5.0980    -6.2190    -0.4780 N.am  1 <1>  -0.8490 
 23 C       -3.8340    -6.6130    -1.1090 C.3   1 <1>   0.1160 
 24 C       -5.6530    -7.3480     0.2750 C.3   1 <1>   0.1160 
 25 H        1.4280     3.8970     1.2160 H     1 <1>   0.1500 
 26 H       -3.7220     2.4430     0.3680 H     1 <1>   0.0800 
 27 H       -3.0440     2.5000     1.9430 H     1 <1>   0.0800 
 28 H        1.7280     3.8810    -1.2390 H     1 <1>   0.1500 
 29 H       -0.1140     3.0480    -2.6780 H     1 <1>   0.1500 
 30 H       -5.6160     0.8250    -0.0130 H     1 <1>   0.0800 
 31 H       -4.4370     0.8770    -1.3280 H     1 <1>   0.0800 
 32 H       -3.0080    -2.0810    -0.0010 H     1 <1>   0.0800 
 33 H       -3.7920    -1.9640     1.5650 H     1 <1>   0.0800 
 34 H       -4.9790    -1.2260    -2.0810 H     1 <1>   0.0800 
 35 H       -5.9250    -2.0640     0.6630 H     1 <1>   0.0800 
 36 H       -7.2940    -0.7930    -0.5060 H     1 <1>   0.4000 
 37 H       -4.3570    -3.5610    -1.4540 H     1 <1>   0.0800 
 38 H       -6.0770    -3.6530    -1.2610 H     1 <1>   0.0800 
 39 H       -3.9940    -7.4520    -1.7650 H     1 <1>   0.0800 
 40 H       -3.1080    -6.8880    -0.3600 H     1 <1>   0.0800 
 41 H       -3.4380    -5.7990    -1.6900 H     1 <1>   0.0800 
 42 H       -5.7350    -8.2150    -0.3580 H     1 <1>   0.0800 
 43 H       -6.6380    -7.1020     0.6360 H     1 <1>   0.0800 
 44 H       -5.0240    -7.5810     1.1180 H     1 <1>   0.0800 
@<TRIPOS>BOND
  1   1   2  1   
  2   2   3  ar  
  3   2   4  ar  
  4   3   5  ar  
  5   3   6  1   
  6   4   7  ar  
  7   4  25  1   
  8   5   8  1   
  9   5   9  ar  
 10   6  10  1   
 11   6  26  1   
 12   6  27  1   
 13   7   9  ar  
 14   7  28  1   
 15   9  29  1   
 16  10  11  2   
 17  10  12  am  
 18  12  13  1   
 19  12  14  1   
 20  13  15  1   
 21  13  30  1   
 22  13  31  1   
 23  14  16  1   
 24  14  32  1   
 25  14  33  1   
 26  15  16  1   
 27  15  17  1   
 28  15  34  1   
 29  16  18  1   
 30  16  35  1   
 31  17  36  1   
 32  18  19  1   
 33  18  37  1   
 34  18  38  1   
 35  19  20  2   
 36  19  21  2   
 37  19  22  am  
 38  22  23  1   
 39  22  24  1   
 40  23  39  1   
 41  23  40  1   
 42  23  41  1   
 43  24  42  1   
 44  24  43  1   
 45  24  44  1   
@<TRIPOS>SUBSTRUCTURE
  1 ****  12 GROUP 4 **** **** 0

# MOE 2024.06 (io_trps.svl 2023.06)
