@<TRIPOS>MOLECULE
NONAME
59 63 1 0 0 
SMALL
USER_CHARGES


@<TRIPOS>ATOM
  1 O        2.3060    -1.0880     2.0440 O.2   1 <1>  -0.5700 
  2 C        1.4400    -1.5270     1.3050 C.2   1 <1>   0.5440 
  3 N        0.6630    -0.5980     0.6320 N.am  1 <1>  -0.6600 
  4 C        1.3060    -2.9810     1.1640 C.ar  1 <1>   0.3960 
  5 C       -0.3810    -0.8940    -0.3760 C.3   1 <1>   0.1400 
  6 C        0.9000     0.8600     0.7270 C.3   1 <1>   0.1400 
  7 N        0.1280    -3.5530     0.8590 N.ar  1 <1>  -0.6200 
  8 C        2.4530    -3.7580     1.3700 C.ar  1 <1>   0.1600 
  9 C       -0.8890     0.4680    -0.8400 C.3   1 <1>  -0.1600 
 10 C        0.2410     1.4410    -0.5170 C.3   1 <1>  -0.1600 
 11 C        0.1730    -4.8720     0.7790 C.ar  1 <1>   0.4100 
 12 N        2.5240    -5.0790     1.2840 N.ar  1 <1>  -0.6200 
 13 N       -1.0170    -5.5210     0.4970 N.pl3 1 <1>  -0.8380 
 14 C        1.3530    -5.6010     0.9830 C.ar  1 <1>   0.1600 
 15 C       -1.9870    -4.8750    -0.4270 C.3   1 <1>   0.2090 
 16 C       -1.6550    -6.2700     1.6090 C.3   1 <1>   0.2090 
 17 C       -2.8890    -5.9480    -1.0380 C.3   1 <1>  -0.1600 
 18 C       -2.5490    -7.3650     1.0260 C.3   1 <1>  -0.1600 
 19 C       -3.5790    -6.7760     0.0550 C.3   1 <1>   0.1000 
 20 C       -4.4340    -7.8730    -0.5540 C.2   1 <1>  -0.3320 
 21 N       -3.9650    -8.8790    -1.3220 N.pl3 1 <1>   0.3000 
 22 C       -5.7670    -8.0590    -0.4560 C.2   1 <1>  -0.1500 
 23 N       -4.9500    -9.7060    -1.7190 N.2   1 <1>  -0.7070 
 24 C       -6.0310    -9.2080    -1.1970 C.2   1 <1>   0.1080 
 25 C       -7.3970    -9.8450    -1.4010 C.3   1 <1>   0.1640 
 26 C       -8.5090    -9.1150    -0.6570 C.ar  1 <1>  -0.1430 
 27 C       -9.2190    -8.0980    -1.2780 C.ar  1 <1>  -0.1500 
 28 C       -8.8140    -9.4530     0.6540 C.ar  1 <1>  -0.1500 
 29 C      -10.2230    -7.4290    -0.5990 C.ar  1 <1>  -0.1500 
 30 C       -9.8170    -8.7850     1.3340 C.ar  1 <1>  -0.1500 
 31 C      -10.5230    -7.7730     0.7080 C.ar  1 <1>  -0.1500 
 32 H       -1.1800    -1.4700     0.0580 H     1 <1>   0.0800 
 33 H        0.0590    -1.4360    -1.1950 H     1 <1>   0.0800 
 34 H        1.9530     1.0830     0.7600 H     1 <1>   0.0800 
 35 H        0.4250     1.2310     1.6190 H     1 <1>   0.0800 
 36 H        3.3680    -3.2480     1.6200 H     1 <1>   0.1500 
 37 H       -1.7640     0.7250    -0.2690 H     1 <1>   0.0800 
 38 H       -1.1420     0.4650    -1.8850 H     1 <1>   0.0800 
 39 H        0.9590     1.4490    -1.3190 H     1 <1>   0.0800 
 40 H       -0.1120     2.4430    -0.3510 H     1 <1>   0.0800 
 41 H        1.2930    -6.6690     0.8820 H     1 <1>   0.1500 
 42 H       -1.4550    -4.3570    -1.2080 H     1 <1>   0.0800 
 43 H       -2.5750    -4.1560     0.1180 H     1 <1>   0.0800 
 44 H       -2.2420    -5.5900     2.2040 H     1 <1>   0.0800 
 45 H       -0.9030    -6.7090     2.2420 H     1 <1>   0.0800 
 46 H       -2.2890    -6.5830    -1.6640 H     1 <1>   0.0800 
 47 H       -3.6320    -5.4790    -1.6570 H     1 <1>   0.0800 
 48 H       -3.0590    -7.8710     1.8260 H     1 <1>   0.0800 
 49 H       -1.9270    -8.0830     0.5230 H     1 <1>   0.0800 
 50 H       -4.2280    -6.1190     0.6120 H     1 <1>   0.0800 
 51 H       -2.9850    -9.0280    -1.5890 H     1 <1>   0.2700 
 52 H       -6.4950    -7.4670     0.0710 H     1 <1>   0.1500 
 53 H       -7.3490   -10.8660    -1.0700 H     1 <1>   0.0800 
 54 H       -7.6110    -9.8590    -2.4540 H     1 <1>   0.0800 
 55 H       -8.9900    -7.8210    -2.2920 H     1 <1>   0.1500 
 56 H       -8.2670   -10.2360     1.1500 H     1 <1>   0.1500 
 57 H      -10.7700    -6.6420    -1.0870 H     1 <1>   0.1500 
 58 H      -10.0490    -9.0530     2.3500 H     1 <1>   0.1500 
 59 H      -11.3030    -7.2530     1.2360 H     1 <1>   0.1500 
@<TRIPOS>BOND
  1   1   2  2   
  2   2   3  am  
  3   2   4  1   
  4   3   5  1   
  5   3   6  1   
  6   4   7  ar  
  7   4   8  ar  
  8   5   9  1   
  9   5  32  1   
 10   5  33  1   
 11   6  10  1   
 12   6  34  1   
 13   6  35  1   
 14   7  11  ar  
 15   8  12  ar  
 16   8  36  1   
 17   9  10  1   
 18   9  37  1   
 19   9  38  1   
 20  10  39  1   
 21  10  40  1   
 22  11  13  1   
 23  11  14  ar  
 24  12  14  ar  
 25  13  15  1   
 26  13  16  1   
 27  14  41  1   
 28  15  17  1   
 29  15  42  1   
 30  15  43  1   
 31  16  18  1   
 32  16  44  1   
 33  16  45  1   
 34  17  19  1   
 35  17  46  1   
 36  17  47  1   
 37  18  19  1   
 38  18  48  1   
 39  18  49  1   
 40  19  20  1   
 41  19  50  1   
 42  20  21  1   
 43  20  22  2   
 44  21  23  1   
 45  21  51  1   
 46  22  24  1   
 47  22  52  1   
 48  23  24  2   
 49  24  25  1   
 50  25  26  1   
 51  25  53  1   
 52  25  54  1   
 53  26  27  ar  
 54  26  28  ar  
 55  27  29  ar  
 56  27  55  1   
 57  28  30  ar  
 58  28  56  1   
 59  29  31  ar  
 60  29  57  1   
 61  30  31  ar  
 62  30  58  1   
 63  31  59  1   
@<TRIPOS>SUBSTRUCTURE
  1 ****  15 GROUP 4 **** **** 0

# MOE 2024.06 (io_trps.svl 2023.06)
