@<TRIPOS>MOLECULE
NONAME
56 58 1 0 0 
SMALL
USER_CHARGES


@<TRIPOS>ATOM
  1 O       -1.5420     1.0460    -0.3100 O.2   1 <1>  -0.5700 
  2 C       -0.9540     2.0970    -0.3120 C.2   1 <1>   0.5690 
  3 N       -1.3620     3.1160     0.4830 N.am  1 <1>  -0.7300 
  4 C        0.2610     2.2960    -1.2400 C.3   1 <1>   0.1810 
  5 C       -0.5830     4.3600     0.6090 C.3   1 <1>   0.3640 
  6 O        1.0150     3.4680    -0.9640 O.3   1 <1>  -0.5600 
  7 C       -1.4790     5.5360     0.9930 C.ar  1 <1>  -0.1440 
  8 C        0.2130     4.6010    -0.6890 C.3   1 <1>   0.2610 
  9 C       -2.3920     6.0770     0.0970 C.ar  1 <1>  -0.1500 
 10 C       -1.3680     6.0940     2.2600 C.ar  1 <1>  -0.1500 
 11 C        0.9810     5.9250    -0.5920 C.2   1 <1>   0.5690 
 12 C       -3.1670     7.1660     0.4580 C.ar  1 <1>  -0.1500 
 13 C       -2.1450     7.1800     2.6230 C.ar  1 <1>  -0.1500 
 14 O        0.6750     6.7910    -1.3830 O.2   1 <1>  -0.5700 
 15 N        1.8820     6.2120     0.4150 N.am  1 <1>  -0.6600 
 16 C       -3.0440     7.7190     1.7200 C.ar  1 <1>  -0.1500 
 17 C        2.2290     7.6350     0.7060 C.3   1 <1>   0.1400 
 18 C        2.6770     5.1910     1.1610 C.3   1 <1>   0.0600 
 19 C        0.9540     8.4300     1.0710 C.3   1 <1>   0.3430 
 20 N        0.9470     9.8390     0.5590 N.4   1 <1>  -0.9590 
 21 C       -0.2290    10.5600     1.1160 C.3   1 <1>   0.3430 
 22 C        0.8840     9.8680    -0.9300 C.3   1 <1>   0.3430 
 23 C       -0.0010    12.0730     1.1350 C.3   1 <1>  -0.1600 
 24 C        1.7670    10.9870    -1.4850 C.3   1 <1>  -0.1600 
 25 C        0.3380    12.7230    -0.2180 C.3   1 <1>  -0.1600 
 26 C        1.7290    12.3320    -0.7390 C.3   1 <1>  -0.1600 
 27 H       -2.1660     2.9800     1.0990 H     1 <1>   0.3700 
 28 H       -0.0820     2.3520    -2.2570 H     1 <1>   0.0800 
 29 H        0.9210     1.4530    -1.1480 H     1 <1>   0.0800 
 30 H        0.1260     4.2130     1.4040 H     1 <1>   0.0800 
 31 H       -0.4770     4.7050    -1.5070 H     1 <1>   0.0800 
 32 H       -2.5130     5.6550    -0.8860 H     1 <1>   0.1500 
 33 H       -0.6810     5.6800     2.9790 H     1 <1>   0.1500 
 34 H       -3.8750     7.5750    -0.2430 H     1 <1>   0.1500 
 35 H       -2.0640     7.5960     3.6130 H     1 <1>   0.1500 
 36 H       -3.6600     8.5560     2.0020 H     1 <1>   0.1500 
 37 H        2.9280     7.6850     1.5230 H     1 <1>   0.0800 
 38 H        2.7020     8.0460    -0.1690 H     1 <1>   0.0800 
 39 H        3.7260     5.4220     1.0850 H     1 <1>   0.0800 
 40 H        2.5300     4.2060     0.7580 H     1 <1>   0.0800 
 41 H        2.3950     5.1890     2.1990 H     1 <1>   0.0800 
 42 H        0.8520     8.4340     2.1430 H     1 <1>   0.0800 
 43 H        0.0970     7.9180     0.6650 H     1 <1>   0.0800 
 44 H        1.7980    10.3350     0.8490 H     1 <1>   0.4500 
 45 H       -1.1070    10.3290     0.5340 H     1 <1>   0.0800 
 46 H       -0.4100    10.2320     2.1270 H     1 <1>   0.0800 
 47 H        1.2200     8.9340    -1.3470 H     1 <1>   0.0800 
 48 H       -0.1350    10.0170    -1.2500 H     1 <1>   0.0800 
 49 H       -0.9050    12.5280     1.5020 H     1 <1>   0.0800 
 50 H        0.7670    12.3070     1.8520 H     1 <1>   0.0800 
 51 H        2.7850    10.6390    -1.5290 H     1 <1>   0.0800 
 52 H        1.4600    11.1520    -2.5040 H     1 <1>   0.0800 
 53 H       -0.4190    12.5020    -0.9520 H     1 <1>   0.0800 
 54 H        0.3300    13.7920    -0.0760 H     1 <1>   0.0800 
 55 H        2.4300    12.3240     0.0780 H     1 <1>   0.0800 
 56 H        2.0660    13.0950    -1.4210 H     1 <1>   0.0800 
@<TRIPOS>BOND
  1   1   2  2   
  2   2   3  am  
  3   2   4  1   
  4   3   5  1   
  5   3  27  1   
  6   4   6  1   
  7   4  28  1   
  8   4  29  1   
  9   5   7  1   
 10   5   8  1   
 11   5  30  1   
 12   6   8  1   
 13   7   9  ar  
 14   7  10  ar  
 15   8  11  1   
 16   8  31  1   
 17   9  12  ar  
 18   9  32  1   
 19  10  13  ar  
 20  10  33  1   
 21  11  14  2   
 22  11  15  am  
 23  12  16  ar  
 24  12  34  1   
 25  13  16  ar  
 26  13  35  1   
 27  15  17  1   
 28  15  18  1   
 29  16  36  1   
 30  17  19  1   
 31  17  37  1   
 32  17  38  1   
 33  18  39  1   
 34  18  40  1   
 35  18  41  1   
 36  19  20  1   
 37  19  42  1   
 38  19  43  1   
 39  20  21  1   
 40  20  22  1   
 41  20  44  1   
 42  21  23  1   
 43  21  45  1   
 44  21  46  1   
 45  22  24  1   
 46  22  47  1   
 47  22  48  1   
 48  23  25  1   
 49  23  49  1   
 50  23  50  1   
 51  24  26  1   
 52  24  51  1   
 53  24  52  1   
 54  25  26  1   
 55  25  53  1   
 56  25  54  1   
 57  26  55  1   
 58  26  56  1   
@<TRIPOS>SUBSTRUCTURE
  1 ****  11 GROUP 4 **** **** 0

# MOE 2024.06 (io_trps.svl 2023.06)
