@<TRIPOS>MOLECULE
Untitled Document
36 35 1 0 0 
SMALL
USER_CHARGES


@<TRIPOS>ATOM
  1 F       -1.4580    -0.0930     0.9770 F     1 <1>  -0.3400 
  2 C       -0.3980    -0.8730     1.1770 C.3   1 <1>   0.2410 
  3 C       -0.8470    -2.3250     1.2050 C.2   1 <1>   0.4480 
  4 O       -0.6380    -3.0290     2.1530 O.2   1 <1>  -0.5700 
  5 C       -1.5770    -2.8540    -0.0370 C.3   1 <1>   0.2810 
  6 N       -2.9620    -3.2640     0.3050 N.am  1 <1>  -0.7300 
  7 C       -0.8660    -4.0660    -0.6500 C.3   1 <1>  -0.0990 
  8 C       -4.0380    -3.0800    -0.4840 C.2   1 <1>   0.7800 
  9 C        0.5430    -3.7450    -1.0880 C.2   1 <1>   0.6590 
 10 O       -3.9350    -2.6710    -1.6210 O.2   1 <1>  -0.5700 
 11 O       -5.2080    -3.3880     0.0670 O.3   1 <1>  -0.4300 
 12 O        0.9810    -2.6230    -1.0740 O.2   1 <1>  -0.5700 
 13 O        1.2650    -4.7800    -1.4920 O.3   1 <1>  -0.4300 
 14 C       -6.4810    -3.2840    -0.5340 C.3   1 <1>   0.2800 
 15 C        2.6000    -4.6330    -1.9310 C.3   1 <1>   0.0400 
 16 C       -7.4670    -3.7570     0.5360 C.3   1 <1>  -0.2400 
 17 C       -6.5710    -4.2130    -1.7500 C.3   1 <1>  -0.2400 
 18 C       -6.7820    -1.8240    -0.8890 C.3   1 <1>  -0.2400 
 19 H        0.0280    -0.5810     2.1190 H     1 <1>   0.0800 
 20 H        0.2890    -0.6770     0.3760 H     1 <1>   0.0800 
 21 H       -1.6200    -2.0700    -0.7750 H     1 <1>   0.0800 
 22 H       -3.1180    -3.5900     1.2600 H     1 <1>   0.3700 
 23 H       -1.4130    -4.4020    -1.5120 H     1 <1>   0.0800 
 24 H       -0.8240    -4.8640     0.0680 H     1 <1>   0.0800 
 25 H        2.9770    -5.6010    -2.2080 H     1 <1>   0.0800 
 26 H        3.1870    -4.2220    -1.1270 H     1 <1>   0.0800 
 27 H        2.6160    -3.9710    -2.7790 H     1 <1>   0.0800 
 28 H       -7.2550    -4.7720     0.8170 H     1 <1>   0.0800 
 29 H       -8.4740    -3.7120     0.1620 H     1 <1>   0.0800 
 30 H       -7.4010    -3.1300     1.4070 H     1 <1>   0.0800 
 31 H       -6.2860    -5.2130    -1.4790 H     1 <1>   0.0800 
 32 H       -5.9410    -3.8690    -2.5490 H     1 <1>   0.0800 
 33 H       -7.5800    -4.2350    -2.1200 H     1 <1>   0.0800 
 34 H       -6.6400    -1.1920    -0.0310 H     1 <1>   0.0800 
 35 H       -7.8010    -1.7290    -1.2170 H     1 <1>   0.0800 
 36 H       -6.1520    -1.4810    -1.6890 H     1 <1>   0.0800 
@<TRIPOS>BOND
  1   1   2  1   
  2   2   3  1   
  3   2  19  1   
  4   2  20  1   
  5   3   4  2   
  6   3   5  1   
  7   5   6  1   
  8   5   7  1   
  9   5  21  1   
 10   6   8  am  
 11   6  22  1   
 12   7   9  1   
 13   7  23  1   
 14   7  24  1   
 15   8  10  2   
 16   8  11  1   
 17   9  12  2   
 18   9  13  1   
 19  11  14  1   
 20  13  15  1   
 21  14  16  1   
 22  14  17  1   
 23  14  18  1   
 24  15  25  1   
 25  15  26  1   
 26  15  27  1   
 27  16  28  1   
 28  16  29  1   
 29  16  30  1   
 30  17  31  1   
 31  17  32  1   
 32  17  33  1   
 33  18  34  1   
 34  18  35  1   
 35  18  36  1   
@<TRIPOS>SUBSTRUCTURE
  1 ****   6 GROUP 4 **** **** 0

# MOE 2024.06 (io_trps.svl 2023.06)
