@<TRIPOS>MOLECULE
NONAME
57 59 1 0 0 
SMALL
USER_CHARGES


@<TRIPOS>ATOM
  1 O       -4.2260     3.0190     0.4700 O.2   1 <1>  -0.5700 
  2 C       -3.5010     2.4950    -0.3560 C.2   1 <1>   0.5440 
  3 N       -3.8920     1.2820    -0.8770 N.am  1 <1>  -0.6600 
  4 C       -2.2480     3.1260    -0.7220 C.ar  1 <1>   0.0860 
  5 C       -2.9310     0.3970    -1.6190 C.3   1 <1>   0.3210 
  6 C       -5.3130     0.8090    -0.7620 C.3   1 <1>   0.1400 
  7 C       -1.2960     3.4230     0.2480 C.ar  1 <1>  -0.1500 
  8 C       -1.9470     3.4460    -2.0460 C.ar  1 <1>  -0.1500 
  9 C       -3.2280    -1.0960    -1.4600 C.2   1 <1>   0.0460 
 10 C       -5.5980     0.0110     0.5300 C.3   1 <1>   0.3430 
 11 C       -0.0710     3.9950    -0.0710 C.ar  1 <1>  -0.0230 
 12 C       -0.7310     4.0100    -2.3860 C.ar  1 <1>  -0.1500 
 13 N       -3.0530    -1.7240    -0.2760 N.2   1 <1>  -0.5650 
 14 C       -3.6570    -1.9700    -2.4040 C.2   1 <1>  -0.3320 
 15 N       -5.0420     0.6830     1.7480 N.4   1 <1>  -0.9590 
 16 N        0.8760     4.2670     0.9570 N.pl3 1 <1>   0.5930 
 17 C        0.2060     4.2760    -1.4050 C.ar  1 <1>  -0.1500 
 18 C       -3.3510    -2.9570    -0.5280 C.2   1 <1>   0.0360 
 19 N       -3.7300    -3.1720    -1.8030 N.pl3 1 <1>   0.0330 
 20 C       -3.9980    -1.7820    -3.8740 C.3   1 <1>  -0.0600 
 21 C       -3.7340     0.0740     2.1350 C.3   1 <1>   0.2630 
 22 C       -5.9990     0.7230     2.8850 C.3   1 <1>   0.2630 
 23 N        1.2850     3.3080     1.8250 N.2   1 <1>  -0.7070 
 24 C        1.4640     5.4570     1.2710 C.2   1 <1>  -0.3320 
 25 C        2.1130     3.8920     2.6270 C.2   1 <1>   0.1080 
 26 C        2.2670     5.2410     2.3330 C.2   1 <1>  -0.1500 
 27 C        1.2160     6.7710     0.5460 C.3   1 <1>  -0.0600 
 28 C        2.8110     3.1600     3.7480 C.3   1 <1>  -0.0590 
 29 H       -1.9290     0.5700    -1.2660 H     1 <1>   0.0800 
 30 H       -2.9590     0.6540    -2.6610 H     1 <1>   0.0800 
 31 H       -5.5660     0.2050    -1.6160 H     1 <1>   0.0800 
 32 H       -5.9660     1.6650    -0.7830 H     1 <1>   0.0800 
 33 H       -1.5090     3.1990     1.2800 H     1 <1>   0.1500 
 34 H       -2.6740     3.2510    -2.8140 H     1 <1>   0.1500 
 35 H       -5.1830    -0.9780     0.4370 H     1 <1>   0.0800 
 36 H       -6.6640    -0.0970     0.6290 H     1 <1>   0.0800 
 37 H       -0.5120     4.2420    -3.4150 H     1 <1>   0.1500 
 38 H       -4.8290     1.6610     1.4430 H     1 <1>   0.4500 
 39 H        1.1570     4.7000    -1.6760 H     1 <1>   0.1500 
 40 H       -3.3030    -3.7550     0.1930 H     1 <1>   0.1500 
 41 H       -3.9930    -4.0690    -2.2260 H     1 <1>   0.2700 
 42 H       -3.9090    -0.7510    -4.1650 H     1 <1>   0.0800 
 43 H       -5.0070    -2.1010    -4.0660 H     1 <1>   0.0800 
 44 H       -3.3310    -2.3650    -4.4850 H     1 <1>   0.0800 
 45 H       -3.8610    -0.9680     2.3800 H     1 <1>   0.0800 
 46 H       -3.3170     0.5880     2.9850 H     1 <1>   0.0800 
 47 H       -3.0370     0.1460     1.3170 H     1 <1>   0.0800 
 48 H       -6.2360    -0.2760     3.2100 H     1 <1>   0.0800 
 49 H       -6.9090     1.2190     2.5870 H     1 <1>   0.0800 
 50 H       -5.5690     1.2650     3.7110 H     1 <1>   0.0800 
 51 H        2.8930     5.9360     2.8620 H     1 <1>   0.1500 
 52 H        0.1610     6.9800     0.5040 H     1 <1>   0.0800 
 53 H        1.6050     6.7300    -0.4540 H     1 <1>   0.0800 
 54 H        1.7020     7.5780     1.0660 H     1 <1>   0.0800 
 55 H        3.2850     2.2780     3.3590 H     1 <1>   0.0800 
 56 H        2.0900     2.8690     4.4900 H     1 <1>   0.0800 
 57 H        3.5540     3.7880     4.2040 H     1 <1>   0.0800 
@<TRIPOS>BOND
  1   1   2  2   
  2   2   3  am  
  3   2   4  1   
  4   3   5  1   
  5   3   6  1   
  6   4   7  ar  
  7   4   8  ar  
  8   5   9  1   
  9   5  29  1   
 10   5  30  1   
 11   6  10  1   
 12   6  31  1   
 13   6  32  1   
 14   7  11  ar  
 15   7  33  1   
 16   8  12  ar  
 17   8  34  1   
 18   9  13  1   
 19   9  14  2   
 20  10  15  1   
 21  10  35  1   
 22  10  36  1   
 23  11  16  1   
 24  11  17  ar  
 25  12  17  ar  
 26  12  37  1   
 27  13  18  2   
 28  14  19  1   
 29  14  20  1   
 30  15  21  1   
 31  15  22  1   
 32  15  38  1   
 33  16  23  1   
 34  16  24  1   
 35  17  39  1   
 36  18  19  1   
 37  18  40  1   
 38  19  41  1   
 39  20  42  1   
 40  20  43  1   
 41  20  44  1   
 42  21  45  1   
 43  21  46  1   
 44  21  47  1   
 45  22  48  1   
 46  22  49  1   
 47  22  50  1   
 48  23  25  2   
 49  24  26  2   
 50  24  27  1   
 51  25  26  1   
 52  25  28  1   
 53  26  51  1   
 54  27  52  1   
 55  27  53  1   
 56  27  54  1   
 57  28  55  1   
 58  28  56  1   
 59  28  57  1   
@<TRIPOS>SUBSTRUCTURE
  1 ****   4 GROUP 4 **** **** 0

# MOE 2024.06 (io_trps.svl 2023.06)
