@<TRIPOS>MOLECULE
NONAME
34 35 1 0 0 
SMALL
USER_CHARGES


@<TRIPOS>ATOM
  1 O       -0.3500     0.2210     0.8040 O.co2 1 <1>  -0.9000 
  2 C       -1.2140     1.0800     0.6120 C.2   1 <1>   0.9060 
  3 O       -2.3640     0.9580     1.0620 O.co2 1 <1>  -0.9000 
  4 C       -0.8270     2.3180    -0.1710 C.3   1 <1>  -0.1860 
  5 C       -1.9930     3.1950    -0.6730 C.3   1 <1>   0.2000 
  6 C        0.1400     3.1040     0.7240 C.3   1 <1>   0.2090 
  7 O       -3.1190     2.4380    -0.9070 O.3   1 <1>  -0.6800 
  8 C       -2.3510     4.2800     0.3380 C.3   1 <1>  -0.1600 
  9 N        0.1430     4.5660     0.3800 N.pl3 1 <1>  -0.8380 
 10 C       -1.1780     5.2560     0.4820 C.3   1 <1>   0.2090 
 11 C        1.3010     5.2810     0.1400 C.ar  1 <1>   0.7200 
 12 N        2.4240     4.5920    -0.0520 N.ar  1 <1>  -0.6200 
 13 N        1.1970     6.6120     0.1180 N.ar  1 <1>  -0.6200 
 14 C        3.5100     5.2820    -0.2790 C.ar  1 <1>   0.1670 
 15 C        2.2950     7.2840    -0.1110 C.ar  1 <1>   0.1670 
 16 C        3.4980     6.6550    -0.3200 C.ar  1 <1>  -0.1500 
 17 C        4.7850     4.4950    -0.4970 C.3   1 <1>  -0.0970 
 18 C        2.1820     8.7940    -0.1360 C.3   1 <1>  -0.0970 
 19 H       -0.2790     1.9820    -1.0280 H     1 <1>   0.0800 
 20 H       -1.7200     3.6610    -1.6050 H     1 <1>   0.0800 
 21 H        1.1200     2.6650     0.6520 H     1 <1>   0.0800 
 22 H       -0.1710     3.0090     1.7520 H     1 <1>   0.0800 
 23 H       -3.1410     1.7640    -0.1600 H     1 <1>   0.4000 
 24 H       -3.2210     4.8190     0.0130 H     1 <1>   0.0800 
 25 H       -2.5630     3.8290     1.2910 H     1 <1>   0.0800 
 26 H       -1.2400     5.7730     1.4230 H     1 <1>   0.0800 
 27 H       -1.2440     5.9850    -0.3080 H     1 <1>   0.0800 
 28 H        4.3940     7.2130    -0.5070 H     1 <1>   0.1500 
 29 H        5.6190     5.1480    -0.6740 H     1 <1>   0.0800 
 30 H        4.6620     3.8440    -1.3440 H     1 <1>   0.0800 
 31 H        4.9860     3.8950     0.3720 H     1 <1>   0.0800 
 32 H        3.1370     9.2500    -0.3210 H     1 <1>   0.0800 
 33 H        1.8060     9.1400     0.8090 H     1 <1>   0.0800 
 34 H        1.4980     9.0890    -0.9100 H     1 <1>   0.0800 
@<TRIPOS>BOND
  1   1   2  ar  
  2   2   3  ar  
  3   2   4  1   
  4   4   5  1   
  5   4   6  1   
  6   4  19  1   
  7   5   7  1   
  8   5   8  1   
  9   5  20  1   
 10   6   9  1   
 11   6  21  1   
 12   6  22  1   
 13   7  23  1   
 14   8  10  1   
 15   8  24  1   
 16   8  25  1   
 17   9  10  1   
 18   9  11  1   
 19  10  26  1   
 20  10  27  1   
 21  11  12  ar  
 22  11  13  ar  
 23  12  14  ar  
 24  13  15  ar  
 25  14  16  ar  
 26  14  17  1   
 27  15  16  ar  
 28  15  18  1   
 29  16  28  1   
 30  17  29  1   
 31  17  30  1   
 32  17  31  1   
 33  18  32  1   
 34  18  33  1   
 35  18  34  1   
@<TRIPOS>SUBSTRUCTURE
  1 ****   9 GROUP 4 **** **** 0

# MOE 2024.06 (io_trps.svl 2023.06)
