@<TRIPOS>MOLECULE
NONAME
55 58 1 0 0 
SMALL
USER_CHARGES


@<TRIPOS>ATOM
  1 O       -0.5090     0.6720    -1.7310 O.2   1 <1>  -0.5700 
  2 C       -0.4550     1.7250    -1.1370 C.2   1 <1>   0.5690 
  3 N       -1.5350     2.2840    -0.5050 N.am  1 <1>  -0.5090 
  4 C        0.8850     2.4630    -1.1350 C.3   1 <1>   0.1810 
  5 C       -1.4690     3.6620     0.0830 C.3   1 <1>   0.3640 
  6 C       -2.8310     1.5780    -0.3550 C.3   1 <1>   0.0490 
  7 O        0.9610     3.4740    -0.1610 O.3   1 <1>  -0.5600 
  8 C       -2.6110     4.5270    -0.4600 C.ar  1 <1>  -0.1440 
  9 C       -0.1250     4.3800    -0.1900 C.3   1 <1>   0.2610 
 10 C       -3.3640     1.3390     1.0250 C.3   1 <1>  -0.2000 
 11 C       -2.8590     0.1920     0.2100 C.3   1 <1>  -0.2000 
 12 C       -2.9140     4.5570    -1.8160 C.ar  1 <1>  -0.1500 
 13 C       -3.3540     5.3120     0.4110 C.ar  1 <1>  -0.1500 
 14 C        0.1040     5.5450     0.7880 C.2   1 <1>   0.5690 
 15 C       -3.9390     5.3570    -2.2880 C.ar  1 <1>  -0.1500 
 16 C       -4.3800     6.1130    -0.0580 C.ar  1 <1>  -0.1500 
 17 O       -0.4610     5.5450     1.8610 O.2   1 <1>  -0.5700 
 18 N        0.9290     6.5820     0.4380 N.am  1 <1>  -0.6600 
 19 C       -4.6780     6.1400    -1.4170 C.ar  1 <1>   0.0830 
 20 C        1.8290     6.6270    -0.7400 C.3   1 <1>   0.1400 
 21 C        1.1970     7.7200     1.3420 C.3   1 <1>   0.1400 
 22 O       -5.6630     6.8960    -1.9610 O.3   1 <1>  -0.3620 
 23 C        2.9020     7.6680    -0.3910 C.3   1 <1>   0.0000 
 24 C        2.1740     8.6080     0.5760 C.3   1 <1>  -0.1600 
 25 C       -6.4730     7.7290    -1.1610 C.3   1 <1>   0.0400 
 26 C        4.0900     6.9920     0.3160 C.3   1 <1>  -0.2400 
 27 C        3.4040     8.4180    -1.6320 C.3   1 <1>  -0.2400 
 28 H        1.0510     2.9050    -2.1000 H     1 <1>   0.0800 
 29 H        1.6730     1.7610    -0.9360 H     1 <1>   0.0800 
 30 H       -1.5890     3.5530     1.1460 H     1 <1>   0.0800 
 31 H       -3.5290     1.8200    -1.1400 H     1 <1>   0.1000 
 32 H       -0.1630     4.7970    -1.1790 H     1 <1>   0.0800 
 33 H       -2.7870     1.6360     1.8830 H     1 <1>   0.1000 
 34 H       -4.4240     1.4200     1.1880 H     1 <1>   0.1000 
 35 H       -3.5700    -0.5080    -0.1920 H     1 <1>   0.1000 
 36 H       -1.9250    -0.2720     0.4740 H     1 <1>   0.1000 
 37 H       -2.3590     3.9540    -2.5140 H     1 <1>   0.1500 
 38 H       -3.1310     5.3080     1.4660 H     1 <1>   0.1500 
 39 H       -4.1750     5.3790    -3.3360 H     1 <1>   0.1500 
 40 H       -4.9300     6.7070     0.6460 H     1 <1>   0.1500 
 41 H        2.2660     5.6630    -0.9360 H     1 <1>   0.0800 
 42 H        1.2600     6.9470    -1.5960 H     1 <1>   0.0800 
 43 H        0.2850     8.2410     1.5800 H     1 <1>   0.0800 
 44 H        1.6470     7.3510     2.2480 H     1 <1>   0.0800 
 45 H        1.6040     9.3380     0.0290 H     1 <1>   0.0800 
 46 H        2.8430     9.1270     1.2400 H     1 <1>   0.0800 
 47 H       -7.1760     8.2280    -1.8030 H     1 <1>   0.0800 
 48 H       -5.8490     8.4540    -0.6690 H     1 <1>   0.0800 
 49 H       -6.9980     7.1220    -0.4450 H     1 <1>   0.0800 
 50 H        4.8090     7.7270     0.6320 H     1 <1>   0.0800 
 51 H        4.5800     6.3030    -0.3480 H     1 <1>   0.0800 
 52 H        3.7600     6.4450     1.1820 H     1 <1>   0.0800 
 53 H        4.1150     9.1740    -1.3500 H     1 <1>   0.0800 
 54 H        2.5880     8.8950    -2.1460 H     1 <1>   0.0800 
 55 H        3.8830     7.7370    -2.3140 H     1 <1>   0.0800 
@<TRIPOS>BOND
  1   1   2  2   
  2   2   3  am  
  3   2   4  1   
  4   3   5  1   
  5   3   6  1   
  6   4   7  1   
  7   4  28  1   
  8   4  29  1   
  9   5   8  1   
 10   5   9  1   
 11   5  30  1   
 12   6  10  1   
 13   6  11  1   
 14   6  31  1   
 15   7   9  1   
 16   8  12  ar  
 17   8  13  ar  
 18   9  14  1   
 19   9  32  1   
 20  10  11  1   
 21  10  33  1   
 22  10  34  1   
 23  11  35  1   
 24  11  36  1   
 25  12  15  ar  
 26  12  37  1   
 27  13  16  ar  
 28  13  38  1   
 29  14  17  2   
 30  14  18  am  
 31  15  19  ar  
 32  15  39  1   
 33  16  19  ar  
 34  16  40  1   
 35  18  20  1   
 36  18  21  1   
 37  19  22  1   
 38  20  23  1   
 39  20  41  1   
 40  20  42  1   
 41  21  24  1   
 42  21  43  1   
 43  21  44  1   
 44  22  25  1   
 45  23  24  1   
 46  23  26  1   
 47  23  27  1   
 48  24  45  1   
 49  24  46  1   
 50  25  47  1   
 51  25  48  1   
 52  25  49  1   
 53  26  50  1   
 54  26  51  1   
 55  26  52  1   
 56  27  53  1   
 57  27  54  1   
 58  27  55  1   
@<TRIPOS>SUBSTRUCTURE
  1 ****   9 GROUP 4 **** **** 0

# MOE 2024.06 (io_trps.svl 2023.06)
