@<TRIPOS>MOLECULE
NONAME
33 34 1 0 0 
SMALL
USER_CHARGES


@<TRIPOS>ATOM
  1 S       -0.0970     0.1880     0.1560 S.o2  1 <1>   1.0900 
  2 O       -0.8320     0.7540    -0.9500 O.2   1 <1>  -0.6500 
  3 O        0.1060     0.9100     1.3890 O.2   1 <1>  -0.6500 
  4 C        1.4760    -0.3700    -0.4660 C.3   1 <1>  -0.0550 
  5 C       -0.7680    -1.4140     0.5300 C.3   1 <1>  -0.0550 
  6 C        1.5260    -1.8710    -0.2180 C.3   1 <1>   0.2000 
  7 C        0.0730    -2.4070    -0.2600 C.3   1 <1>   0.1900 
  8 O        2.3370    -2.4740    -1.1720 O.3   1 <1>  -0.6800 
  9 N       -0.1420    -3.7900     0.2270 N.3   1 <1>  -0.8100 
 10 C        0.2520    -4.7980    -0.7810 C.3   1 <1>   0.2900 
 11 C        0.4690    -4.1050     1.5350 C.3   1 <1>   0.0300 
 12 C       -0.3200    -6.1700    -0.4650 C.2   1 <1>  -0.1400 
 13 S        0.7130    -7.5310    -0.8090 S.3   1 <1>  -0.0800 
 14 C       -1.4810    -6.6340     0.0340 C.2   1 <1>   0.0460 
 15 C       -0.5390    -8.5990    -0.2230 C.2   1 <1>   0.2280 
 16 N       -1.5940    -8.0070     0.1720 N.2   1 <1>  -0.5650 
 17 C       -2.6930    -5.8320     0.4610 C.3   1 <1>  -0.0590 
 18 H        1.5320    -0.1660    -1.5180 H     1 <1>   0.0800 
 19 H        2.2850     0.1220     0.0390 H     1 <1>   0.0800 
 20 H       -0.6740    -1.5950     1.5820 H     1 <1>   0.0800 
 21 H       -1.8010    -1.4790     0.2490 H     1 <1>   0.0800 
 22 H        1.9600    -2.0480     0.7510 H     1 <1>   0.0800 
 23 H       -0.2730    -2.3440    -1.2790 H     1 <1>   0.0800 
 24 H        2.0030    -2.3290    -2.0780 H     1 <1>   0.4000 
 25 H       -0.1040    -4.5070    -1.7540 H     1 <1>   0.0800 
 26 H        1.3260    -4.8590    -0.8220 H     1 <1>   0.0800 
 27 H        0.1290    -5.0690     1.8760 H     1 <1>   0.0800 
 28 H        0.1890    -3.3820     2.2790 H     1 <1>   0.0800 
 29 H        1.5430    -4.1360     1.4570 H     1 <1>   0.0800 
 30 H       -0.3320    -9.6540    -0.2390 H     1 <1>   0.1500 
 31 H       -2.5650    -4.7890     0.2430 H     1 <1>   0.0800 
 32 H       -2.8480    -5.9520     1.5170 H     1 <1>   0.0800 
 33 H       -3.5610    -6.1890    -0.0610 H     1 <1>   0.0800 
@<TRIPOS>BOND
  1   1   2  2   
  2   1   3  2   
  3   1   4  1   
  4   1   5  1   
  5   4   6  1   
  6   4  18  1   
  7   4  19  1   
  8   5   7  1   
  9   5  20  1   
 10   5  21  1   
 11   6   7  1   
 12   6   8  1   
 13   6  22  1   
 14   7   9  1   
 15   7  23  1   
 16   8  24  1   
 17   9  10  1   
 18   9  11  1   
 19  10  12  1   
 20  10  25  1   
 21  10  26  1   
 22  11  27  1   
 23  11  28  1   
 24  11  29  1   
 25  12  13  1   
 26  12  14  2   
 27  13  15  1   
 28  14  16  1   
 29  14  17  1   
 30  15  16  2   
 31  15  30  1   
 32  17  31  1   
 33  17  32  1   
 34  17  33  1   
@<TRIPOS>SUBSTRUCTURE
  1 ****   9 GROUP 4 **** **** 0

# MOE 2024.06 (io_trps.svl 2023.06)
