@<TRIPOS>MOLECULE
NONAME
43 44 1 0 0 
SMALL
USER_CHARGES


@<TRIPOS>ATOM
  1 O        0.0200     0.3130     2.0850 O.2   1 <1>  -0.5700 
  2 C        0.7720    -0.3470     1.4110 C.2   1 <1>   0.5690 
  3 N        1.5960     0.1650     0.4560 N.am  1 <1>  -0.4930 
  4 C        0.7970    -1.8450     1.6410 C.3   1 <1>  -0.0990 
  5 C        1.7680     1.5090     0.0370 C.2   1 <1>   0.0630 
  6 C       -0.0540    -2.5890     0.5990 C.3   1 <1>  -0.1600 
  7 C        0.8130     2.5050    -0.1910 C.2   1 <1>   0.1080 
  8 C        2.9500     2.0890    -0.2650 C.2   1 <1>  -0.3320 
  9 C       -0.1050    -4.0970     0.8850 C.3   1 <1>   0.0960 
 10 N        1.3510     3.6120    -0.6000 N.2   1 <1>  -0.7070 
 11 C       -0.6840     2.3760    -0.0230 C.3   1 <1>  -0.0590 
 12 N        2.6700     3.3640    -0.6400 N.pl3 1 <1>   0.3140 
 13 C        4.3550     1.5050    -0.2110 C.3   1 <1>  -0.0600 
 14 N       -0.8380    -4.8010    -0.1830 N.pl3 1 <1>   0.3140 
 15 C        3.6230     4.4160    -1.0500 C.3   1 <1>   0.0960 
 16 N       -0.2550    -5.2060    -1.3020 N.2   1 <1>  -0.7070 
 17 C       -2.1320    -5.1320    -0.2320 C.2   1 <1>   0.0360 
 18 C        4.1150     5.2160     0.1650 C.3   1 <1>  -0.1600 
 19 C       -1.2360    -5.7520    -1.9430 C.2   1 <1>   0.3660 
 20 N       -2.4250    -5.7340    -1.3270 N.2   1 <1>  -0.5650 
 21 C        5.1160     6.3010    -0.2470 C.3   1 <1>  -0.2400 
 22 H        2.2250    -0.4860    -0.0050 H     1 <1>   0.3700 
 23 H        0.4130    -2.0380     2.6280 H     1 <1>   0.0800 
 24 H        1.8140    -2.1920     1.6100 H     1 <1>   0.0800 
 25 H        0.3620    -2.4280    -0.3820 H     1 <1>   0.0800 
 26 H       -1.0550    -2.1900     0.6120 H     1 <1>   0.0800 
 27 H       -0.5930    -4.2870     1.8240 H     1 <1>   0.0800 
 28 H        0.8900    -4.5020     0.9240 H     1 <1>   0.0800 
 29 H       -1.0030     1.3820    -0.2700 H     1 <1>   0.0800 
 30 H       -1.1850     3.0750    -0.6660 H     1 <1>   0.0800 
 31 H       -0.9480     2.5890     0.9970 H     1 <1>   0.0800 
 32 H        4.3340     0.4990     0.1680 H     1 <1>   0.0800 
 33 H        4.9760     2.0950     0.4390 H     1 <1>   0.0800 
 34 H        4.7890     1.4910    -1.1940 H     1 <1>   0.0800 
 35 H        3.1190     5.0690    -1.7390 H     1 <1>   0.0800 
 36 H        4.4490     3.9560    -1.5590 H     1 <1>   0.0800 
 37 H       -2.8260    -4.9110     0.5590 H     1 <1>   0.1500 
 38 H        4.5820     4.5520     0.8710 H     1 <1>   0.0800 
 39 H        3.2680     5.6780     0.6440 H     1 <1>   0.0800 
 40 H       -1.1290    -6.2020    -2.9180 H     1 <1>   0.1500 
 41 H        5.9810     5.8620    -0.7140 H     1 <1>   0.0800 
 42 H        5.4390     6.8500     0.6200 H     1 <1>   0.0800 
 43 H        4.6610     6.9910    -0.9360 H     1 <1>   0.0800 
@<TRIPOS>BOND
  1   1   2  2   
  2   2   3  am  
  3   2   4  1   
  4   3   5  1   
  5   3  22  1   
  6   4   6  1   
  7   4  23  1   
  8   4  24  1   
  9   5   7  1   
 10   5   8  2   
 11   6   9  1   
 12   6  25  1   
 13   6  26  1   
 14   7  10  2   
 15   7  11  1   
 16   8  12  1   
 17   8  13  1   
 18   9  14  1   
 19   9  27  1   
 20   9  28  1   
 21  10  12  1   
 22  11  29  1   
 23  11  30  1   
 24  11  31  1   
 25  12  15  1   
 26  13  32  1   
 27  13  33  1   
 28  13  34  1   
 29  14  16  1   
 30  14  17  1   
 31  15  18  1   
 32  15  35  1   
 33  15  36  1   
 34  16  19  2   
 35  17  20  2   
 36  17  37  1   
 37  18  21  1   
 38  18  38  1   
 39  18  39  1   
 40  19  20  1   
 41  19  40  1   
 42  21  41  1   
 43  21  42  1   
 44  21  43  1   
@<TRIPOS>SUBSTRUCTURE
  1 ****   3 GROUP 4 **** **** 0

# MOE 2024.06 (io_trps.svl 2023.06)
