@<TRIPOS>MOLECULE
NONAME
54 56 1 0 0 
SMALL
USER_CHARGES


@<TRIPOS>ATOM
  1 O       -1.0560    -2.1500    -1.3380 O.co2 1 <1>  -0.9000 
  2 C       -0.8220    -1.3270    -0.4380 C.2   1 <1>   0.9060 
  3 O       -1.6780    -0.4670    -0.1870 O.co2 1 <1>  -0.9000 
  4 C        0.2110    -1.6010     0.5960 C.3   1 <1>  -0.2920 
  5 C        1.5360    -1.6160    -0.1070 C.2   1 <1>   0.9060 
  6 C       -0.0920    -2.8820     1.4150 C.3   1 <1>  -0.1600 
  7 O        2.0450    -0.5390    -0.4380 O.co2 1 <1>  -0.9000 
  8 O        2.1600    -2.6820    -0.2110 O.co2 1 <1>  -0.9000 
  9 C       -1.5080    -2.9090     2.0230 C.3   1 <1>  -0.1600 
 10 C       -2.4400    -3.9010     1.3170 C.3   1 <1>   0.3430 
 11 N       -3.0170    -3.4080     0.0400 N.4   1 <1>  -0.9590 
 12 C       -4.0430    -2.3270     0.2570 C.3   1 <1>   0.3430 
 13 C       -3.4220    -4.5480    -0.8150 C.3   1 <1>   0.3430 
 14 C       -4.9130    -1.9660    -0.9680 C.3   1 <1>   0.1430 
 15 C       -4.1550    -4.0900    -2.0740 C.3   1 <1>  -0.1600 
 16 C       -6.0640    -1.1550    -0.4130 C.ar  1 <1>   0.1670 
 17 C       -5.3740    -3.2320    -1.7140 C.3   1 <1>  -0.1600 
 18 C       -4.2560    -0.9500    -1.9370 C.3   1 <1>  -0.1600 
 19 N       -7.0750    -1.6460     0.2600 N.ar  1 <1>  -0.6200 
 20 C       -5.9060     0.1740    -0.6610 C.ar  1 <1>  -0.1430 
 21 C       -4.6360     0.4490    -1.4280 C.3   1 <1>  -0.0170 
 22 C       -7.9680    -0.7430     0.6760 C.ar  1 <1>   0.7200 
 23 C       -6.8700     1.0280    -0.1900 C.ar  1 <1>   0.1600 
 24 N       -7.9070     0.5790     0.4790 N.ar  1 <1>  -0.6200 
 25 N       -9.0530    -1.2220     1.3820 N.pl3 1 <1>  -0.8380 
 26 C       -9.4980    -2.6390     1.2900 C.3   1 <1>   0.1290 
 27 C       -9.9380    -0.3180     2.1680 C.3   1 <1>   0.1290 
 28 H        0.2300    -0.7600     1.2600 H     1 <1>   0.0800 
 29 H        0.6420    -2.9430     2.2000 H     1 <1>   0.0800 
 30 H        0.0590    -3.7410     0.7810 H     1 <1>   0.0800 
 31 H       -1.9370    -1.9230     2.0690 H     1 <1>   0.0800 
 32 H       -1.4060    -3.2470     3.0380 H     1 <1>   0.0800 
 33 H       -3.2460    -4.1550     1.9840 H     1 <1>   0.0800 
 34 H       -1.8760    -4.7990     1.1250 H     1 <1>   0.0800 
 35 H       -2.2420    -2.9200    -0.4890 H     1 <1>   0.4500 
 36 H       -3.5510    -1.4320     0.6010 H     1 <1>   0.0800 
 37 H       -4.7120    -2.6470     1.0370 H     1 <1>   0.0800 
 38 H       -4.0700    -5.1990    -0.2530 H     1 <1>   0.0800 
 39 H       -2.5420    -5.1030    -1.1000 H     1 <1>   0.0800 
 40 H       -4.4740    -4.9560    -2.6250 H     1 <1>   0.0800 
 41 H       -3.4690    -3.5410    -2.6970 H     1 <1>   0.0800 
 42 H       -5.9200    -2.9630    -2.6010 H     1 <1>   0.0800 
 43 H       -6.0370    -3.7990    -1.0840 H     1 <1>   0.0800 
 44 H       -4.6780    -1.0630    -2.9200 H     1 <1>   0.0800 
 45 H       -3.1950    -1.0730    -2.0280 H     1 <1>   0.0800 
 46 H       -4.7840     1.1400    -2.2390 H     1 <1>   0.0800 
 47 H       -3.8750     0.8240    -0.7630 H     1 <1>   0.0800 
 48 H       -6.7880     2.0870    -0.3600 H     1 <1>   0.1500 
 49 H       -9.1380    -3.0920     0.3820 H     1 <1>   0.0800 
 50 H      -10.5730    -2.6890     1.2870 H     1 <1>   0.0800 
 51 H       -9.1180    -3.1900     2.1310 H     1 <1>   0.0800 
 52 H       -9.3790     0.5200     2.5470 H     1 <1>   0.0800 
 53 H      -10.3610    -0.8490     3.0030 H     1 <1>   0.0800 
 54 H      -10.7300     0.0470     1.5380 H     1 <1>   0.0800 
@<TRIPOS>BOND
  1   1   2  ar  
  2   2   3  ar  
  3   2   4  1   
  4   4   5  1   
  5   4   6  1   
  6   4  28  1   
  7   5   7  ar  
  8   5   8  ar  
  9   6   9  1   
 10   6  29  1   
 11   6  30  1   
 12   9  10  1   
 13   9  31  1   
 14   9  32  1   
 15  10  11  1   
 16  10  33  1   
 17  10  34  1   
 18  11  12  1   
 19  11  13  1   
 20  11  35  1   
 21  12  14  1   
 22  12  36  1   
 23  12  37  1   
 24  13  15  1   
 25  13  38  1   
 26  13  39  1   
 27  14  16  1   
 28  14  17  1   
 29  14  18  1   
 30  15  17  1   
 31  15  40  1   
 32  15  41  1   
 33  16  19  ar  
 34  16  20  ar  
 35  17  42  1   
 36  17  43  1   
 37  18  21  1   
 38  18  44  1   
 39  18  45  1   
 40  19  22  ar  
 41  20  21  1   
 42  20  23  ar  
 43  21  46  1   
 44  21  47  1   
 45  22  24  ar  
 46  22  25  1   
 47  23  24  ar  
 48  23  48  1   
 49  25  26  1   
 50  25  27  1   
 51  26  49  1   
 52  26  50  1   
 53  26  51  1   
 54  27  52  1   
 55  27  53  1   
 56  27  54  1   
@<TRIPOS>SUBSTRUCTURE
  1 ****  12 GROUP 4 **** **** 0

# MOE 2024.06 (io_trps.svl 2023.06)
