@<TRIPOS>MOLECULE
NONAME
41 43 1 0 0 
SMALL
USER_CHARGES


@<TRIPOS>ATOM
  1 BR      -2.2780    -1.8450     0.4890 Br    1 <1>  -0.1100 
  2 C       -3.1030    -0.1170     0.2730 C.2   1 <1>   0.1100 
  3 C       -3.0120     0.5440    -0.9060 C.2   1 <1>  -0.1810 
  4 C       -3.7990     0.4130     1.3900 C.2   1 <1>  -0.1500 
  5 N       -3.6200     1.7840    -1.0120 N.pl3 1 <1>   0.6010 
  6 C       -4.3850     1.6350     1.2670 C.2   1 <1>  -0.1050 
  7 N       -3.6580     2.6040    -2.0680 N.2   1 <1>  -0.4180 
  8 C       -4.2800     2.3440     0.0320 C.2   1 <1>  -0.1970 
  9 N       -4.3240     3.6630    -1.7360 N.2   1 <1>  -0.2270 
 10 C       -4.7040     3.5330    -0.4650 C.2   1 <1>   0.0460 
 11 C       -5.5150     4.5920     0.2860 C.3   1 <1>   0.4010 
 12 N       -6.9340     4.5500    -0.1110 N.am  1 <1>  -0.6600 
 13 C       -5.0710     6.0380     0.0090 C.3   1 <1>  -0.1600 
 14 C       -7.7920     3.6190     0.3870 C.2   1 <1>   0.7800 
 15 C       -7.3360     5.7910    -0.7920 C.3   1 <1>   0.1400 
 16 C       -6.3550     6.8270    -0.2590 C.3   1 <1>  -0.1600 
 17 O       -7.4300     2.7740     1.1830 O.2   1 <1>  -0.5700 
 18 O       -9.0600     3.6880    -0.0260 O.3   1 <1>  -0.4300 
 19 C      -10.1210     2.8290     0.3270 C.3   1 <1>   0.2800 
 20 C      -10.4040     2.9230     1.8310 C.3   1 <1>  -0.2400 
 21 C      -11.3320     3.3520    -0.4470 C.3   1 <1>  -0.2400 
 22 C       -9.8150     1.3950    -0.1240 C.3   1 <1>  -0.2400 
 23 H       -2.5000     0.1790    -1.7740 H     1 <1>   0.1500 
 24 H       -3.8480    -0.1670     2.2950 H     1 <1>   0.1500 
 25 H       -4.9420     2.0830     2.0730 H     1 <1>   0.1500 
 26 H       -5.4530     4.4020     1.3440 H     1 <1>   0.0800 
 27 H       -4.4410     6.0810    -0.8610 H     1 <1>   0.0800 
 28 H       -4.5210     6.4390     0.8410 H     1 <1>   0.0800 
 29 H       -8.3560     6.0570    -0.5710 H     1 <1>   0.0800 
 30 H       -7.2130     5.6620    -1.8540 H     1 <1>   0.0800 
 31 H       -6.2050     7.6310    -0.9580 H     1 <1>   0.0800 
 32 H       -6.7400     7.2290     0.6630 H     1 <1>   0.0800 
 33 H      -10.5400     3.9490     2.1220 H     1 <1>   0.0800 
 34 H       -9.6020     2.4960     2.4040 H     1 <1>   0.0800 
 35 H      -11.2980     2.3780     2.0700 H     1 <1>   0.0800 
 36 H      -11.5470     4.3660    -0.1620 H     1 <1>   0.0800 
 37 H      -12.1980     2.7500    -0.2400 H     1 <1>   0.0800 
 38 H      -11.1400     3.3180    -1.5050 H     1 <1>   0.0800 
 39 H       -9.0130     0.9700     0.4500 H     1 <1>   0.0800 
 40 H       -9.5500     1.3800    -1.1660 H     1 <1>   0.0800 
 41 H      -10.6800     0.7730     0.0170 H     1 <1>   0.0800 
@<TRIPOS>BOND
  1   1   2  1   
  2   2   3  2   
  3   2   4  1   
  4   3   5  1   
  5   3  23  1   
  6   4   6  2   
  7   4  24  1   
  8   5   7  1   
  9   5   8  1   
 10   6   8  1   
 11   6  25  1   
 12   7   9  2   
 13   8  10  2   
 14   9  10  1   
 15  10  11  1   
 16  11  12  1   
 17  11  13  1   
 18  11  26  1   
 19  12  14  am  
 20  12  15  1   
 21  13  16  1   
 22  13  27  1   
 23  13  28  1   
 24  14  17  2   
 25  14  18  1   
 26  15  16  1   
 27  15  29  1   
 28  15  30  1   
 29  16  31  1   
 30  16  32  1   
 31  18  19  1   
 32  19  20  1   
 33  19  21  1   
 34  19  22  1   
 35  20  33  1   
 36  20  34  1   
 37  20  35  1   
 38  21  36  1   
 39  21  37  1   
 40  21  38  1   
 41  22  39  1   
 42  22  40  1   
 43  22  41  1   
@<TRIPOS>SUBSTRUCTURE
  1 ****  10 GROUP 4 **** **** 0

# MOE 2024.06 (io_trps.svl 2023.06)
