@<TRIPOS>MOLECULE
NONAME
35 36 1 0 0 
SMALL
USER_CHARGES


@<TRIPOS>ATOM
  1 S       -2.3350     2.6380     1.1990 S.3   1 <1>  -0.0800 
  2 C       -2.3970     0.9820     0.6410 C.2   1 <1>   0.1980 
  3 C       -0.6120     2.6230     0.9750 C.2   1 <1>  -0.1100 
  4 N       -1.2590     0.4920     0.3300 N.2   1 <1>  -0.5650 
  5 C       -3.7860     0.3410     0.6000 C.3   1 <1>   0.5230 
  6 C       -0.2450     1.4170     0.5170 C.2   1 <1>   0.0460 
  7 N       -3.8140    -1.0480     0.0110 N.4   1 <1>  -0.9590 
  8 C        1.1660     0.9780     0.1870 C.3   1 <1>  -0.0590 
  9 C       -2.9570    -1.9870     0.7980 C.3   1 <1>   0.4860 
 10 C       -3.3960    -1.0320    -1.4290 C.3   1 <1>   0.2630 
 11 C       -3.2710    -3.4060     0.3710 C.ar  1 <1>  -0.1430 
 12 C       -4.4060    -4.0880     0.8100 C.ar  1 <1>   0.1670 
 13 C       -2.3990    -4.0440    -0.4930 C.ar  1 <1>  -0.1500 
 14 N       -4.7220    -5.3080     0.4190 N.ar  1 <1>  -0.6200 
 15 C       -5.4090    -3.4990     1.7890 C.3   1 <1>  -0.0970 
 16 C       -2.7210    -5.3230    -0.8880 C.ar  1 <1>  -0.1500 
 17 C       -3.8820    -5.9010    -0.4120 C.ar  1 <1>   0.1600 
 18 H       -0.0600     3.5170     1.2090 H     1 <1>   0.1500 
 19 H       -4.4330     0.9830     0.0250 H     1 <1>   0.0800 
 20 H       -4.1690     0.3110     1.6060 H     1 <1>   0.0800 
 21 H       -4.7720    -1.4170     0.0550 H     1 <1>   0.4500 
 22 H        1.8610     1.7780     0.3690 H     1 <1>   0.0800 
 23 H        1.2280     0.6940    -0.8470 H     1 <1>   0.0800 
 24 H        1.4390     0.1360     0.7980 H     1 <1>   0.0800 
 25 H       -3.1440    -1.8780     1.8530 H     1 <1>   0.0800 
 26 H       -1.9140    -1.7790     0.6220 H     1 <1>   0.0800 
 27 H       -2.3700    -0.7100    -1.5200 H     1 <1>   0.0800 
 28 H       -4.0180    -0.3580    -1.9950 H     1 <1>   0.0800 
 29 H       -3.4840    -2.0180    -1.8560 H     1 <1>   0.0800 
 30 H       -1.4970    -3.5770    -0.8530 H     1 <1>   0.1500 
 31 H       -5.0630    -2.6060     2.2700 H     1 <1>   0.0800 
 32 H       -5.6130    -4.2250     2.5570 H     1 <1>   0.0800 
 33 H       -6.3320    -3.2950     1.2770 H     1 <1>   0.0800 
 34 H       -2.0830    -5.8730    -1.5570 H     1 <1>   0.1500 
 35 H       -4.1330    -6.9010    -0.7260 H     1 <1>   0.1500 
@<TRIPOS>BOND
  1   1   2  1   
  2   1   3  1   
  3   2   4  2   
  4   2   5  1   
  5   3   6  2   
  6   3  18  1   
  7   4   6  1   
  8   5   7  1   
  9   5  19  1   
 10   5  20  1   
 11   6   8  1   
 12   7   9  1   
 13   7  10  1   
 14   7  21  1   
 15   8  22  1   
 16   8  23  1   
 17   8  24  1   
 18   9  11  1   
 19   9  25  1   
 20   9  26  1   
 21  10  27  1   
 22  10  28  1   
 23  10  29  1   
 24  11  12  ar  
 25  11  13  ar  
 26  12  14  ar  
 27  12  15  1   
 28  13  16  ar  
 29  13  30  1   
 30  14  17  ar  
 31  15  31  1   
 32  15  32  1   
 33  15  33  1   
 34  16  17  ar  
 35  16  34  1   
 36  17  35  1   
@<TRIPOS>SUBSTRUCTURE
  1 ****   9 GROUP 4 **** **** 0

# MOE 2024.06 (io_trps.svl 2023.06)
