@<TRIPOS>MOLECULE
NONAME
56 60 1 0 0 
SMALL
USER_CHARGES


@<TRIPOS>ATOM
  1 O        1.1920    -0.8630    -3.1390 O.2   1 <1>  -0.5700 
  2 C        1.3200    -1.5620    -2.1620 C.2   1 <1>   0.5690 
  3 N        2.0110    -1.1120    -1.0680 N.am  1 <1>  -0.6600 
  4 C        0.6480    -2.9240    -2.2420 C.3   1 <1>  -0.0990 
  5 C        2.3600    -1.9460     0.1240 C.3   1 <1>   0.1400 
  6 C        2.4730     0.3190    -1.0170 C.3   1 <1>   0.3210 
  7 C        1.0890    -4.0080    -1.2590 C.3   1 <1>   0.1200 
  8 C        3.1190    -3.2590    -0.2110 C.3   1 <1>   0.2800 
  9 C        2.1430     1.0140     0.3050 C.2   1 <1>   0.3350 
 10 O        2.4790    -4.0330    -1.1930 O.3   1 <1>  -0.5600 
 11 C        4.5100    -2.9320    -0.7750 C.3   1 <1>  -0.1600 
 12 C        3.2650    -4.1300     1.0480 C.3   1 <1>  -0.1600 
 13 N        3.0070     1.3180     1.1930 N.2   1 <1>  -0.4100 
 14 N        0.9030     1.3520     0.6410 N.2   1 <1>  -0.5650 
 15 C        5.3570    -4.1850    -1.0010 C.3   1 <1>   0.2090 
 16 C        4.1230    -5.3670     0.7820 C.3   1 <1>   0.2090 
 17 O        2.3680     1.8850     2.1710 O.3   1 <1>  -0.0190 
 18 C        1.1180     1.8760     1.7790 C.2   1 <1>   0.2980 
 19 N        5.4650    -4.9450     0.2820 N.pl3 1 <1>  -0.8380 
 20 C        0.0650     2.4730     2.6840 C.3   1 <1>  -0.0600 
 21 C        6.6300    -5.1580     0.9470 C.ar  1 <1>   0.1000 
 22 C        7.8720    -5.4700     0.2990 C.ar  1 <1>   0.0000 
 23 C        6.6540    -5.0280     2.3380 C.ar  1 <1>  -0.1500 
 24 C        9.0650    -5.4400     1.0530 C.ar  1 <1>   0.3610 
 25 C        7.9850    -5.8680    -1.0480 C.ar  1 <1>  -0.1500 
 26 C        7.8240    -5.0640     3.0470 C.ar  1 <1>   0.2110 
 27 N        8.9970    -5.2360     2.4120 N.ar  1 <1>  -0.1790 
 28 C       10.3030    -5.6640     0.4320 C.ar  1 <1>  -0.1500 
 29 C        9.2000    -6.1060    -1.6380 C.ar  1 <1>  -0.1500 
 30 C       10.3740    -5.9860    -0.8980 C.ar  1 <1>  -0.1500 
 31 H        0.8140    -3.3010    -3.2340 H     1 <1>   0.0800 
 32 H       -0.4100    -2.7760    -2.1400 H     1 <1>   0.0800 
 33 H        1.4620    -2.1560     0.6780 H     1 <1>   0.0800 
 34 H        2.9900    -1.3800     0.7870 H     1 <1>   0.0800 
 35 H        2.0220     0.8930    -1.8070 H     1 <1>   0.0800 
 36 H        3.5370     0.3410    -1.1660 H     1 <1>   0.0800 
 37 H        0.7680    -4.9680    -1.6230 H     1 <1>   0.0800 
 38 H        0.6670    -3.8690    -0.2790 H     1 <1>   0.0800 
 39 H        5.0360    -2.2870    -0.0960 H     1 <1>   0.0800 
 40 H        4.4030    -2.4060    -1.7060 H     1 <1>   0.0800 
 41 H        2.2960    -4.4360     1.3980 H     1 <1>   0.0800 
 42 H        3.7270    -3.5570     1.8310 H     1 <1>   0.0800 
 43 H        6.3290    -3.8790    -1.3460 H     1 <1>   0.0800 
 44 H        4.9030    -4.8070    -1.7550 H     1 <1>   0.0800 
 45 H        3.6500    -5.9830     0.0350 H     1 <1>   0.0800 
 46 H        4.2180    -5.9590     1.6750 H     1 <1>   0.0800 
 47 H       -0.9030     2.3880     2.2240 H     1 <1>   0.0800 
 48 H        0.2820     3.5100     2.8560 H     1 <1>   0.0800 
 49 H        0.0550     1.9510     3.6220 H     1 <1>   0.0800 
 50 H        5.7330    -4.8560     2.8630 H     1 <1>   0.1500 
 51 H        7.0910    -6.0020    -1.6310 H     1 <1>   0.1500 
 52 H        7.8220    -4.9420     4.1180 H     1 <1>   0.1500 
 53 H        9.8760    -5.2480     2.9340 H     1 <1>   0.4570 
 54 H       11.2140    -5.5940     1.0000 H     1 <1>   0.1500 
 55 H        9.2580    -6.3930    -2.6760 H     1 <1>   0.1500 
 56 H       11.3210    -6.1620    -1.3830 H     1 <1>   0.1500 
@<TRIPOS>BOND
  1   1   2  2   
  2   2   3  am  
  3   2   4  1   
  4   3   5  1   
  5   3   6  1   
  6   4   7  1   
  7   4  31  1   
  8   4  32  1   
  9   5   8  1   
 10   5  33  1   
 11   5  34  1   
 12   6   9  1   
 13   6  35  1   
 14   6  36  1   
 15   7  10  1   
 16   7  37  1   
 17   7  38  1   
 18   8  10  1   
 19   8  11  1   
 20   8  12  1   
 21   9  13  2   
 22   9  14  1   
 23  11  15  1   
 24  11  39  1   
 25  11  40  1   
 26  12  16  1   
 27  12  41  1   
 28  12  42  1   
 29  13  17  1   
 30  14  18  2   
 31  15  19  1   
 32  15  43  1   
 33  15  44  1   
 34  16  19  1   
 35  16  45  1   
 36  16  46  1   
 37  17  18  1   
 38  18  20  1   
 39  19  21  1   
 40  20  47  1   
 41  20  48  1   
 42  20  49  1   
 43  21  22  ar  
 44  21  23  ar  
 45  22  24  ar  
 46  22  25  ar  
 47  23  26  ar  
 48  23  50  1   
 49  24  27  ar  
 50  24  28  ar  
 51  25  29  ar  
 52  25  51  1   
 53  26  27  ar  
 54  26  52  1   
 55  27  53  1   
 56  28  30  ar  
 57  28  54  1   
 58  29  30  ar  
 59  29  55  1   
 60  30  56  1   
@<TRIPOS>SUBSTRUCTURE
  1 ****  11 GROUP 4 **** **** 0

# MOE 2024.06 (io_trps.svl 2023.06)
