@<TRIPOS>MOLECULE
NONAME
44 46 1 0 0 
SMALL
USER_CHARGES


@<TRIPOS>ATOM
  1 S       -1.6370    -0.0440    -0.0200 S.3   1 <1>  -0.0800 
  2 C       -2.6360    -1.3250     0.6630 C.ar  1 <1>   0.2970 
  3 C       -0.4960    -1.2140    -0.6910 C.2   1 <1>  -0.1400 
  4 N       -3.7370    -1.1090     1.3490 N.ar  1 <1>  -0.5670 
  5 C       -2.0940    -2.5550     0.3730 C.ar  1 <1>   0.0000 
  6 C       -0.8780    -2.4700    -0.3970 C.2   1 <1>  -0.1500 
  7 C        0.6840    -0.6570    -1.4590 C.3   1 <1>  -0.0600 
  8 C       -4.3210    -2.2180     1.7590 C.ar  1 <1>   0.4700 
  9 C       -2.8200    -3.6180     0.8780 C.ar  1 <1>   0.4120 
 10 N       -3.9360    -3.4820     1.5640 N.ar  1 <1>  -0.6200 
 11 S       -2.2200    -5.2770     0.5710 S.3   1 <1>  -0.3320 
 12 C       -3.2930    -6.4270     1.5680 C.3   1 <1>   0.1310 
 13 C       -3.8080    -7.5770     0.7080 C.2   1 <1>   0.5690 
 14 O       -3.3290    -8.6690     0.9110 O.2   1 <1>  -0.5700 
 15 N       -4.8090    -7.3960    -0.2140 N.am  1 <1>  -0.6600 
 16 C       -5.2890    -8.5280    -1.0510 C.3   1 <1>   0.3200 
 17 C       -5.5060    -6.0970    -0.4610 C.3   1 <1>   0.1400 
 18 C       -6.7140    -8.8590    -0.6560 C.2   1 <1>  -0.3320 
 19 C       -6.5830    -5.8370     0.6020 C.3   1 <1>   0.1200 
 20 N       -7.0670    -9.4770     0.4890 N.pl3 1 <1>   0.0480 
 21 C       -7.8600    -8.6100    -1.3280 C.2   1 <1>   0.0770 
 22 O       -6.5620    -4.4960     0.9580 O.3   1 <1>  -0.6800 
 23 C       -8.4160    -9.5490     0.4350 C.2   1 <1>   0.0360 
 24 C       -6.1920    -9.9790     1.5650 C.3   1 <1>   0.0160 
 25 N       -8.9300    -9.0380    -0.6370 N.2   1 <1>  -0.5650 
 26 H       -0.3560    -3.3650    -0.6870 H     1 <1>   0.1500 
 27 H        1.2710    -0.0210    -0.8200 H     1 <1>   0.0800 
 28 H        0.3370    -0.0820    -2.2980 H     1 <1>   0.0800 
 29 H        1.3060    -1.4570    -1.8180 H     1 <1>   0.0800 
 30 H       -5.2320    -2.0860     2.3230 H     1 <1>   0.1500 
 31 H       -4.1080    -5.8820     1.9960 H     1 <1>   0.0800 
 32 H       -2.6740    -6.8100     2.3580 H     1 <1>   0.0800 
 33 H       -4.6630    -9.3960    -0.9320 H     1 <1>   0.0800 
 34 H       -5.2520    -8.2400    -2.0870 H     1 <1>   0.0800 
 35 H       -5.9700    -6.1100    -1.4310 H     1 <1>   0.0800 
 36 H       -4.7840    -5.3010    -0.4630 H     1 <1>   0.0800 
 37 H       -6.4040    -6.4160     1.4900 H     1 <1>   0.0800 
 38 H       -7.5630    -6.0700     0.2190 H     1 <1>   0.0800 
 39 H       -7.9780    -8.1320    -2.2860 H     1 <1>   0.1500 
 40 H       -5.6510    -4.2250     1.2220 H     1 <1>   0.4000 
 41 H       -8.9940    -9.9970     1.2230 H     1 <1>   0.1500 
 42 H       -5.3620   -10.5100     1.1340 H     1 <1>   0.0800 
 43 H       -6.7460   -10.6430     2.2030 H     1 <1>   0.0800 
 44 H       -5.8250    -9.1500     2.1400 H     1 <1>   0.0800 
@<TRIPOS>BOND
  1   1   2  1   
  2   1   3  1   
  3   2   4  ar  
  4   2   5  ar  
  5   3   6  2   
  6   3   7  1   
  7   4   8  ar  
  8   5   6  1   
  9   5   9  ar  
 10   6  26  1   
 11   7  27  1   
 12   7  28  1   
 13   7  29  1   
 14   8  10  ar  
 15   8  30  1   
 16   9  10  ar  
 17   9  11  1   
 18  11  12  1   
 19  12  13  1   
 20  12  31  1   
 21  12  32  1   
 22  13  14  2   
 23  13  15  am  
 24  15  16  1   
 25  15  17  1   
 26  16  18  1   
 27  16  33  1   
 28  16  34  1   
 29  17  19  1   
 30  17  35  1   
 31  17  36  1   
 32  18  20  1   
 33  18  21  2   
 34  19  22  1   
 35  19  37  1   
 36  19  38  1   
 37  20  23  1   
 38  20  24  1   
 39  21  25  1   
 40  21  39  1   
 41  22  40  1   
 42  23  25  2   
 43  23  41  1   
 44  24  42  1   
 45  24  43  1   
 46  24  44  1   
@<TRIPOS>SUBSTRUCTURE
  1 ****  17 GROUP 4 **** **** 0

# MOE 2024.06 (io_trps.svl 2023.06)
