@<TRIPOS>MOLECULE
NONAME
38 40 1 0 0 
SMALL
USER_CHARGES


@<TRIPOS>ATOM
  1 O        0.8760     0.4330     0.9350 O.3   1 <1>  -0.6800 
  2 C        1.4120    -0.1950    -0.1850 C.3   1 <1>   0.2000 
  3 C        2.0860    -1.4860     0.2730 C.3   1 <1>  -0.0800 
  4 C        2.5850     0.6470    -0.6940 C.3   1 <1>   0.3430 
  5 C        3.4310    -1.0120     0.8410 C.3   1 <1>   0.3430 
  6 C        2.2780    -2.4790    -0.8910 C.3   1 <1>  -0.0170 
  7 N        3.7320     0.2980     0.1940 N.4   1 <1>  -0.9590 
  8 C        3.1070    -3.6740    -0.4500 C.ar  1 <1>  -0.1440 
  9 C        3.9600     1.3790     1.1890 C.3   1 <1>   0.5240 
 10 C        4.3970    -3.8780    -0.9010 C.ar  1 <1>  -0.1500 
 11 C        2.6130    -4.6180     0.4290 C.ar  1 <1>  -0.1500 
 12 C        4.6720     2.5120     0.4610 C.2   1 <1>   0.0460 
 13 C        5.1150    -4.9730    -0.4510 C.ar  1 <1>   0.1600 
 14 C        3.4150    -5.6780     0.8170 C.ar  1 <1>   0.1600 
 15 N        5.6230     2.2330    -0.4580 N.2   1 <1>  -0.5650 
 16 C        4.4930     3.8470     0.5760 C.2   1 <1>  -0.3020 
 17 N        4.6560    -5.8710     0.4040 N.ar  1 <1>  -0.6200 
 18 C        6.0070     3.3990    -0.8690 C.2   1 <1>   0.0360 
 19 N        5.3570     4.4250    -0.2790 N.pl3 1 <1>   0.0330 
 20 H        0.0110     0.0390     1.1830 H     1 <1>   0.4000 
 21 H        0.6360    -0.3260    -0.9210 H     1 <1>   0.0800 
 22 H        1.5110    -1.9740     1.0410 H     1 <1>   0.0800 
 23 H        2.3530     1.7000    -0.6720 H     1 <1>   0.0800 
 24 H        2.8170     0.3600    -1.7050 H     1 <1>   0.0800 
 25 H        4.2140    -1.7300     0.6530 H     1 <1>   0.0800 
 26 H        3.3330    -0.8790     1.9060 H     1 <1>   0.0800 
 27 H        2.7610    -2.0010    -1.7260 H     1 <1>   0.0800 
 28 H        1.3180    -2.8290    -1.2320 H     1 <1>   0.0800 
 29 H        4.6090     0.3040    -0.3570 H     1 <1>   0.4500 
 30 H        3.0280     1.7170     1.6130 H     1 <1>   0.0800 
 31 H        4.6000     1.0230     1.9780 H     1 <1>   0.0800 
 32 H        4.8570    -3.2050    -1.6010 H     1 <1>   0.1500 
 33 H        1.6130    -4.5480     0.8170 H     1 <1>   0.1500 
 34 H        6.1190    -5.1200    -0.8120 H     1 <1>   0.1500 
 35 H        3.0150    -6.4070     1.5030 H     1 <1>   0.1500 
 36 H        3.8220     4.4130     1.2010 H     1 <1>   0.1500 
 37 H        6.7720     3.5620    -1.6100 H     1 <1>   0.1500 
 38 H        5.5040     5.4270    -0.4480 H     1 <1>   0.2700 
@<TRIPOS>BOND
  1   1   2  1   
  2   1  20  1   
  3   2   3  1   
  4   2   4  1   
  5   2  21  1   
  6   3   5  1   
  7   3   6  1   
  8   3  22  1   
  9   4   7  1   
 10   4  23  1   
 11   4  24  1   
 12   5   7  1   
 13   5  25  1   
 14   5  26  1   
 15   6   8  1   
 16   6  27  1   
 17   6  28  1   
 18   7   9  1   
 19   7  29  1   
 20   8  10  ar  
 21   8  11  ar  
 22   9  12  1   
 23   9  30  1   
 24   9  31  1   
 25  10  13  ar  
 26  10  32  1   
 27  11  14  ar  
 28  11  33  1   
 29  12  15  1   
 30  12  16  2   
 31  13  17  ar  
 32  13  34  1   
 33  14  17  ar  
 34  14  35  1   
 35  15  18  2   
 36  16  19  1   
 37  16  36  1   
 38  18  19  1   
 39  18  37  1   
 40  19  38  1   
@<TRIPOS>SUBSTRUCTURE
  1 ****   5 GROUP 4 **** **** 0

# MOE 2024.06 (io_trps.svl 2023.06)
