@<TRIPOS>MOLECULE
NONAME
61 64 1 0 0 
SMALL
USER_CHARGES


@<TRIPOS>ATOM
  1 O       -2.4230     5.3230     4.4620 O.2   1 <1>  -0.5700 
  2 C       -2.4810     5.2180     3.2580 C.2   1 <1>   0.5690 
  3 N       -3.4000     4.3820     2.6540 N.am  1 <1>  -0.6600 
  4 C       -1.4970     6.0720     2.4600 C.3   1 <1>   0.0440 
  5 C       -3.5100     4.2260     1.1710 C.3   1 <1>   0.2200 
  6 C       -4.3180     3.5700     3.5150 C.3   1 <1>   0.0600 
  7 C       -0.5040     5.2530     1.6400 C.ar  1 <1>  -0.1440 
  8 C       -4.9360     4.2290     0.6270 C.3   1 <1>  -0.1600 
  9 C       -2.9380     2.9050     0.6710 C.3   1 <1>  -0.1600 
 10 C       -0.3100     5.5150     0.2920 C.ar  1 <1>  -0.1500 
 11 C        0.2160     4.2300     2.2370 C.ar  1 <1>  -0.1500 
 12 C       -4.8050     3.6030    -0.7700 C.3   1 <1>  -0.0800 
 13 C       -3.5290     2.7430    -0.7370 C.3   1 <1>  -0.0800 
 14 C        0.5750     4.7530    -0.4470 C.ar  1 <1>  -0.1500 
 15 C        1.1040     3.4740     1.4940 C.ar  1 <1>  -0.1500 
 16 C       -5.9580     2.6610    -1.1400 C.3   1 <1>  -0.1600 
 17 C       -3.9550     1.3080    -1.0700 C.3   1 <1>  -0.1600 
 18 C        1.2970     3.7160     0.1370 C.ar  1 <1>   0.0000 
 19 C       -5.4490     1.2690    -0.7640 C.3   1 <1>   0.4230 
 20 C        2.2190     2.9190    -0.6400 C.ar  1 <1>   0.0000 
 21 N       -6.1570     0.1390    -1.4440 N.4   1 <1>  -0.9590 
 22 C        2.1220     1.5300    -0.6670 C.ar  1 <1>  -0.1500 
 23 C        3.2310     3.5170    -1.3860 C.ar  1 <1>  -0.1500 
 24 C       -6.1530     0.1870    -2.9440 C.3   1 <1>   0.2630 
 25 C       -7.5610     0.0150    -0.9420 C.3   1 <1>   0.2630 
 26 C        3.0010     0.7660    -1.4130 C.ar  1 <1>  -0.1500 
 27 C        4.1130     2.7580    -2.1350 C.ar  1 <1>  -0.1500 
 28 C        3.9990     1.3800    -2.1500 C.ar  1 <1>  -0.1500 
 29 H       -2.0550     6.7380     1.8310 H     1 <1>   0.0800 
 30 H       -0.9400     6.6820     3.1480 H     1 <1>   0.0800 
 31 H       -2.9870     5.0220     0.6740 H     1 <1>   0.0800 
 32 H       -4.4600     2.5890     3.1020 H     1 <1>   0.0800 
 33 H       -5.2690     4.0660     3.5940 H     1 <1>   0.0800 
 34 H       -3.9110     3.4560     4.5050 H     1 <1>   0.0800 
 35 H       -5.5790     3.6250     1.2390 H     1 <1>   0.0800 
 36 H       -5.3290     5.2300     0.5760 H     1 <1>   0.0800 
 37 H       -1.8630     2.9320     0.6400 H     1 <1>   0.0800 
 38 H       -3.2510     2.1010     1.3110 H     1 <1>   0.0800 
 39 H       -0.8480     6.3120    -0.1910 H     1 <1>   0.1500 
 40 H        0.0870     4.0190     3.2850 H     1 <1>   0.1500 
 41 H       -4.7030     4.3870    -1.5040 H     1 <1>   0.0800 
 42 H       -2.8180     3.1070    -1.4620 H     1 <1>   0.0800 
 43 H        0.7120     4.9600    -1.4930 H     1 <1>   0.1500 
 44 H        1.6600     2.6870     1.9710 H     1 <1>   0.1500 
 45 H       -6.1200     2.7410    -2.1980 H     1 <1>   0.0800 
 46 H       -6.8650     2.9160    -0.6210 H     1 <1>   0.0800 
 47 H       -3.4060     0.5830    -0.4950 H     1 <1>   0.0800 
 48 H       -3.7680     1.1450    -2.1150 H     1 <1>   0.0800 
 49 H       -5.5540     1.1610     0.3050 H     1 <1>   0.0800 
 50 H       -5.6530    -0.7160    -1.1660 H     1 <1>   0.4500 
 51 H        1.3480     1.0470    -0.0990 H     1 <1>   0.1500 
 52 H        3.3290     4.5880    -1.3730 H     1 <1>   0.1500 
 53 H       -6.6890     1.0520    -3.2970 H     1 <1>   0.0800 
 54 H       -6.6280    -0.6940    -3.3460 H     1 <1>   0.0800 
 55 H       -5.1440     0.2270    -3.3220 H     1 <1>   0.0800 
 56 H       -8.1340     0.8860    -1.2150 H     1 <1>   0.0800 
 57 H       -7.5680    -0.0790     0.1320 H     1 <1>   0.0800 
 58 H       -8.0350    -0.8550    -1.3650 H     1 <1>   0.0800 
 59 H        2.9120    -0.3070    -1.4210 H     1 <1>   0.1500 
 60 H        4.8880     3.2400    -2.7040 H     1 <1>   0.1500 
 61 H        4.6840     0.7870    -2.7310 H     1 <1>   0.1500 
@<TRIPOS>BOND
  1   1   2  2   
  2   2   3  am  
  3   2   4  1   
  4   3   5  1   
  5   3   6  1   
  6   4   7  1   
  7   4  29  1   
  8   4  30  1   
  9   5   8  1   
 10   5   9  1   
 11   5  31  1   
 12   6  32  1   
 13   6  33  1   
 14   6  34  1   
 15   7  10  ar  
 16   7  11  ar  
 17   8  12  1   
 18   8  35  1   
 19   8  36  1   
 20   9  13  1   
 21   9  37  1   
 22   9  38  1   
 23  10  14  ar  
 24  10  39  1   
 25  11  15  ar  
 26  11  40  1   
 27  12  13  1   
 28  12  16  1   
 29  12  41  1   
 30  13  17  1   
 31  13  42  1   
 32  14  18  ar  
 33  14  43  1   
 34  15  18  ar  
 35  15  44  1   
 36  16  19  1   
 37  16  45  1   
 38  16  46  1   
 39  17  19  1   
 40  17  47  1   
 41  17  48  1   
 42  18  20  1   
 43  19  21  1   
 44  19  49  1   
 45  20  22  ar  
 46  20  23  ar  
 47  21  24  1   
 48  21  25  1   
 49  21  50  1   
 50  22  26  ar  
 51  22  51  1   
 52  23  27  ar  
 53  23  52  1   
 54  24  53  1   
 55  24  54  1   
 56  24  55  1   
 57  25  56  1   
 58  25  57  1   
 59  25  58  1   
 60  26  28  ar  
 61  26  59  1   
 62  27  28  ar  
 63  27  60  1   
 64  28  61  1   
@<TRIPOS>SUBSTRUCTURE
  1 ****   9 GROUP 4 **** **** 0

# MOE 2024.06 (io_trps.svl 2023.06)
