@<TRIPOS>MOLECULE
NONAME
49 52 1 0 0 
SMALL
USER_CHARGES


@<TRIPOS>ATOM
  1 S        1.5350    -2.0320    -1.6940 S.3   1 <1>  -0.0800 
  2 C        0.5870    -2.2780    -0.2490 C.2   1 <1>   0.1980 
  3 C        1.6110    -0.3340    -1.3230 C.2   1 <1>  -0.1400 
  4 N        0.3590    -1.2190     0.4220 N.2   1 <1>  -0.5650 
  5 C        0.1420    -3.7010     0.0540 C.3   1 <1>   0.5230 
  6 C        0.9370    -0.1120    -0.1800 C.2   1 <1>   0.0460 
  7 C        2.3810     0.5410    -2.2960 C.3   1 <1>  -0.0600 
  8 N       -0.7910    -3.7100     1.2320 N.4   1 <1>  -0.9590 
  9 C        0.7400     1.2130     0.5260 C.3   1 <1>  -0.0590 
 10 C       -2.1330    -3.1360     0.8810 C.3   1 <1>   0.3430 
 11 C       -1.0050    -5.0860     1.7590 C.3   1 <1>   0.3430 
 12 C       -3.1710    -4.1810     1.3200 C.3   1 <1>   0.2000 
 13 C       -2.4050    -5.5010     1.2930 C.3   1 <1>  -0.0800 
 14 O       -3.5790    -3.9270     2.6230 O.3   1 <1>  -0.6800 
 15 C       -2.4220    -6.1120    -0.1290 C.3   1 <1>  -0.0160 
 16 C       -1.2870    -7.0950    -0.3570 C.ar  1 <1>   0.1670 
 17 N       -0.1600    -6.6060    -0.7830 N.ar  1 <1>  -0.6200 
 18 C       -1.5000    -8.4570    -0.0920 C.ar  1 <1>  -0.1500 
 19 C        0.8590    -7.4810    -1.0050 C.ar  1 <1>   0.3100 
 20 C       -0.4890    -9.3480    -0.2830 C.ar  1 <1>  -0.1500 
 21 C        0.7430    -8.8660    -0.7530 C.ar  1 <1>   0.0000 
 22 C        2.0810    -6.9930    -1.4990 C.ar  1 <1>  -0.1500 
 23 C        1.8540    -9.7010    -0.9840 C.ar  1 <1>  -0.1500 
 24 C        3.1480    -7.8230    -1.7190 C.ar  1 <1>  -0.1500 
 25 C        3.0330    -9.1920    -1.4560 C.ar  1 <1>  -0.1500 
 26 H        1.0130    -4.2960     0.2700 H     1 <1>   0.0800 
 27 H       -0.3440    -4.1200    -0.8110 H     1 <1>   0.0800 
 28 H        2.3710     1.5670    -1.9800 H     1 <1>   0.0800 
 29 H        1.9380     0.4780    -3.2740 H     1 <1>   0.0800 
 30 H        3.4020     0.2100    -2.3560 H     1 <1>   0.0800 
 31 H       -0.3450    -3.0890     1.9250 H     1 <1>   0.4500 
 32 H        1.2210     2.0110    -0.0080 H     1 <1>   0.0800 
 33 H        1.1550     1.1610     1.5160 H     1 <1>   0.0800 
 34 H       -0.3100     1.4320     0.6000 H     1 <1>   0.0800 
 35 H       -2.3040    -2.1890     1.3680 H     1 <1>   0.0800 
 36 H       -2.2000    -2.9950    -0.1850 H     1 <1>   0.0800 
 37 H       -0.2400    -5.7710     1.4310 H     1 <1>   0.0800 
 38 H       -0.9930    -5.0590     2.8360 H     1 <1>   0.0800 
 39 H       -4.0490    -4.1790     0.6950 H     1 <1>   0.0800 
 40 H       -2.8270    -6.2190     1.9760 H     1 <1>   0.0800 
 41 H       -2.8370    -3.8290     3.2500 H     1 <1>   0.4000 
 42 H       -2.3440    -5.3420    -0.8770 H     1 <1>   0.0800 
 43 H       -3.3640    -6.6050    -0.2940 H     1 <1>   0.0800 
 44 H       -2.4620    -8.7880     0.2590 H     1 <1>   0.1500 
 45 H       -0.6120   -10.4000    -0.0900 H     1 <1>   0.1500 
 46 H        2.1590    -5.9440    -1.7090 H     1 <1>   0.1500 
 47 H        1.7600   -10.7550    -0.7860 H     1 <1>   0.1500 
 48 H        4.0810    -7.4400    -2.0980 H     1 <1>   0.1500 
 49 H        3.8800    -9.8330    -1.6330 H     1 <1>   0.1500 
@<TRIPOS>BOND
  1   1   2  1   
  2   1   3  1   
  3   2   4  2   
  4   2   5  1   
  5   3   6  2   
  6   3   7  1   
  7   4   6  1   
  8   5   8  1   
  9   5  26  1   
 10   5  27  1   
 11   6   9  1   
 12   7  28  1   
 13   7  29  1   
 14   7  30  1   
 15   8  10  1   
 16   8  11  1   
 17   8  31  1   
 18   9  32  1   
 19   9  33  1   
 20   9  34  1   
 21  10  12  1   
 22  10  35  1   
 23  10  36  1   
 24  11  13  1   
 25  11  37  1   
 26  11  38  1   
 27  12  13  1   
 28  12  14  1   
 29  12  39  1   
 30  13  15  1   
 31  13  40  1   
 32  14  41  1   
 33  15  16  1   
 34  15  42  1   
 35  15  43  1   
 36  16  17  ar  
 37  16  18  ar  
 38  17  19  ar  
 39  18  20  ar  
 40  18  44  1   
 41  19  21  ar  
 42  19  22  ar  
 43  20  21  ar  
 44  20  45  1   
 45  21  23  ar  
 46  22  24  ar  
 47  22  46  1   
 48  23  25  ar  
 49  23  47  1   
 50  24  25  ar  
 51  24  48  1   
 52  25  49  1   
@<TRIPOS>SUBSTRUCTURE
  1 ****   5 GROUP 4 **** **** 0

# MOE 2024.06 (io_trps.svl 2023.06)
