@<TRIPOS>MOLECULE
NONAME
54 56 1 0 0 
SMALL
USER_CHARGES


@<TRIPOS>ATOM
  1 O        0.4340     0.7870    -1.4070 O.2   1 <1>  -0.5700 
  2 C        1.4420     1.3470    -1.0480 C.2   1 <1>   0.5690 
  3 N        1.4580     2.2380    -0.0020 N.am  1 <1>  -0.6600 
  4 C        2.7390     1.0660    -1.8160 C.3   1 <1>   0.1810 
  5 C        2.7250     2.8710     0.4460 C.3   1 <1>   0.1400 
  6 C        0.2470     2.5120     0.8240 C.3   1 <1>   0.0600 
  7 O        3.9050     1.5320    -1.1610 O.3   1 <1>  -0.5600 
  8 C        3.8070     2.8270    -0.6570 C.3   1 <1>   0.2000 
  9 C        5.2100     3.1950    -0.1430 C.3   1 <1>   0.3430 
 10 N        5.3650     4.6460     0.2150 N.4   1 <1>  -0.9060 
 11 C        6.7310     4.9960     0.6700 C.3   1 <1>   0.4230 
 12 C        6.6680     6.3850     1.3110 C.3   1 <1>  -0.1600 
 13 C        7.7050     4.9410    -0.5150 C.3   1 <1>  -0.1600 
 14 C        8.0660     6.8630     1.6910 C.3   1 <1>   0.2090 
 15 C        9.0810     5.4540    -0.1010 C.3   1 <1>   0.2090 
 16 N        8.8960     6.7980     0.4760 N.pl3 1 <1>  -0.8380 
 17 C       10.0020     7.6490     0.4460 C.ar  1 <1>   0.1000 
 18 C       10.0020     8.8300    -0.3050 C.ar  1 <1>  -0.1440 
 19 C       11.1280     7.3190     1.1930 C.ar  1 <1>  -0.1500 
 20 C       11.1180     9.6640    -0.2810 C.ar  1 <1>  -0.1440 
 21 C        8.7750     9.2020    -1.1380 C.3   1 <1>  -0.0970 
 22 C       12.2360     8.1400     1.2050 C.ar  1 <1>  -0.1500 
 23 C       12.2280     9.3100     0.4710 C.ar  1 <1>  -0.1500 
 24 C       11.1690    10.9740    -1.0570 C.3   1 <1>  -0.0970 
 25 H        2.6830     1.5330    -2.7830 H     1 <1>   0.0800 
 26 H        2.8420     0.0050    -1.9550 H     1 <1>   0.0800 
 27 H        3.0750     2.3510     1.3210 H     1 <1>   0.0800 
 28 H        2.5260     3.8930     0.7160 H     1 <1>   0.0800 
 29 H       -0.6050     1.9770     0.4390 H     1 <1>   0.0800 
 30 H        0.0220     3.5630     0.8110 H     1 <1>   0.0800 
 31 H        0.4160     2.1940     1.8390 H     1 <1>   0.0800 
 32 H        3.5380     3.4740    -1.4750 H     1 <1>   0.0800 
 33 H        5.9130     2.9460    -0.9210 H     1 <1>   0.0800 
 34 H        5.4310     2.5820     0.7150 H     1 <1>   0.0800 
 35 H        4.7080     4.9100     0.9570 H     1 <1>   0.4500 
 36 H        5.1580     5.2390    -0.5990 H     1 <1>   0.4500 
 37 H        7.0590     4.2930     1.4200 H     1 <1>   0.0800 
 38 H        6.0640     6.3640     2.2000 H     1 <1>   0.0800 
 39 H        6.2540     7.1020     0.6240 H     1 <1>   0.0800 
 40 H        7.3550     5.5590    -1.3230 H     1 <1>   0.0800 
 41 H        7.8220     3.9350    -0.8730 H     1 <1>   0.0800 
 42 H        8.4960     6.2440     2.4610 H     1 <1>   0.0800 
 43 H        8.0300     7.8800     2.0490 H     1 <1>   0.0800 
 44 H        9.7330     5.5170    -0.9580 H     1 <1>   0.0800 
 45 H        9.5360     4.8040     0.6280 H     1 <1>   0.0800 
 46 H       11.1340     6.4150     1.7700 H     1 <1>   0.1500 
 47 H        8.2230     8.3280    -1.4280 H     1 <1>   0.0800 
 48 H        9.0570     9.7080    -2.0410 H     1 <1>   0.0800 
 49 H        8.1320     9.8410    -0.5630 H     1 <1>   0.0800 
 50 H       13.1010     7.8740     1.7850 H     1 <1>   0.1500 
 51 H       13.0960     9.9440     0.4910 H     1 <1>   0.1500 
 52 H       10.2890    11.5590    -0.8570 H     1 <1>   0.0800 
 53 H       11.2280    10.7720    -2.1110 H     1 <1>   0.0800 
 54 H       12.0270    11.5570    -0.7750 H     1 <1>   0.0800 
@<TRIPOS>BOND
  1   1   2  2   
  2   2   3  am  
  3   2   4  1   
  4   3   5  1   
  5   3   6  1   
  6   4   7  1   
  7   4  25  1   
  8   4  26  1   
  9   5   8  1   
 10   5  27  1   
 11   5  28  1   
 12   6  29  1   
 13   6  30  1   
 14   6  31  1   
 15   7   8  1   
 16   8   9  1   
 17   8  32  1   
 18   9  10  1   
 19   9  33  1   
 20   9  34  1   
 21  10  11  1   
 22  10  35  1   
 23  10  36  1   
 24  11  12  1   
 25  11  13  1   
 26  11  37  1   
 27  12  14  1   
 28  12  38  1   
 29  12  39  1   
 30  13  15  1   
 31  13  40  1   
 32  13  41  1   
 33  14  16  1   
 34  14  42  1   
 35  14  43  1   
 36  15  16  1   
 37  15  44  1   
 38  15  45  1   
 39  16  17  1   
 40  17  18  ar  
 41  17  19  ar  
 42  18  20  ar  
 43  18  21  1   
 44  19  22  ar  
 45  19  46  1   
 46  20  23  ar  
 47  20  24  1   
 48  21  47  1   
 49  21  48  1   
 50  21  49  1   
 51  22  23  ar  
 52  22  50  1   
 53  23  51  1   
 54  24  52  1   
 55  24  53  1   
 56  24  54  1   
@<TRIPOS>SUBSTRUCTURE
  1 ****  11 GROUP 4 **** **** 0

# MOE 2024.06 (io_trps.svl 2023.06)
