@<TRIPOS>MOLECULE
NONAME
50 52 1 0 0 
SMALL
USER_CHARGES


@<TRIPOS>ATOM
  1 CL      -0.4900    -1.4790    -1.1240 Cl    1 <1>  -0.1770 
  2 C       -1.7190    -0.2810    -0.7750 C.ar  1 <1>   0.1770 
  3 C       -2.9890    -0.6750    -0.3670 C.ar  1 <1>   0.0820 
  4 C       -1.3860     1.0540    -0.9150 C.ar  1 <1>  -0.1500 
  5 O       -3.2460    -2.0060    -0.2500 O.3   1 <1>  -0.3630 
  6 C       -3.9360     0.3120    -0.0980 C.ar  1 <1>  -0.1500 
  7 C       -2.3360     2.0250    -0.6440 C.ar  1 <1>  -0.1500 
  8 C       -4.4800    -2.4820     0.2380 C.3   1 <1>   0.1200 
  9 C       -3.6060     1.6510    -0.2370 C.ar  1 <1>  -0.1500 
 10 C       -4.4300    -4.0080     0.2670 C.3   1 <1>  -0.1600 
 11 C       -5.6900    -4.5690     0.9280 C.3   1 <1>   0.2090 
 12 N       -5.7210    -6.0470     0.7970 N.pl3 1 <1>  -0.8380 
 13 C       -6.7850    -6.6710     0.1650 C.ar  1 <1>   0.4100 
 14 C       -4.6550    -6.8110     1.5000 C.3   1 <1>   0.1290 
 15 N       -7.9850    -6.2310     0.5490 N.ar  1 <1>  -0.6200 
 16 C       -6.6080    -7.6850    -0.7990 C.ar  1 <1>   0.0860 
 17 C       -9.0350    -6.7860    -0.0190 C.ar  1 <1>   0.1600 
 18 C       -5.3060    -8.1540    -1.1950 C.2   1 <1>   0.5440 
 19 C       -7.7400    -8.2430    -1.3760 C.ar  1 <1>  -0.1500 
 20 C       -8.9730    -7.7830    -0.9750 C.ar  1 <1>  -0.1500 
 21 O       -4.6100    -7.5010    -1.9510 O.2   1 <1>  -0.5700 
 22 N       -4.8360    -9.3750    -0.7610 N.am  1 <1>  -0.6600 
 23 C       -5.5330   -10.2810     0.1760 C.3   1 <1>   0.1400 
 24 C       -3.4770    -9.8640    -1.0730 C.3   1 <1>   0.1400 
 25 C       -4.4300   -11.1800     0.7210 C.3   1 <1>  -0.1600 
 26 C       -3.3880   -11.2280    -0.3950 C.3   1 <1>  -0.1600 
 27 H       -0.3960     1.3260    -1.2320 H     1 <1>   0.1500 
 28 H       -4.9310     0.0610     0.2180 H     1 <1>   0.1500 
 29 H       -2.0870     3.0670    -0.7500 H     1 <1>   0.1500 
 30 H       -5.2610    -2.1420    -0.4200 H     1 <1>   0.0800 
 31 H       -4.6230    -2.0860     1.2290 H     1 <1>   0.0800 
 32 H       -4.3430     2.4080    -0.0270 H     1 <1>   0.1500 
 33 H       -3.5630    -4.3210     0.8190 H     1 <1>   0.0800 
 34 H       -4.3660    -4.3790    -0.7410 H     1 <1>   0.0800 
 35 H       -6.5560    -4.1470     0.4470 H     1 <1>   0.0800 
 36 H       -5.7230    -4.3020     1.9700 H     1 <1>   0.0800 
 37 H       -4.4270    -6.3450     2.4410 H     1 <1>   0.0800 
 38 H       -3.7680    -6.8380     0.8900 H     1 <1>   0.0800 
 39 H       -4.9820    -7.8180     1.6870 H     1 <1>   0.0800 
 40 H      -10.0020    -6.4290     0.2920 H     1 <1>   0.1500 
 41 H       -7.6430    -9.0120    -2.1220 H     1 <1>   0.1500 
 42 H       -9.8760    -8.1850    -1.3970 H     1 <1>   0.1500 
 43 H       -6.2540   -10.8640    -0.3710 H     1 <1>   0.0800 
 44 H       -6.0270    -9.7360     0.9630 H     1 <1>   0.0800 
 45 H       -2.7560    -9.1810    -0.6590 H     1 <1>   0.0800 
 46 H       -3.3350    -9.9340    -2.1380 H     1 <1>   0.0800 
 47 H       -4.8000   -12.1560     0.9790 H     1 <1>   0.0800 
 48 H       -4.0060   -10.7220     1.5970 H     1 <1>   0.0800 
 49 H       -2.3970   -11.4240    -0.0250 H     1 <1>   0.0800 
 50 H       -3.6510   -11.9880    -1.1100 H     1 <1>   0.0800 
@<TRIPOS>BOND
  1   1   2  1   
  2   2   3  ar  
  3   2   4  ar  
  4   3   5  1   
  5   3   6  ar  
  6   4   7  ar  
  7   4  27  1   
  8   5   8  1   
  9   6   9  ar  
 10   6  28  1   
 11   7   9  ar  
 12   7  29  1   
 13   8  10  1   
 14   8  30  1   
 15   8  31  1   
 16   9  32  1   
 17  10  11  1   
 18  10  33  1   
 19  10  34  1   
 20  11  12  1   
 21  11  35  1   
 22  11  36  1   
 23  12  13  1   
 24  12  14  1   
 25  13  15  ar  
 26  13  16  ar  
 27  14  37  1   
 28  14  38  1   
 29  14  39  1   
 30  15  17  ar  
 31  16  18  1   
 32  16  19  ar  
 33  17  20  ar  
 34  17  40  1   
 35  18  21  2   
 36  18  22  am  
 37  19  20  ar  
 38  19  41  1   
 39  20  42  1   
 40  22  23  1   
 41  22  24  1   
 42  23  25  1   
 43  23  43  1   
 44  23  44  1   
 45  24  26  1   
 46  24  45  1   
 47  24  46  1   
 48  25  26  1   
 49  25  47  1   
 50  25  48  1   
 51  26  49  1   
 52  26  50  1   
@<TRIPOS>SUBSTRUCTURE
  1 ****  10 GROUP 4 **** **** 0

# MOE 2024.06 (io_trps.svl 2023.06)
