@<TRIPOS>MOLECULE
NONAME
49 52 1 0 0 
SMALL
USER_CHARGES


@<TRIPOS>ATOM
  1 O       -0.9630     0.8460    -1.8500 O.2   1 <1>  -0.5700 
  2 C       -1.9130     1.2960    -1.2370 C.2   1 <1>   0.5440 
  3 N       -3.1440     0.6820    -1.3490 N.am  1 <1>  -0.6600 
  4 C       -1.7100     2.4600    -0.3980 C.ar  1 <1>   0.0860 
  5 C       -3.3800    -0.4410    -2.3010 C.3   1 <1>   0.1400 
  6 C       -4.2810     0.9100    -0.4140 C.3   1 <1>   0.1400 
  7 C       -2.4270     3.6400    -0.5920 C.ar  1 <1>  -0.1500 
  8 C       -0.7740     2.4430     0.6340 C.ar  1 <1>  -0.1500 
  9 C       -3.6170    -1.7330    -1.5150 C.3   1 <1>  -0.1600 
 10 C       -4.5220    -0.3600     0.4050 C.3   1 <1>  -0.1600 
 11 C       -2.2270     4.7450     0.2150 C.ar  1 <1>  -0.1500 
 12 C       -0.5720     3.5470     1.4430 C.ar  1 <1>  -0.1500 
 13 C       -4.7590    -1.5910    -0.4930 C.3   1 <1>   0.4240 
 14 C       -1.2970     4.7170     1.2480 C.ar  1 <1>   0.0730 
 15 O       -5.8880    -1.2980    -1.2890 O.3   1 <1>  -0.5600 
 16 C       -4.9580    -2.8990     0.3270 C.ar  1 <1>  -0.1430 
 17 C       -1.0890     5.8630     2.0870 C.1   1 <1>   0.4840 
 18 C       -7.1460    -1.5470    -0.7530 C.3   1 <1>   0.1200 
 19 C       -3.9520    -3.4240     1.1510 C.ar  1 <1>   0.0830 
 20 C       -6.1690    -3.5870     0.2550 C.ar  1 <1>  -0.1430 
 21 N       -0.9280     6.7730     2.7550 N.1   1 <1>  -0.5570 
 22 C       -7.3010    -3.0520    -0.5970 C.3   1 <1>  -0.0170 
 23 O       -2.7700    -2.7610     1.2560 O.3   1 <1>  -0.3630 
 24 C       -4.1680    -4.6050     1.8570 C.ar  1 <1>  -0.1500 
 25 C       -6.3700    -4.7630     0.9580 C.ar  1 <1>  -0.1500 
 26 C       -1.6110    -3.3610     1.7900 C.3   1 <1>   0.0400 
 27 C       -5.3710    -5.2740     1.7580 C.ar  1 <1>  -0.1500 
 28 H       -2.5390    -0.5670    -2.9610 H     1 <1>   0.0800 
 29 H       -4.2410    -0.2150    -2.9060 H     1 <1>   0.0800 
 30 H       -5.1610     1.1540    -0.9850 H     1 <1>   0.0800 
 31 H       -4.0780     1.7260     0.2540 H     1 <1>   0.0800 
 32 H       -3.1460     3.6810    -1.3930 H     1 <1>   0.1500 
 33 H       -0.2000     1.5450     0.7910 H     1 <1>   0.1500 
 34 H       -2.6950    -1.9860    -1.0310 H     1 <1>   0.0800 
 35 H       -3.8500    -2.5340    -2.1920 H     1 <1>   0.0800 
 36 H       -5.3550    -0.2220     1.0660 H     1 <1>   0.0800 
 37 H       -3.6590    -0.5130     1.0230 H     1 <1>   0.0800 
 38 H       -2.7980     5.6420     0.0390 H     1 <1>   0.1500 
 39 H        0.1590     3.4980     2.2330 H     1 <1>   0.1500 
 40 H       -7.8800    -1.1600    -1.4370 H     1 <1>   0.0800 
 41 H       -7.2400    -1.0450     0.1930 H     1 <1>   0.0800 
 42 H       -7.2820    -3.5190    -1.5660 H     1 <1>   0.0800 
 43 H       -8.2490    -3.2620    -0.1360 H     1 <1>   0.0800 
 44 H       -3.4130    -5.0200     2.4960 H     1 <1>   0.1500 
 45 H       -7.3080    -5.2860     0.8850 H     1 <1>   0.1500 
 46 H       -0.7850    -2.6940     1.6250 H     1 <1>   0.0800 
 47 H       -1.4350    -4.2930     1.2830 H     1 <1>   0.0800 
 48 H       -1.7510    -3.5130     2.8460 H     1 <1>   0.0800 
 49 H       -5.5300    -6.1870     2.3040 H     1 <1>   0.1500 
@<TRIPOS>BOND
  1   1   2  2   
  2   2   3  am  
  3   2   4  1   
  4   3   5  1   
  5   3   6  1   
  6   4   7  ar  
  7   4   8  ar  
  8   5   9  1   
  9   5  28  1   
 10   5  29  1   
 11   6  10  1   
 12   6  30  1   
 13   6  31  1   
 14   7  11  ar  
 15   7  32  1   
 16   8  12  ar  
 17   8  33  1   
 18   9  13  1   
 19   9  34  1   
 20   9  35  1   
 21  10  13  1   
 22  10  36  1   
 23  10  37  1   
 24  11  14  ar  
 25  11  38  1   
 26  12  14  ar  
 27  12  39  1   
 28  13  15  1   
 29  13  16  1   
 30  14  17  1   
 31  15  18  1   
 32  16  19  ar  
 33  16  20  ar  
 34  17  21  3   
 35  18  22  1   
 36  18  40  1   
 37  18  41  1   
 38  19  23  1   
 39  19  24  ar  
 40  20  22  1   
 41  20  25  ar  
 42  22  42  1   
 43  22  43  1   
 44  23  26  1   
 45  24  27  ar  
 46  24  44  1   
 47  25  27  ar  
 48  25  45  1   
 49  26  46  1   
 50  26  47  1   
 51  26  48  1   
 52  27  49  1   
@<TRIPOS>SUBSTRUCTURE
  1 ****  10 GROUP 4 **** **** 0

# MOE 2024.06 (io_trps.svl 2023.06)
