@<TRIPOS>MOLECULE
NONAME
41 42 1 0 0 
SMALL
USER_CHARGES


@<TRIPOS>ATOM
  1 F        0.2030    -0.8450     0.4320 F     1 <1>  -0.1900 
  2 C        0.7630    -1.2640    -0.6720 C.ar  1 <1>   0.1900 
  3 C        1.4320    -2.4790    -0.6820 C.ar  1 <1>  -0.1440 
  4 C        0.6580    -0.4620    -1.7930 C.ar  1 <1>  -0.1500 
  5 C        2.0120    -2.8860    -1.8760 C.ar  1 <1>  -0.1500 
  6 C        1.5380    -3.3460     0.5670 C.3   1 <1>   0.2540 
  7 C        1.2430    -0.8860    -2.9740 C.ar  1 <1>  -0.1500 
  8 C        1.9180    -2.0960    -3.0120 C.ar  1 <1>  -0.1500 
  9 N        1.2080    -4.7550     0.2740 N.3   1 <1>  -0.8100 
 10 C       -0.2190    -4.8910    -0.1260 C.3   1 <1>   0.2900 
 11 C        1.5340    -5.6370     1.4060 C.3   1 <1>   0.1100 
 12 C       -0.5640    -6.2670    -0.6860 C.2   1 <1>   0.2980 
 13 C        3.0290    -5.9710     1.4020 C.3   1 <1>  -0.1600 
 14 O       -0.0150    -6.6430    -1.8140 O.3   1 <1>  -0.0190 
 15 N       -1.3590    -7.1100    -0.1540 N.2   1 <1>  -0.5650 
 16 C        3.3720    -6.9860     2.4980 C.3   1 <1>  -0.2400 
 17 N       -0.5050    -7.8270    -2.0230 N.2   1 <1>  -0.4100 
 18 C       -1.2930    -8.0860    -1.0550 C.2   1 <1>   0.3350 
 19 C       -2.0750    -9.3880    -0.8970 C.3   1 <1>   0.3010 
 20 O       -3.4340    -9.2060    -1.1920 O.3   1 <1>  -0.5600 
 21 C       -4.2070   -10.3520    -1.0500 C.3   1 <1>   0.0400 
 22 H        0.1300     0.4730    -1.7400 H     1 <1>   0.1500 
 23 H        2.5360    -3.8270    -1.9200 H     1 <1>   0.1500 
 24 H        0.8900    -2.9810     1.3460 H     1 <1>   0.0800 
 25 H        2.5500    -3.2760     0.9250 H     1 <1>   0.0800 
 26 H        1.1740    -0.2780    -3.8600 H     1 <1>   0.1500 
 27 H        2.3720    -2.4280    -3.9300 H     1 <1>   0.1500 
 28 H       -0.4560    -4.1740    -0.8920 H     1 <1>   0.0800 
 29 H       -0.8520    -4.6910     0.7200 H     1 <1>   0.0800 
 30 H        0.9940    -6.5650     1.3190 H     1 <1>   0.0800 
 31 H        1.2490    -5.1770     2.3380 H     1 <1>   0.0800 
 32 H        3.6130    -5.0830     1.5590 H     1 <1>   0.0800 
 33 H        3.2900    -6.3870     0.4440 H     1 <1>   0.0800 
 34 H        3.1270    -6.5900     3.4690 H     1 <1>   0.0800 
 35 H        4.4240    -7.2100     2.4750 H     1 <1>   0.0800 
 36 H        2.8250    -7.9000     2.3470 H     1 <1>   0.0800 
 37 H       -1.9860    -9.7340     0.1160 H     1 <1>   0.0800 
 38 H       -1.6770   -10.1260    -1.5710 H     1 <1>   0.0800 
 39 H       -5.2230   -10.1020    -1.2990 H     1 <1>   0.0800 
 40 H       -4.1580   -10.6910    -0.0290 H     1 <1>   0.0800 
 41 H       -3.8470   -11.1110    -1.7220 H     1 <1>   0.0800 
@<TRIPOS>BOND
  1   1   2  1   
  2   2   3  ar  
  3   2   4  ar  
  4   3   5  ar  
  5   3   6  1   
  6   4   7  ar  
  7   4  22  1   
  8   5   8  ar  
  9   5  23  1   
 10   6   9  1   
 11   6  24  1   
 12   6  25  1   
 13   7   8  ar  
 14   7  26  1   
 15   8  27  1   
 16   9  10  1   
 17   9  11  1   
 18  10  12  1   
 19  10  28  1   
 20  10  29  1   
 21  11  13  1   
 22  11  30  1   
 23  11  31  1   
 24  12  14  1   
 25  12  15  2   
 26  13  16  1   
 27  13  32  1   
 28  13  33  1   
 29  14  17  1   
 30  15  18  1   
 31  16  34  1   
 32  16  35  1   
 33  16  36  1   
 34  17  18  2   
 35  18  19  1   
 36  19  20  1   
 37  19  37  1   
 38  19  38  1   
 39  20  21  1   
 40  21  39  1   
 41  21  40  1   
 42  21  41  1   
@<TRIPOS>SUBSTRUCTURE
  1 ****  10 GROUP 4 **** **** 0

# MOE 2024.06 (io_trps.svl 2023.06)
