@<TRIPOS>MOLECULE
NONAME
47 50 1 0 0 
SMALL
USER_CHARGES


@<TRIPOS>ATOM
  1 O       -0.1730     1.6090     2.0650 O.2   1 <1>  -0.5700 
  2 C        0.0660     2.5810     1.3740 C.2   1 <1>   0.5440 
  3 N       -0.9750     3.3710     0.9330 N.am  1 <1>  -0.6600 
  4 C        1.4420     2.8680     1.0270 C.ar  1 <1>   0.0860 
  5 C       -2.3870     3.1110     1.3470 C.3   1 <1>   0.1400 
  6 C       -0.8610     4.3760    -0.1600 C.3   1 <1>   0.1400 
  7 C        2.2030     1.9740     0.3040 C.ar  1 <1>  -0.1500 
  8 C        2.0500     4.0740     1.4260 C.ar  1 <1>  -0.1500 
  9 C       -3.2040     2.5550     0.1650 C.3   1 <1>   0.0000 
 10 C       -1.6440     3.8940    -1.3870 C.3   1 <1>  -0.1600 
 11 C        3.5300     2.2340    -0.0550 C.ar  1 <1>   0.3100 
 12 C        3.3490     4.3570     1.0960 C.ar  1 <1>  -0.1500 
 13 C       -4.6570     2.2920     0.5990 C.3   1 <1>   0.2000 
 14 C       -3.1000     3.5350    -1.0380 C.3   1 <1>  -0.1600 
 15 C       -2.7530     1.1390    -0.2390 C.3   1 <1>  -0.1600 
 16 N        4.2120     1.3110    -0.7850 N.ar  1 <1>  -0.6200 
 17 C        4.1230     3.4570     0.3490 C.ar  1 <1>   0.3100 
 18 O       -5.4230     3.4600     0.5940 O.3   1 <1>  -0.5600 
 19 C       -5.1990     1.2570    -0.3910 C.3   1 <1>  -0.1600 
 20 C       -3.9730     0.4830    -0.8960 C.3   1 <1>  -0.1600 
 21 C        5.4310     1.6560    -1.0610 C.ar  1 <1>   0.1600 
 22 N        5.4040     3.7810     0.0360 N.ar  1 <1>  -0.6200 
 23 C       -6.6500     3.3630     1.2440 C.3   1 <1>   0.0400 
 24 C        6.0180     2.8730    -0.6560 C.ar  1 <1>   0.1600 
 25 H       -2.4180     2.4230     2.1730 H     1 <1>   0.0800 
 26 H       -2.8280     4.0350     1.6780 H     1 <1>   0.0800 
 27 H       -1.2690     5.3110     0.1850 H     1 <1>   0.0800 
 28 H        0.1650     4.5400    -0.4350 H     1 <1>   0.0800 
 29 H        1.7750     1.0360    -0.0020 H     1 <1>   0.1500 
 30 H        1.4660     4.7700     2.0040 H     1 <1>   0.1500 
 31 H       -1.6390     4.6700    -2.1320 H     1 <1>   0.0800 
 32 H       -1.1400     3.0440    -1.8090 H     1 <1>   0.0800 
 33 H        3.8140     5.2780     1.4020 H     1 <1>   0.1500 
 34 H       -4.6590     1.8770     1.5930 H     1 <1>   0.0800 
 35 H       -3.5880     3.1240    -1.9030 H     1 <1>   0.0800 
 36 H       -3.6110     4.4490    -0.7900 H     1 <1>   0.0800 
 37 H       -1.8960     1.1330    -0.8860 H     1 <1>   0.0800 
 38 H       -2.4970     0.5830     0.6470 H     1 <1>   0.0800 
 39 H       -5.8990     0.5980     0.0900 H     1 <1>   0.0800 
 40 H       -5.6750     1.7540    -1.2180 H     1 <1>   0.0800 
 41 H       -4.0290    -0.5600    -0.6360 H     1 <1>   0.0800 
 42 H       -3.9050     0.5710    -1.9670 H     1 <1>   0.0800 
 43 H        6.0380     0.9770    -1.6340 H     1 <1>   0.1500 
 44 H       -7.1290     4.3240     1.1960 H     1 <1>   0.0800 
 45 H       -6.4880     3.0890     2.2720 H     1 <1>   0.0800 
 46 H       -7.2620     2.6300     0.7480 H     1 <1>   0.0800 
 47 H        7.0390     3.0520    -0.9440 H     1 <1>   0.1500 
@<TRIPOS>BOND
  1   1   2  2   
  2   2   3  am  
  3   2   4  1   
  4   3   5  1   
  5   3   6  1   
  6   4   7  ar  
  7   4   8  ar  
  8   5   9  1   
  9   5  25  1   
 10   5  26  1   
 11   6  10  1   
 12   6  27  1   
 13   6  28  1   
 14   7  11  ar  
 15   7  29  1   
 16   8  12  ar  
 17   8  30  1   
 18   9  13  1   
 19   9  14  1   
 20   9  15  1   
 21  10  14  1   
 22  10  31  1   
 23  10  32  1   
 24  11  16  ar  
 25  11  17  ar  
 26  12  17  ar  
 27  12  33  1   
 28  13  18  1   
 29  13  19  1   
 30  13  34  1   
 31  14  35  1   
 32  14  36  1   
 33  15  20  1   
 34  15  37  1   
 35  15  38  1   
 36  16  21  ar  
 37  17  22  ar  
 38  18  23  1   
 39  19  20  1   
 40  19  39  1   
 41  19  40  1   
 42  20  41  1   
 43  20  42  1   
 44  21  24  ar  
 45  21  43  1   
 46  22  24  ar  
 47  23  44  1   
 48  23  45  1   
 49  23  46  1   
 50  24  47  1   
@<TRIPOS>SUBSTRUCTURE
  1 ****   2 GROUP 4 **** **** 0

# MOE 2024.06 (io_trps.svl 2023.06)
