@<TRIPOS>MOLECULE
NONAME
27 27 1 0 0 
SMALL
USER_CHARGES


@<TRIPOS>ATOM
  1 CL       0.2390     0.1840     0.5250 Cl    1 <1>  -0.1770 
  2 C        0.0710    -1.5310     0.2470 C.ar  1 <1>   0.1770 
  3 C       -1.1780    -2.0780    -0.0020 C.ar  1 <1>   0.1660 
  4 C        1.1920    -2.3300     0.2780 C.ar  1 <1>  -0.1500 
  5 N       -1.3800    -3.3770    -0.2200 N.ar  1 <1>  -0.6200 
  6 C       -2.4040    -1.1690    -0.0410 C.3   1 <1>   0.4870 
  7 C        0.9990    -3.6850     0.0480 C.ar  1 <1>  -0.1440 
  8 C       -0.2910    -4.1410    -0.1920 C.ar  1 <1>   0.1600 
  9 N       -3.6110    -1.9540     0.3480 N.4   1 <1>  -0.9060 
 10 C        2.1390    -4.7020     0.0460 C.3   1 <1>   1.1630 
 11 C       -4.8960    -1.3370    -0.0880 C.3   1 <1>   0.3430 
 12 F        1.9530    -5.6460     0.9560 F     1 <1>  -0.3400 
 13 F        2.2430    -5.3190    -1.1220 F     1 <1>  -0.3400 
 14 F        3.3230    -4.1590     0.2970 F     1 <1>  -0.3400 
 15 C       -6.1020    -2.2110     0.2770 C.3   1 <1>   0.1200 
 16 O       -7.2390    -1.5420    -0.1370 O.3   1 <1>  -0.6800 
 17 H        2.1630    -1.9040     0.4720 H     1 <1>   0.1500 
 18 H       -2.5180    -0.8000    -1.0470 H     1 <1>   0.0800 
 19 H       -2.2710    -0.3280     0.6210 H     1 <1>   0.0800 
 20 H       -0.4400    -5.1960    -0.3720 H     1 <1>   0.1500 
 21 H       -3.5900    -2.1220     1.3600 H     1 <1>   0.4500 
 22 H       -3.4590    -2.8800    -0.0880 H     1 <1>   0.4500 
 23 H       -4.8870    -1.1960    -1.1570 H     1 <1>   0.0800 
 24 H       -5.0160    -0.3740     0.3820 H     1 <1>   0.0800 
 25 H       -6.1720    -2.3580     1.3410 H     1 <1>   0.0800 
 26 H       -6.0680    -3.1580    -0.2350 H     1 <1>   0.0800 
 27 H       -8.0550    -2.0530     0.0570 H     1 <1>   0.4000 
@<TRIPOS>BOND
  1   1   2  1   
  2   2   3  ar  
  3   2   4  ar  
  4   3   5  ar  
  5   3   6  1   
  6   4   7  ar  
  7   4  17  1   
  8   5   8  ar  
  9   6   9  1   
 10   6  18  1   
 11   6  19  1   
 12   7   8  ar  
 13   7  10  1   
 14   8  20  1   
 15   9  11  1   
 16   9  21  1   
 17   9  22  1   
 18  10  12  1   
 19  10  13  1   
 20  10  14  1   
 21  11  15  1   
 22  11  23  1   
 23  11  24  1   
 24  15  16  1   
 25  15  25  1   
 26  15  26  1   
 27  16  27  1   
@<TRIPOS>SUBSTRUCTURE
  1 ****   3 GROUP 4 **** **** 0

# MOE 2024.06 (io_trps.svl 2023.06)
