@<TRIPOS>MOLECULE
NONAME
42 44 1 0 0 
SMALL
USER_CHARGES


@<TRIPOS>ATOM
  1 CL      -1.1260    -0.6070    -0.4810 Cl    1 <1>  -0.1770 
  2 C        0.3570    -1.2160     0.2160 C.ar  1 <1>   0.1770 
  3 C        1.0720    -2.2380    -0.3980 C.ar  1 <1>  -0.1440 
  4 C        0.7840    -0.6480     1.4030 C.ar  1 <1>  -0.1500 
  5 C        2.2380    -2.6820     0.2120 C.ar  1 <1>  -0.1500 
  6 C        0.6330    -2.8930    -1.7080 C.3   1 <1>   0.0450 
  7 C        1.9470    -1.1020     1.9990 C.ar  1 <1>  -0.1500 
  8 C        2.6720    -2.1190     1.4010 C.ar  1 <1>  -0.1500 
  9 C        0.4100    -4.3910    -1.5620 C.2   1 <1>   0.5690 
 10 O        1.1960    -5.1340    -2.1010 O.2   1 <1>  -0.5700 
 11 N       -0.6530    -4.8780    -0.8500 N.am  1 <1>  -0.6600 
 12 C       -1.6650    -4.0800    -0.1130 C.3   1 <1>   0.1400 
 13 C       -0.8710    -6.3280    -0.6410 C.3   1 <1>   0.1400 
 14 C       -2.6520    -5.1100     0.4330 C.3   1 <1>   0.2000 
 15 C       -1.8710    -6.4200     0.5130 C.3   1 <1>  -0.0800 
 16 O       -3.1220    -4.7570     1.6870 O.3   1 <1>  -0.6800 
 17 C       -2.7720    -7.6610     0.4510 C.3   1 <1>   0.0200 
 18 C       -1.9480    -8.9340     0.4530 C.2   1 <1>  -0.0400 
 19 O       -1.1960    -9.2240     1.4820 O.3   1 <1>  -0.0190 
 20 C       -1.8030    -9.9120    -0.4530 C.2   1 <1>  -0.1500 
 21 N       -0.5530   -10.3420     1.3110 N.2   1 <1>  -0.4100 
 22 C       -0.8990   -10.7800     0.1540 C.2   1 <1>   0.1080 
 23 C       -0.3870   -12.0650    -0.4570 C.3   1 <1>  -0.0590 
 24 H        0.2100     0.1410     1.8530 H     1 <1>   0.1500 
 25 H        2.8150    -3.4730    -0.2390 H     1 <1>   0.1500 
 26 H        1.4030    -2.7350    -2.4410 H     1 <1>   0.0800 
 27 H       -0.2630    -2.4550    -2.1010 H     1 <1>   0.0800 
 28 H        2.2890    -0.6660     2.9220 H     1 <1>   0.1500 
 29 H        3.5780    -2.4750     1.8610 H     1 <1>   0.1500 
 30 H       -1.1840    -3.5530     0.6920 H     1 <1>   0.0800 
 31 H       -2.1600    -3.3890    -0.7730 H     1 <1>   0.0800 
 32 H       -1.2780    -6.7520    -1.5440 H     1 <1>   0.0800 
 33 H        0.0540    -6.8270    -0.4020 H     1 <1>   0.0800 
 34 H       -3.4940    -5.1940    -0.2340 H     1 <1>   0.0800 
 35 H       -1.2980    -6.4400     1.4240 H     1 <1>   0.0800 
 36 H       -2.3850    -4.7170     2.3280 H     1 <1>   0.4000 
 37 H       -3.3760    -7.6340    -0.4390 H     1 <1>   0.0800 
 38 H       -3.4320    -7.6700     1.3010 H     1 <1>   0.0800 
 39 H       -2.2530   -10.0330    -1.4200 H     1 <1>   0.1500 
 40 H       -1.2080   -12.7280    -0.6560 H     1 <1>   0.0800 
 41 H        0.2930   -12.5480     0.2220 H     1 <1>   0.0800 
 42 H        0.1300   -11.8520    -1.3740 H     1 <1>   0.0800 
@<TRIPOS>BOND
  1   1   2  1   
  2   2   3  ar  
  3   2   4  ar  
  4   3   5  ar  
  5   3   6  1   
  6   4   7  ar  
  7   4  24  1   
  8   5   8  ar  
  9   5  25  1   
 10   6   9  1   
 11   6  26  1   
 12   6  27  1   
 13   7   8  ar  
 14   7  28  1   
 15   8  29  1   
 16   9  10  2   
 17   9  11  am  
 18  11  12  1   
 19  11  13  1   
 20  12  14  1   
 21  12  30  1   
 22  12  31  1   
 23  13  15  1   
 24  13  32  1   
 25  13  33  1   
 26  14  15  1   
 27  14  16  1   
 28  14  34  1   
 29  15  17  1   
 30  15  35  1   
 31  16  36  1   
 32  17  18  1   
 33  17  37  1   
 34  17  38  1   
 35  18  19  1   
 36  18  20  2   
 37  19  21  1   
 38  20  22  1   
 39  20  39  1   
 40  21  22  2   
 41  22  23  1   
 42  23  40  1   
 43  23  41  1   
 44  23  42  1   
@<TRIPOS>SUBSTRUCTURE
  1 ****  11 GROUP 4 **** **** 0

# MOE 2024.06 (io_trps.svl 2023.06)
