@<TRIPOS>MOLECULE
NONAME
43 44 1 0 0 
SMALL
USER_CHARGES


@<TRIPOS>ATOM
  1 O        0.4740     0.3900    -0.3550 O.3   1 <1>  -0.5600 
  2 C        1.6860     0.6320     0.2860 C.3   1 <1>   0.1200 
  3 C       -0.4290     1.3970    -0.0560 C.3   1 <1>   0.1200 
  4 C        1.7520     2.1410     0.5510 C.3   1 <1>  -0.0800 
  5 C        0.4180     2.6550     0.0210 C.3   1 <1>  -0.1600 
  6 C        2.9710     2.8050    -0.1120 C.3   1 <1>  -0.1600 
  7 C        3.0620     4.3080     0.2020 C.3   1 <1>  -0.1600 
  8 C        4.3120     4.9280    -0.4200 C.3   1 <1>   0.2090 
  9 N        4.3610     6.3610    -0.0670 N.pl3 1 <1>  -0.8690 
 10 C        5.4630     7.1510    -0.2920 C.ar  1 <1>   0.4100 
 11 N        6.5770     6.5670    -0.6910 N.ar  1 <1>  -0.6200 
 12 C        5.4000     8.5100    -0.1090 C.ar  1 <1>  -0.1500 
 13 C        7.5970     7.3790    -0.8880 C.ar  1 <1>   0.4700 
 14 C        6.5260     9.2580    -0.3510 C.ar  1 <1>   0.4100 
 15 N        7.6510     8.6880    -0.7470 N.ar  1 <1>  -0.6200 
 16 N        6.5110    10.6310    -0.2020 N.pl3 1 <1>  -0.8380 
 17 C        7.7310    11.3250     0.2870 C.3   1 <1>   0.2090 
 18 C        5.6420    11.4220    -1.1140 C.3   1 <1>   0.1290 
 19 C        7.3370    12.3750     1.3210 C.3   1 <1>  -0.2400 
 20 H        2.4780     0.2880    -0.3560 H     1 <1>   0.0800 
 21 H        1.6950     0.0750     1.2070 H     1 <1>   0.0800 
 22 H       -0.8820     1.1690     0.8940 H     1 <1>   0.0800 
 23 H       -1.1790     1.4440    -0.8270 H     1 <1>   0.0800 
 24 H        1.8010     2.2880     1.6170 H     1 <1>   0.0800 
 25 H       -0.0250     3.3970     0.6610 H     1 <1>   0.0800 
 26 H        0.5210     3.0560    -0.9720 H     1 <1>   0.0800 
 27 H        2.9230     2.6600    -1.1780 H     1 <1>   0.0800 
 28 H        3.8650     2.3210     0.2450 H     1 <1>   0.0800 
 29 H        3.1020     4.4460     1.2690 H     1 <1>   0.0800 
 30 H        2.1940     4.8120    -0.1820 H     1 <1>   0.0800 
 31 H        4.2910     4.8260    -1.4930 H     1 <1>   0.0800 
 32 H        5.1940     4.4360    -0.0450 H     1 <1>   0.0800 
 33 H        3.4560     6.8270    -0.0140 H     1 <1>   0.4000 
 34 H        4.5020     8.9840     0.2230 H     1 <1>   0.1500 
 35 H        8.5110     6.9080    -1.2090 H     1 <1>   0.1500 
 36 H        8.2490    11.7790    -0.5400 H     1 <1>   0.0800 
 37 H        8.3950    10.6130     0.7490 H     1 <1>   0.0800 
 38 H        5.0040    10.7700    -1.6850 H     1 <1>   0.0800 
 39 H        6.2470    11.9920    -1.7980 H     1 <1>   0.0800 
 40 H        5.0280    12.0930    -0.5390 H     1 <1>   0.0800 
 41 H        6.7340    13.1420     0.8730 H     1 <1>   0.0800 
 42 H        8.2230    12.8300     1.7250 H     1 <1>   0.0800 
 43 H        6.7930    11.9100     2.1230 H     1 <1>   0.0800 
@<TRIPOS>BOND
  1   1   2  1   
  2   1   3  1   
  3   2   4  1   
  4   2  20  1   
  5   2  21  1   
  6   3   5  1   
  7   3  22  1   
  8   3  23  1   
  9   4   5  1   
 10   4   6  1   
 11   4  24  1   
 12   5  25  1   
 13   5  26  1   
 14   6   7  1   
 15   6  27  1   
 16   6  28  1   
 17   7   8  1   
 18   7  29  1   
 19   7  30  1   
 20   8   9  1   
 21   8  31  1   
 22   8  32  1   
 23   9  10  1   
 24   9  33  1   
 25  10  11  ar  
 26  10  12  ar  
 27  11  13  ar  
 28  12  14  ar  
 29  12  34  1   
 30  13  15  ar  
 31  13  35  1   
 32  14  15  ar  
 33  14  16  1   
 34  16  17  1   
 35  16  18  1   
 36  17  19  1   
 37  17  36  1   
 38  17  37  1   
 39  18  38  1   
 40  18  39  1   
 41  18  40  1   
 42  19  41  1   
 43  19  42  1   
 44  19  43  1   
@<TRIPOS>SUBSTRUCTURE
  1 ****   9 GROUP 4 **** **** 0

# MOE 2024.06 (io_trps.svl 2023.06)
