@<TRIPOS>MOLECULE
NONAME
61 65 1 0 0 
SMALL
USER_CHARGES


@<TRIPOS>ATOM
  1 N        0.8150     0.5200     0.3660 N.ar  1 <1>  -0.6200 
  2 C       -0.0960     1.4760     0.5720 C.ar  1 <1>   0.7200 
  3 C        1.5890     0.7140    -0.6700 C.ar  1 <1>   0.1660 
  4 N       -0.2630     2.5780    -0.1660 N.ar  1 <1>  -0.6200 
  5 N       -0.9340     1.3120     1.6550 N.pl3 1 <1>  -0.8380 
  6 C        1.5000     1.7970    -1.4860 C.ar  1 <1>  -0.1440 
  7 C        2.6970    -0.2200    -1.0870 C.3   1 <1>   0.1430 
  8 C        0.5370     2.7300    -1.1960 C.ar  1 <1>   0.1600 
  9 C       -1.7480     2.4400     2.1880 C.3   1 <1>   0.1290 
 10 C       -1.2630    -0.0270     2.2140 C.3   1 <1>   0.1290 
 11 C        2.5280     1.7530    -2.5890 C.3   1 <1>  -0.0160 
 12 C        3.5430    -0.5360     0.1560 C.3   1 <1>   0.3430 
 13 C        2.1120    -1.5170    -1.6840 C.3   1 <1>  -0.1600 
 14 C        3.4730     0.6200    -2.1400 C.3   1 <1>  -0.1600 
 15 N        4.5960    -1.5690    -0.1370 N.4   1 <1>  -0.9590 
 16 C        3.1840    -2.6080    -1.8680 C.3   1 <1>  -0.1600 
 17 C        3.9890    -2.8500    -0.5870 C.3   1 <1>   0.3430 
 18 C        5.4950    -1.7280     1.0220 C.3   1 <1>   0.5230 
 19 C        6.3700    -0.5010     1.0050 C.2   1 <1>  -0.3320 
 20 N        7.4710    -0.3510     0.1940 N.pl3 1 <1>   0.0480 
 21 C        6.2060     0.6180     1.7540 C.2   1 <1>  -0.1500 
 22 C        7.9850     0.9020     0.4220 C.ar  1 <1>  -0.1520 
 23 C        8.1210    -1.3440    -0.6870 C.3   1 <1>   0.0160 
 24 C        7.2170     1.5300     1.3950 C.ar  1 <1>   0.0000 
 25 C        9.0800     1.5620    -0.1440 C.ar  1 <1>  -0.1500 
 26 C        7.5350     2.8260     1.8120 C.ar  1 <1>  -0.1500 
 27 C        9.3820     2.8370     0.2740 C.ar  1 <1>  -0.1500 
 28 C        8.6110     3.4760     1.2530 C.ar  1 <1>  -0.1440 
 29 C        8.9860     4.8840     1.6820 C.3   1 <1>  -0.0970 
 30 H        0.4210     3.6080    -1.8080 H     1 <1>   0.1500 
 31 H       -1.2290     3.3740     2.0570 H     1 <1>   0.0800 
 32 H       -1.9330     2.3000     3.2390 H     1 <1>   0.0800 
 33 H       -2.6870     2.4870     1.6640 H     1 <1>   0.0800 
 34 H       -0.9820    -0.8080     1.5290 H     1 <1>   0.0800 
 35 H       -2.3220    -0.1010     2.3900 H     1 <1>   0.0800 
 36 H       -0.7390    -0.1690     3.1420 H     1 <1>   0.0800 
 37 H        3.0480     2.6910    -2.6860 H     1 <1>   0.0800 
 38 H        2.0470     1.5060    -3.5200 H     1 <1>   0.0800 
 39 H        2.8880    -0.8940     0.9330 H     1 <1>   0.0800 
 40 H        3.9990     0.3760     0.5040 H     1 <1>   0.0800 
 41 H        1.6280    -1.3070    -2.6240 H     1 <1>   0.0800 
 42 H        1.3520    -1.8920    -1.0170 H     1 <1>   0.0800 
 43 H        3.8010     0.0380    -2.9820 H     1 <1>   0.0800 
 44 H        4.3350     1.0730    -1.6810 H     1 <1>   0.0800 
 45 H        5.1820    -1.1820    -0.8840 H     1 <1>   0.4500 
 46 H        3.8540    -2.3420    -2.6670 H     1 <1>   0.0800 
 47 H        2.7020    -3.5270    -2.1540 H     1 <1>   0.0800 
 48 H        3.3340    -3.2330     0.1810 H     1 <1>   0.0800 
 49 H        4.7570    -3.5820    -0.7770 H     1 <1>   0.0800 
 50 H        6.0990    -2.6160     0.9300 H     1 <1>   0.0800 
 51 H        4.9270    -1.7790     1.9370 H     1 <1>   0.0800 
 52 H        5.4600     0.8410     2.4980 H     1 <1>   0.1500 
 53 H        7.5900    -2.2760    -0.6690 H     1 <1>   0.0800 
 54 H        9.1280    -1.5050    -0.3450 H     1 <1>   0.0800 
 55 H        8.1500    -0.9620    -1.6910 H     1 <1>   0.0800 
 56 H        9.6800     1.0790    -0.8940 H     1 <1>   0.1500 
 57 H        6.9280     3.2920     2.5660 H     1 <1>   0.1500 
 58 H       10.2230     3.3570    -0.1520 H     1 <1>   0.1500 
 59 H        8.3080     5.2500     2.4310 H     1 <1>   0.0800 
 60 H        8.9520     5.5450     0.8350 H     1 <1>   0.0800 
 61 H        9.9810     4.8880     2.0880 H     1 <1>   0.0800 
@<TRIPOS>BOND
  1   1   2  ar  
  2   1   3  ar  
  3   2   4  ar  
  4   2   5  1   
  5   3   6  ar  
  6   3   7  1   
  7   4   8  ar  
  8   5   9  1   
  9   5  10  1   
 10   6   8  ar  
 11   6  11  1   
 12   7  12  1   
 13   7  13  1   
 14   7  14  1   
 15   8  30  1   
 16   9  31  1   
 17   9  32  1   
 18   9  33  1   
 19  10  34  1   
 20  10  35  1   
 21  10  36  1   
 22  11  14  1   
 23  11  37  1   
 24  11  38  1   
 25  12  15  1   
 26  12  39  1   
 27  12  40  1   
 28  13  16  1   
 29  13  41  1   
 30  13  42  1   
 31  14  43  1   
 32  14  44  1   
 33  15  17  1   
 34  15  18  1   
 35  15  45  1   
 36  16  17  1   
 37  16  46  1   
 38  16  47  1   
 39  17  48  1   
 40  17  49  1   
 41  18  19  1   
 42  18  50  1   
 43  18  51  1   
 44  19  20  1   
 45  19  21  2   
 46  20  22  1   
 47  20  23  1   
 48  21  24  1   
 49  21  52  1   
 50  22  24  ar  
 51  22  25  ar  
 52  23  53  1   
 53  23  54  1   
 54  23  55  1   
 55  24  26  ar  
 56  25  27  ar  
 57  25  56  1   
 58  26  28  ar  
 59  26  57  1   
 60  27  28  ar  
 61  27  58  1   
 62  28  29  1   
 63  29  59  1   
 64  29  60  1   
 65  29  61  1   
@<TRIPOS>SUBSTRUCTURE
  1 ****  12 GROUP 4 **** **** 0

# MOE 2024.06 (io_trps.svl 2023.06)
