@<TRIPOS>MOLECULE
NONAME
48 50 1 0 0 
SMALL
USER_CHARGES


@<TRIPOS>ATOM
  1 CL       0.7110    -2.6270     2.0770 Cl    1 <1>  -0.1770 
  2 C       -0.5470    -1.8660     1.1330 C.ar  1 <1>   0.1770 
  3 C       -0.2890    -0.7040     0.4220 C.ar  1 <1>  -0.1440 
  4 C       -1.7950    -2.4610     1.1180 C.ar  1 <1>  -0.1500 
  5 C       -1.3190    -0.1380    -0.3120 C.ar  1 <1>  -0.1500 
  6 C        1.0880    -0.0560     0.4460 C.3   1 <1>  -0.0960 
  7 C       -2.8190    -1.8950     0.3730 C.ar  1 <1>  -0.1430 
  8 C       -2.5730    -0.7260    -0.3360 C.ar  1 <1>  -0.1500 
  9 C       -4.1890    -2.5430     0.3310 C.3   1 <1>   0.4870 
 10 N       -4.3340    -3.2460    -0.9800 N.4   1 <1>  -0.9590 
 11 C       -5.7250    -3.6110    -1.3700 C.3   1 <1>   0.4230 
 12 C       -3.4280    -4.4360    -1.0510 C.3   1 <1>   0.2630 
 13 C       -6.4870    -4.4290    -0.3280 C.3   1 <1>  -0.1600 
 14 C       -6.6120    -2.3960    -1.6190 C.3   1 <1>  -0.1600 
 15 C       -7.9590    -4.2730    -0.7350 C.3   1 <1>  -0.0800 
 16 C       -8.0430    -2.9440    -1.5230 C.3   1 <1>  -0.0800 
 17 C       -8.9370    -4.3960     0.4530 C.3   1 <1>   0.1400 
 18 C       -9.0440    -1.9360    -0.9300 C.3   1 <1>  -0.0990 
 19 N      -10.2550    -3.8260     0.0880 N.am  1 <1>  -0.6600 
 20 C      -10.3420    -2.6310    -0.5720 C.2   1 <1>   0.5690 
 21 C      -11.4590    -4.5820     0.5270 C.3   1 <1>   0.0600 
 22 O      -11.3860    -2.1100    -0.8780 O.2   1 <1>  -0.5700 
 23 H       -1.9410    -3.3580     1.6940 H     1 <1>   0.1500 
 24 H       -1.1470     0.7690    -0.8680 H     1 <1>   0.1500 
 25 H        1.1100     0.8330    -0.1580 H     1 <1>   0.0800 
 26 H        1.8260    -0.7420     0.0690 H     1 <1>   0.0800 
 27 H        1.3510     0.2120     1.4550 H     1 <1>   0.0800 
 28 H       -3.3510    -0.2520    -0.9120 H     1 <1>   0.1500 
 29 H       -4.9390    -1.7770     0.4370 H     1 <1>   0.0800 
 30 H       -4.2950    -3.2400     1.1450 H     1 <1>   0.0800 
 31 H       -3.9920    -2.5750    -1.6810 H     1 <1>   0.4500 
 32 H       -5.6990    -4.1830    -2.2840 H     1 <1>   0.0800 
 33 H       -3.7040    -5.1650    -0.3060 H     1 <1>   0.0800 
 34 H       -2.4050    -4.1410    -0.8810 H     1 <1>   0.0800 
 35 H       -3.4900    -4.8970    -2.0230 H     1 <1>   0.0800 
 36 H       -6.1940    -5.4640    -0.3380 H     1 <1>   0.0800 
 37 H       -6.3520    -4.0230     0.6580 H     1 <1>   0.0800 
 38 H       -6.4690    -1.6450    -0.8650 H     1 <1>   0.0800 
 39 H       -6.4320    -1.9680    -2.5890 H     1 <1>   0.0800 
 40 H       -8.2010    -5.0680    -1.4220 H     1 <1>   0.0800 
 41 H       -8.3860    -3.1860    -2.5170 H     1 <1>   0.0800 
 42 H       -8.5660    -3.8560     1.3080 H     1 <1>   0.0800 
 43 H       -9.0460    -5.4320     0.7300 H     1 <1>   0.0800 
 44 H       -9.2450    -1.1510    -1.6380 H     1 <1>   0.0800 
 45 H       -8.6590    -1.4900    -0.0320 H     1 <1>   0.0800 
 46 H      -11.4640    -5.5580     0.0730 H     1 <1>   0.0800 
 47 H      -12.3580    -4.0660     0.2360 H     1 <1>   0.0800 
 48 H      -11.4560    -4.6860     1.5980 H     1 <1>   0.0800 
@<TRIPOS>BOND
  1   1   2  1   
  2   2   3  ar  
  3   2   4  ar  
  4   3   5  ar  
  5   3   6  1   
  6   4   7  ar  
  7   4  23  1   
  8   5   8  ar  
  9   5  24  1   
 10   6  25  1   
 11   6  26  1   
 12   6  27  1   
 13   7   8  ar  
 14   7   9  1   
 15   8  28  1   
 16   9  10  1   
 17   9  29  1   
 18   9  30  1   
 19  10  11  1   
 20  10  12  1   
 21  10  31  1   
 22  11  13  1   
 23  11  14  1   
 24  11  32  1   
 25  12  33  1   
 26  12  34  1   
 27  12  35  1   
 28  13  15  1   
 29  13  36  1   
 30  13  37  1   
 31  14  16  1   
 32  14  38  1   
 33  14  39  1   
 34  15  16  1   
 35  15  17  1   
 36  15  40  1   
 37  16  18  1   
 38  16  41  1   
 39  17  19  1   
 40  17  42  1   
 41  17  43  1   
 42  18  20  1   
 43  18  44  1   
 44  18  45  1   
 45  19  20  am  
 46  19  21  1   
 47  20  22  2   
 48  21  46  1   
 49  21  47  1   
 50  21  48  1   
@<TRIPOS>SUBSTRUCTURE
  1 ****   9 GROUP 4 **** **** 0

# MOE 2024.06 (io_trps.svl 2023.06)
