@<TRIPOS>MOLECULE
NONAME
48 51 1 0 0 
SMALL
USER_CHARGES


@<TRIPOS>ATOM
  1 O       -1.3080     0.4960    -1.5080 O.2   1 <1>  -0.5700 
  2 C       -1.3540     0.5820    -0.2940 C.2   1 <1>   0.7150 
  3 N       -1.7330    -0.5250     0.4080 N.am  1 <1>  -0.7300 
  4 C       -1.0390     1.7980     0.4250 C.2   1 <1>   0.1020 
  5 C       -2.1360    -1.8330    -0.1540 C.3   1 <1>   0.2200 
  6 N       -1.1870     1.9270     1.7190 N.2   1 <1>  -0.3380 
  7 N       -0.5590     2.9520    -0.0940 N.pl3 1 <1>   0.0480 
  8 C       -3.6390    -1.9950    -0.0070 C.3   1 <1>  -0.0800 
  9 C       -1.5990    -2.9650     0.7210 C.3   1 <1>   0.1200 
 10 N       -0.8090     3.1490     2.0550 N.2   1 <1>  -0.3380 
 11 C       -0.4390     3.7410     0.9720 C.2   1 <1>   0.0070 
 12 C       -0.2190     3.3340    -1.4890 C.3   1 <1>   0.0960 
 13 C       -3.7510    -2.5220     1.4240 C.3   1 <1>   0.1200 
 14 C       -4.2030    -2.9890    -1.0400 C.3   1 <1>  -0.0160 
 15 O       -2.5890    -3.2580     1.6650 O.3   1 <1>  -0.5600 
 16 C        0.0780     5.1670     0.9370 C.3   1 <1>   0.0200 
 17 C        1.2690     3.6810    -1.6350 C.3   1 <1>  -0.1600 
 18 C       -5.7100    -3.1400    -0.9000 C.ar  1 <1>  -0.1440 
 19 C        1.5200     5.2440     0.4150 C.3   1 <1>  -0.1600 
 20 C        1.6440     5.0750    -1.1070 C.3   1 <1>  -0.1600 
 21 C       -6.5820    -2.1680    -1.3470 C.ar  1 <1>  -0.1500 
 22 C       -6.2840    -4.2540    -0.3200 C.ar  1 <1>  -0.1500 
 23 C       -7.9470    -2.3500    -1.1920 C.ar  1 <1>   0.1600 
 24 C       -7.6620    -4.3370    -0.2140 C.ar  1 <1>   0.1600 
 25 N       -8.5080    -3.4100    -0.6350 N.ar  1 <1>  -0.6200 
 26 H       -1.7870    -0.4290     1.4260 H     1 <1>   0.3700 
 27 H       -1.7990    -1.9200    -1.1740 H     1 <1>   0.0800 
 28 H       -4.1480    -1.0530    -0.1140 H     1 <1>   0.0800 
 29 H       -0.6880    -2.6980     1.2270 H     1 <1>   0.0800 
 30 H       -1.4420    -3.8530     0.1350 H     1 <1>   0.0800 
 31 H       -0.4500     2.5310    -2.1590 H     1 <1>   0.0800 
 32 H       -0.8250     4.1750    -1.7740 H     1 <1>   0.0800 
 33 H       -4.6090    -3.1500     1.5840 H     1 <1>   0.0800 
 34 H       -3.7700    -1.7060     2.1260 H     1 <1>   0.0800 
 35 H       -3.7330    -3.9500    -0.9280 H     1 <1>   0.0800 
 36 H       -3.9850    -2.6340    -2.0330 H     1 <1>   0.0800 
 37 H       -0.5740     5.7790     0.3400 H     1 <1>   0.0800 
 38 H        0.0540     5.5560     1.9410 H     1 <1>   0.0800 
 39 H        1.8700     2.9240    -1.1590 H     1 <1>   0.0800 
 40 H        1.5070     3.6570    -2.6850 H     1 <1>   0.0800 
 41 H        1.9170     6.2090     0.6770 H     1 <1>   0.0800 
 42 H        2.1200     4.5050     0.9180 H     1 <1>   0.0800 
 43 H        2.6690     5.2670    -1.3770 H     1 <1>   0.0800 
 44 H        1.0450     5.8220    -1.6020 H     1 <1>   0.0800 
 45 H       -6.2150    -1.2730    -1.8130 H     1 <1>   0.1500 
 46 H       -5.6730    -5.0560     0.0520 H     1 <1>   0.1500 
 47 H       -8.6120    -1.5810    -1.5470 H     1 <1>   0.1500 
 48 H       -8.0920    -5.2120     0.2420 H     1 <1>   0.1500 
@<TRIPOS>BOND
  1   1   2  2   
  2   2   3  am  
  3   2   4  1   
  4   3   5  1   
  5   3  26  1   
  6   4   6  2   
  7   4   7  1   
  8   5   8  1   
  9   5   9  1   
 10   5  27  1   
 11   6  10  1   
 12   7  11  1   
 13   7  12  1   
 14   8  13  1   
 15   8  14  1   
 16   8  28  1   
 17   9  15  1   
 18   9  29  1   
 19   9  30  1   
 20  10  11  2   
 21  11  16  1   
 22  12  17  1   
 23  12  31  1   
 24  12  32  1   
 25  13  15  1   
 26  13  33  1   
 27  13  34  1   
 28  14  18  1   
 29  14  35  1   
 30  14  36  1   
 31  16  19  1   
 32  16  37  1   
 33  16  38  1   
 34  17  20  1   
 35  17  39  1   
 36  17  40  1   
 37  18  21  ar  
 38  18  22  ar  
 39  19  20  1   
 40  19  41  1   
 41  19  42  1   
 42  20  43  1   
 43  20  44  1   
 44  21  23  ar  
 45  21  45  1   
 46  22  24  ar  
 47  22  46  1   
 48  23  25  ar  
 49  23  47  1   
 50  24  25  ar  
 51  24  48  1   
@<TRIPOS>SUBSTRUCTURE
  1 ****   3 GROUP 4 **** **** 0

# MOE 2024.06 (io_trps.svl 2023.06)
