@<TRIPOS>MOLECULE
NONAME
38 38 1 0 0 
SMALL
USER_CHARGES


@<TRIPOS>ATOM
  1 O        0.1760     0.3880     0.0450 O.3   1 <1>  -0.5600 
  2 C        1.5190     0.7340    -0.1400 C.3   1 <1>   0.1200 
  3 C       -0.1200    -0.9290    -0.2770 C.3   1 <1>   0.1200 
  4 C        1.7110     2.2150     0.2200 C.3   1 <1>   0.2000 
  5 C       -1.6080    -1.1370    -0.0270 C.3   1 <1>  -0.2400 
  6 O        0.6840     2.9420    -0.3790 O.3   1 <1>  -0.6800 
  7 C        3.0830     2.7650    -0.2170 C.3   1 <1>   0.2090 
  8 N        3.0650     4.2490    -0.1880 N.pl3 1 <1>  -0.8690 
  9 C        4.0820     5.1060     0.0250 C.ar  1 <1>   0.4100 
 10 N        5.2780     4.5850     0.2150 N.ar  1 <1>  -0.6200 
 11 C        3.8460     6.5030     0.0340 C.ar  1 <1>  -0.1430 
 12 C        6.2750     5.4170     0.4100 C.ar  1 <1>   0.7710 
 13 C        4.9130     7.3180     0.2430 C.ar  1 <1>   0.2110 
 14 C        2.4190     7.0220    -0.1900 C.3   1 <1>  -0.0170 
 15 N        6.1300     6.7520     0.4300 N.ar  1 <1>  -0.1790 
 16 N        7.4750     4.8720     0.5950 N.pl3 1 <1>  -0.9000 
 17 C        2.2660     8.5480    -0.1490 C.3   1 <1>  -0.2400 
 18 H        1.7780     0.5670    -1.1720 H     1 <1>   0.0800 
 19 H        2.1320     0.1130     0.4900 H     1 <1>   0.0800 
 20 H        0.4650    -1.5820     0.3500 H     1 <1>   0.0800 
 21 H        0.1180    -1.0980    -1.3140 H     1 <1>   0.0800 
 22 H        1.6080     2.3300     1.2850 H     1 <1>   0.0800 
 23 H       -1.8380    -0.9520     1.0070 H     1 <1>   0.0800 
 24 H       -1.8790    -2.1500    -0.2630 H     1 <1>   0.0800 
 25 H       -2.1830    -0.4740    -0.6480 H     1 <1>   0.0800 
 26 H       -0.1170     2.3710    -0.3330 H     1 <1>   0.4000 
 27 H        3.2970     2.4420    -1.2210 H     1 <1>   0.0800 
 28 H        3.8530     2.3860     0.4320 H     1 <1>   0.0800 
 29 H        2.1050     4.5790    -0.3630 H     1 <1>   0.4000 
 30 H        4.8440     8.3930     0.2680 H     1 <1>   0.1500 
 31 H        1.7730     6.5980     0.5620 H     1 <1>   0.0800 
 32 H        2.0690     6.6730    -1.1470 H     1 <1>   0.0800 
 33 H        6.9650     7.3060     0.5890 H     1 <1>   0.4570 
 34 H        8.3730     5.3280     0.7600 H     1 <1>   0.4000 
 35 H        7.5300     3.8490     0.5680 H     1 <1>   0.4000 
 36 H        2.5550     8.9380     0.8110 H     1 <1>   0.0800 
 37 H        1.2340     8.8070    -0.3130 H     1 <1>   0.0800 
 38 H        2.8500     9.0150    -0.9230 H     1 <1>   0.0800 
@<TRIPOS>BOND
  1   1   2  1   
  2   1   3  1   
  3   2   4  1   
  4   2  18  1   
  5   2  19  1   
  6   3   5  1   
  7   3  20  1   
  8   3  21  1   
  9   4   6  1   
 10   4   7  1   
 11   4  22  1   
 12   5  23  1   
 13   5  24  1   
 14   5  25  1   
 15   6  26  1   
 16   7   8  1   
 17   7  27  1   
 18   7  28  1   
 19   8   9  1   
 20   8  29  1   
 21   9  10  ar  
 22   9  11  ar  
 23  10  12  ar  
 24  11  13  ar  
 25  11  14  1   
 26  12  15  ar  
 27  12  16  1   
 28  13  15  ar  
 29  13  30  1   
 30  14  17  1   
 31  14  31  1   
 32  14  32  1   
 33  15  33  1   
 34  16  34  1   
 35  16  35  1   
 36  17  36  1   
 37  17  37  1   
 38  17  38  1   
@<TRIPOS>SUBSTRUCTURE
  1 ****   8 GROUP 4 **** **** 0

# MOE 2024.06 (io_trps.svl 2023.06)
