@<TRIPOS>MOLECULE
NONAME
58 61 1 0 0 
SMALL
USER_CHARGES


@<TRIPOS>ATOM
  1 O       -0.9060    -0.4060    -1.3160 O.2   1 <1>  -0.5700 
  2 C       -1.2440     0.3880    -0.4650 C.2   1 <1>   0.5690 
  3 N       -2.2140    -0.0080     0.4420 N.am  1 <1>  -0.6600 
  4 C       -0.5890     1.8080    -0.4980 C.3   1 <1>   0.3410 
  5 C       -3.1050     0.8990     1.2310 C.3   1 <1>   0.1400 
  6 C       -2.5640    -1.4520     0.6010 C.3   1 <1>   0.1400 
  7 O       -0.6570     2.3900     0.8100 O.3   1 <1>  -0.3630 
  8 C       -1.3280     2.6860    -1.5250 C.3   1 <1>  -0.2400 
  9 C        0.9000     1.7190    -0.8890 C.3   1 <1>  -0.2400 
 10 C       -4.5940     0.6590     0.9030 C.3   1 <1>   0.4230 
 11 C       -4.0340    -1.6910     0.2210 C.3   1 <1>   0.3430 
 12 C       -0.3560     3.6950     1.0500 C.ar  1 <1>   0.0820 
 13 N       -4.9810    -0.8080     1.0030 N.4   1 <1>  -0.9590 
 14 C       -4.9280     1.2270    -0.4950 C.3   1 <1>   0.1200 
 15 C       -1.3460     4.6850     1.0470 C.ar  1 <1>   0.0830 
 16 C        0.9550     4.0230     1.3580 C.ar  1 <1>  -0.1500 
 17 C       -6.4150    -0.9770     0.5850 C.3   1 <1>   0.5180 
 18 O       -6.2780     1.0140    -0.7980 O.3   1 <1>  -0.5600 
 19 O       -2.6400     4.3220     0.7920 O.3   1 <1>  -0.3620 
 20 C       -0.9800     6.0030     1.3120 C.ar  1 <1>  -0.1500 
 21 C        1.3050     5.3350     1.6210 C.ar  1 <1>  -0.1500 
 22 C       -6.8030    -2.4660     0.6810 C.3   1 <1>  -0.1950 
 23 C       -6.6770    -0.3290    -0.7980 C.3   1 <1>   0.1200 
 24 C       -3.6450     5.2990     0.6130 C.3   1 <1>   0.0400 
 25 C        0.3380     6.3240     1.5920 C.ar  1 <1>  -0.1500 
 26 C       -6.6270    -3.4720    -0.4210 C.3   1 <1>  -0.2000 
 27 C       -8.0050    -3.0380    -0.0090 C.3   1 <1>  -0.2000 
 28 H       -2.9290     0.7440     2.2810 H     1 <1>   0.0800 
 29 H       -2.8960     1.9270     1.0220 H     1 <1>   0.0800 
 30 H       -1.9360    -2.0720    -0.0160 H     1 <1>   0.0800 
 31 H       -2.3960    -1.7480     1.6220 H     1 <1>   0.0800 
 32 H       -1.2680     2.2270    -2.4960 H     1 <1>   0.0800 
 33 H       -0.8820     3.6620    -1.5960 H     1 <1>   0.0800 
 34 H       -2.3640     2.7820    -1.2680 H     1 <1>   0.0800 
 35 H        1.0040     1.2270    -1.8390 H     1 <1>   0.0800 
 36 H        1.4400     1.1460    -0.1560 H     1 <1>   0.0800 
 37 H        1.3370     2.6950    -0.9820 H     1 <1>   0.0800 
 38 H       -5.1750     1.2240     1.6130 H     1 <1>   0.0800 
 39 H       -4.2700    -2.7280     0.3950 H     1 <1>   0.0800 
 40 H       -4.1420    -1.5020    -0.8340 H     1 <1>   0.0800 
 41 H       -4.9160    -1.0820     1.9880 H     1 <1>   0.4500 
 42 H       -4.3230     0.7730    -1.2610 H     1 <1>   0.0800 
 43 H       -4.7560     2.2890    -0.5140 H     1 <1>   0.0800 
 44 H        1.7020     3.2520     1.3970 H     1 <1>   0.1500 
 45 H       -7.0360    -0.4460     1.2880 H     1 <1>   0.0800 
 46 H       -1.7000     6.7980     1.3120 H     1 <1>   0.1500 
 47 H        2.3270     5.5860     1.8510 H     1 <1>   0.1500 
 48 H       -6.6710    -2.8210     1.6890 H     1 <1>   0.1000 
 49 H       -7.7290    -0.3470    -1.0210 H     1 <1>   0.0800 
 50 H       -6.1540    -0.8440    -1.5840 H     1 <1>   0.0800 
 51 H       -4.5600     4.8000     0.3520 H     1 <1>   0.0800 
 52 H       -3.3520     5.9610    -0.1830 H     1 <1>   0.0800 
 53 H       -3.7760     5.8400     1.5340 H     1 <1>   0.0800 
 54 H        0.6120     7.3450     1.7950 H     1 <1>   0.1500 
 55 H       -6.2980    -3.1850    -1.4050 H     1 <1>   0.1000 
 56 H       -6.3270    -4.4780    -0.1760 H     1 <1>   0.1000 
 57 H       -8.6220    -3.7460     0.5210 H     1 <1>   0.1000 
 58 H       -8.5800    -2.4650    -0.7170 H     1 <1>   0.1000 
@<TRIPOS>BOND
  1   1   2  2   
  2   2   3  am  
  3   2   4  1   
  4   3   5  1   
  5   3   6  1   
  6   4   7  1   
  7   4   8  1   
  8   4   9  1   
  9   5  10  1   
 10   5  28  1   
 11   5  29  1   
 12   6  11  1   
 13   6  30  1   
 14   6  31  1   
 15   7  12  1   
 16   8  32  1   
 17   8  33  1   
 18   8  34  1   
 19   9  35  1   
 20   9  36  1   
 21   9  37  1   
 22  10  13  1   
 23  10  14  1   
 24  10  38  1   
 25  11  13  1   
 26  11  39  1   
 27  11  40  1   
 28  12  15  ar  
 29  12  16  ar  
 30  13  17  1   
 31  13  41  1   
 32  14  18  1   
 33  14  42  1   
 34  14  43  1   
 35  15  19  1   
 36  15  20  ar  
 37  16  21  ar  
 38  16  44  1   
 39  17  22  1   
 40  17  23  1   
 41  17  45  1   
 42  18  23  1   
 43  19  24  1   
 44  20  25  ar  
 45  20  46  1   
 46  21  25  ar  
 47  21  47  1   
 48  22  26  1   
 49  22  27  1   
 50  22  48  1   
 51  23  49  1   
 52  23  50  1   
 53  24  51  1   
 54  24  52  1   
 55  24  53  1   
 56  25  54  1   
 57  26  27  1   
 58  26  55  1   
 59  26  56  1   
 60  27  57  1   
 61  27  58  1   
@<TRIPOS>SUBSTRUCTURE
  1 ****   5 GROUP 4 **** **** 0

# MOE 2024.06 (io_trps.svl 2023.06)
