@<TRIPOS>MOLECULE
NONAME
38 40 1 0 0 
SMALL
USER_CHARGES


@<TRIPOS>ATOM
  1 O        1.5750    -0.0790     1.7800 O.3   1 <1>  -0.6800 
  2 C        1.6700    -0.0900     0.3920 C.3   1 <1>   0.2000 
  3 C        2.3780    -1.3670    -0.0670 C.3   1 <1>  -0.0800 
  4 C        2.6300     1.0230    -0.0460 C.3   1 <1>   0.2090 
  5 C        3.8620    -1.0590     0.1500 C.3   1 <1>   0.2090 
  6 C        1.9250    -2.6850     0.5920 C.3   1 <1>  -0.0170 
  7 N        3.9950     0.4060    -0.0810 N.pl3 1 <1>  -0.8380 
  8 C        2.8300    -3.8320     0.1680 C.ar  1 <1>  -0.1440 
  9 C        5.1140     1.1490    -0.2390 C.ar  1 <1>   0.7710 
 10 C        2.8380    -4.3190    -1.1240 C.ar  1 <1>  -0.1500 
 11 C        3.7000    -4.4380     1.0530 C.ar  1 <1>  -0.1500 
 12 N        4.9990     2.4460    -0.4900 N.ar  1 <1>  -0.6200 
 13 N        6.3120     0.5430    -0.1380 N.ar  1 <1>  -0.1790 
 14 C        3.7060    -5.3430    -1.4640 C.ar  1 <1>   0.1600 
 15 C        4.5260    -5.4580     0.6120 C.ar  1 <1>   0.1600 
 16 C        6.1030     3.1370    -0.6390 C.ar  1 <1>   0.4100 
 17 C        7.4700     1.2330    -0.2880 C.ar  1 <1>   0.2110 
 18 N        4.5580    -5.9140    -0.6290 N.ar  1 <1>  -0.6200 
 19 N        5.9520     4.4380    -0.8900 N.pl3 1 <1>  -0.9000 
 20 C        7.3790     2.5590    -0.5450 C.ar  1 <1>  -0.1500 
 21 H        0.8000    -0.5920     2.0830 H     1 <1>   0.4000 
 22 H        0.6840     0.0360    -0.0240 H     1 <1>   0.0800 
 23 H        2.2280    -1.4570    -1.1290 H     1 <1>   0.0800 
 24 H        2.5890     1.8600     0.6330 H     1 <1>   0.0800 
 25 H        2.3730     1.3580    -1.0360 H     1 <1>   0.0800 
 26 H        4.4700    -1.6310    -0.5310 H     1 <1>   0.0800 
 27 H        4.1310    -1.2850     1.1690 H     1 <1>   0.0800 
 28 H        0.9110    -2.9050     0.3080 H     1 <1>   0.0800 
 29 H        1.9520    -2.5990     1.6650 H     1 <1>   0.0800 
 30 H        2.1790    -3.9160    -1.8710 H     1 <1>   0.1500 
 31 H        3.7440    -4.1330     2.0830 H     1 <1>   0.1500 
 32 H        6.2810    -0.4490     0.0670 H     1 <1>   0.4570 
 33 H        3.7000    -5.7120    -2.4760 H     1 <1>   0.1500 
 34 H        5.1950    -5.9240     1.3150 H     1 <1>   0.1500 
 35 H        8.4120     0.7140    -0.1990 H     1 <1>   0.1500 
 36 H        5.0110     4.8380    -0.9470 H     1 <1>   0.4000 
 37 H        6.7080     5.1110    -1.0270 H     1 <1>   0.4000 
 38 H        8.2440     3.1830    -0.6780 H     1 <1>   0.1500 
@<TRIPOS>BOND
  1   1   2  1   
  2   1  21  1   
  3   2   3  1   
  4   2   4  1   
  5   2  22  1   
  6   3   5  1   
  7   3   6  1   
  8   3  23  1   
  9   4   7  1   
 10   4  24  1   
 11   4  25  1   
 12   5   7  1   
 13   5  26  1   
 14   5  27  1   
 15   6   8  1   
 16   6  28  1   
 17   6  29  1   
 18   7   9  1   
 19   8  10  ar  
 20   8  11  ar  
 21   9  12  ar  
 22   9  13  ar  
 23  10  14  ar  
 24  10  30  1   
 25  11  15  ar  
 26  11  31  1   
 27  12  16  ar  
 28  13  17  ar  
 29  13  32  1   
 30  14  18  ar  
 31  14  33  1   
 32  15  18  ar  
 33  15  34  1   
 34  16  19  1   
 35  16  20  ar  
 36  17  20  ar  
 37  17  35  1   
 38  19  36  1   
 39  19  37  1   
 40  20  38  1   
@<TRIPOS>SUBSTRUCTURE
  1 ****   5 GROUP 4 **** **** 0

# MOE 2024.06 (io_trps.svl 2023.06)
