@<TRIPOS>MOLECULE
NONAME
45 47 1 0 0 
SMALL
USER_CHARGES


@<TRIPOS>ATOM
  1 F       -0.3850    -2.4650     0.3310 F     1 <1>  -0.3400 
  2 C       -0.7970    -2.2870    -0.9240 C.3   1 <1>   0.9600 
  3 F       -0.8210    -3.5090    -1.4520 F     1 <1>  -0.3400 
  4 O       -2.1530    -1.8390    -0.9200 O.3   1 <1>  -0.3630 
  5 C        0.1620    -1.3720    -1.7400 C.3   1 <1>   0.6000 
  6 C       -2.6560    -1.1720     0.1440 C.ar  1 <1>   0.0830 
  7 F        1.4270    -1.8000    -1.7230 F     1 <1>  -0.3400 
  8 F        0.2260    -0.1310    -1.2500 F     1 <1>  -0.3400 
  9 C       -3.2220    -1.8630     1.2240 C.ar  1 <1>   0.0860 
 10 C       -2.6220     0.2150     0.1230 C.ar  1 <1>  -0.1500 
 11 C       -3.3210    -3.3070     1.2690 C.2   1 <1>   0.5440 
 12 C       -3.7010    -1.1050     2.2920 C.ar  1 <1>  -0.1500 
 13 C       -3.1180     0.9400     1.1890 C.ar  1 <1>  -0.1500 
 14 O       -2.8480    -3.9110     2.2120 O.2   1 <1>  -0.5700 
 15 N       -3.9730    -4.0210     0.2890 N.am  1 <1>  -0.6600 
 16 C       -3.6540     0.2760     2.2800 C.ar  1 <1>  -0.1500 
 17 C       -4.9550    -3.4460    -0.6630 C.3   1 <1>   0.1400 
 18 C       -4.0210    -5.5010     0.2540 C.3   1 <1>   0.1400 
 19 C       -5.7080    -4.6470    -1.2420 C.3   1 <1>   0.2000 
 20 C       -5.3970    -5.8300    -0.3260 C.3   1 <1>  -0.0800 
 21 O       -7.0760    -4.4250    -1.2680 O.3   1 <1>  -0.6800 
 22 C       -5.4650    -7.1790    -1.0620 C.3   1 <1>  -0.0170 
 23 C       -5.1450    -8.3430    -0.1380 C.ar  1 <1>   0.1670 
 24 N       -3.8650    -8.6400     0.0150 N.ar  1 <1>  -0.6200 
 25 C       -6.1760    -9.0310     0.4990 C.ar  1 <1>   0.1600 
 26 C       -3.6860    -9.6550     0.8440 C.ar  1 <1>   0.1600 
 27 N       -6.0000   -10.0490     1.3260 N.ar  1 <1>  -0.6200 
 28 C       -4.7180   -10.3350     1.4780 C.ar  1 <1>   0.1600 
 29 H       -0.1430    -1.2980    -2.7660 H     1 <1>   0.0800 
 30 H       -2.2080     0.7350    -0.7230 H     1 <1>   0.1500 
 31 H       -4.1140    -1.6190     3.1440 H     1 <1>   0.1500 
 32 H       -3.0860     2.0160     1.1770 H     1 <1>   0.1500 
 33 H       -4.0320     0.8370     3.1180 H     1 <1>   0.1500 
 34 H       -5.6210    -2.7810    -0.1400 H     1 <1>   0.0800 
 35 H       -4.4450    -2.9170    -1.4470 H     1 <1>   0.0800 
 36 H       -3.2350    -5.8610    -0.3870 H     1 <1>   0.0800 
 37 H       -3.8970    -5.9270     1.2370 H     1 <1>   0.0800 
 38 H       -5.3750    -4.8300    -2.2490 H     1 <1>   0.0800 
 39 H       -6.0880    -5.8380     0.4990 H     1 <1>   0.0800 
 40 H       -7.4080    -4.2530    -0.3650 H     1 <1>   0.4000 
 41 H       -4.7700    -7.1850    -1.8830 H     1 <1>   0.0800 
 42 H       -6.4510    -7.3070    -1.4730 H     1 <1>   0.0800 
 43 H       -7.1910    -8.7250     0.3190 H     1 <1>   0.1500 
 44 H       -2.6730    -9.9630     1.0310 H     1 <1>   0.1500 
 45 H       -4.4720   -11.1490     2.1360 H     1 <1>   0.1500 
@<TRIPOS>BOND
  1   1   2  1   
  2   2   3  1   
  3   2   4  1   
  4   2   5  1   
  5   4   6  1   
  6   5   7  1   
  7   5   8  1   
  8   5  29  1   
  9   6   9  ar  
 10   6  10  ar  
 11   9  11  1   
 12   9  12  ar  
 13  10  13  ar  
 14  10  30  1   
 15  11  14  2   
 16  11  15  am  
 17  12  16  ar  
 18  12  31  1   
 19  13  16  ar  
 20  13  32  1   
 21  15  17  1   
 22  15  18  1   
 23  16  33  1   
 24  17  19  1   
 25  17  34  1   
 26  17  35  1   
 27  18  20  1   
 28  18  36  1   
 29  18  37  1   
 30  19  20  1   
 31  19  21  1   
 32  19  38  1   
 33  20  22  1   
 34  20  39  1   
 35  21  40  1   
 36  22  23  1   
 37  22  41  1   
 38  22  42  1   
 39  23  24  ar  
 40  23  25  ar  
 41  24  26  ar  
 42  25  27  ar  
 43  25  43  1   
 44  26  28  ar  
 45  26  44  1   
 46  27  28  ar  
 47  28  45  1   
@<TRIPOS>SUBSTRUCTURE
  1 ****  15 GROUP 4 **** **** 0

# MOE 2024.06 (io_trps.svl 2023.06)
