@<TRIPOS>MOLECULE
NONAME
44 46 1 0 0 
SMALL
USER_CHARGES


@<TRIPOS>ATOM
  1 O       -1.0100    -0.2380     1.1810 O.2   1 <1>  -0.5700 
  2 C       -1.8770     0.3230     0.5640 C.2   1 <1>   0.4230 
  3 C       -3.0750    -0.3450     0.1380 C.ar  1 <1>   0.0860 
  4 C       -1.6140     1.7670     0.1870 C.3   1 <1>  -0.1790 
  5 C       -4.3710     0.1680     0.1900 C.ar  1 <1>   0.1660 
  6 C       -2.9790    -1.6250    -0.3840 C.ar  1 <1>   0.1600 
  7 N       -5.4030    -0.4840    -0.2820 N.ar  1 <1>  -0.6200 
  8 C       -4.7010     1.5120     0.8200 C.3   1 <1>  -0.0960 
  9 N       -3.9970    -2.3020    -0.8510 N.ar  1 <1>  -0.6200 
 10 C       -5.1700    -1.6850    -0.7880 C.ar  1 <1>   0.7200 
 11 N       -6.2470    -2.3170    -1.2720 N.pl3 1 <1>  -0.8690 
 12 C       -6.3800    -3.7930    -1.4500 C.3   1 <1>   0.3530 
 13 C       -7.7360    -4.3460    -0.9840 C.ar  1 <1>   0.4770 
 14 N       -7.7570    -5.6340    -0.6780 N.ar  1 <1>  -0.6200 
 15 N       -8.7580    -3.5000    -0.9340 N.ar  1 <1>  -0.6200 
 16 C       -8.9120    -6.1160    -0.2780 C.ar  1 <1>   0.1670 
 17 C       -9.9040    -3.9940    -0.5300 C.ar  1 <1>   0.1670 
 18 C      -10.0440    -5.3270    -0.1890 C.ar  1 <1>  -0.1430 
 19 C       -8.9250    -7.5990     0.0640 C.3   1 <1>  -0.0170 
 20 C      -11.0540    -3.0050    -0.4670 C.3   1 <1>  -0.0970 
 21 C      -11.3830    -5.9030     0.2750 C.3   1 <1>  -0.0170 
 22 C      -10.1690    -8.0290     0.8510 C.3   1 <1>  -0.1600 
 23 C      -11.4290    -7.4340     0.2190 C.3   1 <1>  -0.1600 
 24 H       -2.2260     2.0660    -0.6440 H     1 <1>   0.0800 
 25 H       -0.5820     1.8770    -0.0960 H     1 <1>   0.0800 
 26 H       -1.8040     2.4060     1.0290 H     1 <1>   0.0800 
 27 H       -2.0100    -2.0950    -0.4160 H     1 <1>   0.1500 
 28 H       -4.0670     1.7080     1.6640 H     1 <1>   0.0800 
 29 H       -5.7190     1.5120     1.1680 H     1 <1>   0.0800 
 30 H       -4.5950     2.2950     0.0930 H     1 <1>   0.0800 
 31 H       -7.1450    -1.8710    -1.0750 H     1 <1>   0.4000 
 32 H       -5.6040    -4.2980    -0.9030 H     1 <1>   0.0800 
 33 H       -6.2600    -4.0270    -2.4910 H     1 <1>   0.0800 
 34 H       -8.0450    -7.8380     0.6350 H     1 <1>   0.0800 
 35 H       -8.8770    -8.1500    -0.8580 H     1 <1>   0.0800 
 36 H      -10.6750    -2.0000    -0.4180 H     1 <1>   0.0800 
 37 H      -11.6590    -3.1750     0.4040 H     1 <1>   0.0800 
 38 H      -11.6600    -3.1000    -1.3490 H     1 <1>   0.0800 
 39 H      -12.1830    -5.5160    -0.3320 H     1 <1>   0.0800 
 40 H      -11.5530    -5.5850     1.2900 H     1 <1>   0.0800 
 41 H      -10.0820    -7.6870     1.8690 H     1 <1>   0.0800 
 42 H      -10.2330    -9.1030     0.8650 H     1 <1>   0.0800 
 43 H      -11.4990    -7.7530    -0.8080 H     1 <1>   0.0800 
 44 H      -12.3030    -7.7880     0.7380 H     1 <1>   0.0800 
@<TRIPOS>BOND
  1   1   2  2   
  2   2   3  1   
  3   2   4  1   
  4   3   5  ar  
  5   3   6  ar  
  6   4  24  1   
  7   4  25  1   
  8   4  26  1   
  9   5   7  ar  
 10   5   8  1   
 11   6   9  ar  
 12   6  27  1   
 13   7  10  ar  
 14   8  28  1   
 15   8  29  1   
 16   8  30  1   
 17   9  10  ar  
 18  10  11  1   
 19  11  12  1   
 20  11  31  1   
 21  12  13  1   
 22  12  32  1   
 23  12  33  1   
 24  13  14  ar  
 25  13  15  ar  
 26  14  16  ar  
 27  15  17  ar  
 28  16  18  ar  
 29  16  19  1   
 30  17  18  ar  
 31  17  20  1   
 32  18  21  1   
 33  19  22  1   
 34  19  34  1   
 35  19  35  1   
 36  20  36  1   
 37  20  37  1   
 38  20  38  1   
 39  21  23  1   
 40  21  39  1   
 41  21  40  1   
 42  22  23  1   
 43  22  41  1   
 44  22  42  1   
 45  23  43  1   
 46  23  44  1   
@<TRIPOS>SUBSTRUCTURE
  1 ****  11 GROUP 4 **** **** 0

# MOE 2024.06 (io_trps.svl 2023.06)
