@<TRIPOS>MOLECULE
NONAME
46 48 1 0 0 
SMALL
USER_CHARGES


@<TRIPOS>ATOM
  1 F       -1.7580    -1.6300     2.0460 F     1 <1>  -0.1900 
  2 C       -2.6900    -1.8060     1.1490 C.ar  1 <1>   0.1900 
  3 C       -3.6600    -0.8330     0.9960 C.ar  1 <1>  -0.1500 
  4 C       -2.6690    -2.9580     0.3860 C.ar  1 <1>  -0.1500 
  5 C       -4.6490    -1.0160     0.0400 C.ar  1 <1>  -0.1440 
  6 C       -3.6620    -3.1380    -0.5630 C.ar  1 <1>  -0.1500 
  7 C       -4.6430    -2.1720    -0.7310 C.ar  1 <1>  -0.1500 
  8 C       -5.7310     0.0420    -0.1690 C.3   1 <1>   0.0450 
  9 C       -7.0900    -0.2780     0.4510 C.2   1 <1>   0.5690 
 10 O       -7.2220    -1.3130     1.0630 O.2   1 <1>  -0.5700 
 11 N       -8.1390     0.6000     0.2980 N.am  1 <1>  -0.6600 
 12 C       -9.4920     0.2950     0.8630 C.3   1 <1>   0.1400 
 13 C       -8.1130     1.8700    -0.4770 C.3   1 <1>   0.1400 
 14 C      -10.5410     0.1590    -0.2690 C.3   1 <1>   0.0000 
 15 C       -9.1110     1.7780    -1.6370 C.3   1 <1>  -0.1600 
 16 C      -11.9430    -0.1200     0.2990 C.3   1 <1>   0.2000 
 17 C      -10.5270     1.4340    -1.1420 C.3   1 <1>  -0.1600 
 18 C      -10.2810    -1.1170    -1.0900 C.3   1 <1>  -0.1600 
 19 O      -12.1940     0.6460     1.4400 O.3   1 <1>  -0.5600 
 20 C      -11.9730    -1.6200     0.6120 C.3   1 <1>  -0.1600 
 21 C      -10.8970    -2.2600    -0.2760 C.3   1 <1>  -0.1600 
 22 C      -13.5270     0.6810     1.8430 C.3   1 <1>   0.0400 
 23 H       -3.6340     0.0410     1.6190 H     1 <1>   0.1500 
 24 H       -1.8990    -3.6920     0.5360 H     1 <1>   0.1500 
 25 H       -3.6750    -4.0290    -1.1670 H     1 <1>   0.1500 
 26 H       -5.4150    -2.3290    -1.4640 H     1 <1>   0.1500 
 27 H       -5.8700     0.1750    -1.2250 H     1 <1>   0.0800 
 28 H       -5.3920     0.9750     0.2390 H     1 <1>   0.0800 
 29 H       -9.4650    -0.6040     1.4540 H     1 <1>   0.0800 
 30 H       -9.7710     1.0980     1.5220 H     1 <1>   0.0800 
 31 H       -8.3930     2.6790     0.1760 H     1 <1>   0.0800 
 32 H       -7.1320     2.0810    -0.8610 H     1 <1>   0.0800 
 33 H       -9.1350     2.7190    -2.1580 H     1 <1>   0.0800 
 34 H       -8.7740     1.0290    -2.3320 H     1 <1>   0.0800 
 35 H      -12.6800     0.1130    -0.4510 H     1 <1>   0.0800 
 36 H      -11.1870     1.3170    -1.9830 H     1 <1>   0.0800 
 37 H      -10.8960     2.2550    -0.5510 H     1 <1>   0.0800 
 38 H      -10.7930    -1.0510    -2.0350 H     1 <1>   0.0800 
 39 H       -9.2360    -1.2890    -1.2800 H     1 <1>   0.0800 
 40 H      -11.7310    -1.7900     1.6470 H     1 <1>   0.0800 
 41 H      -12.9430    -2.0310     0.3940 H     1 <1>   0.0800 
 42 H      -10.1380    -2.7080     0.3450 H     1 <1>   0.0800 
 43 H      -11.3080    -3.0170    -0.9210 H     1 <1>   0.0800 
 44 H      -13.5960     1.3150     2.7090 H     1 <1>   0.0800 
 45 H      -13.8520    -0.3130     2.0970 H     1 <1>   0.0800 
 46 H      -14.1290     1.0870     1.0490 H     1 <1>   0.0800 
@<TRIPOS>BOND
  1   1   2  1   
  2   2   3  ar  
  3   2   4  ar  
  4   3   5  ar  
  5   3  23  1   
  6   4   6  ar  
  7   4  24  1   
  8   5   7  ar  
  9   5   8  1   
 10   6   7  ar  
 11   6  25  1   
 12   7  26  1   
 13   8   9  1   
 14   8  27  1   
 15   8  28  1   
 16   9  10  2   
 17   9  11  am  
 18  11  12  1   
 19  11  13  1   
 20  12  14  1   
 21  12  29  1   
 22  12  30  1   
 23  13  15  1   
 24  13  31  1   
 25  13  32  1   
 26  14  16  1   
 27  14  17  1   
 28  14  18  1   
 29  15  17  1   
 30  15  33  1   
 31  15  34  1   
 32  16  19  1   
 33  16  20  1   
 34  16  35  1   
 35  17  36  1   
 36  17  37  1   
 37  18  21  1   
 38  18  38  1   
 39  18  39  1   
 40  19  22  1   
 41  20  21  1   
 42  20  40  1   
 43  20  41  1   
 44  21  42  1   
 45  21  43  1   
 46  22  44  1   
 47  22  45  1   
 48  22  46  1   
@<TRIPOS>SUBSTRUCTURE
  1 ****   9 GROUP 4 **** **** 0

# MOE 2024.06 (io_trps.svl 2023.06)
