@<TRIPOS>MOLECULE
NONAME
47 49 1 0 0 
SMALL
USER_CHARGES


@<TRIPOS>ATOM
  1 F       -2.3310     0.3440     1.7450 F     1 <1>  -0.1900 
  2 C       -3.2260     0.6470     0.8370 C.ar  1 <1>   0.1900 
  3 C       -3.8760     1.8710     0.9110 C.ar  1 <1>   0.0830 
  4 C       -3.4960    -0.2660    -0.1640 C.ar  1 <1>  -0.1500 
  5 O       -3.6070     2.7490     1.8960 O.3   1 <1>  -0.5330 
  6 C       -4.8180     2.1860    -0.0520 C.ar  1 <1>  -0.1500 
  7 C       -4.4500     0.0500    -1.1230 C.ar  1 <1>  -0.1440 
  8 C       -5.0990     1.2790    -1.0630 C.ar  1 <1>  -0.1500 
  9 C       -4.7900    -0.9490    -2.2280 C.3   1 <1>   0.0440 
 10 C       -5.0370    -2.3590    -1.7070 C.2   1 <1>   0.5690 
 11 O       -4.2110    -3.2060    -1.9610 O.2   1 <1>  -0.5700 
 12 N       -6.1590    -2.6560    -0.9820 N.am  1 <1>  -0.6600 
 13 C       -7.1670    -1.6980    -0.4770 C.3   1 <1>   0.1400 
 14 C       -6.4110    -4.0040    -0.4270 C.3   1 <1>   0.1400 
 15 C       -7.7000    -2.3400     0.8070 C.3   1 <1>  -0.0800 
 16 C       -7.5920    -3.8530     0.5400 C.3   1 <1>  -0.0800 
 17 C       -9.0970    -1.8440     1.2880 C.3   1 <1>   0.2800 
 18 C       -8.9050    -4.4010    -0.0390 C.3   1 <1>  -0.1600 
 19 O       -9.8370    -1.3820     0.2150 O.3   1 <1>  -0.6800 
 20 C       -9.8920    -3.0130     1.8980 C.3   1 <1>  -0.1600 
 21 C       -8.9990    -0.6810     2.3010 C.3   1 <1>  -0.1600 
 22 C      -10.0840    -4.2020     0.9320 C.3   1 <1>  -0.1600 
 23 C       -8.2800     0.5840     1.7980 C.3   1 <1>  -0.2400 
 24 H       -2.9720    -1.2060    -0.1850 H     1 <1>   0.1500 
 25 H       -2.9180     2.4110     2.5000 H     1 <1>   0.4500 
 26 H       -5.3250     3.1340    -0.0050 H     1 <1>   0.1500 
 27 H       -5.8360     1.5390    -1.8040 H     1 <1>   0.1500 
 28 H       -3.9750    -0.9800    -2.9270 H     1 <1>   0.0800 
 29 H       -5.6640    -0.6330    -2.7650 H     1 <1>   0.0800 
 30 H       -6.7450    -0.7340    -0.2740 H     1 <1>   0.0800 
 31 H       -7.9370    -1.6030    -1.2220 H     1 <1>   0.0800 
 32 H       -6.6270    -4.6980    -1.2220 H     1 <1>   0.0800 
 33 H       -5.5320    -4.3360     0.1000 H     1 <1>   0.0800 
 34 H       -6.9880    -2.1250     1.5830 H     1 <1>   0.0800 
 35 H       -7.3730    -4.3820     1.4510 H     1 <1>   0.0800 
 36 H       -9.1210    -3.8810    -0.9580 H     1 <1>   0.0800 
 37 H       -8.8040    -5.4470    -0.2750 H     1 <1>   0.0800 
 38 H      -10.7290    -1.1400     0.5220 H     1 <1>   0.4000 
 39 H       -9.3490    -3.3640     2.7590 H     1 <1>   0.0800 
 40 H      -10.8500    -2.6750     2.2530 H     1 <1>   0.0800 
 41 H       -9.9910    -0.4090     2.6150 H     1 <1>   0.0800 
 42 H       -8.4830    -1.0320     3.1770 H     1 <1>   0.0800 
 43 H      -10.2260    -5.0970     1.5140 H     1 <1>   0.0800 
 44 H      -10.9780    -4.0510     0.3520 H     1 <1>   0.0800 
 45 H       -8.7210     0.9380     0.8830 H     1 <1>   0.0800 
 46 H       -7.2350     0.3940     1.6300 H     1 <1>   0.0800 
 47 H       -8.3580     1.3650     2.5340 H     1 <1>   0.0800 
@<TRIPOS>BOND
  1   1   2  1   
  2   2   3  ar  
  3   2   4  ar  
  4   3   5  1   
  5   3   6  ar  
  6   4   7  ar  
  7   4  24  1   
  8   5  25  1   
  9   6   8  ar  
 10   6  26  1   
 11   7   8  ar  
 12   7   9  1   
 13   8  27  1   
 14   9  10  1   
 15   9  28  1   
 16   9  29  1   
 17  10  11  2   
 18  10  12  am  
 19  12  13  1   
 20  12  14  1   
 21  13  15  1   
 22  13  30  1   
 23  13  31  1   
 24  14  16  1   
 25  14  32  1   
 26  14  33  1   
 27  15  16  1   
 28  15  17  1   
 29  15  34  1   
 30  16  18  1   
 31  16  35  1   
 32  17  19  1   
 33  17  20  1   
 34  17  21  1   
 35  18  22  1   
 36  18  36  1   
 37  18  37  1   
 38  19  38  1   
 39  20  22  1   
 40  20  39  1   
 41  20  40  1   
 42  21  23  1   
 43  21  41  1   
 44  21  42  1   
 45  22  43  1   
 46  22  44  1   
 47  23  45  1   
 48  23  46  1   
 49  23  47  1   
@<TRIPOS>SUBSTRUCTURE
  1 ****  13 GROUP 4 **** **** 0

# MOE 2024.06 (io_trps.svl 2023.06)
