@<TRIPOS>MOLECULE
NONAME
52 55 1 0 0 
SMALL
USER_CHARGES


@<TRIPOS>ATOM
  1 S        1.1030    -1.2310     1.3730 S.o2  1 <1>   1.5010 
  2 O        1.4040    -0.7570     2.7020 O.2   1 <1>  -0.6500 
  3 O        2.0410    -2.0870     0.6810 O.2   1 <1>  -0.6500 
  4 N       -0.2940    -2.1370     1.5510 N.am  1 <1>  -0.9140 
  5 C        0.5240     0.1120     0.3220 C.2   1 <1>  -0.0630 
  6 C       -0.6040    -2.9840     0.4070 C.3   1 <1>   0.2760 
  7 C        1.1220     0.5770    -0.8480 C.2   1 <1>   0.1080 
  8 C       -0.5730     0.9010     0.4520 C.2   1 <1>  -0.3020 
  9 C       -2.0960    -3.2770     0.3720 C.3   1 <1>  -0.0800 
 10 C       -0.0500    -4.3890     0.6250 C.3   1 <1>   0.1200 
 11 N        0.4540     1.5420    -1.3990 N.2   1 <1>  -0.7070 
 12 C        2.4050     0.0600    -1.4650 C.3   1 <1>  -0.0590 
 13 N       -0.5940     1.7510    -0.5880 N.pl3 1 <1>   0.3140 
 14 C       -2.2370    -4.5000     1.2870 C.3   1 <1>   0.1200 
 15 C       -3.0070    -2.0950     0.7590 C.3   1 <1>  -0.0170 
 16 O       -0.9450    -4.9900     1.5080 O.3   1 <1>  -0.5600 
 17 C       -1.6040     2.7940    -0.8630 C.3   1 <1>   0.0960 
 18 C       -4.4620    -2.3980     0.4290 C.ar  1 <1>  -0.1430 
 19 C       -1.4240     3.9980     0.0700 C.3   1 <1>  -0.2400 
 20 C       -4.9700    -2.3000    -0.8870 C.ar  1 <1>   0.0000 
 21 C       -5.3230    -2.7830     1.4150 C.ar  1 <1>  -0.1500 
 22 C       -6.3330    -2.6240    -1.0890 C.ar  1 <1>   0.3100 
 23 C       -4.2100    -1.8990    -2.0120 C.ar  1 <1>  -0.1500 
 24 C       -6.6570    -3.0750     1.1080 C.ar  1 <1>   0.1600 
 25 N       -7.1590    -3.0080    -0.0840 N.ar  1 <1>  -0.6200 
 26 C       -6.8650    -2.5460    -2.3860 C.ar  1 <1>  -0.1500 
 27 C       -4.7600    -1.8310    -3.2630 C.ar  1 <1>  -0.1500 
 28 C       -6.1040    -2.1600    -3.4550 C.ar  1 <1>  -0.1500 
 29 H       -0.1070    -2.7670     2.3320 H     1 <1>   0.4200 
 30 H       -0.2660    -2.5410    -0.5160 H     1 <1>   0.0800 
 31 H       -1.3210     0.8940     1.2240 H     1 <1>   0.1500 
 32 H       -2.3430    -3.5950    -0.6250 H     1 <1>   0.0800 
 33 H        0.9400    -4.4000     1.0470 H     1 <1>   0.0800 
 34 H       -0.0610    -4.9520    -0.2920 H     1 <1>   0.0800 
 35 H        3.1900     0.0450    -0.7320 H     1 <1>   0.0800 
 36 H        2.7040     0.7010    -2.2750 H     1 <1>   0.0800 
 37 H        2.2560    -0.9320    -1.8480 H     1 <1>   0.0800 
 38 H       -2.8300    -5.2740     0.8280 H     1 <1>   0.0800 
 39 H       -2.6550    -4.2410     2.2440 H     1 <1>   0.0800 
 40 H       -2.6990    -1.2040     0.2420 H     1 <1>   0.0800 
 41 H       -2.9110    -1.8900     1.8110 H     1 <1>   0.0800 
 42 H       -1.4950     3.1040    -1.8860 H     1 <1>   0.0800 
 43 H       -2.5810     2.3650    -0.7360 H     1 <1>   0.0800 
 44 H       -0.4440     4.4220    -0.0620 H     1 <1>   0.0800 
 45 H       -1.5490     3.7020     1.0970 H     1 <1>   0.0800 
 46 H       -2.1560     4.7510    -0.1610 H     1 <1>   0.0800 
 47 H       -5.0070    -2.8750     2.4380 H     1 <1>   0.1500 
 48 H       -3.1760    -1.6390    -1.8900 H     1 <1>   0.1500 
 49 H       -7.3060    -3.3760     1.9130 H     1 <1>   0.1500 
 50 H       -7.9010    -2.8020    -2.5090 H     1 <1>   0.1500 
 51 H       -4.1720    -1.5260    -4.1110 H     1 <1>   0.1500 
 52 H       -6.5260    -2.1040    -4.4440 H     1 <1>   0.1500 
@<TRIPOS>BOND
  1   1   2  2   
  2   1   3  2   
  3   1   4  am  
  4   1   5  1   
  5   4   6  1   
  6   4  29  1   
  7   5   7  1   
  8   5   8  2   
  9   6   9  1   
 10   6  10  1   
 11   6  30  1   
 12   7  11  2   
 13   7  12  1   
 14   8  13  1   
 15   8  31  1   
 16   9  14  1   
 17   9  15  1   
 18   9  32  1   
 19  10  16  1   
 20  10  33  1   
 21  10  34  1   
 22  11  13  1   
 23  12  35  1   
 24  12  36  1   
 25  12  37  1   
 26  13  17  1   
 27  14  16  1   
 28  14  38  1   
 29  14  39  1   
 30  15  18  1   
 31  15  40  1   
 32  15  41  1   
 33  17  19  1   
 34  17  42  1   
 35  17  43  1   
 36  18  20  ar  
 37  18  21  ar  
 38  19  44  1   
 39  19  45  1   
 40  19  46  1   
 41  20  22  ar  
 42  20  23  ar  
 43  21  24  ar  
 44  21  47  1   
 45  22  25  ar  
 46  22  26  ar  
 47  23  27  ar  
 48  23  48  1   
 49  24  25  ar  
 50  24  49  1   
 51  26  28  ar  
 52  26  50  1   
 53  27  28  ar  
 54  27  51  1   
 55  28  52  1   
@<TRIPOS>SUBSTRUCTURE
  1 ****  15 GROUP 4 **** **** 0

# MOE 2024.06 (io_trps.svl 2023.06)
