@<TRIPOS>MOLECULE
NONAME
65 68 1 0 0 
SMALL
USER_CHARGES


@<TRIPOS>ATOM
  1 O        0.0850    -0.1370    -0.8170 O.3   1 <1>  -0.3630 
  2 C       -0.1130    -1.4560    -1.0520 C.ar  1 <1>   0.0830 
  3 C        1.2350     0.3290    -0.1450 C.3   1 <1>   0.1200 
  4 C        0.7290    -2.4630    -0.5910 C.ar  1 <1>  -0.1500 
  5 C       -1.2270    -1.7930    -1.8030 C.ar  1 <1>  -0.1500 
  6 C        1.1880     1.8540    -0.0980 C.3   1 <1>  -0.0160 
  7 C        0.4480    -3.7870    -0.8770 C.ar  1 <1>  -0.1500 
  8 C       -1.5080    -3.1160    -2.0900 C.ar  1 <1>  -0.1500 
  9 C        2.4160     2.3900     0.6200 C.ar  1 <1>  -0.1440 
 10 C       -0.6770    -4.1230    -1.6200 C.ar  1 <1>  -0.1430 
 11 C        2.3870     2.6150     1.9870 C.ar  1 <1>  -0.1500 
 12 C        3.5800     2.6520    -0.0880 C.ar  1 <1>  -0.1500 
 13 C       -0.9990    -5.5750    -1.9090 C.3   1 <1>   0.4860 
 14 C        3.5080     3.0960     2.6410 C.ar  1 <1>  -0.1500 
 15 C        4.7020     3.1330     0.5650 C.ar  1 <1>  -0.1500 
 16 N       -1.5600    -6.1790    -0.6640 N.4   1 <1>  -0.9590 
 17 C        4.6670     3.3550     1.9300 C.ar  1 <1>  -0.1500 
 18 C       -1.6220    -7.6830    -0.7610 C.3   1 <1>   0.3430 
 19 C       -2.8960    -5.5770    -0.3630 C.3   1 <1>   0.3430 
 20 C       -2.2680    -8.3700     0.4860 C.3   1 <1>   0.4230 
 21 C       -3.4590    -6.1810     0.9270 C.3   1 <1>  -0.1600 
 22 N       -2.3090    -9.8980     0.4500 N.4   1 <1>  -0.9590 
 23 C       -3.6280    -7.7250     0.8840 C.3   1 <1>   0.0000 
 24 C       -3.2310   -10.5050     1.4730 C.3   1 <1>   0.3430 
 25 C       -2.6230   -10.4950    -0.8940 C.3   1 <1>   0.2630 
 26 C       -4.0020    -8.2110     2.3140 C.3   1 <1>  -0.1600 
 27 C       -4.8010    -8.0870    -0.0740 C.3   1 <1>   0.1200 
 28 C       -3.4010    -9.5840     2.6820 C.3   1 <1>  -0.1600 
 29 O       -4.4490    -7.9150    -1.4050 O.3   1 <1>  -0.6800 
 30 H        1.2390    -0.0760     0.8520 H     1 <1>   0.0800 
 31 H        2.1060    -0.0020    -0.6840 H     1 <1>   0.0800 
 32 H        1.6040    -2.2300    -0.0130 H     1 <1>   0.1500 
 33 H       -1.8660    -1.0050    -2.1630 H     1 <1>   0.1500 
 34 H        1.1560     2.2440    -1.1000 H     1 <1>   0.0800 
 35 H        0.2990     2.1710     0.4190 H     1 <1>   0.0800 
 36 H        1.1240    -4.5430    -0.5160 H     1 <1>   0.1500 
 37 H       -2.3790    -3.3400    -2.6840 H     1 <1>   0.1500 
 38 H        1.4920     2.4170     2.5500 H     1 <1>   0.1500 
 39 H        3.6180     2.4830    -1.1500 H     1 <1>   0.1500 
 40 H       -0.0950    -6.0830    -2.2010 H     1 <1>   0.0800 
 41 H       -1.7090    -5.6440    -2.7180 H     1 <1>   0.0800 
 42 H        3.4790     3.2690     3.7030 H     1 <1>   0.1500 
 43 H        5.6010     3.3350     0.0100 H     1 <1>   0.1500 
 44 H       -0.9220    -5.8780     0.0860 H     1 <1>   0.4500 
 45 H        5.5380     3.7290     2.4380 H     1 <1>   0.1500 
 46 H       -2.1960    -7.9450    -1.6340 H     1 <1>   0.0800 
 47 H       -0.6250    -8.0680    -0.8900 H     1 <1>   0.0800 
 48 H       -2.8000    -4.5080    -0.2420 H     1 <1>   0.0800 
 49 H       -3.5770    -5.7580    -1.1790 H     1 <1>   0.0800 
 50 H       -1.6070    -8.1220     1.3000 H     1 <1>   0.0800 
 51 H       -2.8070    -5.8940     1.7340 H     1 <1>   0.0800 
 52 H       -4.4120    -5.7210     1.1270 H     1 <1>   0.0800 
 53 H       -1.3680   -10.2300     0.7120 H     1 <1>   0.4500 
 54 H       -4.2020   -10.6740     1.0360 H     1 <1>   0.0800 
 55 H       -2.8470   -11.4610     1.7940 H     1 <1>   0.0800 
 56 H       -3.5990   -10.1840    -1.2280 H     1 <1>   0.0800 
 57 H       -2.6140   -11.5730    -0.8350 H     1 <1>   0.0800 
 58 H       -1.8950   -10.1940    -1.6280 H     1 <1>   0.0800 
 59 H       -3.6680    -7.5100     3.0610 H     1 <1>   0.0800 
 60 H       -5.0750    -8.2570     2.4140 H     1 <1>   0.0800 
 61 H       -5.6560    -7.4610     0.1280 H     1 <1>   0.0800 
 62 H       -5.1090    -9.1100     0.0490 H     1 <1>   0.0800 
 63 H       -4.0410   -10.0650     3.4030 H     1 <1>   0.0800 
 64 H       -2.4440    -9.4540     3.1590 H     1 <1>   0.0800 
 65 H       -5.2480    -7.9920    -1.9790 H     1 <1>   0.4000 
@<TRIPOS>BOND
  1   1   2  1   
  2   1   3  1   
  3   2   4  ar  
  4   2   5  ar  
  5   3   6  1   
  6   3  30  1   
  7   3  31  1   
  8   4   7  ar  
  9   4  32  1   
 10   5   8  ar  
 11   5  33  1   
 12   6   9  1   
 13   6  34  1   
 14   6  35  1   
 15   7  10  ar  
 16   7  36  1   
 17   8  10  ar  
 18   8  37  1   
 19   9  11  ar  
 20   9  12  ar  
 21  10  13  1   
 22  11  14  ar  
 23  11  38  1   
 24  12  15  ar  
 25  12  39  1   
 26  13  16  1   
 27  13  40  1   
 28  13  41  1   
 29  14  17  ar  
 30  14  42  1   
 31  15  17  ar  
 32  15  43  1   
 33  16  18  1   
 34  16  19  1   
 35  16  44  1   
 36  17  45  1   
 37  18  20  1   
 38  18  46  1   
 39  18  47  1   
 40  19  21  1   
 41  19  48  1   
 42  19  49  1   
 43  20  22  1   
 44  20  23  1   
 45  20  50  1   
 46  21  23  1   
 47  21  51  1   
 48  21  52  1   
 49  22  24  1   
 50  22  25  1   
 51  22  53  1   
 52  23  26  1   
 53  23  27  1   
 54  24  28  1   
 55  24  54  1   
 56  24  55  1   
 57  25  56  1   
 58  25  57  1   
 59  25  58  1   
 60  26  28  1   
 61  26  59  1   
 62  26  60  1   
 63  27  29  1   
 64  27  61  1   
 65  27  62  1   
 66  28  63  1   
 67  28  64  1   
 68  29  65  1   
@<TRIPOS>SUBSTRUCTURE
  1 ****   7 GROUP 4 **** **** 0

# MOE 2024.06 (io_trps.svl 2023.06)
