@<TRIPOS>MOLECULE
NONAME
40 42 1 0 0 
SMALL
USER_CHARGES


@<TRIPOS>ATOM
  1 F        0.0530    -1.4480    -0.6460 F     1 <1>  -0.1900 
  2 C       -0.9190    -2.3230    -0.6940 C.ar  1 <1>   0.1900 
  3 C       -2.1020    -2.0410    -0.0540 C.ar  1 <1>  -0.1500 
  4 C       -0.6950    -3.5090    -1.4010 C.ar  1 <1>  -0.1500 
  5 C       -3.1140    -2.9950    -0.1260 C.ar  1 <1>   0.2270 
  6 C       -1.6990    -4.4510    -1.4700 C.ar  1 <1>  -0.1500 
  7 N       -4.3640    -2.9700     0.4140 N.2   1 <1>  -0.5650 
  8 C       -2.9090    -4.1750    -0.8240 C.ar  1 <1>  -0.1520 
  9 C       -4.8900    -4.0910     0.0510 C.2   1 <1>   0.0060 
 10 N       -4.0690    -4.8670    -0.6970 N.pl3 1 <1>   0.0330 
 11 C       -6.2900    -4.5700     0.4000 C.3   1 <1>   0.3890 
 12 N       -6.2370    -5.9910     0.8770 N.pl3 1 <1>  -0.8380 
 13 C       -7.2840    -6.8470     0.5530 C.ar  1 <1>   0.4100 
 14 C       -5.5830    -6.1400     2.2100 C.3   1 <1>   0.1290 
 15 N       -8.4730    -6.3170     0.2410 N.ar  1 <1>  -0.3100 
 16 C       -7.0830    -8.2150     0.5550 C.ar  1 <1>  -0.1500 
 17 N       -9.4880    -7.0870    -0.0700 N.ar  1 <1>  -0.3100 
 18 C       -8.1450    -9.0240     0.2320 C.ar  1 <1>  -0.1500 
 19 C       -9.3410    -8.4090    -0.0760 C.ar  1 <1>   0.1670 
 20 C      -10.5750    -9.2340    -0.4480 C.3   1 <1>   0.0630 
 21 C      -11.0080   -10.1500     0.7050 C.3   1 <1>  -0.2400 
 22 C      -10.3400   -10.0500    -1.7270 C.3   1 <1>  -0.2400 
 23 H       -2.2600    -1.1270     0.4850 H     1 <1>   0.1500 
 24 H        0.2560    -3.6640    -1.8780 H     1 <1>   0.1500 
 25 H       -1.5650    -5.3750    -2.0050 H     1 <1>   0.1500 
 26 H       -4.2900    -5.8070    -1.0350 H     1 <1>   0.2700 
 27 H       -6.9040    -4.4910    -0.4810 H     1 <1>   0.0800 
 28 H       -6.7140    -3.9410     1.1630 H     1 <1>   0.0800 
 29 H       -4.5160    -6.0490     2.1050 H     1 <1>   0.0800 
 30 H       -5.8110    -7.0970     2.6440 H     1 <1>   0.0800 
 31 H       -5.9320    -5.3720     2.8800 H     1 <1>   0.0800 
 32 H       -6.1220    -8.6220     0.7980 H     1 <1>   0.1500 
 33 H       -8.0430   -10.0930     0.2200 H     1 <1>   0.1500 
 34 H      -11.3850    -8.5500    -0.6420 H     1 <1>   0.0800 
 35 H      -10.2550   -10.8880     0.9150 H     1 <1>   0.0800 
 36 H      -11.9240   -10.6550     0.4540 H     1 <1>   0.0800 
 37 H      -11.1740    -9.5650     1.5920 H     1 <1>   0.0800 
 38 H       -9.5700   -10.7850    -1.5800 H     1 <1>   0.0800 
 39 H      -10.0430    -9.3940    -2.5270 H     1 <1>   0.0800 
 40 H      -11.2450   -10.5530    -2.0180 H     1 <1>   0.0800 
@<TRIPOS>BOND
  1   1   2  1   
  2   2   3  ar  
  3   2   4  ar  
  4   3   5  ar  
  5   3  23  1   
  6   4   6  ar  
  7   4  24  1   
  8   5   7  1   
  9   5   8  ar  
 10   6   8  ar  
 11   6  25  1   
 12   7   9  2   
 13   8  10  1   
 14   9  10  1   
 15   9  11  1   
 16  10  26  1   
 17  11  12  1   
 18  11  27  1   
 19  11  28  1   
 20  12  13  1   
 21  12  14  1   
 22  13  15  ar  
 23  13  16  ar  
 24  14  29  1   
 25  14  30  1   
 26  14  31  1   
 27  15  17  ar  
 28  16  18  ar  
 29  16  32  1   
 30  17  19  ar  
 31  18  19  ar  
 32  18  33  1   
 33  19  20  1   
 34  20  21  1   
 35  20  22  1   
 36  20  34  1   
 37  21  35  1   
 38  21  36  1   
 39  21  37  1   
 40  22  38  1   
 41  22  39  1   
 42  22  40  1   
@<TRIPOS>SUBSTRUCTURE
  1 ****  12 GROUP 4 **** **** 0

# MOE 2024.06 (io_trps.svl 2023.06)
