@<TRIPOS>MOLECULE
NONAME
48 49 1 0 0 
SMALL
USER_CHARGES


@<TRIPOS>ATOM
  1 CL       1.0780    -0.4590    -3.5000 Cl    1 <1>  -0.1770 
  2 C        2.1640    -1.2870    -2.4110 C.ar  1 <1>   0.1770 
  3 C        1.6520    -1.9460    -1.3160 C.ar  1 <1>  -0.1500 
  4 C        3.5220    -1.2720    -2.6680 C.ar  1 <1>  -0.1500 
  5 C        2.4970    -2.6220    -0.4340 C.ar  1 <1>   0.0860 
  6 C        4.3730    -1.9230    -1.7980 C.ar  1 <1>  -0.1500 
  7 C        3.8850    -2.5860    -0.6710 C.ar  1 <1>   0.1000 
  8 C        1.9380    -3.3430     0.6890 C.2   1 <1>   0.5440 
  9 N        4.7590    -3.2150     0.2090 N.pl3 1 <1>  -0.8690 
 10 O        2.3370    -3.1170     1.8190 O.2   1 <1>  -0.5700 
 11 N        0.9490    -4.2950     0.5230 N.am  1 <1>  -0.6600 
 12 C        6.1220    -2.6890     0.4720 C.3   1 <1>   0.1290 
 13 C        0.7490    -5.0450    -0.7550 C.3   1 <1>   0.1400 
 14 C        0.1250    -4.7620     1.6720 C.3   1 <1>   0.1400 
 15 C       -0.7420    -5.0760    -1.1320 C.3   1 <1>   0.2000 
 16 C       -1.3570    -4.7640     1.2740 C.3   1 <1>  -0.1600 
 17 O       -0.8970    -5.8180    -2.2990 O.3   1 <1>  -0.6800 
 18 C       -1.6540    -5.6140     0.0090 C.3   1 <1>   0.0000 
 19 C       -1.3280    -7.1110     0.2790 C.3   1 <1>   0.1200 
 20 C       -3.1620    -5.5070    -0.3690 C.3   1 <1>  -0.1600 
 21 O       -2.0690    -7.6190     1.3370 O.3   1 <1>  -0.6800 
 22 C       -3.6730    -4.1220    -0.8110 C.3   1 <1>  -0.1600 
 23 C       -5.1770    -4.1670    -1.0980 C.3   1 <1>  -0.2400 
 24 H        0.5920    -1.9400    -1.1420 H     1 <1>   0.1500 
 25 H        3.8960    -0.7580    -3.5350 H     1 <1>   0.1500 
 26 H        5.4280    -1.9210    -1.9960 H     1 <1>   0.1500 
 27 H        4.2870    -3.4920     1.0900 H     1 <1>   0.4000 
 28 H        6.0990    -1.6140     0.5220 H     1 <1>   0.0800 
 29 H        6.7890    -2.9980    -0.3140 H     1 <1>   0.0800 
 30 H        6.4850    -3.0760     1.4080 H     1 <1>   0.0800 
 31 H        1.3030    -4.5900    -1.5560 H     1 <1>   0.0800 
 32 H        1.1220    -6.0450    -0.6250 H     1 <1>   0.0800 
 33 H        0.4510    -5.7440     1.9660 H     1 <1>   0.0800 
 34 H        0.2600    -4.1060     2.5160 H     1 <1>   0.0800 
 35 H       -1.0230    -4.0670    -1.3740 H     1 <1>   0.0800 
 36 H       -1.9450    -5.1070     2.1060 H     1 <1>   0.0800 
 37 H       -1.6350    -3.7400     1.1040 H     1 <1>   0.0800 
 38 H       -0.7650    -6.7700    -2.1330 H     1 <1>   0.4000 
 39 H       -0.2900    -7.2600     0.5160 H     1 <1>   0.0800 
 40 H       -1.5670    -7.7100    -0.5830 H     1 <1>   0.0800 
 41 H       -3.3630    -6.2000    -1.1690 H     1 <1>   0.0800 
 42 H       -3.7540    -5.8290     0.4710 H     1 <1>   0.0800 
 43 H       -1.9190    -7.0990     2.1490 H     1 <1>   0.4000 
 44 H       -3.4950    -3.3880    -0.0460 H     1 <1>   0.0800 
 45 H       -3.1690    -3.8080    -1.7080 H     1 <1>   0.0800 
 46 H       -5.7210    -4.4530    -0.2150 H     1 <1>   0.0800 
 47 H       -5.3890    -4.8740    -1.8810 H     1 <1>   0.0800 
 48 H       -5.5210    -3.1970    -1.4120 H     1 <1>   0.0800 
@<TRIPOS>BOND
  1   1   2  1   
  2   2   3  ar  
  3   2   4  ar  
  4   3   5  ar  
  5   3  24  1   
  6   4   6  ar  
  7   4  25  1   
  8   5   7  ar  
  9   5   8  1   
 10   6   7  ar  
 11   6  26  1   
 12   7   9  1   
 13   8  10  2   
 14   8  11  am  
 15   9  12  1   
 16   9  27  1   
 17  11  13  1   
 18  11  14  1   
 19  12  28  1   
 20  12  29  1   
 21  12  30  1   
 22  13  15  1   
 23  13  31  1   
 24  13  32  1   
 25  14  16  1   
 26  14  33  1   
 27  14  34  1   
 28  15  17  1   
 29  15  18  1   
 30  15  35  1   
 31  16  18  1   
 32  16  36  1   
 33  16  37  1   
 34  17  38  1   
 35  18  19  1   
 36  18  20  1   
 37  19  21  1   
 38  19  39  1   
 39  19  40  1   
 40  20  22  1   
 41  20  41  1   
 42  20  42  1   
 43  21  43  1   
 44  22  23  1   
 45  22  44  1   
 46  22  45  1   
 47  23  46  1   
 48  23  47  1   
 49  23  48  1   
@<TRIPOS>SUBSTRUCTURE
  1 ****  11 GROUP 4 **** **** 0

# MOE 2024.06 (io_trps.svl 2023.06)
