@<TRIPOS>MOLECULE
NONAME
53 55 1 0 0 
SMALL
USER_CHARGES


@<TRIPOS>ATOM
  1 O       -4.2290     3.2230     1.2540 O.2   1 <1>  -0.5700 
  2 C       -3.4950     2.6970     0.4410 C.2   1 <1>   0.5690 
  3 N       -3.3160     1.3240     0.4830 N.am  1 <1>  -0.6600 
  4 C       -2.7760     3.6180    -0.6000 C.3   1 <1>   0.2040 
  5 C       -2.5110     0.5010    -0.4740 C.3   1 <1>   0.1400 
  6 C       -3.7860     0.5210     1.6480 C.3   1 <1>   0.1400 
  7 C       -1.2560     3.3530    -0.5640 C.ar  1 <1>  -0.1440 
  8 C       -3.4530     3.4840    -1.9800 C.3   1 <1>  -0.1600 
  9 C       -3.0100     5.1210    -0.3290 C.3   1 <1>  -0.1600 
 10 C       -1.2630    -0.0350     0.2330 C.3   1 <1>  -0.1860 
 11 C       -2.5730    -0.0300     2.4050 C.3   1 <1>  -0.1600 
 12 C       -0.5990     3.4870     0.6550 C.ar  1 <1>  -0.1500 
 13 C       -0.5200     2.9260    -1.6660 C.ar  1 <1>  -0.1500 
 14 C       -4.7180     4.3380    -1.8970 C.3   1 <1>  -0.1600 
 15 C       -4.3750     5.4770    -0.9340 C.3   1 <1>  -0.1600 
 16 C       -0.4140    -0.8690    -0.6990 C.2   1 <1>   0.9060 
 17 C       -1.6630    -0.8330     1.4730 C.3   1 <1>   0.2000 
 18 C        0.7340     3.1410     0.7920 C.ar  1 <1>   0.0820 
 19 C        0.8170     2.5940    -1.5410 C.ar  1 <1>  -0.1500 
 20 O       -0.7400    -0.9950    -1.8820 O.co2 1 <1>  -0.9000 
 21 O        0.5970    -1.4140    -0.2320 O.co2 1 <1>  -0.9000 
 22 O       -0.5170    -1.1620     2.1620 O.3   1 <1>  -0.6800 
 23 O        1.2890     3.2270     2.0240 O.3   1 <1>  -0.3630 
 24 C        1.4480     2.6730    -0.3100 C.ar  1 <1>   0.0820 
 25 C        1.3660     2.0050     2.7250 C.3   1 <1>   0.0400 
 26 O        2.7360     2.2670    -0.1890 O.3   1 <1>  -0.3630 
 27 C        2.9670     0.8940    -0.4440 C.3   1 <1>   0.0400 
 28 H       -3.1080    -0.3260    -0.8190 H     1 <1>   0.0800 
 29 H       -2.2270     1.0610    -1.3410 H     1 <1>   0.0800 
 30 H       -4.3840     1.1190     2.3140 H     1 <1>   0.0800 
 31 H       -4.3980    -0.2900     1.2910 H     1 <1>   0.0800 
 32 H       -2.8270     3.9100    -2.7420 H     1 <1>   0.0800 
 33 H       -3.6810     2.4660    -2.2380 H     1 <1>   0.0800 
 34 H       -2.9630     5.3600     0.7190 H     1 <1>   0.0800 
 35 H       -2.2500     5.6900    -0.8360 H     1 <1>   0.0800 
 36 H       -0.6630     0.7950     0.5350 H     1 <1>   0.0800 
 37 H       -2.9080    -0.6590     3.2080 H     1 <1>   0.0800 
 38 H       -2.0270     0.7980     2.8210 H     1 <1>   0.0800 
 39 H       -1.1280     3.8280     1.5270 H     1 <1>   0.1500 
 40 H       -0.9690     2.8060    -2.6340 H     1 <1>   0.1500 
 41 H       -5.0140     4.7050    -2.8650 H     1 <1>   0.0800 
 42 H       -5.5220     3.7520    -1.4830 H     1 <1>   0.0800 
 43 H       -5.1210     5.5350    -0.1590 H     1 <1>   0.0800 
 44 H       -4.3270     6.4220    -1.4460 H     1 <1>   0.0800 
 45 H       -2.1430    -1.7500     1.1750 H     1 <1>   0.0800 
 46 H        1.3630     2.2480    -2.3990 H     1 <1>   0.1500 
 47 H        0.1510    -1.4170     1.4600 H     1 <1>   0.4000 
 48 H        1.6950     2.2100     3.7270 H     1 <1>   0.0800 
 49 H        2.0700     1.3610     2.2310 H     1 <1>   0.0800 
 50 H        0.3930     1.5450     2.7410 H     1 <1>   0.0800 
 51 H        4.0050     0.6850    -0.2660 H     1 <1>   0.0800 
 52 H        2.7130     0.6650    -1.4630 H     1 <1>   0.0800 
 53 H        2.3560     0.3090     0.2210 H     1 <1>   0.0800 
@<TRIPOS>BOND
  1   1   2  2   
  2   2   3  am  
  3   2   4  1   
  4   3   5  1   
  5   3   6  1   
  6   4   7  1   
  7   4   8  1   
  8   4   9  1   
  9   5  10  1   
 10   5  28  1   
 11   5  29  1   
 12   6  11  1   
 13   6  30  1   
 14   6  31  1   
 15   7  12  ar  
 16   7  13  ar  
 17   8  14  1   
 18   8  32  1   
 19   8  33  1   
 20   9  15  1   
 21   9  34  1   
 22   9  35  1   
 23  10  16  1   
 24  10  17  1   
 25  10  36  1   
 26  11  17  1   
 27  11  37  1   
 28  11  38  1   
 29  12  18  ar  
 30  12  39  1   
 31  13  19  ar  
 32  13  40  1   
 33  14  15  1   
 34  14  41  1   
 35  14  42  1   
 36  15  43  1   
 37  15  44  1   
 38  16  20  ar  
 39  16  21  ar  
 40  17  22  1   
 41  17  45  1   
 42  18  23  1   
 43  18  24  ar  
 44  19  24  ar  
 45  19  46  1   
 46  22  47  1   
 47  23  25  1   
 48  24  26  1   
 49  25  48  1   
 50  25  49  1   
 51  25  50  1   
 52  26  27  1   
 53  27  51  1   
 54  27  52  1   
 55  27  53  1   
@<TRIPOS>SUBSTRUCTURE
  1 ****   7 GROUP 4 **** **** 0

# MOE 2024.06 (io_trps.svl 2023.06)
