@<TRIPOS>MOLECULE
NONAME
45 46 1 0 0 
SMALL
USER_CHARGES


@<TRIPOS>ATOM
  1 S       -1.1800    -0.6080     0.2830 S.o2  1 <1>   1.3330 
  2 O       -2.5930    -0.7120     0.5540 O.2   1 <1>  -0.6500 
  3 O       -0.4070     0.4780     0.8280 O.2   1 <1>  -0.6500 
  4 N       -0.4760    -2.0780     0.8610 N.am  1 <1>  -0.6930 
  5 C       -0.9360    -0.7220    -1.4770 C.3   1 <1>  -0.1350 
  6 C        0.8010    -2.4760     0.4770 C.ar  1 <1>   0.1990 
  7 C       -0.9100    -2.4850     2.2360 C.3   1 <1>   0.2570 
  8 C        1.9060    -1.6490     0.6400 C.ar  1 <1>  -0.1500 
  9 C        0.9880    -3.7370    -0.0860 C.ar  1 <1>  -0.1500 
 10 C       -1.2680    -3.9720     2.3470 C.2   1 <1>   0.5690 
 11 C        3.1450    -2.0950     0.2290 C.ar  1 <1>   0.1900 
 12 C        2.2400    -4.1700    -0.4920 C.ar  1 <1>  -0.1500 
 13 O       -0.5090    -4.6810     2.9670 O.2   1 <1>  -0.5700 
 14 N       -2.3950    -4.4910     1.7510 N.am  1 <1>  -0.6600 
 15 F        4.1780    -1.3100     0.3790 F     1 <1>  -0.1900 
 16 C        3.3380    -3.3410    -0.3370 C.ar  1 <1>  -0.1500 
 17 C       -2.6060    -5.9800     1.7040 C.3   1 <1>   0.1400 
 18 C       -3.4500    -3.6430     1.1040 C.3   1 <1>   0.1400 
 19 C       -3.1990    -6.3870     0.3470 C.3   1 <1>   0.2000 
 20 C       -4.7610    -4.4180     0.9170 C.3   1 <1>  -0.1600 
 21 O       -2.3300    -5.9190    -0.6270 O.3   1 <1>  -0.6800 
 22 C       -4.6020    -5.7610     0.1540 C.3   1 <1>  -0.0800 
 23 C       -4.9770    -5.6500    -1.3360 C.3   1 <1>   0.1200 
 24 O       -6.3230    -5.3350    -1.4620 O.3   1 <1>  -0.6800 
 25 H       -1.3970    -1.6110    -1.8590 H     1 <1>   0.0800 
 26 H        0.1110    -0.7470    -1.7070 H     1 <1>   0.0800 
 27 H       -1.3730     0.1290    -1.9620 H     1 <1>   0.0800 
 28 H       -0.1080    -2.2810     2.9230 H     1 <1>   0.0800 
 29 H       -1.7540    -1.9020     2.5560 H     1 <1>   0.0800 
 30 H        1.8120    -0.6750     1.0850 H     1 <1>   0.1500 
 31 H        0.1430    -4.3900    -0.2030 H     1 <1>   0.1500 
 32 H        2.3590    -5.1500    -0.9230 H     1 <1>   0.1500 
 33 H        4.3210    -3.6510    -0.6430 H     1 <1>   0.1500 
 34 H       -1.6740    -6.5010     1.8510 H     1 <1>   0.0800 
 35 H       -3.2720    -6.2700     2.4980 H     1 <1>   0.0800 
 36 H       -3.6450    -2.7760     1.7110 H     1 <1>   0.0800 
 37 H       -3.0960    -3.3070     0.1440 H     1 <1>   0.0800 
 38 H       -3.2500    -7.4580     0.2510 H     1 <1>   0.0800 
 39 H       -5.1630    -4.6170     1.8950 H     1 <1>   0.0800 
 40 H       -5.4720    -3.7820     0.4190 H     1 <1>   0.0800 
 41 H       -1.9990    -5.0530    -0.3100 H     1 <1>   0.4000 
 42 H       -5.2970    -6.4520     0.5980 H     1 <1>   0.0800 
 43 H       -4.8000    -6.5800    -1.8510 H     1 <1>   0.0800 
 44 H       -4.4090    -4.8720    -1.8170 H     1 <1>   0.0800 
 45 H       -6.8820    -6.0710    -1.1480 H     1 <1>   0.4000 
@<TRIPOS>BOND
  1   1   2  2   
  2   1   3  2   
  3   1   4  am  
  4   1   5  1   
  5   4   6  1   
  6   4   7  1   
  7   5  25  1   
  8   5  26  1   
  9   5  27  1   
 10   6   8  ar  
 11   6   9  ar  
 12   7  10  1   
 13   7  28  1   
 14   7  29  1   
 15   8  11  ar  
 16   8  30  1   
 17   9  12  ar  
 18   9  31  1   
 19  10  13  2   
 20  10  14  am  
 21  11  15  1   
 22  11  16  ar  
 23  12  16  ar  
 24  12  32  1   
 25  14  17  1   
 26  14  18  1   
 27  16  33  1   
 28  17  19  1   
 29  17  34  1   
 30  17  35  1   
 31  18  20  1   
 32  18  36  1   
 33  18  37  1   
 34  19  21  1   
 35  19  22  1   
 36  19  38  1   
 37  20  22  1   
 38  20  39  1   
 39  20  40  1   
 40  21  41  1   
 41  22  23  1   
 42  22  42  1   
 43  23  24  1   
 44  23  43  1   
 45  23  44  1   
 46  24  45  1   
@<TRIPOS>SUBSTRUCTURE
  1 ****   4 GROUP 4 **** **** 0

# MOE 2024.06 (io_trps.svl 2023.06)
