@<TRIPOS>MOLECULE
NONAME
42 44 1 0 0 
SMALL
USER_CHARGES


@<TRIPOS>ATOM
  1 O       -0.8140     0.4400     2.6840 O.2   1 <1>  -0.5700 
  2 C       -1.3140     1.0770     1.7870 C.2   1 <1>   0.5690 
  3 N       -2.1860     0.4860     0.9080 N.am  1 <1>  -0.6600 
  4 C       -0.9540     2.5500     1.6930 C.3   1 <1>   0.1570 
  5 C       -2.8010     1.1010    -0.3000 C.3   1 <1>   0.1400 
  6 C       -2.4790    -0.9690     0.9430 C.3   1 <1>   0.1400 
  7 N       -0.3490     2.8800     0.3850 N.pl3 1 <1>   0.0480 
  8 C       -3.8260     0.0740    -0.7720 C.3   1 <1>   0.2000 
  9 C       -3.1970    -1.2670    -0.3790 C.3   1 <1>  -0.0800 
 10 C       -0.6970     3.8560    -0.4910 C.2   1 <1>   0.0060 
 11 C        0.6520     2.2170    -0.2260 C.2   1 <1>  -0.3020 
 12 O       -4.9950     0.2690    -0.0510 O.3   1 <1>  -0.6800 
 13 C       -4.1820    -2.4500    -0.3040 C.3   1 <1>   0.0200 
 14 N       -0.0120     3.8380    -1.5860 N.2   1 <1>  -0.5650 
 15 C       -1.7820     4.8850    -0.2330 C.3   1 <1>  -0.0600 
 16 C        0.8420     2.8130    -1.4210 C.2   1 <1>   0.0770 
 17 C       -3.4950    -3.7810    -0.0470 C.2   1 <1>  -0.0400 
 18 O       -4.2350    -4.8320     0.1870 O.3   1 <1>  -0.0190 
 19 C       -2.2100    -4.1710    -0.0030 C.2   1 <1>  -0.1500 
 20 N       -3.5180    -5.8990     0.3890 N.2   1 <1>  -0.4100 
 21 C       -2.2930    -5.5310     0.2810 C.2   1 <1>   0.1080 
 22 C       -1.1090    -6.4570     0.4430 C.3   1 <1>  -0.0590 
 23 H       -0.2460     2.7900     2.4640 H     1 <1>   0.0800 
 24 H       -1.8380     3.1360     1.8440 H     1 <1>   0.0800 
 25 H       -3.2620     2.0490    -0.0850 H     1 <1>   0.0800 
 26 H       -2.0440     1.2290    -1.0560 H     1 <1>   0.0800 
 27 H       -1.5690    -1.5360     1.0400 H     1 <1>   0.0800 
 28 H       -3.1160    -1.1790     1.7860 H     1 <1>   0.0800 
 29 H       -4.0520     0.1530    -1.8220 H     1 <1>   0.0800 
 30 H       -2.4460    -1.4970    -1.1150 H     1 <1>   0.0800 
 31 H        1.1610     1.3760     0.2110 H     1 <1>   0.1500 
 32 H       -4.7790     0.3060     0.9020 H     1 <1>   0.4000 
 33 H       -4.7260    -2.5210    -1.2290 H     1 <1>   0.0800 
 34 H       -4.8990    -2.2830     0.4810 H     1 <1>   0.0800 
 35 H       -1.8330     5.5700    -1.0610 H     1 <1>   0.0800 
 36 H       -1.5560     5.4440     0.6560 H     1 <1>   0.0800 
 37 H       -2.7370     4.4070    -0.1270 H     1 <1>   0.0800 
 38 H        1.5600     2.5560    -2.1820 H     1 <1>   0.1500 
 39 H       -1.3040    -3.6130    -0.1470 H     1 <1>   0.1500 
 40 H       -0.5040    -6.1340     1.2700 H     1 <1>   0.0800 
 41 H       -0.5180    -6.4550    -0.4530 H     1 <1>   0.0800 
 42 H       -1.4510    -7.4590     0.6330 H     1 <1>   0.0800 
@<TRIPOS>BOND
  1   1   2  2   
  2   2   3  am  
  3   2   4  1   
  4   3   5  1   
  5   3   6  1   
  6   4   7  1   
  7   4  23  1   
  8   4  24  1   
  9   5   8  1   
 10   5  25  1   
 11   5  26  1   
 12   6   9  1   
 13   6  27  1   
 14   6  28  1   
 15   7  10  1   
 16   7  11  1   
 17   8   9  1   
 18   8  12  1   
 19   8  29  1   
 20   9  13  1   
 21   9  30  1   
 22  10  14  2   
 23  10  15  1   
 24  11  16  2   
 25  11  31  1   
 26  12  32  1   
 27  13  17  1   
 28  13  33  1   
 29  13  34  1   
 30  14  16  1   
 31  15  35  1   
 32  15  36  1   
 33  15  37  1   
 34  16  38  1   
 35  17  18  1   
 36  17  19  2   
 37  18  20  1   
 38  19  21  1   
 39  19  39  1   
 40  20  21  2   
 41  21  22  1   
 42  22  40  1   
 43  22  41  1   
 44  22  42  1   
@<TRIPOS>SUBSTRUCTURE
  1 ****   6 GROUP 4 **** **** 0

# MOE 2024.06 (io_trps.svl 2023.06)
