@<TRIPOS>MOLECULE
NONAME
66 69 1 0 0 
SMALL
USER_CHARGES


@<TRIPOS>ATOM
  1 O        0.5020    -0.2090    -0.0120 O.3   1 <1>  -0.3630 
  2 C        0.1280    -1.4060    -0.5240 C.ar  1 <1>   0.0830 
  3 C        0.2320     1.0040    -0.6810 C.3   1 <1>   0.2640 
  4 C        0.5210    -2.5260     0.1850 C.ar  1 <1>  -0.1500 
  5 C       -0.6100    -1.5550    -1.6940 C.ar  1 <1>  -0.1500 
  6 C        0.8500     2.1490     0.1050 C.ar  1 <1>  -0.1440 
  7 C        0.1880    -3.8000    -0.2610 C.ar  1 <1>   0.0830 
  8 C       -0.9470    -2.8200    -2.1420 C.ar  1 <1>  -0.1500 
  9 C        0.0510     3.1330     0.6700 C.ar  1 <1>  -0.1500 
 10 C        2.2260     2.2210     0.2600 C.ar  1 <1>  -0.1500 
 11 O        0.5510    -4.9310     0.4070 O.3   1 <1>  -0.3630 
 12 C       -0.5550    -3.9440    -1.4310 C.ar  1 <1>  -0.1430 
 13 C        0.6230     4.1780     1.3750 C.ar  1 <1>  -0.1500 
 14 C        2.7990     3.2660     0.9650 C.ar  1 <1>  -0.1500 
 15 C        1.5390    -4.8760     1.4210 C.3   1 <1>   0.0400 
 16 C       -0.9340    -5.3250    -1.9280 C.3   1 <1>   0.4860 
 17 C        1.9970     4.2450     1.5230 C.ar  1 <1>  -0.1500 
 18 N       -1.7150    -5.9990    -0.8560 N.4   1 <1>  -0.9590 
 19 C       -1.8280    -7.4810    -1.0780 C.3   1 <1>   0.3430 
 20 C       -3.0370    -5.3360    -0.6640 C.3   1 <1>   0.3430 
 21 C       -2.6350    -8.2100     0.0440 C.3   1 <1>   0.4230 
 22 C       -3.7700    -5.9930     0.5100 C.3   1 <1>  -0.1600 
 23 N       -2.7410    -9.7280    -0.1020 N.4   1 <1>  -0.9590 
 24 C       -4.0000    -7.5200     0.3410 C.3   1 <1>   0.0000 
 25 C       -3.7940   -10.3500     0.7730 C.3   1 <1>   0.3430 
 26 C       -2.9320   -10.2180    -1.5100 C.3   1 <1>   0.2630 
 27 C       -4.5470    -8.0780     1.6860 C.3   1 <1>  -0.1600 
 28 C       -5.0780    -7.7580    -0.7570 C.3   1 <1>   0.1200 
 29 C       -4.0510    -9.5010     2.0200 C.3   1 <1>  -0.1600 
 30 O       -4.5780    -7.5190    -2.0290 O.3   1 <1>  -0.6800 
 31 H        0.6670     0.9560    -1.6640 H     1 <1>   0.0800 
 32 H       -0.8350     1.1200    -0.7540 H     1 <1>   0.0800 
 33 H        1.0850    -2.3650     1.0840 H     1 <1>   0.1500 
 34 H       -0.9270    -0.7020    -2.2660 H     1 <1>   0.1500 
 35 H       -1.5150    -2.9100    -3.0530 H     1 <1>   0.1500 
 36 H       -1.0190     3.0930     0.5660 H     1 <1>   0.1500 
 37 H        2.8550     1.4590    -0.1670 H     1 <1>   0.1500 
 38 H       -0.0020     4.9380     1.8110 H     1 <1>   0.1500 
 39 H        3.8670     3.3130     1.0800 H     1 <1>   0.1500 
 40 H        1.7710    -5.8790     1.7290 H     1 <1>   0.0800 
 41 H        1.1580    -4.3170     2.2580 H     1 <1>   0.0800 
 42 H        2.4240    -4.4060     1.0240 H     1 <1>   0.0800 
 43 H       -0.0310    -5.8760    -2.1350 H     1 <1>   0.0800 
 44 H       -1.5140    -5.2550    -2.8340 H     1 <1>   0.0800 
 45 H        2.4410     5.0570     2.0720 H     1 <1>   0.1500 
 46 H       -1.1390    -5.7950    -0.0170 H     1 <1>   0.4500 
 47 H       -2.3130    -7.6510    -2.0240 H     1 <1>   0.0800 
 48 H       -0.8390    -7.9040    -1.1250 H     1 <1>   0.0800 
 49 H       -2.8960    -4.2860    -0.4560 H     1 <1>   0.0800 
 50 H       -3.6280    -5.4230    -1.5620 H     1 <1>   0.0800 
 51 H       -2.0540    -8.0480     0.9370 H     1 <1>   0.0800 
 52 H       -3.1980    -5.7930     1.4000 H     1 <1>   0.0800 
 53 H       -4.7170    -5.4970     0.6370 H     1 <1>   0.0800 
 54 H       -1.8480   -10.1220     0.2320 H     1 <1>   0.4500 
 55 H       -4.7180   -10.4390     0.2260 H     1 <1>   0.0800 
 56 H       -3.4900   -11.3430     1.0650 H     1 <1>   0.0800 
 57 H       -3.8510    -9.8350    -1.9230 H     1 <1>   0.0800 
 58 H       -2.9770   -11.2960    -1.5280 H     1 <1>   0.0800 
 59 H       -2.1160    -9.9060    -2.1400 H     1 <1>   0.0800 
 60 H       -4.2650    -7.4450     2.5110 H     1 <1>   0.0800 
 61 H       -5.6250    -8.0750     1.6710 H     1 <1>   0.0800 
 62 H       -5.9200    -7.1030    -0.6020 H     1 <1>   0.0800 
 63 H       -5.4430    -8.7700    -0.7380 H     1 <1>   0.0800 
 64 H       -4.7850    -9.9930     2.6350 H     1 <1>   0.0800 
 65 H       -3.1450    -9.4510     2.6000 H     1 <1>   0.0800 
 66 H       -5.3130    -7.5100    -2.6860 H     1 <1>   0.4000 
@<TRIPOS>BOND
  1   1   2  1   
  2   1   3  1   
  3   2   4  ar  
  4   2   5  ar  
  5   3   6  1   
  6   3  31  1   
  7   3  32  1   
  8   4   7  ar  
  9   4  33  1   
 10   5   8  ar  
 11   5  34  1   
 12   6   9  ar  
 13   6  10  ar  
 14   7  11  1   
 15   7  12  ar  
 16   8  12  ar  
 17   8  35  1   
 18   9  13  ar  
 19   9  36  1   
 20  10  14  ar  
 21  10  37  1   
 22  11  15  1   
 23  12  16  1   
 24  13  17  ar  
 25  13  38  1   
 26  14  17  ar  
 27  14  39  1   
 28  15  40  1   
 29  15  41  1   
 30  15  42  1   
 31  16  18  1   
 32  16  43  1   
 33  16  44  1   
 34  17  45  1   
 35  18  19  1   
 36  18  20  1   
 37  18  46  1   
 38  19  21  1   
 39  19  47  1   
 40  19  48  1   
 41  20  22  1   
 42  20  49  1   
 43  20  50  1   
 44  21  23  1   
 45  21  24  1   
 46  21  51  1   
 47  22  24  1   
 48  22  52  1   
 49  22  53  1   
 50  23  25  1   
 51  23  26  1   
 52  23  54  1   
 53  24  27  1   
 54  24  28  1   
 55  25  29  1   
 56  25  55  1   
 57  25  56  1   
 58  26  57  1   
 59  26  58  1   
 60  26  59  1   
 61  27  29  1   
 62  27  60  1   
 63  27  61  1   
 64  28  30  1   
 65  28  62  1   
 66  28  63  1   
 67  29  64  1   
 68  29  65  1   
 69  30  66  1   
@<TRIPOS>SUBSTRUCTURE
  1 ****   7 GROUP 4 **** **** 0

# MOE 2024.06 (io_trps.svl 2023.06)
