@<TRIPOS>MOLECULE
NONAME
44 47 1 0 0 
SMALL
USER_CHARGES


@<TRIPOS>ATOM
  1 S        0.0150     0.6490    -2.0210 S.3   1 <1>  -0.0800 
  2 C       -0.0200     1.9760    -0.8800 C.2   1 <1>  -0.1400 
  3 C        1.7090     0.9670    -2.3670 C.2   1 <1>  -0.1100 
  4 C        1.1690     2.5830    -0.7810 C.2   1 <1>  -0.1810 
  5 C       -1.2610     2.3630    -0.1230 C.3   1 <1>   0.0200 
  6 C        2.1640     2.0070    -1.6410 C.2   1 <1>  -0.1500 
  7 C        1.3750     3.7630     0.1720 C.3   1 <1>   0.4610 
  8 C       -1.0440     3.7890     0.4070 C.3   1 <1>   0.1200 
  9 O        0.2300     3.9280     0.9910 O.3   1 <1>  -0.5600 
 10 C        2.5410     3.4810     1.1260 C.3   1 <1>  -0.1600 
 11 C        1.6250     5.0640    -0.6040 C.3   1 <1>  -0.1600 
 12 C        2.8180     4.6700     2.0470 C.3   1 <1>   0.1400 
 13 C        1.9060     6.2390     0.3350 C.3   1 <1>   0.1400 
 14 N        3.0490     5.8890     1.2210 N.am  1 <1>  -0.6600 
 15 C        4.2820     6.5070     1.1670 C.2   1 <1>   0.5440 
 16 O        5.2550     5.9210     1.6020 O.2   1 <1>  -0.5700 
 17 C        4.4530     7.8290     0.5940 C.ar  1 <1>   0.0860 
 18 C        5.4230     8.0600    -0.3840 C.ar  1 <1>  -0.1500 
 19 C        3.6650     8.9070     1.0060 C.ar  1 <1>  -0.1500 
 20 C        5.6020     9.3090    -0.9570 C.ar  1 <1>  -0.1430 
 21 C        3.8230    10.1640     0.4500 C.ar  1 <1>  -0.1500 
 22 C        4.7860    10.3430    -0.5240 C.ar  1 <1>   0.1900 
 23 C        6.6650     9.5330    -2.0230 C.3   1 <1>  -0.0970 
 24 F        4.9230    11.5330    -1.0430 F     1 <1>  -0.1900 
 25 H        2.1920     0.3310    -3.0870 H     1 <1>   0.1500 
 26 H       -1.4210     1.6810     0.6930 H     1 <1>   0.0800 
 27 H       -2.1200     2.3400    -0.7700 H     1 <1>   0.0800 
 28 H        3.1670     2.3950    -1.6750 H     1 <1>   0.1500 
 29 H       -1.7770     4.0210     1.1590 H     1 <1>   0.0800 
 30 H       -1.1330     4.5020    -0.3920 H     1 <1>   0.0800 
 31 H        3.4340     3.2770     0.5650 H     1 <1>   0.0800 
 32 H        2.3170     2.6080     1.7110 H     1 <1>   0.0800 
 33 H        0.7870     5.2860    -1.2360 H     1 <1>   0.0800 
 34 H        2.4780     4.9310    -1.2450 H     1 <1>   0.0800 
 35 H        3.6730     4.4610     2.6670 H     1 <1>   0.0800 
 36 H        1.9740     4.8380     2.6940 H     1 <1>   0.0800 
 37 H        1.0390     6.4430     0.9410 H     1 <1>   0.0800 
 38 H        2.1230     7.1140    -0.2510 H     1 <1>   0.0800 
 39 H        6.0420     7.2330    -0.6870 H     1 <1>   0.1500 
 40 H        2.9250     8.7490     1.7720 H     1 <1>   0.1500 
 41 H        3.2160    10.9950     0.7630 H     1 <1>   0.1500 
 42 H        7.1930     8.6220    -2.2410 H     1 <1>   0.0800 
 43 H        7.3740    10.2670    -1.6830 H     1 <1>   0.0800 
 44 H        6.2070     9.8900    -2.9290 H     1 <1>   0.0800 
@<TRIPOS>BOND
  1   1   2  1   
  2   1   3  1   
  3   2   4  2   
  4   2   5  1   
  5   3   6  2   
  6   3  25  1   
  7   4   6  1   
  8   4   7  1   
  9   5   8  1   
 10   5  26  1   
 11   5  27  1   
 12   6  28  1   
 13   7   9  1   
 14   7  10  1   
 15   7  11  1   
 16   8   9  1   
 17   8  29  1   
 18   8  30  1   
 19  10  12  1   
 20  10  31  1   
 21  10  32  1   
 22  11  13  1   
 23  11  33  1   
 24  11  34  1   
 25  12  14  1   
 26  12  35  1   
 27  12  36  1   
 28  13  14  1   
 29  13  37  1   
 30  13  38  1   
 31  14  15  am  
 32  15  16  2   
 33  15  17  1   
 34  17  18  ar  
 35  17  19  ar  
 36  18  20  ar  
 37  18  39  1   
 38  19  21  ar  
 39  19  40  1   
 40  20  22  ar  
 41  20  23  1   
 42  21  22  ar  
 43  21  41  1   
 44  22  24  1   
 45  23  42  1   
 46  23  43  1   
 47  23  44  1   
@<TRIPOS>SUBSTRUCTURE
  1 ****  13 GROUP 4 **** **** 0

# MOE 2024.06 (io_trps.svl 2023.06)
