@<TRIPOS>MOLECULE
NONAME
45 48 1 0 0 
SMALL
USER_CHARGES


@<TRIPOS>ATOM
  1 S        0.1020     0.2300    -1.5460 S.3   1 <1>  -0.0800 
  2 C       -1.1370     1.0090    -0.5730 C.2   1 <1>  -0.1400 
  3 C       -1.0020    -1.0750    -1.9640 C.2   1 <1>  -0.1100 
  4 C       -2.2770     0.3050    -0.6060 C.2   1 <1>  -0.1810 
  5 C       -0.8960     2.3110     0.1850 C.3   1 <1>   0.4600 
  6 C       -2.2070    -0.8890    -1.3910 C.2   1 <1>  -0.1500 
  7 C       -3.4850     0.8060     0.1530 C.3   1 <1>   0.0210 
  8 O       -2.0300     2.5730     0.9920 O.3   1 <1>  -0.5600 
  9 C       -0.6760     3.4840    -0.7760 C.3   1 <1>  -0.1600 
 10 C        0.2920     2.1750     1.1390 C.3   1 <1>  -0.1600 
 11 C       -3.3030     2.3070     0.4530 C.3   1 <1>   0.1200 
 12 C       -0.4190     4.7850    -0.0180 C.3   1 <1>   0.2090 
 13 C        0.5780     3.4840     1.8750 C.3   1 <1>   0.2090 
 14 N        0.7320     4.6030     0.9030 N.pl3 1 <1>  -0.8380 
 15 C        1.9960     5.0230     0.5180 C.ar  1 <1>   0.4100 
 16 N        2.8550     4.0510     0.2320 N.ar  1 <1>  -0.6200 
 17 C        2.3250     6.3820     0.4380 C.ar  1 <1>   0.0730 
 18 C        4.0670     4.4040    -0.1510 C.ar  1 <1>   0.1670 
 19 C        1.3730     7.3960     0.7710 C.1   1 <1>   0.4840 
 20 C        3.5980     6.7300     0.0320 C.ar  1 <1>  -0.1500 
 21 C        4.4910     5.7230    -0.2740 C.ar  1 <1>  -0.1430 
 22 C        4.9930     3.2430    -0.4650 C.3   1 <1>  -0.0970 
 23 N        0.6380     8.2400     0.9980 N.1   1 <1>  -0.5570 
 24 C        5.8960     6.0940    -0.7320 C.3   1 <1>  -0.0970 
 25 H       -0.6240    -1.8530    -2.6020 H     1 <1>   0.1500 
 26 H       -3.0550    -1.5430    -1.4880 H     1 <1>   0.1500 
 27 H       -3.5890     0.2590     1.0730 H     1 <1>   0.0800 
 28 H       -4.3750     0.6650    -0.4320 H     1 <1>   0.0800 
 29 H       -1.5190     3.5950    -1.4300 H     1 <1>   0.0800 
 30 H        0.1820     3.2780    -1.3910 H     1 <1>   0.0800 
 31 H        1.1700     1.9020     0.5840 H     1 <1>   0.0800 
 32 H        0.0960     1.3910     1.8450 H     1 <1>   0.0800 
 33 H       -4.0360     2.6330     1.1690 H     1 <1>   0.0800 
 34 H       -3.4200     2.8850    -0.4460 H     1 <1>   0.0800 
 35 H       -1.2890     5.0610     0.5540 H     1 <1>   0.0800 
 36 H       -0.2120     5.5740    -0.7200 H     1 <1>   0.0800 
 37 H        1.4770     3.3840     2.4590 H     1 <1>   0.0800 
 38 H       -0.2340     3.7120     2.5450 H     1 <1>   0.0800 
 39 H        3.8810     7.7660    -0.0420 H     1 <1>   0.1500 
 40 H        4.6300     2.3430     0.0000 H     1 <1>   0.0800 
 41 H        5.9840     3.4300    -0.0970 H     1 <1>   0.0800 
 42 H        5.0270     3.0870    -1.5270 H     1 <1>   0.0800 
 43 H        6.1400     5.5760    -1.6430 H     1 <1>   0.0800 
 44 H        6.6120     5.8280     0.0250 H     1 <1>   0.0800 
 45 H        5.9760     7.1500    -0.9180 H     1 <1>   0.0800 
@<TRIPOS>BOND
  1   1   2  1   
  2   1   3  1   
  3   2   4  2   
  4   2   5  1   
  5   3   6  2   
  6   3  25  1   
  7   4   6  1   
  8   4   7  1   
  9   5   8  1   
 10   5   9  1   
 11   5  10  1   
 12   6  26  1   
 13   7  11  1   
 14   7  27  1   
 15   7  28  1   
 16   8  11  1   
 17   9  12  1   
 18   9  29  1   
 19   9  30  1   
 20  10  13  1   
 21  10  31  1   
 22  10  32  1   
 23  11  33  1   
 24  11  34  1   
 25  12  14  1   
 26  12  35  1   
 27  12  36  1   
 28  13  14  1   
 29  13  37  1   
 30  13  38  1   
 31  14  15  1   
 32  15  16  ar  
 33  15  17  ar  
 34  16  18  ar  
 35  17  19  1   
 36  17  20  ar  
 37  18  21  ar  
 38  18  22  1   
 39  19  23  3   
 40  20  21  ar  
 41  20  39  1   
 42  21  24  1   
 43  22  40  1   
 44  22  41  1   
 45  22  42  1   
 46  24  43  1   
 47  24  44  1   
 48  24  45  1   
@<TRIPOS>SUBSTRUCTURE
  1 ****  14 GROUP 4 **** **** 0

# MOE 2024.06 (io_trps.svl 2023.06)
