@<TRIPOS>MOLECULE
NONAME
51 53 1 0 0 
SMALL
USER_CHARGES


@<TRIPOS>ATOM
  1 O       -2.9370    -0.8630     1.3970 O.co2 1 <1>  -0.9000 
  2 C       -1.9640    -1.2740     0.7510 C.2   1 <1>   0.9060 
  3 O       -1.1290    -0.5060     0.2570 O.co2 1 <1>  -0.9000 
  4 C       -1.7330    -2.7740     0.6480 C.3   1 <1>   0.0140 
  5 O       -2.3860    -3.3740    -0.4710 O.3   1 <1>  -0.3630 
  6 C       -2.4420    -4.7180    -0.6120 C.ar  1 <1>   0.0830 
  7 C       -3.2710    -5.2040    -1.6080 C.ar  1 <1>  -0.1500 
  8 C       -1.7310    -5.6090     0.1830 C.ar  1 <1>  -0.1500 
  9 C       -3.4150    -6.5650    -1.7990 C.ar  1 <1>  -0.1500 
 10 C       -1.8740    -6.9720    -0.0050 C.ar  1 <1>  -0.1500 
 11 C       -2.7270    -7.4570    -0.9880 C.ar  1 <1>  -0.1440 
 12 C       -2.9330    -8.9470    -1.1540 C.3   1 <1>   0.4870 
 13 N       -3.8640    -9.3890    -0.0850 N.4   1 <1>  -0.9590 
 14 C       -5.2020    -8.7560    -0.2050 C.3   1 <1>   0.3430 
 15 C       -4.0960   -10.8560    -0.0410 C.3   1 <1>   0.3430 
 16 C       -6.1200    -9.6360     0.6320 C.3   1 <1>  -0.0800 
 17 C       -5.5230   -11.0520     0.4820 C.3   1 <1>  -0.0800 
 18 C       -7.6190    -9.4930     0.2640 C.3   1 <1>   0.2800 
 19 C       -6.3310   -11.9440    -0.4770 C.3   1 <1>  -0.1600 
 20 O       -7.7240    -9.3050    -1.1000 O.3   1 <1>  -0.6800 
 21 C       -8.3650   -10.7920     0.6160 C.3   1 <1>  -0.1600 
 22 C       -8.3070    -8.2900     0.9470 C.3   1 <1>  -0.1600 
 23 C       -7.8060   -12.0590    -0.0630 C.3   1 <1>  -0.1600 
 24 C       -7.7260    -6.8990     0.6390 C.3   1 <1>  -0.2400 
 25 H       -2.1120    -3.2260     1.5440 H     1 <1>   0.0800 
 26 H       -0.6790    -2.9480     0.5570 H     1 <1>   0.0800 
 27 H       -3.8020    -4.4970    -2.2230 H     1 <1>   0.1500 
 28 H       -1.0660    -5.2490     0.9470 H     1 <1>   0.1500 
 29 H       -4.0710    -6.9110    -2.5800 H     1 <1>   0.1500 
 30 H       -1.3130    -7.6410     0.6240 H     1 <1>   0.1500 
 31 H       -1.9870    -9.4560    -1.0620 H     1 <1>   0.0800 
 32 H       -3.3490    -9.1590    -2.1250 H     1 <1>   0.0800 
 33 H       -3.4730    -9.0770     0.8120 H     1 <1>   0.4500 
 34 H       -5.1900    -7.7350     0.1390 H     1 <1>   0.0800 
 35 H       -5.5210    -8.7770    -1.2340 H     1 <1>   0.0800 
 36 H       -4.0230   -11.2680    -1.0350 H     1 <1>   0.0800 
 37 H       -3.3770   -11.3450     0.5960 H     1 <1>   0.0800 
 38 H       -6.0030    -9.3480     1.6620 H     1 <1>   0.0800 
 39 H       -5.4900   -11.5340     1.4440 H     1 <1>   0.0800 
 40 H       -6.2900   -11.5230    -1.4680 H     1 <1>   0.0800 
 41 H       -5.9000   -12.9300    -0.5290 H     1 <1>   0.0800 
 42 H       -8.6680    -9.2870    -1.3510 H     1 <1>   0.4000 
 43 H       -8.2950   -10.9300     1.6810 H     1 <1>   0.0800 
 44 H       -9.4130   -10.6970     0.3900 H     1 <1>   0.0800 
 45 H       -9.3470    -8.2880     0.6690 H     1 <1>   0.0800 
 46 H       -8.2800    -8.4350     2.0140 H     1 <1>   0.0800 
 47 H       -7.9290   -12.8920     0.6090 H     1 <1>   0.0800 
 48 H       -8.3880   -12.2760    -0.9440 H     1 <1>   0.0800 
 49 H       -7.6560    -6.7330    -0.4220 H     1 <1>   0.0800 
 50 H       -6.7570    -6.7720     1.0840 H     1 <1>   0.0800 
 51 H       -8.3710    -6.1410     1.0500 H     1 <1>   0.0800 
@<TRIPOS>BOND
  1   1   2  ar  
  2   2   3  ar  
  3   2   4  1   
  4   4   5  1   
  5   4  25  1   
  6   4  26  1   
  7   5   6  1   
  8   6   7  ar  
  9   6   8  ar  
 10   7   9  ar  
 11   7  27  1   
 12   8  10  ar  
 13   8  28  1   
 14   9  11  ar  
 15   9  29  1   
 16  10  11  ar  
 17  10  30  1   
 18  11  12  1   
 19  12  13  1   
 20  12  31  1   
 21  12  32  1   
 22  13  14  1   
 23  13  15  1   
 24  13  33  1   
 25  14  16  1   
 26  14  34  1   
 27  14  35  1   
 28  15  17  1   
 29  15  36  1   
 30  15  37  1   
 31  16  17  1   
 32  16  18  1   
 33  16  38  1   
 34  17  19  1   
 35  17  39  1   
 36  18  20  1   
 37  18  21  1   
 38  18  22  1   
 39  19  23  1   
 40  19  40  1   
 41  19  41  1   
 42  20  42  1   
 43  21  23  1   
 44  21  43  1   
 45  21  44  1   
 46  22  24  1   
 47  22  45  1   
 48  22  46  1   
 49  23  47  1   
 50  23  48  1   
 51  24  49  1   
 52  24  50  1   
 53  24  51  1   
@<TRIPOS>SUBSTRUCTURE
  1 ****  14 GROUP 4 **** **** 0

# MOE 2024.06 (io_trps.svl 2023.06)
