@<TRIPOS>MOLECULE
NONAME
49 51 1 0 0 
SMALL
USER_CHARGES


@<TRIPOS>ATOM
  1 O        0.6540    -0.0610     0.0010 O.2   1 <1>  -0.5700 
  2 C        1.6500    -0.7380    -0.1770 C.2   1 <1>   0.5440 
  3 N        2.8520    -0.1040    -0.4270 N.am  1 <1>  -0.6600 
  4 C        1.5420    -2.1840    -0.1060 C.ar  1 <1>   0.0860 
  5 C        4.1810    -0.7630    -0.2160 C.3   1 <1>   0.1400 
  6 C        2.8860     1.3340    -0.8150 C.3   1 <1>   0.1400 
  7 C        0.9490    -2.8050     0.9910 C.ar  1 <1>  -0.1500 
  8 C        2.0220    -3.0040    -1.1270 C.ar  1 <1>  -0.1500 
  9 C        5.0060    -0.0740     0.8790 C.3   1 <1>   0.1400 
 10 C        3.2130     2.2040     0.4030 C.3   1 <1>  -0.1600 
 11 C        0.8600    -4.1820     1.0780 C.ar  1 <1>  -0.1500 
 12 C        1.9350    -4.3820    -1.0450 C.ar  1 <1>  -0.1500 
 13 N        5.5580     1.2310     0.4050 N.am  1 <1>  -0.6600 
 14 C        4.7150     2.4450     0.6080 C.3   1 <1>   0.1400 
 15 C        1.3570    -4.9820     0.0620 C.ar  1 <1>  -0.1430 
 16 C        6.8030     1.2770    -0.2080 C.2   1 <1>   0.7160 
 17 C        1.2620    -6.4960     0.1560 C.3   1 <1>  -0.0160 
 18 O        7.2450     0.2230    -0.6430 O.2   1 <1>  -0.5700 
 19 C        7.6000     2.4970    -0.3650 C.2   1 <1>   0.2030 
 20 C       -0.0450    -6.9950    -0.4690 C.3   1 <1>  -0.1600 
 21 N        7.4550     3.6570     0.2610 N.2   1 <1>  -0.7070 
 22 C        8.6920     2.5740    -1.2430 C.2   1 <1>  -0.1500 
 23 C       -0.1640    -8.5210    -0.3860 C.3   1 <1>  -0.2400 
 24 N        8.4320     4.4470    -0.2070 N.pl3 1 <1>   0.3000 
 25 C        9.1920     3.8180    -1.1190 C.2   1 <1>  -0.3020 
 26 H        4.7360    -0.7660    -1.1380 H     1 <1>   0.0800 
 27 H        4.0420    -1.7850     0.0830 H     1 <1>   0.0800 
 28 H        1.9220     1.6190    -1.2020 H     1 <1>   0.0800 
 29 H        3.6080     1.4860    -1.5990 H     1 <1>   0.0800 
 30 H        0.5530    -2.1900     1.7810 H     1 <1>   0.1500 
 31 H        2.4660    -2.5480    -1.9950 H     1 <1>   0.1500 
 32 H        5.8250    -0.7200     1.1470 H     1 <1>   0.0800 
 33 H        4.4080     0.0680     1.7610 H     1 <1>   0.0800 
 34 H        2.7720     1.7790     1.2870 H     1 <1>   0.0800 
 35 H        2.7520     3.1650     0.2630 H     1 <1>   0.0800 
 36 H        0.3970    -4.6310     1.9400 H     1 <1>   0.1500 
 37 H        2.3160    -4.9890    -1.8490 H     1 <1>   0.1500 
 38 H        4.8910     2.8350     1.5960 H     1 <1>   0.0800 
 39 H        5.0150     3.1980    -0.0990 H     1 <1>   0.0800 
 40 H        1.3090    -6.7960     1.1880 H     1 <1>   0.0800 
 41 H        2.1010    -6.9410    -0.3510 H     1 <1>   0.0800 
 42 H       -0.0860    -6.6900    -1.5010 H     1 <1>   0.0800 
 43 H       -0.8790    -6.5440     0.0410 H     1 <1>   0.0800 
 44 H        9.0320     1.7690    -1.8720 H     1 <1>   0.1500 
 45 H        0.6480    -8.9920    -0.9120 H     1 <1>   0.0800 
 46 H       -1.0900    -8.8420    -0.8310 H     1 <1>   0.0800 
 47 H       -0.1490    -8.8450     0.6400 H     1 <1>   0.0800 
 48 H        8.5610     5.4150     0.1160 H     1 <1>   0.2700 
 49 H       10.0270     4.2790    -1.6140 H     1 <1>   0.1500 
@<TRIPOS>BOND
  1   1   2  2   
  2   2   3  am  
  3   2   4  1   
  4   3   5  1   
  5   3   6  1   
  6   4   7  ar  
  7   4   8  ar  
  8   5   9  1   
  9   5  26  1   
 10   5  27  1   
 11   6  10  1   
 12   6  28  1   
 13   6  29  1   
 14   7  11  ar  
 15   7  30  1   
 16   8  12  ar  
 17   8  31  1   
 18   9  13  1   
 19   9  32  1   
 20   9  33  1   
 21  10  14  1   
 22  10  34  1   
 23  10  35  1   
 24  11  15  ar  
 25  11  36  1   
 26  12  15  ar  
 27  12  37  1   
 28  13  14  1   
 29  13  16  am  
 30  14  38  1   
 31  14  39  1   
 32  15  17  1   
 33  16  18  2   
 34  16  19  1   
 35  17  20  1   
 36  17  40  1   
 37  17  41  1   
 38  19  21  2   
 39  19  22  1   
 40  20  23  1   
 41  20  42  1   
 42  20  43  1   
 43  21  24  1   
 44  22  25  2   
 45  22  44  1   
 46  23  45  1   
 47  23  46  1   
 48  23  47  1   
 49  24  25  1   
 50  24  48  1   
 51  25  49  1   
@<TRIPOS>SUBSTRUCTURE
  1 ****   5 GROUP 4 **** **** 0

# MOE 2024.06 (io_trps.svl 2023.06)
