@<TRIPOS>MOLECULE
NONAME
52 55 1 0 0 
SMALL
USER_CHARGES


@<TRIPOS>ATOM
  1 F        2.8740     1.1290    -2.4680 F     1 <1>  -0.1900 
  2 C        3.5750     1.5710    -1.4610 C.ar  1 <1>   0.1900 
  3 C        3.1140     2.6740    -0.7680 C.ar  1 <1>  -0.1500 
  4 C        4.7500     0.9250    -1.1290 C.ar  1 <1>  -0.1500 
  5 C        3.8610     3.1570     0.2980 C.ar  1 <1>  -0.1440 
  6 C        5.4870     1.4060    -0.0600 C.ar  1 <1>  -0.1500 
  7 C        5.0430     2.5120     0.6480 C.ar  1 <1>  -0.1500 
  8 C        3.3940     4.3800     1.0660 C.3   1 <1>   0.4870 
  9 N        4.2620     5.5350     0.7210 N.4   1 <1>  -0.9590 
 10 C        4.0170     6.7510     1.5740 C.3   1 <1>   0.4230 
 11 C        4.4090     5.7520    -0.7570 C.3   1 <1>   0.3430 
 12 C        2.9730     7.7250     0.9840 C.3   1 <1>   0.1200 
 13 C        5.3660     7.4600     1.8660 C.3   1 <1>   0.1400 
 14 C        4.9550     7.1270    -1.1880 C.3   1 <1>  -0.0800 
 15 O        3.5550     8.6350     0.1000 O.3   1 <1>  -0.5600 
 16 N        6.4420     7.0940     0.8800 N.am  1 <1>  -0.6600 
 17 C        3.8430     8.1890    -1.1820 C.3   1 <1>   0.1200 
 18 C        6.2680     7.5990    -0.5140 C.3   1 <1>   0.1400 
 19 C        7.3400     6.0970     1.1810 C.2   1 <1>   0.6160 
 20 O        6.8780     5.1330     1.7690 O.2   1 <1>  -0.5700 
 21 C        8.7350     6.1220     0.7840 C.2   1 <1>   0.0910 
 22 O        9.2070     7.2960     0.3150 O.3   1 <1>  -0.1530 
 23 C        9.5840     5.0590     0.8620 C.2   1 <1>  -0.1360 
 24 C       10.4760     7.4540    -0.0750 C.2   1 <1>  -0.0610 
 25 C       10.9380     5.1520     0.4560 C.2   1 <1>   0.5410 
 26 C       11.3510     6.4240    -0.0200 C.2   1 <1>  -0.1360 
 27 C       10.8070     8.8510    -0.5590 C.3   1 <1>  -0.1020 
 28 O       11.6940     4.2000     0.5060 O.2   1 <1>  -0.5700 
 29 H        2.1870     3.1270    -1.0730 H     1 <1>   0.1500 
 30 H        5.0750     0.0680    -1.6930 H     1 <1>   0.1500 
 31 H        6.4050     0.9160     0.2210 H     1 <1>   0.1500 
 32 H        5.6370     2.8610     1.4790 H     1 <1>   0.1500 
 33 H        3.4530     4.1770     2.1230 H     1 <1>   0.0800 
 34 H        2.3690     4.5980     0.8150 H     1 <1>   0.0800 
 35 H        5.2180     5.2540     1.0240 H     1 <1>   0.4500 
 36 H        3.6270     6.4210     2.5220 H     1 <1>   0.0800 
 37 H        5.0660     4.9890    -1.1440 H     1 <1>   0.0800 
 38 H        3.4510     5.6110    -1.2290 H     1 <1>   0.0800 
 39 H        2.5620     8.3130     1.7870 H     1 <1>   0.0800 
 40 H        2.1620     7.2100     0.4990 H     1 <1>   0.0800 
 41 H        5.6900     7.1730     2.8520 H     1 <1>   0.0800 
 42 H        5.2430     8.5300     1.8870 H     1 <1>   0.0800 
 43 H        5.1950     7.0150    -2.2310 H     1 <1>   0.0800 
 44 H        2.9360     7.8220    -1.6330 H     1 <1>   0.0800 
 45 H        4.1650     9.0510    -1.7420 H     1 <1>   0.0800 
 46 H        6.3130     8.6760    -0.5060 H     1 <1>   0.0800 
 47 H        7.0940     7.2540    -1.1130 H     1 <1>   0.0800 
 48 H        9.2700     4.1020     1.2360 H     1 <1>   0.1500 
 49 H       12.3780     6.5070    -0.3230 H     1 <1>   0.1500 
 50 H       10.1910     9.1050    -1.4040 H     1 <1>   0.0800 
 51 H       11.8390     8.9170    -0.8540 H     1 <1>   0.0800 
 52 H       10.6290     9.5640     0.2260 H     1 <1>   0.0800 
@<TRIPOS>BOND
  1   1   2  1   
  2   2   3  ar  
  3   2   4  ar  
  4   3   5  ar  
  5   3  29  1   
  6   4   6  ar  
  7   4  30  1   
  8   5   7  ar  
  9   5   8  1   
 10   6   7  ar  
 11   6  31  1   
 12   7  32  1   
 13   8   9  1   
 14   8  33  1   
 15   8  34  1   
 16   9  10  1   
 17   9  11  1   
 18   9  35  1   
 19  10  12  1   
 20  10  13  1   
 21  10  36  1   
 22  11  14  1   
 23  11  37  1   
 24  11  38  1   
 25  12  15  1   
 26  12  39  1   
 27  12  40  1   
 28  13  16  1   
 29  13  41  1   
 30  13  42  1   
 31  14  17  1   
 32  14  18  1   
 33  14  43  1   
 34  15  17  1   
 35  16  18  1   
 36  16  19  am  
 37  17  44  1   
 38  17  45  1   
 39  18  46  1   
 40  18  47  1   
 41  19  20  2   
 42  19  21  1   
 43  21  22  1   
 44  21  23  2   
 45  22  24  1   
 46  23  25  1   
 47  23  48  1   
 48  24  26  2   
 49  24  27  1   
 50  25  26  1   
 51  25  28  2   
 52  26  49  1   
 53  27  50  1   
 54  27  51  1   
 55  27  52  1   
@<TRIPOS>SUBSTRUCTURE
  1 ****  19 GROUP 4 **** **** 0

# MOE 2024.06 (io_trps.svl 2023.06)
