@<TRIPOS>MOLECULE
NONAME
53 56 1 0 0 
SMALL
USER_CHARGES


@<TRIPOS>ATOM
  1 O       -2.4710     0.7950    -2.2800 O.2   1 <1>  -0.5700 
  2 C       -2.1500     1.0270    -1.1330 C.2   1 <1>   0.5440 
  3 N       -2.2270    -0.0090    -0.2260 N.am  1 <1>  -0.6600 
  4 C       -1.8180     2.3740    -0.7320 C.ar  1 <1>   0.0860 
  5 C       -2.7830     0.1890     1.1470 C.3   1 <1>   0.1400 
  6 C       -2.3460    -1.4180    -0.7080 C.3   1 <1>   0.1400 
  7 C       -0.6860     2.6940     0.0280 C.ar  1 <1>   0.0000 
  8 C       -2.6290     3.4500    -1.0480 C.ar  1 <1>  -0.1500 
  9 C       -4.2630    -0.2680     1.2130 C.3   1 <1>   0.4230 
 10 C       -3.8220    -1.8510    -0.6910 C.3   1 <1>   0.3430 
 11 C       -0.5330     3.9890     0.4570 C.ar  1 <1>   0.3970 
 12 C        0.4620     2.0670     0.5490 C.2   1 <1>   0.1080 
 13 C       -2.3530     4.7320    -0.5710 C.ar  1 <1>   0.1660 
 14 N       -4.4540    -1.6790     0.6760 N.4   1 <1>  -0.9590 
 15 C       -5.1740     0.7330     0.4650 C.3   1 <1>   0.1200 
 16 O        0.5650     4.0460     1.1890 O.3   1 <1>  -0.0190 
 17 N       -1.3300     5.0250     0.1970 N.ar  1 <1>  -0.5670 
 18 N        1.1660     2.8800     1.2400 N.2   1 <1>  -0.4100 
 19 C        0.8750     0.6260     0.3230 C.3   1 <1>  -0.0590 
 20 C       -3.2660     5.8850    -0.9330 C.3   1 <1>  -0.0970 
 21 C       -5.9220    -2.0210     0.6990 C.3   1 <1>   0.4230 
 22 O       -6.5080     0.3230     0.5400 O.3   1 <1>  -0.5600 
 23 C       -6.7690    -0.9370    -0.0110 C.3   1 <1>   0.1200 
 24 C       -6.1600    -3.4320     0.1350 C.3   1 <1>  -0.1600 
 25 C       -7.5550    -3.9740     0.4850 C.3   1 <1>  -0.1600 
 26 C       -7.7240    -5.4100    -0.0200 C.3   1 <1>  -0.2400 
 27 H       -2.2000    -0.3790     1.8500 H     1 <1>   0.0800 
 28 H       -2.7150     1.2230     1.4390 H     1 <1>   0.0800 
 29 H       -1.9590    -1.5040    -1.7110 H     1 <1>   0.0800 
 30 H       -1.7610    -2.0670    -0.0810 H     1 <1>   0.0800 
 31 H       -3.4910     3.2930    -1.6720 H     1 <1>   0.1500 
 32 H       -4.5630    -0.2450     2.2480 H     1 <1>   0.0800 
 33 H       -3.8840    -2.8810    -1.0010 H     1 <1>   0.0800 
 34 H       -4.3520    -1.2570    -1.4180 H     1 <1>   0.0800 
 35 H       -3.9830    -2.3230     1.3210 H     1 <1>   0.4500 
 36 H       -4.9000     0.8240    -0.5720 H     1 <1>   0.0800 
 37 H       -5.1110     1.7070     0.9200 H     1 <1>   0.0800 
 38 H        0.6910     0.3420    -0.6970 H     1 <1>   0.0800 
 39 H        0.3310    -0.0230     0.9820 H     1 <1>   0.0800 
 40 H        1.9260     0.5140     0.5230 H     1 <1>   0.0800 
 41 H       -4.0780     5.5640    -1.5590 H     1 <1>   0.0800 
 42 H       -2.7040     6.6370    -1.4560 H     1 <1>   0.0800 
 43 H       -3.6700     6.3220    -0.0370 H     1 <1>   0.0800 
 44 H       -6.2440    -2.0350     1.7280 H     1 <1>   0.0800 
 45 H       -7.8180    -1.1310     0.1270 H     1 <1>   0.0800 
 46 H       -6.5660    -0.9050    -1.0680 H     1 <1>   0.0800 
 47 H       -6.0550    -3.4290    -0.9360 H     1 <1>   0.0800 
 48 H       -5.4310    -4.1050     0.5510 H     1 <1>   0.0800 
 49 H       -7.7000    -3.9640     1.5530 H     1 <1>   0.0800 
 50 H       -8.3230    -3.3650     0.0390 H     1 <1>   0.0800 
 51 H       -6.9970    -6.0630     0.4310 H     1 <1>   0.0800 
 52 H       -7.6140    -5.4540    -1.0900 H     1 <1>   0.0800 
 53 H       -8.7050    -5.7740     0.2320 H     1 <1>   0.0800 
@<TRIPOS>BOND
  1   1   2  2   
  2   2   3  am  
  3   2   4  1   
  4   3   5  1   
  5   3   6  1   
  6   4   7  ar  
  7   4   8  ar  
  8   5   9  1   
  9   5  27  1   
 10   5  28  1   
 11   6  10  1   
 12   6  29  1   
 13   6  30  1   
 14   7  11  ar  
 15   7  12  1   
 16   8  13  ar  
 17   8  31  1   
 18   9  14  1   
 19   9  15  1   
 20   9  32  1   
 21  10  14  1   
 22  10  33  1   
 23  10  34  1   
 24  11  16  1   
 25  11  17  ar  
 26  12  18  2   
 27  12  19  1   
 28  13  17  ar  
 29  13  20  1   
 30  14  21  1   
 31  14  35  1   
 32  15  22  1   
 33  15  36  1   
 34  15  37  1   
 35  16  18  1   
 36  19  38  1   
 37  19  39  1   
 38  19  40  1   
 39  20  41  1   
 40  20  42  1   
 41  20  43  1   
 42  21  23  1   
 43  21  24  1   
 44  21  44  1   
 45  22  23  1   
 46  23  45  1   
 47  23  46  1   
 48  24  25  1   
 49  24  47  1   
 50  24  48  1   
 51  25  26  1   
 52  25  49  1   
 53  25  50  1   
 54  26  51  1   
 55  26  52  1   
 56  26  53  1   
@<TRIPOS>SUBSTRUCTURE
  1 ****   3 GROUP 4 **** **** 0

# MOE 2024.06 (io_trps.svl 2023.06)
