@<TRIPOS>MOLECULE
NONAME
62 65 1 0 0 
SMALL
USER_CHARGES


@<TRIPOS>ATOM
  1 O       -1.4070     1.3310     3.6930 O.2   1 <1>  -0.5700 
  2 C       -1.3670     1.8760     2.6040 C.2   1 <1>   0.5440 
  3 N       -1.8380     1.1720     1.5090 N.am  1 <1>  -0.6600 
  4 C       -0.8710     3.2370     2.5280 C.ar  1 <1>   0.0860 
  5 C       -2.2930     1.8490     0.2560 C.3   1 <1>   0.2200 
  6 C       -1.6070    -0.3040     1.4670 C.3   1 <1>   0.0600 
  7 C        0.1750     3.6220     1.6770 C.ar  1 <1>   0.0830 
  8 C       -1.4380     4.2190     3.3420 C.ar  1 <1>  -0.1500 
  9 C       -3.3870     2.8770     0.5350 C.3   1 <1>  -0.1600 
 10 C       -2.9590     0.9200    -0.7590 C.3   1 <1>  -0.1600 
 11 O        0.7470     2.6760     0.8960 O.3   1 <1>  -0.3620 
 12 C        0.6180     4.9420     1.6530 C.ar  1 <1>  -0.1500 
 13 C       -1.0070     5.5310     3.3070 C.ar  1 <1>  -0.1500 
 14 C       -4.1080     3.0820    -0.8050 C.3   1 <1>  -0.0800 
 15 C       -3.8010     1.8390    -1.6520 C.3   1 <1>  -0.0800 
 16 C        1.3170     2.9710    -0.3630 C.3   1 <1>   0.2630 
 17 C        0.0240     5.8940     2.4590 C.ar  1 <1>  -0.1500 
 18 C       -5.6350     3.1570    -0.6720 C.3   1 <1>  -0.1600 
 19 C       -5.1540     1.2310    -2.0400 C.3   1 <1>  -0.1600 
 20 C        0.9250     1.8700    -1.3390 C.ar  1 <1>  -0.1430 
 21 C       -6.1070     1.7320    -0.9600 C.3   1 <1>   0.4230 
 22 C        0.3570     2.1890    -2.5650 C.ar  1 <1>  -0.1500 
 23 C        1.1210     0.5380    -1.0100 C.ar  1 <1>  -0.1500 
 24 N       -7.5480     1.6110    -1.3450 N.4   1 <1>  -0.9590 
 25 C       -0.0090     1.1880    -3.4480 C.ar  1 <1>  -0.1500 
 26 C        0.7560    -0.4650    -1.8920 C.ar  1 <1>  -0.1500 
 27 C       -7.9660     2.4300    -2.5310 C.3   1 <1>   0.2630 
 28 C       -8.4290     1.9120    -0.1750 C.3   1 <1>   0.2630 
 29 C        0.1910    -0.1400    -3.1120 C.ar  1 <1>  -0.1500 
 30 H       -1.4630     2.3350    -0.2220 H     1 <1>   0.0800 
 31 H       -1.0950    -0.5740     0.5610 H     1 <1>   0.0800 
 32 H       -2.5470    -0.8240     1.5250 H     1 <1>   0.0800 
 33 H       -0.9970    -0.6160     2.2980 H     1 <1>   0.0800 
 34 H       -2.2290     3.9340     4.0150 H     1 <1>   0.1500 
 35 H       -4.0560     2.4770     1.2760 H     1 <1>   0.0800 
 36 H       -2.9770     3.8060     0.8880 H     1 <1>   0.0800 
 37 H       -2.2250     0.3840    -1.3360 H     1 <1>   0.0800 
 38 H       -3.5990     0.2260    -0.2450 H     1 <1>   0.0800 
 39 H        1.4340     5.2400     1.0220 H     1 <1>   0.1500 
 40 H       -1.4660     6.2680     3.9440 H     1 <1>   0.1500 
 41 H       -3.7220     3.9650    -1.2890 H     1 <1>   0.0800 
 42 H       -3.2300     2.1100    -2.5260 H     1 <1>   0.0800 
 43 H        0.9420     3.9160    -0.7110 H     1 <1>   0.0800 
 44 H        2.3850     3.0190    -0.2460 H     1 <1>   0.0800 
 45 H        0.3660     6.9150     2.4370 H     1 <1>   0.1500 
 46 H       -5.9970     3.8430    -1.4150 H     1 <1>   0.0800 
 47 H       -5.9360     3.4950     0.3030 H     1 <1>   0.0800 
 48 H       -5.1150     0.1570    -2.0810 H     1 <1>   0.0800 
 49 H       -5.4250     1.6160    -3.0060 H     1 <1>   0.0800 
 50 H       -5.9260     1.1430    -0.0740 H     1 <1>   0.0800 
 51 H        0.1980     3.2160    -2.8410 H     1 <1>   0.1500 
 52 H        1.5550     0.2790    -0.0590 H     1 <1>   0.1500 
 53 H       -7.6880     0.6200    -1.5920 H     1 <1>   0.4500 
 54 H       -0.4440     1.4410    -4.3990 H     1 <1>   0.1500 
 55 H        0.9150    -1.4960    -1.6280 H     1 <1>   0.1500 
 56 H       -7.8570     3.4810    -2.3220 H     1 <1>   0.0800 
 57 H       -9.0000     2.2370    -2.7700 H     1 <1>   0.0800 
 58 H       -7.3690     2.1840    -3.3930 H     1 <1>   0.0800 
 59 H       -8.3180     2.9420     0.1220 H     1 <1>   0.0800 
 60 H       -8.1690     1.2830     0.6620 H     1 <1>   0.0800 
 61 H       -9.4620     1.7360    -0.4280 H     1 <1>   0.0800 
 62 H       -0.0900    -0.9190    -3.8000 H     1 <1>   0.1500 
@<TRIPOS>BOND
  1   1   2  2   
  2   2   3  am  
  3   2   4  1   
  4   3   5  1   
  5   3   6  1   
  6   4   7  ar  
  7   4   8  ar  
  8   5   9  1   
  9   5  10  1   
 10   5  30  1   
 11   6  31  1   
 12   6  32  1   
 13   6  33  1   
 14   7  11  1   
 15   7  12  ar  
 16   8  13  ar  
 17   8  34  1   
 18   9  14  1   
 19   9  35  1   
 20   9  36  1   
 21  10  15  1   
 22  10  37  1   
 23  10  38  1   
 24  11  16  1   
 25  12  17  ar  
 26  12  39  1   
 27  13  17  ar  
 28  13  40  1   
 29  14  15  1   
 30  14  18  1   
 31  14  41  1   
 32  15  19  1   
 33  15  42  1   
 34  16  20  1   
 35  16  43  1   
 36  16  44  1   
 37  17  45  1   
 38  18  21  1   
 39  18  46  1   
 40  18  47  1   
 41  19  21  1   
 42  19  48  1   
 43  19  49  1   
 44  20  22  ar  
 45  20  23  ar  
 46  21  24  1   
 47  21  50  1   
 48  22  25  ar  
 49  22  51  1   
 50  23  26  ar  
 51  23  52  1   
 52  24  27  1   
 53  24  28  1   
 54  24  53  1   
 55  25  29  ar  
 56  25  54  1   
 57  26  29  ar  
 58  26  55  1   
 59  27  56  1   
 60  27  57  1   
 61  27  58  1   
 62  28  59  1   
 63  28  60  1   
 64  28  61  1   
 65  29  62  1   
@<TRIPOS>SUBSTRUCTURE
  1 ****   5 GROUP 4 **** **** 0

# MOE 2024.06 (io_trps.svl 2023.06)
