@<TRIPOS>MOLECULE
NONAME
52 54 1 0 0 
SMALL
USER_CHARGES


@<TRIPOS>ATOM
  1 O        0.9020     3.4470    -0.6830 O.2   1 <1>  -0.5700 
  2 C       -0.1710     3.9620    -0.8930 C.2   1 <1>   0.5690 
  3 N       -1.1000     4.1740     0.0850 N.am  1 <1>  -0.6600 
  4 C       -0.5150     4.3990    -2.3190 C.3   1 <1>   0.1810 
  5 C       -2.3060     4.9900    -0.2670 C.3   1 <1>   0.3640 
  6 C       -0.8580     3.7830     1.4980 C.3   1 <1>   0.2200 
  7 O       -1.1510     5.6590    -2.4030 O.3   1 <1>  -0.5600 
  8 C       -3.4710     4.1290    -0.7790 C.ar  1 <1>  -0.1440 
  9 C       -1.9320     6.1000    -1.2860 C.3   1 <1>   0.2610 
 10 C       -2.0900     3.1160     2.1110 C.3   1 <1>  -0.2400 
 11 C       -0.4220     5.0070     2.3000 C.3   1 <1>  -0.2400 
 12 C       -3.3330     2.8030    -1.1770 C.ar  1 <1>  -0.1500 
 13 C       -4.7330     4.7080    -0.8360 C.ar  1 <1>  -0.1500 
 14 C       -1.2240     7.2370    -0.5440 C.2   1 <1>   0.5690 
 15 C       -4.4230     2.0840    -1.6340 C.ar  1 <1>  -0.1500 
 16 C       -5.8250     3.9900    -1.2920 C.ar  1 <1>  -0.1500 
 17 O       -1.8090     7.8090     0.3470 O.2   1 <1>  -0.5700 
 18 N        0.0430     7.5840    -0.8970 N.am  1 <1>  -0.7300 
 19 C       -5.6710     2.6770    -1.6940 C.ar  1 <1>  -0.1500 
 20 C        0.8430     8.6700    -0.2910 C.3   1 <1>   0.1400 
 21 C        1.6080     8.1400     0.9200 C.3   1 <1>  -0.0170 
 22 C        2.4960     9.2260     1.5020 C.ar  1 <1>  -0.1440 
 23 C        1.9970    10.1930     2.3500 C.ar  1 <1>  -0.1500 
 24 C        3.8430     9.3060     1.2110 C.ar  1 <1>  -0.1500 
 25 C        2.8440    11.1680     2.8510 C.ar  1 <1>   0.1600 
 26 C        4.6030    10.3220     1.7670 C.ar  1 <1>   0.1600 
 27 N        4.1360    11.2560     2.5790 N.ar  1 <1>  -0.6200 
 28 H       -1.1710     3.6720    -2.7610 H     1 <1>   0.0800 
 29 H        0.3830     4.4460    -2.9080 H     1 <1>   0.0800 
 30 H       -2.6600     5.4780     0.6230 H     1 <1>   0.0800 
 31 H       -0.0540     3.0650     1.5230 H     1 <1>   0.0800 
 32 H       -2.8350     6.5160    -1.6920 H     1 <1>   0.0800 
 33 H       -2.9150     3.8010     2.1890 H     1 <1>   0.0800 
 34 H       -1.8540     2.7660     3.1000 H     1 <1>   0.0800 
 35 H       -2.3840     2.2680     1.5200 H     1 <1>   0.0800 
 36 H       -1.1960     5.7520     2.3370 H     1 <1>   0.0800 
 37 H        0.4620     5.4290     1.8590 H     1 <1>   0.0800 
 38 H       -0.1860     4.7150     3.3070 H     1 <1>   0.0800 
 39 H       -2.3810     2.3060    -1.1330 H     1 <1>   0.1500 
 40 H       -4.8810     5.7280    -0.5240 H     1 <1>   0.1500 
 41 H       -4.3010     1.0590    -1.9400 H     1 <1>   0.1500 
 42 H       -6.7960     4.4530    -1.3330 H     1 <1>   0.1500 
 43 H        0.4650     7.0760    -1.6820 H     1 <1>   0.3700 
 44 H       -6.5180     2.1170    -2.0490 H     1 <1>   0.1500 
 45 H        1.5310     9.0590    -1.0230 H     1 <1>   0.0800 
 46 H        0.1890     9.4690     0.0170 H     1 <1>   0.0800 
 47 H        0.9060     7.8190     1.6690 H     1 <1>   0.0800 
 48 H        2.2080     7.2950     0.6310 H     1 <1>   0.0800 
 49 H        0.9570    10.1980     2.6240 H     1 <1>   0.1500 
 50 H        4.3100     8.5890     0.5610 H     1 <1>   0.1500 
 51 H        2.4360    11.9140     3.5110 H     1 <1>   0.1500 
 52 H        5.6530    10.3680     1.5300 H     1 <1>   0.1500 
@<TRIPOS>BOND
  1   1   2  2   
  2   2   3  am  
  3   2   4  1   
  4   3   5  1   
  5   3   6  1   
  6   4   7  1   
  7   4  28  1   
  8   4  29  1   
  9   5   8  1   
 10   5   9  1   
 11   5  30  1   
 12   6  10  1   
 13   6  11  1   
 14   6  31  1   
 15   7   9  1   
 16   8  12  ar  
 17   8  13  ar  
 18   9  14  1   
 19   9  32  1   
 20  10  33  1   
 21  10  34  1   
 22  10  35  1   
 23  11  36  1   
 24  11  37  1   
 25  11  38  1   
 26  12  15  ar  
 27  12  39  1   
 28  13  16  ar  
 29  13  40  1   
 30  14  17  2   
 31  14  18  am  
 32  15  19  ar  
 33  15  41  1   
 34  16  19  ar  
 35  16  42  1   
 36  18  20  1   
 37  18  43  1   
 38  19  44  1   
 39  20  21  1   
 40  20  45  1   
 41  20  46  1   
 42  21  22  1   
 43  21  47  1   
 44  21  48  1   
 45  22  23  ar  
 46  22  24  ar  
 47  23  25  ar  
 48  23  49  1   
 49  24  26  ar  
 50  24  50  1   
 51  25  27  ar  
 52  25  51  1   
 53  26  27  ar  
 54  26  52  1   
@<TRIPOS>SUBSTRUCTURE
  1 ****  14 GROUP 4 **** **** 0

# MOE 2024.06 (io_trps.svl 2023.06)
