@<TRIPOS>MOLECULE
NONAME
44 46 1 0 0 
SMALL
USER_CHARGES


@<TRIPOS>ATOM
  1 O       -2.1940    -0.5180    -1.0780 O.2   1 <1>  -0.5700 
  2 C       -2.4290     0.3480    -0.2420 C.2   1 <1>   0.6160 
  3 N       -2.1990     1.6890    -0.5690 N.am  1 <1>  -0.4690 
  4 C       -2.9380     0.0230     1.0570 C.2   1 <1>   0.0290 
  5 C       -2.4200     2.6850     0.3640 C.2   1 <1>  -0.0290 
  6 C       -1.6730     2.0320    -1.9280 C.3   1 <1>   0.0600 
  7 C       -3.2090    -1.3450     1.4080 C.2   1 <1>   0.6160 
  8 C       -3.1400     1.0350     1.9590 C.2   1 <1>  -0.1500 
  9 C       -2.8800     2.3700     1.6070 C.2   1 <1>  -0.1500 
 10 C       -2.1410     4.1370     0.0010 C.3   1 <1>  -0.1020 
 11 O       -2.7290    -1.7950     2.4330 O.2   1 <1>  -0.5700 
 12 N       -4.0680    -2.1550     0.6960 N.am  1 <1>  -0.6600 
 13 C       -4.9160    -1.7440    -0.4470 C.3   1 <1>   0.1400 
 14 C       -4.3640    -3.5600     1.0770 C.3   1 <1>   0.1400 
 15 C       -6.0850    -2.7230    -0.4130 C.3   1 <1>   0.2000 
 16 C       -5.4850    -4.0250     0.1290 C.3   1 <1>  -0.0800 
 17 O       -7.0090    -2.2650     0.5120 O.3   1 <1>  -0.6800 
 18 C       -4.9450    -4.9060    -1.0150 C.3   1 <1>  -0.0170 
 19 C       -4.6270    -6.3180    -0.5410 C.ar  1 <1>   0.1670 
 20 N       -3.4090    -6.5300    -0.0700 N.ar  1 <1>  -0.6200 
 21 C       -5.6020    -7.3110    -0.6200 C.ar  1 <1>   0.1600 
 22 C       -3.2330    -7.7830     0.3140 C.ar  1 <1>   0.1600 
 23 N       -5.4300    -8.5660    -0.2360 N.ar  1 <1>  -0.6200 
 24 C       -4.2110    -8.7680     0.2330 C.ar  1 <1>   0.1600 
 25 H       -0.6670     2.4030    -1.8390 H     1 <1>   0.0800 
 26 H       -2.2930     2.7840    -2.3810 H     1 <1>   0.0800 
 27 H       -1.6620     1.1780    -2.5800 H     1 <1>   0.0800 
 28 H       -3.4970     0.8200     2.9520 H     1 <1>   0.1500 
 29 H       -3.0550     3.1300     2.3500 H     1 <1>   0.1500 
 30 H       -2.7720     4.4450    -0.8130 H     1 <1>   0.0800 
 31 H       -1.1110     4.2590    -0.2810 H     1 <1>   0.0800 
 32 H       -2.3360     4.7830     0.8370 H     1 <1>   0.0800 
 33 H       -5.2450    -0.7220    -0.3660 H     1 <1>   0.0800 
 34 H       -4.3580    -1.8730    -1.3590 H     1 <1>   0.0800 
 35 H       -3.4740    -4.1590     0.9910 H     1 <1>   0.0800 
 36 H       -4.7010    -3.5850     2.0990 H     1 <1>   0.0800 
 37 H       -6.5810    -2.8250    -1.3630 H     1 <1>   0.0800 
 38 H       -6.2290    -4.5870     0.6670 H     1 <1>   0.0800 
 39 H       -6.5410    -2.0680     1.3480 H     1 <1>   0.4000 
 40 H       -4.0600    -4.4640    -1.4420 H     1 <1>   0.0800 
 41 H       -5.6810    -4.9690    -1.7960 H     1 <1>   0.0800 
 42 H       -6.5700    -7.0580    -1.0150 H     1 <1>   0.1500 
 43 H       -2.2690    -8.0440     0.7110 H     1 <1>   0.1500 
 44 H       -3.9730    -9.7610     0.5710 H     1 <1>   0.1500 
@<TRIPOS>BOND
  1   1   2  2   
  2   2   3  am  
  3   2   4  1   
  4   3   5  1   
  5   3   6  1   
  6   4   7  1   
  7   4   8  2   
  8   5   9  2   
  9   5  10  1   
 10   6  25  1   
 11   6  26  1   
 12   6  27  1   
 13   7  11  2   
 14   7  12  am  
 15   8   9  1   
 16   8  28  1   
 17   9  29  1   
 18  10  30  1   
 19  10  31  1   
 20  10  32  1   
 21  12  13  1   
 22  12  14  1   
 23  13  15  1   
 24  13  33  1   
 25  13  34  1   
 26  14  16  1   
 27  14  35  1   
 28  14  36  1   
 29  15  16  1   
 30  15  17  1   
 31  15  37  1   
 32  16  18  1   
 33  16  38  1   
 34  17  39  1   
 35  18  19  1   
 36  18  40  1   
 37  18  41  1   
 38  19  20  ar  
 39  19  21  ar  
 40  20  22  ar  
 41  21  23  ar  
 42  21  42  1   
 43  22  24  ar  
 44  22  43  1   
 45  23  24  ar  
 46  24  44  1   
@<TRIPOS>SUBSTRUCTURE
  1 ****  12 GROUP 4 **** **** 0

# MOE 2024.06 (io_trps.svl 2023.06)
