@<TRIPOS>MOLECULE
NONAME
54 56 1 0 0 
SMALL
USER_CHARGES


@<TRIPOS>ATOM
  1 O       -0.6530     0.3770     1.6070 O.2   1 <1>  -0.5700 
  2 C       -1.4330     0.8940     0.8440 C.2   1 <1>   0.5690 
  3 N       -2.2310     0.1650     0.0050 N.am  1 <1>  -0.6600 
  4 C       -1.4710     2.4110     0.8340 C.3   1 <1>  -0.0990 
  5 C       -2.1230    -1.3350    -0.0170 C.3   1 <1>   0.3640 
  6 C       -3.2770     0.7660    -0.8840 C.3   1 <1>   0.1400 
  7 C       -0.5160     2.9740    -0.2280 C.3   1 <1>  -0.0990 
  8 C       -1.1710    -1.8320    -1.1190 C.ar  1 <1>  -0.1440 
  9 C       -3.5190    -2.0260    -0.1320 C.3   1 <1>   0.2000 
 10 C       -4.0610    -0.2950    -1.6700 C.3   1 <1>   0.1200 
 11 C       -0.6560     4.4730    -0.3350 C.2   1 <1>   0.5690 
 12 C       -0.7320    -3.1480    -1.0490 C.ar  1 <1>  -0.1500 
 13 C       -0.7170    -1.0410    -2.1710 C.ar  1 <1>  -0.1500 
 14 O       -4.5160    -1.2720    -0.7890 O.3   1 <1>  -0.5600 
 15 C       -4.0780    -2.3730     1.2520 C.3   1 <1>   0.1200 
 16 O       -1.5340     4.9220    -1.0290 O.2   1 <1>  -0.5700 
 17 N        0.1990     5.2550     0.3660 N.am  1 <1>  -0.7300 
 18 C        0.1170    -3.6700    -2.0090 C.ar  1 <1>  -0.1500 
 19 C        0.1320    -1.5600    -3.1340 C.ar  1 <1>  -0.1500 
 20 O       -3.3530    -3.4200     1.8140 O.3   1 <1>  -0.6800 
 21 C        0.1900     6.7270     0.3800 C.3   1 <1>   0.2200 
 22 C        0.5480    -2.8770    -3.0560 C.ar  1 <1>  -0.1500 
 23 C        1.5710     7.2300    -0.0190 C.3   1 <1>  -0.1600 
 24 C        0.0460     7.2020     1.8200 C.3   1 <1>  -0.1600 
 25 C        2.4310     7.1430     1.2480 C.3   1 <1>  -0.1600 
 26 C        1.4510     7.1260     2.4290 C.3   1 <1>  -0.1600 
 27 H       -2.4700     2.7630     0.6620 H     1 <1>   0.0800 
 28 H       -1.1720     2.7670     1.8040 H     1 <1>   0.0800 
 29 H       -1.6830    -1.6600     0.9110 H     1 <1>   0.0800 
 30 H       -3.9760     1.3190    -0.2810 H     1 <1>   0.0800 
 31 H       -2.8190     1.4510    -1.5760 H     1 <1>   0.0800 
 32 H       -0.7390     2.5460    -1.1880 H     1 <1>   0.0800 
 33 H        0.4980     2.7160     0.0190 H     1 <1>   0.0800 
 34 H       -3.4180    -2.9390    -0.6910 H     1 <1>   0.0800 
 35 H       -3.4540    -0.7600    -2.4270 H     1 <1>   0.0800 
 36 H       -4.9190     0.1500    -2.1420 H     1 <1>   0.0800 
 37 H       -1.0480    -3.7790    -0.2350 H     1 <1>   0.1500 
 38 H       -1.0100    -0.0130    -2.2550 H     1 <1>   0.1500 
 39 H       -5.1070    -2.6800     1.1820 H     1 <1>   0.0800 
 40 H       -3.9980    -1.5230     1.9080 H     1 <1>   0.0800 
 41 H        0.9210     4.8370     0.9510 H     1 <1>   0.3700 
 42 H        0.4450    -4.6920    -1.9400 H     1 <1>   0.1500 
 43 H        0.4720    -0.9380    -3.9430 H     1 <1>   0.1500 
 44 H       -3.6440    -4.2790     1.4470 H     1 <1>   0.4000 
 45 H       -0.5880     7.1120    -0.2600 H     1 <1>   0.0800 
 46 H        1.2070    -3.2810    -3.8040 H     1 <1>   0.1500 
 47 H        1.9840     6.6750    -0.8430 H     1 <1>   0.0800 
 48 H        1.4840     8.2620    -0.3110 H     1 <1>   0.0800 
 49 H       -0.2730     8.2300     1.8070 H     1 <1>   0.0800 
 50 H       -0.6790     6.6270     2.3690 H     1 <1>   0.0800 
 51 H        3.0050     6.2330     1.2400 H     1 <1>   0.0800 
 52 H        3.1070     7.9790     1.3100 H     1 <1>   0.0800 
 53 H        1.6250     7.9530     3.0960 H     1 <1>   0.0800 
 54 H        1.5630     6.2080     2.9800 H     1 <1>   0.0800 
@<TRIPOS>BOND
  1   1   2  2   
  2   2   3  am  
  3   2   4  1   
  4   3   5  1   
  5   3   6  1   
  6   4   7  1   
  7   4  27  1   
  8   4  28  1   
  9   5   8  1   
 10   5   9  1   
 11   5  29  1   
 12   6  10  1   
 13   6  30  1   
 14   6  31  1   
 15   7  11  1   
 16   7  32  1   
 17   7  33  1   
 18   8  12  ar  
 19   8  13  ar  
 20   9  14  1   
 21   9  15  1   
 22   9  34  1   
 23  10  14  1   
 24  10  35  1   
 25  10  36  1   
 26  11  16  2   
 27  11  17  am  
 28  12  18  ar  
 29  12  37  1   
 30  13  19  ar  
 31  13  38  1   
 32  15  20  1   
 33  15  39  1   
 34  15  40  1   
 35  17  21  1   
 36  17  41  1   
 37  18  22  ar  
 38  18  42  1   
 39  19  22  ar  
 40  19  43  1   
 41  20  44  1   
 42  21  23  1   
 43  21  24  1   
 44  21  45  1   
 45  22  46  1   
 46  23  25  1   
 47  23  47  1   
 48  23  48  1   
 49  24  26  1   
 50  24  49  1   
 51  24  50  1   
 52  25  26  1   
 53  25  51  1   
 54  25  52  1   
 55  26  53  1   
 56  26  54  1   
@<TRIPOS>SUBSTRUCTURE
  1 ****   2 GROUP 4 **** **** 0

# MOE 2024.06 (io_trps.svl 2023.06)
