@<TRIPOS>MOLECULE
NONAME
48 51 1 0 0 
SMALL
USER_CHARGES


@<TRIPOS>ATOM
  1 O        1.5680    -0.3700     2.9400 O.2   1 <1>  -0.5700 
  2 C        1.8270    -0.8090     1.8320 C.2   1 <1>   0.5650 
  3 N        1.7990    -0.0150     0.6590 N.pl3 1 <1>   0.5610 
  4 C        2.1640    -2.1890     1.6700 C.2   1 <1>  -0.1360 
  5 N        1.5100     1.2820     0.4140 N.2   1 <1>  -0.7070 
  6 C        2.0860    -0.5820    -0.5400 C.2   1 <1>   0.2700 
  7 C        2.4490    -2.7390     0.4570 C.2   1 <1>  -0.0380 
  8 C        1.6510     1.3710    -0.8650 C.2   1 <1>   0.3660 
  9 N        2.0050     0.2470    -1.5130 N.2   1 <1>  -0.5650 
 10 N        2.4230    -1.9230    -0.6610 N.pl3 1 <1>  -0.5840 
 11 C        2.7920    -4.2200     0.2920 C.3   1 <1>   0.4810 
 12 N        1.5690    -4.9780    -0.1010 N.4   1 <1>  -0.9590 
 13 C        1.7720    -6.4590    -0.0880 C.3   1 <1>   0.3430 
 14 C        1.0140    -4.6410    -1.4350 C.3   1 <1>   0.3430 
 15 C        0.9750    -7.0390    -1.2640 C.3   1 <1>   0.0630 
 16 C        0.1590    -5.8470    -1.7760 C.3   1 <1>  -0.1600 
 17 C        0.2000    -8.2990    -0.8570 C.ar  1 <1>  -0.1430 
 18 C        0.8780    -9.3440    -0.2250 C.ar  1 <1>   0.0830 
 19 C       -1.1590    -8.4410    -1.1130 C.ar  1 <1>  -0.1500 
 20 O        2.2280    -9.2050    -0.0670 O.3   1 <1>  -0.3630 
 21 C        0.1820   -10.4800     0.2200 C.ar  1 <1>   0.0830 
 22 C       -1.8410    -9.5730    -0.7100 C.ar  1 <1>  -0.1500 
 23 C        3.0790   -10.2810    -0.4160 C.3   1 <1>   0.0400 
 24 O        0.8520   -11.4440     0.9160 O.3   1 <1>  -0.3630 
 25 C       -1.1800   -10.5840    -0.0400 C.ar  1 <1>  -0.1500 
 26 C        0.1950   -12.5610     1.4750 C.3   1 <1>   0.0400 
 27 H        2.1730    -2.7610     2.5810 H     1 <1>   0.1500 
 28 H        1.4960     2.2900    -1.4110 H     1 <1>   0.1500 
 29 H        2.7250    -2.1940    -1.6060 H     1 <1>   0.4000 
 30 H        3.1610    -4.6010     1.2310 H     1 <1>   0.0800 
 31 H        3.5660    -4.3410    -0.4480 H     1 <1>   0.0800 
 32 H        0.8330    -4.7720     0.5870 H     1 <1>   0.4500 
 33 H        1.4160    -6.8800     0.8390 H     1 <1>   0.0800 
 34 H        2.8120    -6.7160    -0.2050 H     1 <1>   0.0800 
 35 H        1.8110    -4.5480    -2.1560 H     1 <1>   0.0800 
 36 H        0.4370    -3.7300    -1.4120 H     1 <1>   0.0800 
 37 H        1.6820    -7.3240    -2.0260 H     1 <1>   0.0800 
 38 H       -0.0410    -5.9140    -2.8310 H     1 <1>   0.0800 
 39 H       -0.7710    -5.7500    -1.2440 H     1 <1>   0.0800 
 40 H       -1.7220    -7.6890    -1.6350 H     1 <1>   0.1500 
 41 H       -2.8930    -9.6690    -0.9160 H     1 <1>   0.1500 
 42 H        4.0350    -9.8800    -0.7000 H     1 <1>   0.0800 
 43 H        2.6480   -10.8250    -1.2380 H     1 <1>   0.0800 
 44 H        3.1970   -10.9230     0.4380 H     1 <1>   0.0800 
 45 H       -1.7480   -11.4410     0.2670 H     1 <1>   0.1500 
 46 H        0.9250   -13.1470     2.0020 H     1 <1>   0.0800 
 47 H       -0.2380   -13.1440     0.6820 H     1 <1>   0.0800 
 48 H       -0.5590   -12.2170     2.1600 H     1 <1>   0.0800 
@<TRIPOS>BOND
  1   1   2  2   
  2   2   3  1   
  3   2   4  1   
  4   3   5  1   
  5   3   6  1   
  6   4   7  2   
  7   4  27  1   
  8   5   8  2   
  9   6   9  2   
 10   6  10  1   
 11   7  10  1   
 12   7  11  1   
 13   8   9  1   
 14   8  28  1   
 15  10  29  1   
 16  11  12  1   
 17  11  30  1   
 18  11  31  1   
 19  12  13  1   
 20  12  14  1   
 21  12  32  1   
 22  13  15  1   
 23  13  33  1   
 24  13  34  1   
 25  14  16  1   
 26  14  35  1   
 27  14  36  1   
 28  15  16  1   
 29  15  17  1   
 30  15  37  1   
 31  16  38  1   
 32  16  39  1   
 33  17  18  ar  
 34  17  19  ar  
 35  18  20  1   
 36  18  21  ar  
 37  19  22  ar  
 38  19  40  1   
 39  20  23  1   
 40  21  24  1   
 41  21  25  ar  
 42  22  25  ar  
 43  22  41  1   
 44  23  42  1   
 45  23  43  1   
 46  23  44  1   
 47  24  26  1   
 48  25  45  1   
 49  26  46  1   
 50  26  47  1   
 51  26  48  1   
@<TRIPOS>SUBSTRUCTURE
  1 ****  12 GROUP 4 **** **** 0

# MOE 2024.06 (io_trps.svl 2023.06)
