@<TRIPOS>MOLECULE
NONAME
47 50 1 0 0 
SMALL
USER_CHARGES


@<TRIPOS>ATOM
  1 O        3.8630    -1.1800    -2.0600 O.2   1 <1>  -0.5700 
  2 C        3.0430    -1.2350    -1.1590 C.2   1 <1>   0.6160 
  3 N        2.9780    -0.1330    -0.3440 N.am  1 <1>  -0.6600 
  4 C        2.2720    -2.4330    -0.8800 C.2   1 <1>   0.0140 
  5 C        3.6230    -0.2640     1.0090 C.3   1 <1>   0.2200 
  6 C        2.8820     1.2240    -0.9720 C.3   1 <1>   0.1400 
  7 C        1.1360    -2.4020    -0.1310 C.2   1 <1>  -0.1780 
  8 C        2.7570    -3.6770    -1.4380 C.2   1 <1>  -0.1500 
  9 C        3.1350     0.7870     2.0190 C.3   1 <1>   0.1200 
 10 C        5.1700    -0.2370     0.8850 C.3   1 <1>   0.3430 
 11 C        3.9180     2.2500    -0.4730 C.3   1 <1>  -0.0800 
 12 C        0.2740    -3.4930     0.2520 C.ar  1 <1>   0.0280 
 13 C        2.6190    -4.9030    -0.9060 C.2   1 <1>  -0.0730 
 14 O        3.8990     1.9520     1.9250 O.3   1 <1>  -0.5600 
 15 N        5.6480     0.3500    -0.4180 N.4   1 <1>  -0.9590 
 16 C        3.5480     2.8240     0.9040 C.3   1 <1>   0.1200 
 17 C        5.3990     1.8200    -0.5510 C.3   1 <1>   0.3430 
 18 C        0.7130    -4.8130     0.4370 C.ar  1 <1>   0.0820 
 19 C       -1.0760    -3.2340     0.4760 C.ar  1 <1>  -0.1500 
 20 O        2.0170    -5.1700     0.2750 O.3   1 <1>  -0.1590 
 21 C        7.0710     0.0040    -0.6890 C.3   1 <1>   0.2630 
 22 C       -0.1610    -5.8100     0.8310 C.ar  1 <1>  -0.1500 
 23 C       -1.9540    -4.2320     0.8650 C.ar  1 <1>  -0.1500 
 24 C       -1.4990    -5.5230     1.0440 C.ar  1 <1>  -0.1500 
 25 H        3.3440    -1.2220     1.4150 H     1 <1>   0.0800 
 26 H        2.9850     1.1260    -2.0410 H     1 <1>   0.0800 
 27 H        1.8910     1.6070    -0.7950 H     1 <1>   0.0800 
 28 H        0.7850    -1.4500     0.2260 H     1 <1>   0.1500 
 29 H        3.2810    -3.5760    -2.3740 H     1 <1>   0.1500 
 30 H        3.2800     0.4100     3.0170 H     1 <1>   0.0800 
 31 H        2.0900     1.0130     1.8940 H     1 <1>   0.0800 
 32 H        5.5200    -1.2530     0.9590 H     1 <1>   0.0800 
 33 H        5.5890     0.3090     1.7150 H     1 <1>   0.0800 
 34 H        3.8270     3.0900    -1.1380 H     1 <1>   0.0800 
 35 H        3.0010    -5.7950    -1.3720 H     1 <1>   0.1500 
 36 H        5.0550    -0.1130    -1.1460 H     1 <1>   0.4500 
 37 H        2.4970     3.0470     0.9770 H     1 <1>   0.0800 
 38 H        4.0930     3.7370     1.0770 H     1 <1>   0.0800 
 39 H        5.9550     2.3480     0.2080 H     1 <1>   0.0800 
 40 H        5.7810     2.1370    -1.5080 H     1 <1>   0.0800 
 41 H       -1.4540    -2.2360     0.3420 H     1 <1>   0.1500 
 42 H        7.7130     0.4510     0.0520 H     1 <1>   0.0800 
 43 H        7.3610     0.3630    -1.6630 H     1 <1>   0.0800 
 44 H        7.2040    -1.0650    -0.6670 H     1 <1>   0.0800 
 45 H        0.2030    -6.8120     0.9730 H     1 <1>   0.1500 
 46 H       -2.9930    -4.0010     1.0290 H     1 <1>   0.1500 
 47 H       -2.1770    -6.3020     1.3480 H     1 <1>   0.1500 
@<TRIPOS>BOND
  1   1   2  2   
  2   2   3  am  
  3   2   4  1   
  4   3   5  1   
  5   3   6  1   
  6   4   7  2   
  7   4   8  1   
  8   5   9  1   
  9   5  10  1   
 10   5  25  1   
 11   6  11  1   
 12   6  26  1   
 13   6  27  1   
 14   7  12  1   
 15   7  28  1   
 16   8  13  2   
 17   8  29  1   
 18   9  14  1   
 19   9  30  1   
 20   9  31  1   
 21  10  15  1   
 22  10  32  1   
 23  10  33  1   
 24  11  16  1   
 25  11  17  1   
 26  11  34  1   
 27  12  18  ar  
 28  12  19  ar  
 29  13  20  1   
 30  13  35  1   
 31  14  16  1   
 32  15  17  1   
 33  15  21  1   
 34  15  36  1   
 35  16  37  1   
 36  16  38  1   
 37  17  39  1   
 38  17  40  1   
 39  18  20  1   
 40  18  22  ar  
 41  19  23  ar  
 42  19  41  1   
 43  21  42  1   
 44  21  43  1   
 45  21  44  1   
 46  22  24  ar  
 47  22  45  1   
 48  23  24  ar  
 49  23  46  1   
 50  24  47  1   
@<TRIPOS>SUBSTRUCTURE
  1 ****   4 GROUP 4 **** **** 0

# MOE 2024.06 (io_trps.svl 2023.06)
