@<TRIPOS>MOLECULE
NONAME
48 50 1 0 0 
SMALL
USER_CHARGES


@<TRIPOS>ATOM
  1 O        5.0600    -1.2280    -0.2020 O.2   1 <1>  -0.5700 
  2 C        3.8450    -1.2510    -0.2870 C.2   1 <1>   0.5440 
  3 N        3.2710    -0.3210    -1.1210 N.am  1 <1>  -0.6600 
  4 C        3.0540    -2.1680     0.5140 C.ar  1 <1>   0.0860 
  5 C        3.9090     0.0360    -2.4320 C.3   1 <1>   0.1400 
  6 C        2.2960     0.6690    -0.5950 C.3   1 <1>   0.1400 
  7 C        1.7660    -2.5490     0.1720 C.ar  1 <1>  -0.1500 
  8 C        3.5340    -2.7370     1.6870 C.ar  1 <1>  -0.1500 
  9 C        5.1670     0.9200    -2.2790 C.3   1 <1>   0.3430 
 10 C        3.0270     1.7940     0.1520 C.3   1 <1>  -0.1600 
 11 C        1.0460    -3.4100     0.9790 C.ar  1 <1>   0.3920 
 12 C        2.7420    -3.5930     2.4260 C.ar  1 <1>   0.1600 
 13 N        5.2440     1.5530    -0.9280 N.4   1 <1>  -0.9590 
 14 C        4.1260     2.4990    -0.6490 C.3   1 <1>   0.3430 
 15 O       -0.2040    -3.7160     0.5760 O.3   1 <1>  -0.3630 
 16 N        1.5090    -3.9390     2.1050 N.ar  1 <1>  -0.6200 
 17 C        6.5830     2.1020    -0.6220 C.3   1 <1>   0.5230 
 18 C       -1.0120    -4.6050     1.3240 C.3   1 <1>   0.0400 
 19 C        6.6140     2.4500     0.8460 C.2   1 <1>  -0.3320 
 20 N        6.7660     1.5550     1.8500 N.pl3 1 <1>   0.3140 
 21 C        6.5060     3.6690     1.4210 C.2   1 <1>  -0.1500 
 22 N        6.7230     2.1620     3.0420 N.2   1 <1>  -0.7070 
 23 C        6.9940     0.1020     1.7910 C.3   1 <1>   0.0160 
 24 C        6.5780     3.4240     2.7850 C.2   1 <1>   0.1390 
 25 H        3.1910     0.5420    -3.0540 H     1 <1>   0.0800 
 26 H        4.1840    -0.8700    -2.9460 H     1 <1>   0.0800 
 27 H        1.6090     0.1860     0.0800 H     1 <1>   0.0800 
 28 H        1.7170     1.0750    -1.4080 H     1 <1>   0.0800 
 29 H        1.3050    -2.1860    -0.7270 H     1 <1>   0.1500 
 30 H        4.5300    -2.5140     2.0230 H     1 <1>   0.1500 
 31 H        5.1860     1.6690    -3.0540 H     1 <1>   0.0800 
 32 H        6.0270     0.2850    -2.4160 H     1 <1>   0.0800 
 33 H        3.4400     1.4140     1.0710 H     1 <1>   0.0800 
 34 H        2.2950     2.5310     0.4310 H     1 <1>   0.0800 
 35 H        3.1420    -4.0180     3.3330 H     1 <1>   0.1500 
 36 H        5.1050     0.7480    -0.2890 H     1 <1>   0.4500 
 37 H        4.4860     3.3310    -0.0670 H     1 <1>   0.0800 
 38 H        3.7240     2.8880    -1.5710 H     1 <1>   0.0800 
 39 H        6.7640     2.9860    -1.2120 H     1 <1>   0.0800 
 40 H        7.3490     1.3760    -0.8420 H     1 <1>   0.0800 
 41 H       -1.9570    -4.7080     0.8230 H     1 <1>   0.0800 
 42 H       -1.1570    -4.1970     2.3090 H     1 <1>   0.0800 
 43 H       -0.5180    -5.5590     1.3830 H     1 <1>   0.0800 
 44 H        6.3890     4.6420     0.9750 H     1 <1>   0.1500 
 45 H        7.2830    -0.1960     0.8020 H     1 <1>   0.0800 
 46 H        6.0930    -0.4050     2.0800 H     1 <1>   0.0800 
 47 H        7.7760    -0.1530     2.4820 H     1 <1>   0.0800 
 48 H        6.5230     4.1820     3.5500 H     1 <1>   0.1500 
@<TRIPOS>BOND
  1   1   2  2   
  2   2   3  am  
  3   2   4  1   
  4   3   5  1   
  5   3   6  1   
  6   4   7  ar  
  7   4   8  ar  
  8   5   9  1   
  9   5  25  1   
 10   5  26  1   
 11   6  10  1   
 12   6  27  1   
 13   6  28  1   
 14   7  11  ar  
 15   7  29  1   
 16   8  12  ar  
 17   8  30  1   
 18   9  13  1   
 19   9  31  1   
 20   9  32  1   
 21  10  14  1   
 22  10  33  1   
 23  10  34  1   
 24  11  15  1   
 25  11  16  ar  
 26  12  16  ar  
 27  12  35  1   
 28  13  14  1   
 29  13  17  1   
 30  13  36  1   
 31  14  37  1   
 32  14  38  1   
 33  15  18  1   
 34  17  19  1   
 35  17  39  1   
 36  17  40  1   
 37  18  41  1   
 38  18  42  1   
 39  18  43  1   
 40  19  20  1   
 41  19  21  2   
 42  20  22  1   
 43  20  23  1   
 44  21  24  1   
 45  21  44  1   
 46  22  24  2   
 47  23  45  1   
 48  23  46  1   
 49  23  47  1   
 50  24  48  1   
@<TRIPOS>SUBSTRUCTURE
  1 ****   2 GROUP 4 **** **** 0

# MOE 2024.06 (io_trps.svl 2023.06)
