@<TRIPOS>MOLECULE
NONAME
48 51 1 0 0 
SMALL
USER_CHARGES


@<TRIPOS>ATOM
  1 CL      -2.0180    -7.3710     3.3570 Cl    1 <1>  -0.1770 
  2 C       -1.7020    -6.4470     1.9070 C.ar  1 <1>   0.1770 
  3 C       -0.8440    -6.9500     0.9400 C.ar  1 <1>   0.0830 
  4 C       -2.3380    -5.2340     1.7300 C.ar  1 <1>  -0.1500 
  5 O       -0.2380    -8.1410     1.0960 O.3   1 <1>  -0.5330 
  6 C       -0.6060    -6.2160    -0.2080 C.ar  1 <1>  -0.1500 
  7 C       -2.1220    -4.5080     0.5660 C.ar  1 <1>  -0.1440 
  8 C       -1.2390    -4.9970    -0.3900 C.ar  1 <1>  -0.1500 
  9 C       -2.8720    -3.1950     0.3470 C.3   1 <1>   0.0440 
 10 C       -4.3770    -3.4150     0.4460 C.2   1 <1>   0.5690 
 11 O       -4.9380    -2.9880     1.4250 O.2   1 <1>  -0.5700 
 12 N       -5.0660    -4.1510    -0.4910 N.am  1 <1>  -0.6600 
 13 C       -6.4810    -4.5790    -0.2380 C.3   1 <1>   0.1400 
 14 C       -4.4400    -4.9470    -1.5870 C.3   1 <1>   0.1400 
 15 C       -6.5820    -6.1120    -0.0090 C.3   1 <1>   0.4230 
 16 C       -4.3720    -6.4430    -1.1960 C.3   1 <1>   0.3430 
 17 N       -5.2230    -6.7890     0.0080 N.4   1 <1>  -0.9590 
 18 C       -7.5070    -6.7840    -1.0480 C.3   1 <1>   0.1200 
 19 C       -5.3900    -8.2620     0.2240 C.3   1 <1>   0.5180 
 20 O       -7.5920    -8.1620    -0.8100 O.3   1 <1>  -0.5600 
 21 C       -4.0040    -8.9360     0.2590 C.3   1 <1>  -0.1950 
 22 C       -6.3720    -8.8580    -0.8150 C.3   1 <1>   0.1200 
 23 C       -3.2310    -9.3910    -0.9440 C.3   1 <1>  -0.2000 
 24 C       -3.7970   -10.4000     0.0140 C.3   1 <1>  -0.2000 
 25 H       -2.9940    -4.8620     2.5000 H     1 <1>   0.1500 
 26 H       -0.3520    -8.5150     1.9930 H     1 <1>   0.4500 
 27 H        0.0790    -6.5990    -0.9460 H     1 <1>   0.1500 
 28 H       -1.0320    -4.4310    -1.2840 H     1 <1>   0.1500 
 29 H       -2.6390    -2.7640    -0.6080 H     1 <1>   0.0800 
 30 H       -2.5730    -2.4890     1.1010 H     1 <1>   0.0800 
 31 H       -6.8830    -4.0750     0.6250 H     1 <1>   0.0800 
 32 H       -7.0910    -4.2820    -1.0730 H     1 <1>   0.0800 
 33 H       -5.0390    -4.8430    -2.4750 H     1 <1>   0.0800 
 34 H       -3.4610    -4.5820    -1.8340 H     1 <1>   0.0800 
 35 H       -7.0500    -6.2540     0.9510 H     1 <1>   0.0800 
 36 H       -3.3440    -6.6930    -0.9840 H     1 <1>   0.0800 
 37 H       -4.6730    -7.0330    -2.0450 H     1 <1>   0.0800 
 38 H       -4.7260    -6.4000     0.8190 H     1 <1>   0.4500 
 39 H       -7.1520    -6.6290    -2.0520 H     1 <1>   0.0800 
 40 H       -8.5030    -6.3830    -0.9720 H     1 <1>   0.0800 
 41 H       -5.8400    -8.4160     1.1920 H     1 <1>   0.0800 
 42 H       -3.4330    -8.5550     1.0870 H     1 <1>   0.1000 
 43 H       -6.5900    -9.8820    -0.5700 H     1 <1>   0.0800 
 44 H       -5.9630    -8.8270    -1.8090 H     1 <1>   0.0800 
 45 H       -3.6510    -9.3730    -1.9350 H     1 <1>   0.1000 
 46 H       -2.1600    -9.2570    -0.9580 H     1 <1>   0.1000 
 47 H       -3.1090   -10.9410     0.6440 H     1 <1>   0.1000 
 48 H       -4.5930   -11.0330    -0.3410 H     1 <1>   0.1000 
@<TRIPOS>BOND
  1   1   2  1   
  2   2   3  ar  
  3   2   4  ar  
  4   3   5  1   
  5   3   6  ar  
  6   4   7  ar  
  7   4  25  1   
  8   5  26  1   
  9   6   8  ar  
 10   6  27  1   
 11   7   8  ar  
 12   7   9  1   
 13   8  28  1   
 14   9  10  1   
 15   9  29  1   
 16   9  30  1   
 17  10  11  2   
 18  10  12  am  
 19  12  13  1   
 20  12  14  1   
 21  13  15  1   
 22  13  31  1   
 23  13  32  1   
 24  14  16  1   
 25  14  33  1   
 26  14  34  1   
 27  15  17  1   
 28  15  18  1   
 29  15  35  1   
 30  16  17  1   
 31  16  36  1   
 32  16  37  1   
 33  17  19  1   
 34  17  38  1   
 35  18  20  1   
 36  18  39  1   
 37  18  40  1   
 38  19  21  1   
 39  19  22  1   
 40  19  41  1   
 41  20  22  1   
 42  21  23  1   
 43  21  24  1   
 44  21  42  1   
 45  22  43  1   
 46  22  44  1   
 47  23  24  1   
 48  23  45  1   
 49  23  46  1   
 50  24  47  1   
 51  24  48  1   
@<TRIPOS>SUBSTRUCTURE
  1 ****  17 GROUP 4 **** **** 0

# MOE 2024.06 (io_trps.svl 2023.06)
