@<TRIPOS>MOLECULE
NONAME
42 43 1 0 0 
SMALL
USER_CHARGES


@<TRIPOS>ATOM
  1 S       -0.3730     0.2340    -1.6590 S.o2  1 <1>   1.4470 
  2 O       -0.7900     1.3550    -2.4790 O.2   1 <1>  -0.6500 
  3 O       -0.2630    -1.0350    -2.3470 O.2   1 <1>  -0.6500 
  4 N       -1.5930     0.0410    -0.4950 N.am  1 <1>  -0.8490 
  5 C        1.1240     0.6920    -0.6880 C.ar  1 <1>  -0.0090 
  6 C       -1.2770    -0.9750     0.5390 C.3   1 <1>   0.1960 
  7 C       -2.9050    -0.1270    -1.1390 C.3   1 <1>   0.1960 
  8 C        1.2270     1.9610    -0.0970 C.ar  1 <1>  -0.1440 
  9 C        2.1900    -0.1980    -0.4790 C.ar  1 <1>  -0.1440 
 10 C       -2.0020    -2.2930     0.2900 C.3   1 <1>  -0.1860 
 11 C       -3.9470    -0.6900    -0.1710 C.3   1 <1>  -0.1600 
 12 C        2.3520     2.3260     0.6270 C.ar  1 <1>  -0.1500 
 13 C        0.1220     3.0090    -0.2030 C.3   1 <1>  -0.0970 
 14 C        3.3040     0.1860     0.2510 C.ar  1 <1>  -0.1500 
 15 C        2.2040    -1.6290    -1.0130 C.3   1 <1>  -0.0970 
 16 C       -1.4380    -3.3620     1.2040 C.2   1 <1>   0.9060 
 17 C       -3.5240    -2.0650     0.3710 C.3   1 <1>   0.2000 
 18 C        3.3980     1.4460     0.8020 C.ar  1 <1>  -0.1440 
 19 O       -0.2350    -3.6160     1.1160 O.co2 1 <1>  -0.9000 
 20 O       -2.1730    -3.9450     2.0130 O.co2 1 <1>  -0.9000 
 21 O       -3.9410    -2.1200     1.6820 O.3   1 <1>  -0.6800 
 22 C        4.6290     1.8450     1.5970 C.3   1 <1>  -0.0970 
 23 H       -0.2170    -1.1450     0.6040 H     1 <1>   0.0800 
 24 H       -1.5880    -0.5970     1.4990 H     1 <1>   0.0800 
 25 H       -3.2340     0.8260    -1.5180 H     1 <1>   0.0800 
 26 H       -2.8160    -0.8010    -1.9760 H     1 <1>   0.0800 
 27 H       -1.7560    -2.6180    -0.7020 H     1 <1>   0.0800 
 28 H       -4.8900    -0.7860    -0.6750 H     1 <1>   0.0800 
 29 H       -4.0660     0.0140     0.6340 H     1 <1>   0.0800 
 30 H        2.4150     3.3060     1.0650 H     1 <1>   0.1500 
 31 H        0.2900     3.8230     0.4770 H     1 <1>   0.0800 
 32 H       -0.8340     2.5820     0.0380 H     1 <1>   0.0800 
 33 H        0.0870     3.4090    -1.2000 H     1 <1>   0.0800 
 34 H        4.1130    -0.5070     0.4020 H     1 <1>   0.1500 
 35 H        3.0730    -2.1670    -0.6780 H     1 <1>   0.0800 
 36 H        2.2110    -1.6290    -2.0870 H     1 <1>   0.0800 
 37 H        1.3450    -2.1770    -0.6650 H     1 <1>   0.0800 
 38 H       -4.0250    -2.8600    -0.1560 H     1 <1>   0.0800 
 39 H       -3.4310    -2.8880     2.0900 H     1 <1>   0.4000 
 40 H        4.7100     2.9150     1.6610 H     1 <1>   0.0800 
 41 H        5.5160     1.4650     1.1240 H     1 <1>   0.0800 
 42 H        4.5630     1.4420     2.5910 H     1 <1>   0.0800 
@<TRIPOS>BOND
  1   1   2  2   
  2   1   3  2   
  3   1   4  am  
  4   1   5  1   
  5   4   6  1   
  6   4   7  1   
  7   5   8  ar  
  8   5   9  ar  
  9   6  10  1   
 10   6  23  1   
 11   6  24  1   
 12   7  11  1   
 13   7  25  1   
 14   7  26  1   
 15   8  12  ar  
 16   8  13  1   
 17   9  14  ar  
 18   9  15  1   
 19  10  16  1   
 20  10  17  1   
 21  10  27  1   
 22  11  17  1   
 23  11  28  1   
 24  11  29  1   
 25  12  18  ar  
 26  12  30  1   
 27  13  31  1   
 28  13  32  1   
 29  13  33  1   
 30  14  18  ar  
 31  14  34  1   
 32  15  35  1   
 33  15  36  1   
 34  15  37  1   
 35  16  19  ar  
 36  16  20  ar  
 37  17  21  1   
 38  17  38  1   
 39  18  22  1   
 40  21  39  1   
 41  22  40  1   
 42  22  41  1   
 43  22  42  1   
@<TRIPOS>SUBSTRUCTURE
  1 ****   6 GROUP 4 **** **** 0

# MOE 2024.06 (io_trps.svl 2023.06)
