@<TRIPOS>MOLECULE
NONAME
46 48 1 0 0 
SMALL
USER_CHARGES


@<TRIPOS>ATOM
  1 O        2.1690     1.0010     1.5170 O.co2 1 <1>  -0.9000 
  2 C        2.0780     1.2980     0.3130 C.2   1 <1>   0.9060 
  3 O        1.7290     2.4300    -0.0210 O.co2 1 <1>  -0.9000 
  4 C        2.5050     0.2670    -0.7530 C.3   1 <1>  -0.1060 
  5 C        3.5880    -0.6410    -0.1520 C.3   1 <1>   0.4230 
  6 C        3.1570     0.9460    -1.9790 C.3   1 <1>  -0.1600 
  7 C        1.2980    -0.5740    -1.2300 C.3   1 <1>  -0.1600 
  8 N        3.0020    -1.4590     0.9670 N.4   1 <1>  -0.9590 
  9 C        4.8090     0.2080     0.2970 C.3   1 <1>   0.1100 
 10 C        4.3130     1.8590    -1.5640 C.3   1 <1>   0.1100 
 11 C        0.7710    -1.4740    -0.1050 C.3   1 <1>  -0.1600 
 12 C        1.8810    -2.3230     0.5130 C.3   1 <1>   0.3430 
 13 C        3.9790    -2.2120     1.7980 C.3   1 <1>   0.2630 
 14 N        5.3220     1.1730    -0.7160 N.3   1 <1>  -0.8100 
 15 C        6.3210     2.1160    -0.1070 C.3   1 <1>   0.2540 
 16 C        6.0160     3.6360    -0.1190 C.cat 1 <1>   0.6560 
 17 N        6.6700     4.4980    -0.8900 N.pl3 1 <1>  -0.7000 
 18 N        5.0940     4.2960     0.5910 N.pl3 1 <1>  -0.7640 
 19 C        6.1440     5.7460    -0.6830 C.2   1 <1>   0.2000 
 20 C        5.1650     5.6200     0.2330 C.2   1 <1>   0.2000 
 21 C        4.0420     3.7800     1.5210 C.3   1 <1>   0.2740 
 22 H        3.9280    -1.3130    -0.9220 H     1 <1>   0.0800 
 23 H        2.4210     1.5490    -2.4850 H     1 <1>   0.0800 
 24 H        3.5170     0.2150    -2.6810 H     1 <1>   0.0800 
 25 H        0.5110     0.0850    -1.5610 H     1 <1>   0.0800 
 26 H        1.5860    -1.1880    -2.0660 H     1 <1>   0.0800 
 27 H        2.5640    -0.6980     1.5520 H     1 <1>   0.4500 
 28 H        5.6150    -0.4610     0.5400 H     1 <1>   0.0800 
 29 H        4.5480     0.7370     1.1940 H     1 <1>   0.0800 
 30 H        3.8850     2.6990    -1.0490 H     1 <1>   0.0800 
 31 H        4.7930     2.2390    -2.4500 H     1 <1>   0.0800 
 32 H        0.0040    -2.1200    -0.4930 H     1 <1>   0.0800 
 33 H        0.3180    -0.8700     0.6650 H     1 <1>   0.0800 
 34 H        2.2420    -3.0300    -0.2160 H     1 <1>   0.0800 
 35 H        1.4800    -2.8700     1.3510 H     1 <1>   0.0800 
 36 H        4.5000    -2.9390     1.1970 H     1 <1>   0.0800 
 37 H        3.4660    -2.7230     2.5970 H     1 <1>   0.0800 
 38 H        4.6960    -1.5380     2.2360 H     1 <1>   0.0800 
 39 H        6.5100     1.8370     0.9150 H     1 <1>   0.0800 
 40 H        7.2480     1.9730    -0.6320 H     1 <1>   0.0800 
 41 H        7.4160     4.2660    -1.5510 H     1 <1>   0.4500 
 42 H        6.4870     6.6320    -1.1940 H     1 <1>   0.1500 
 43 H        4.5150     6.3780     0.6440 H     1 <1>   0.1500 
 44 H        4.1890     4.1820     2.5070 H     1 <1>   0.0800 
 45 H        4.0680     2.7110     1.5810 H     1 <1>   0.0800 
 46 H        3.0660     4.0750     1.1730 H     1 <1>   0.0800 
@<TRIPOS>BOND
  1   1   2  ar  
  2   2   3  ar  
  3   2   4  1   
  4   4   5  1   
  5   4   6  1   
  6   4   7  1   
  7   5   8  1   
  8   5   9  1   
  9   5  22  1   
 10   6  10  1   
 11   6  23  1   
 12   6  24  1   
 13   7  11  1   
 14   7  25  1   
 15   7  26  1   
 16   8  12  1   
 17   8  13  1   
 18   8  27  1   
 19   9  14  1   
 20   9  28  1   
 21   9  29  1   
 22  10  14  1   
 23  10  30  1   
 24  10  31  1   
 25  11  12  1   
 26  11  32  1   
 27  11  33  1   
 28  12  34  1   
 29  12  35  1   
 30  13  36  1   
 31  13  37  1   
 32  13  38  1   
 33  14  15  1   
 34  15  16  1   
 35  15  39  1   
 36  15  40  1   
 37  16  17  ar  
 38  16  18  ar  
 39  17  19  1   
 40  17  41  1   
 41  18  20  1   
 42  18  21  1   
 43  19  20  2   
 44  19  42  1   
 45  20  43  1   
 46  21  44  1   
 47  21  45  1   
 48  21  46  1   
@<TRIPOS>SUBSTRUCTURE
  1 ****   9 GROUP 4 **** **** 0

# MOE 2024.06 (io_trps.svl 2023.06)
