@<TRIPOS>MOLECULE
NONAME
51 54 1 0 0 
SMALL
USER_CHARGES


@<TRIPOS>ATOM
  1 O       -0.2730     0.1790     0.3540 O.2   1 <1>  -0.5700 
  2 C       -1.2860     0.8480     0.4210 C.2   1 <1>   0.7150 
  3 N       -2.5070     0.2210     0.3700 N.am  1 <1>  -0.6600 
  4 C       -1.2130     2.2800     0.5550 C.2   1 <1>  -0.2370 
  5 C       -3.7290     0.8700    -0.1730 C.3   1 <1>   0.1400 
  6 C       -2.6250    -1.2570     0.2800 C.3   1 <1>   0.1400 
  7 N       -1.9610     2.9470     1.4930 N.pl3 1 <1>   0.0330 
  8 C       -0.4710     3.2110    -0.1180 C.2   1 <1>  -0.1810 
  9 C       -4.5030    -0.2590    -0.8510 C.3   1 <1>   0.2000 
 10 C       -4.0770    -1.5260    -0.1180 C.3   1 <1>  -0.0800 
 11 C       -1.7120     4.2890     1.4040 C.ar  1 <1>  -0.1520 
 12 C       -0.7760     4.4860     0.3970 C.ar  1 <1>   0.0000 
 13 C        0.5270     2.9690    -1.2360 C.3   1 <1>  -0.0590 
 14 O       -5.8720    -0.0760    -0.7440 O.3   1 <1>  -0.6800 
 15 C       -4.2600    -2.8030    -0.9510 C.3   1 <1>   0.0210 
 16 C       -2.2300     5.3640     2.1290 C.ar  1 <1>  -0.1500 
 17 C       -0.3420     5.7840     0.1000 C.ar  1 <1>  -0.1500 
 18 C       -3.7350    -4.0150    -0.2060 C.2   1 <1>   0.1080 
 19 C       -1.7960     6.6340     1.8270 C.ar  1 <1>  -0.1500 
 20 C       -0.8530     6.8520     0.8140 C.ar  1 <1>   0.0820 
 21 N       -4.1990    -4.3880     0.9460 N.2   1 <1>  -0.7070 
 22 C       -2.7110    -4.8440    -0.6540 C.2   1 <1>  -0.1500 
 23 O       -0.4990     8.1500     0.6030 O.3   1 <1>  -0.3620 
 24 N       -3.4780    -5.4800     1.2660 N.pl3 1 <1>   0.3000 
 25 C       -2.5690    -5.7740     0.3130 C.2   1 <1>  -0.3320 
 26 C        0.4600     8.4790    -0.3770 C.3   1 <1>   0.0400 
 27 C       -1.6050    -6.9430     0.3870 C.3   1 <1>  -0.0600 
 28 H       -4.2990     1.2860     0.6390 H     1 <1>   0.0800 
 29 H       -3.4750     1.6390    -0.8830 H     1 <1>   0.0800 
 30 H       -1.9470    -1.6220    -0.4730 H     1 <1>   0.0800 
 31 H       -2.3860    -1.7190     1.2230 H     1 <1>   0.0800 
 32 H       -2.5760     2.5000     2.1800 H     1 <1>   0.2700 
 33 H       -4.2450    -0.2990    -1.8960 H     1 <1>   0.0800 
 34 H       -4.6400    -1.6210     0.7950 H     1 <1>   0.0800 
 35 H        0.2350     3.5170    -2.1130 H     1 <1>   0.0800 
 36 H        0.5780     1.9240    -1.4810 H     1 <1>   0.0800 
 37 H        1.5030     3.2960    -0.9260 H     1 <1>   0.0800 
 38 H       -6.1680    -0.2480     0.1710 H     1 <1>   0.4000 
 39 H       -3.7450    -2.7110    -1.8900 H     1 <1>   0.0800 
 40 H       -5.3050    -2.9520    -1.1560 H     1 <1>   0.0800 
 41 H       -2.9520     5.1960     2.9080 H     1 <1>   0.1500 
 42 H        0.3810     5.9030    -0.6810 H     1 <1>   0.1500 
 43 H       -2.1720     7.4860     2.3630 H     1 <1>   0.1500 
 44 H       -2.1670    -4.7420    -1.5760 H     1 <1>   0.1500 
 45 H       -3.6310    -5.9990     2.1380 H     1 <1>   0.2700 
 46 H        0.5930     9.5460    -0.3690 H     1 <1>   0.0800 
 47 H        0.0980     8.1620    -1.3390 H     1 <1>   0.0800 
 48 H        1.3880     7.9920    -0.1340 H     1 <1>   0.0800 
 49 H       -0.9830    -6.9660    -0.4910 H     1 <1>   0.0800 
 50 H       -2.1470    -7.8700     0.4460 H     1 <1>   0.0800 
 51 H       -0.9720    -6.8500     1.2520 H     1 <1>   0.0800 
@<TRIPOS>BOND
  1   1   2  2   
  2   2   3  am  
  3   2   4  1   
  4   3   5  1   
  5   3   6  1   
  6   4   7  1   
  7   4   8  2   
  8   5   9  1   
  9   5  28  1   
 10   5  29  1   
 11   6  10  1   
 12   6  30  1   
 13   6  31  1   
 14   7  11  1   
 15   7  32  1   
 16   8  12  1   
 17   8  13  1   
 18   9  10  1   
 19   9  14  1   
 20   9  33  1   
 21  10  15  1   
 22  10  34  1   
 23  11  12  ar  
 24  11  16  ar  
 25  12  17  ar  
 26  13  35  1   
 27  13  36  1   
 28  13  37  1   
 29  14  38  1   
 30  15  18  1   
 31  15  39  1   
 32  15  40  1   
 33  16  19  ar  
 34  16  41  1   
 35  17  20  ar  
 36  17  42  1   
 37  18  21  2   
 38  18  22  1   
 39  19  20  ar  
 40  19  43  1   
 41  20  23  1   
 42  21  24  1   
 43  22  25  2   
 44  22  44  1   
 45  23  26  1   
 46  24  25  1   
 47  24  45  1   
 48  25  27  1   
 49  26  46  1   
 50  26  47  1   
 51  26  48  1   
 52  27  49  1   
 53  27  50  1   
 54  27  51  1   
@<TRIPOS>SUBSTRUCTURE
  1 ****   3 GROUP 4 **** **** 0

# MOE 2024.06 (io_trps.svl 2023.06)
