@<TRIPOS>MOLECULE
NONAME
44 46 1 0 0 
SMALL
USER_CHARGES


@<TRIPOS>ATOM
  1 O       -1.2660     0.1780     2.0910 O.2   1 <1>  -0.5700 
  2 C       -2.0690     0.8100     1.4340 C.2   1 <1>   0.5440 
  3 N       -3.2880     0.2420     1.1470 N.am  1 <1>  -0.6600 
  4 C       -1.7380     2.1290     0.9440 C.ar  1 <1>   0.0860 
  5 C       -4.2430     0.7720     0.1380 C.3   1 <1>   0.1400 
  6 C       -3.6250    -1.1630     1.4900 C.3   1 <1>   0.1400 
  7 C       -0.7990     2.3270    -0.0740 C.ar  1 <1>   0.1660 
  8 C       -2.3640     3.2530     1.4620 C.ar  1 <1>  -0.1500 
  9 C       -5.3160    -0.3110     0.0030 C.3   1 <1>   0.2000 
 10 C       -4.6080    -1.6090     0.4000 C.3   1 <1>  -0.0800 
 11 N       -0.4830     3.5040    -0.5890 N.ar  1 <1>  -0.6200 
 12 C       -0.0590     1.1430    -0.6730 C.3   1 <1>  -0.0970 
 13 C       -2.0330     4.4820     0.9380 C.ar  1 <1>  -0.1500 
 14 O       -6.3120    -0.0600     0.9330 O.3   1 <1>  -0.6800 
 15 C       -3.8680    -2.2230    -0.8030 C.3   1 <1>   0.0200 
 16 C       -1.0970     4.5570    -0.0790 C.ar  1 <1>   0.1670 
 17 C       -3.1330    -3.4900    -0.4120 C.2   1 <1>  -0.0400 
 18 C       -0.7160     5.8960    -0.6740 C.3   1 <1>  -0.0970 
 19 O       -3.8020    -4.5500    -0.0440 O.3   1 <1>  -0.0190 
 20 C       -1.8260    -3.7840    -0.3480 C.2   1 <1>  -0.1500 
 21 N       -3.0130    -5.5360     0.2670 N.2   1 <1>  -0.4100 
 22 C       -1.8150    -5.1040     0.0940 C.2   1 <1>   0.1080 
 23 C       -0.5700    -5.9250     0.3420 C.3   1 <1>  -0.0590 
 24 H       -4.6670     1.7130     0.4470 H     1 <1>   0.0800 
 25 H       -3.7310     0.9010    -0.7990 H     1 <1>   0.0800 
 26 H       -2.7430    -1.7790     1.5330 H     1 <1>   0.0800 
 27 H       -4.1030    -1.1800     2.4550 H     1 <1>   0.0800 
 28 H       -3.0860     3.1580     2.2550 H     1 <1>   0.1500 
 29 H       -5.7690    -0.3410    -0.9730 H     1 <1>   0.0800 
 30 H       -5.3060    -2.3340     0.7820 H     1 <1>   0.0800 
 31 H       -0.7500     0.3730    -0.9620 H     1 <1>   0.0800 
 32 H        0.6290     0.7460     0.0510 H     1 <1>   0.0800 
 33 H        0.4970     1.4460    -1.5420 H     1 <1>   0.0800 
 34 H       -2.4980     5.3750     1.3170 H     1 <1>   0.1500 
 35 H       -5.9080     0.0470     1.8170 H     1 <1>   0.4000 
 36 H       -3.1570    -1.5220    -1.2020 H     1 <1>   0.0800 
 37 H       -4.5730    -2.4630    -1.5800 H     1 <1>   0.0800 
 38 H       -1.2580     6.6970    -0.2070 H     1 <1>   0.0800 
 39 H       -0.9320     5.8940    -1.7260 H     1 <1>   0.0800 
 40 H        0.3370     6.0610    -0.5370 H     1 <1>   0.0800 
 41 H       -0.9690    -3.1740    -0.5660 H     1 <1>   0.1500 
 42 H        0.0940    -5.3920     0.9980 H     1 <1>   0.0800 
 43 H       -0.0710    -6.1200    -0.5890 H     1 <1>   0.0800 
 44 H       -0.8330    -6.8610     0.7990 H     1 <1>   0.0800 
@<TRIPOS>BOND
  1   1   2  2   
  2   2   3  am  
  3   2   4  1   
  4   3   5  1   
  5   3   6  1   
  6   4   7  ar  
  7   4   8  ar  
  8   5   9  1   
  9   5  24  1   
 10   5  25  1   
 11   6  10  1   
 12   6  26  1   
 13   6  27  1   
 14   7  11  ar  
 15   7  12  1   
 16   8  13  ar  
 17   8  28  1   
 18   9  10  1   
 19   9  14  1   
 20   9  29  1   
 21  10  15  1   
 22  10  30  1   
 23  11  16  ar  
 24  12  31  1   
 25  12  32  1   
 26  12  33  1   
 27  13  16  ar  
 28  13  34  1   
 29  14  35  1   
 30  15  17  1   
 31  15  36  1   
 32  15  37  1   
 33  16  18  1   
 34  17  19  1   
 35  17  20  2   
 36  18  38  1   
 37  18  39  1   
 38  18  40  1   
 39  19  21  1   
 40  20  22  1   
 41  20  41  1   
 42  21  22  2   
 43  22  23  1   
 44  23  42  1   
 45  23  43  1   
 46  23  44  1   
@<TRIPOS>SUBSTRUCTURE
  1 ****   3 GROUP 4 **** **** 0

# MOE 2024.06 (io_trps.svl 2023.06)
