@<TRIPOS>MOLECULE
NONAME
46 48 1 0 0 
SMALL
USER_CHARGES


@<TRIPOS>ATOM
  1 O        0.8000    -0.5690     2.0680 O.2   1 <1>  -0.5700 
  2 C        1.3150    -0.7740     0.9800 C.2   1 <1>   0.5440 
  3 N        1.3390     0.2580     0.0590 N.am  1 <1>  -0.6600 
  4 C        1.9300    -2.0660     0.6890 C.ar  1 <1>   0.3960 
  5 C        1.9170     0.1160    -1.3110 C.3   1 <1>   0.1400 
  6 C        1.0880     1.6680     0.4510 C.3   1 <1>   0.1400 
  7 N        1.2040    -3.0770     0.2070 N.ar  1 <1>  -0.6200 
  8 C        3.2880    -2.2360     0.8770 C.ar  1 <1>  -0.1500 
  9 C        3.4280     0.3930    -1.3630 C.3   1 <1>   0.1400 
 10 C        2.3020     2.2770     1.1630 C.3   1 <1>  -0.1600 
 11 C        1.8520    -4.1920    -0.0520 C.ar  1 <1>   0.4770 
 12 C        3.8600    -3.4350     0.5470 C.ar  1 <1>   0.1660 
 13 N        3.8550     1.6690    -0.7200 N.am  1 <1>  -0.6600 
 14 C        3.6670     1.7070     0.7580 C.3   1 <1>   0.1400 
 15 N        3.1430    -4.4340     0.0840 N.ar  1 <1>  -0.6200 
 16 C        1.0280    -5.3420    -0.5780 C.3   1 <1>  -0.0970 
 17 C        5.3520    -3.6440     0.6930 C.3   1 <1>  -0.0970 
 18 C        5.0480     2.1500    -1.2130 C.2   1 <1>   0.5440 
 19 O        4.9690     2.8050    -2.2490 O.2   1 <1>  -0.5700 
 20 C        6.3310     1.9370    -0.5810 C.ar  1 <1>   0.0860 
 21 C        6.7160     0.8170     0.2040 C.ar  1 <1>  -0.1710 
 22 C        7.3310     2.8970    -0.7310 C.ar  1 <1>  -0.1500 
 23 O        5.9670    -0.1720     0.4170 O.3   1 <1>  -0.8290 
 24 C        8.0110     0.8020     0.7630 C.ar  1 <1>   0.1600 
 25 C        8.5640     2.7610    -0.1380 C.ar  1 <1>   0.1600 
 26 N        8.9260     1.7260     0.6210 N.ar  1 <1>  -0.6200 
 27 H        1.4210     0.7950    -1.9810 H     1 <1>   0.0800 
 28 H        1.7340    -0.8780    -1.6790 H     1 <1>   0.0800 
 29 H        0.2260     1.7160     1.0950 H     1 <1>   0.0800 
 30 H        0.8720     2.2460    -0.4300 H     1 <1>   0.0800 
 31 H        3.8930    -1.4330     1.2590 H     1 <1>   0.1500 
 32 H        3.7310     0.4110    -2.3960 H     1 <1>   0.0800 
 33 H        3.9580    -0.4210    -0.9060 H     1 <1>   0.0800 
 34 H        2.1840     2.1180     2.2190 H     1 <1>   0.0800 
 35 H        2.3040     3.3390     1.0020 H     1 <1>   0.0800 
 36 H        3.7760     0.7160     1.1560 H     1 <1>   0.0800 
 37 H        4.4400     2.3050     1.2090 H     1 <1>   0.0800 
 38 H       -0.0170    -5.0920    -0.5730 H     1 <1>   0.0800 
 39 H        1.1840    -6.2060     0.0400 H     1 <1>   0.0800 
 40 H        1.3310    -5.5660    -1.5830 H     1 <1>   0.0800 
 41 H        5.8330    -2.7450     1.0380 H     1 <1>   0.0800 
 42 H        5.7730    -3.9070    -0.2590 H     1 <1>   0.0800 
 43 H        5.5430    -4.4340     1.3940 H     1 <1>   0.0800 
 44 H        7.1240     3.7650    -1.3270 H     1 <1>   0.1500 
 45 H        8.2460    -0.0620     1.3560 H     1 <1>   0.1500 
 46 H        9.3030     3.5290    -0.2800 H     1 <1>   0.1500 
@<TRIPOS>BOND
  1   1   2  2   
  2   2   3  am  
  3   2   4  1   
  4   3   5  1   
  5   3   6  1   
  6   4   7  ar  
  7   4   8  ar  
  8   5   9  1   
  9   5  27  1   
 10   5  28  1   
 11   6  10  1   
 12   6  29  1   
 13   6  30  1   
 14   7  11  ar  
 15   8  12  ar  
 16   8  31  1   
 17   9  13  1   
 18   9  32  1   
 19   9  33  1   
 20  10  14  1   
 21  10  34  1   
 22  10  35  1   
 23  11  15  ar  
 24  11  16  1   
 25  12  15  ar  
 26  12  17  1   
 27  13  14  1   
 28  13  18  am  
 29  14  36  1   
 30  14  37  1   
 31  16  38  1   
 32  16  39  1   
 33  16  40  1   
 34  17  41  1   
 35  17  42  1   
 36  17  43  1   
 37  18  19  2   
 38  18  20  1   
 39  20  21  ar  
 40  20  22  ar  
 41  21  23  1   
 42  21  24  ar  
 43  22  25  ar  
 44  22  44  1   
 45  24  26  ar  
 46  24  45  1   
 47  25  26  ar  
 48  25  46  1   
@<TRIPOS>SUBSTRUCTURE
  1 ****   9 GROUP 4 **** **** 0

# MOE 2024.06 (io_trps.svl 2023.06)
