@<TRIPOS>MOLECULE
NONAME
55 58 1 0 0 
SMALL
USER_CHARGES


@<TRIPOS>ATOM
  1 O       -0.2880    -0.9800    -0.1140 O.3   1 <1>  -0.5600 
  2 C        0.7420    -1.4790     0.6830 C.3   1 <1>   0.2000 
  3 C       -1.3740    -0.4370     0.5720 C.3   1 <1>   0.0400 
  4 C        2.0490    -1.5430    -0.1440 C.3   1 <1>   0.0000 
  5 C        0.4260    -2.9440     1.0100 C.3   1 <1>  -0.1600 
  6 C        3.2030    -1.7840     0.8660 C.3   1 <1>   0.3430 
  7 C        2.3190    -0.2890    -1.0210 C.3   1 <1>  -0.1600 
  8 C        1.8170    -2.7970    -1.0070 C.3   1 <1>  -0.1600 
  9 C        1.0270    -3.7760    -0.1300 C.3   1 <1>  -0.1600 
 10 N        4.5350    -1.2490     0.4230 N.4   1 <1>  -0.9590 
 11 C        3.1390     0.7550    -0.2550 C.3   1 <1>  -0.1600 
 12 C        4.5210     0.2330     0.1660 C.3   1 <1>   0.3430 
 13 C        5.0890    -2.0050    -0.7310 C.3   1 <1>   0.5240 
 14 C        6.5530    -1.6510    -0.8530 C.2   1 <1>  -0.1810 
 15 C        7.1310    -0.9570    -1.9090 C.2   1 <1>   0.1390 
 16 C        7.5810    -1.8990    -0.0100 C.2   1 <1>  -0.3020 
 17 N        8.3970    -0.7730    -1.7320 N.2   1 <1>  -0.7070 
 18 N        8.7070    -1.3700    -0.5540 N.pl3 1 <1>   0.5930 
 19 C       10.0010    -1.3520     0.0340 C.ar  1 <1>  -0.0230 
 20 C       10.7300    -2.5230     0.2610 C.ar  1 <1>  -0.1440 
 21 C       10.5530    -0.1300     0.4090 C.ar  1 <1>  -0.1500 
 22 C       11.9690    -2.4500     0.8760 C.ar  1 <1>  -0.1500 
 23 C       10.2060    -3.8900    -0.1650 C.3   1 <1>  -0.0970 
 24 C       11.7910    -0.0670     1.0190 C.ar  1 <1>  -0.1500 
 25 C       12.4990    -1.2300     1.2570 C.ar  1 <1>  -0.1500 
 26 H        0.8380    -0.8600     1.5600 H     1 <1>   0.0800 
 27 H       -2.1000    -0.1160    -0.1550 H     1 <1>   0.0800 
 28 H       -1.0440     0.4100     1.1480 H     1 <1>   0.0800 
 29 H       -1.8120    -1.1830     1.2110 H     1 <1>   0.0800 
 30 H        0.8970    -3.2160     1.9370 H     1 <1>   0.0800 
 31 H       -0.6310    -3.1190     1.1080 H     1 <1>   0.0800 
 32 H        3.2770    -2.8390     1.0760 H     1 <1>   0.0800 
 33 H        2.9410    -1.2940     1.7890 H     1 <1>   0.0800 
 34 H        2.8600    -0.5700    -1.9070 H     1 <1>   0.0800 
 35 H        1.4020     0.1570    -1.3660 H     1 <1>   0.0800 
 36 H        1.1960    -2.5290    -1.8470 H     1 <1>   0.0800 
 37 H        2.7180    -3.2420    -1.3870 H     1 <1>   0.0800 
 38 H        1.6650    -4.5480     0.2660 H     1 <1>   0.0800 
 39 H        0.2460    -4.2410    -0.7100 H     1 <1>   0.0800 
 40 H        5.2150    -1.4060     1.1780 H     1 <1>   0.4500 
 41 H        2.5950     1.0640     0.6210 H     1 <1>   0.0800 
 42 H        3.2710     1.6330    -0.8630 H     1 <1>   0.0800 
 43 H        4.8280     0.7590     1.0560 H     1 <1>   0.0800 
 44 H        5.2360     0.4710    -0.6060 H     1 <1>   0.0800 
 45 H        4.9940    -3.0650    -0.5600 H     1 <1>   0.0800 
 46 H        4.5650    -1.7530    -1.6380 H     1 <1>   0.0800 
 47 H        6.6080    -0.5970    -2.7820 H     1 <1>   0.1500 
 48 H        7.6140    -2.4070     0.9360 H     1 <1>   0.1500 
 49 H       10.0100     0.7790     0.2170 H     1 <1>   0.1500 
 50 H       12.5380    -3.3440     1.0620 H     1 <1>   0.1500 
 51 H       10.9950    -4.6210    -0.1510 H     1 <1>   0.0800 
 52 H        9.8170    -3.8460    -1.1670 H     1 <1>   0.0800 
 53 H        9.4310    -4.2160     0.5030 H     1 <1>   0.0800 
 54 H       12.2060     0.8840     1.3050 H     1 <1>   0.1500 
 55 H       13.4630    -1.1860     1.7330 H     1 <1>   0.1500 
@<TRIPOS>BOND
  1   1   2  1   
  2   1   3  1   
  3   2   4  1   
  4   2   5  1   
  5   2  26  1   
  6   3  27  1   
  7   3  28  1   
  8   3  29  1   
  9   4   6  1   
 10   4   7  1   
 11   4   8  1   
 12   5   9  1   
 13   5  30  1   
 14   5  31  1   
 15   6  10  1   
 16   6  32  1   
 17   6  33  1   
 18   7  11  1   
 19   7  34  1   
 20   7  35  1   
 21   8   9  1   
 22   8  36  1   
 23   8  37  1   
 24   9  38  1   
 25   9  39  1   
 26  10  12  1   
 27  10  13  1   
 28  10  40  1   
 29  11  12  1   
 30  11  41  1   
 31  11  42  1   
 32  12  43  1   
 33  12  44  1   
 34  13  14  1   
 35  13  45  1   
 36  13  46  1   
 37  14  15  1   
 38  14  16  2   
 39  15  17  2   
 40  15  47  1   
 41  16  18  1   
 42  16  48  1   
 43  17  18  1   
 44  18  19  1   
 45  19  20  ar  
 46  19  21  ar  
 47  20  22  ar  
 48  20  23  1   
 49  21  24  ar  
 50  21  49  1   
 51  22  25  ar  
 52  22  50  1   
 53  23  51  1   
 54  23  52  1   
 55  23  53  1   
 56  24  25  ar  
 57  24  54  1   
 58  25  55  1   
@<TRIPOS>SUBSTRUCTURE
  1 ****  13 GROUP 4 **** **** 0

# MOE 2024.06 (io_trps.svl 2023.06)
