@<TRIPOS>MOLECULE
NONAME
43 44 1 0 0 
SMALL
USER_CHARGES


@<TRIPOS>ATOM
  1 O       -1.1030    -0.6880     1.5690 O.2   1 <1>  -0.5700 
  2 C       -1.7030     0.1120     0.8870 C.2   1 <1>   0.5690 
  3 N       -2.4490    -0.2880    -0.1960 N.am  1 <1>  -0.6600 
  4 C       -1.6360     1.5790     1.3080 C.3   1 <1>   0.1810 
  5 C       -2.5320    -1.7300    -0.5800 C.3   1 <1>   0.3210 
  6 C       -3.2290     0.6620    -1.0610 C.3   1 <1>   0.1400 
  7 O       -0.8890     2.3440     0.3740 O.3   1 <1>  -0.3630 
  8 C       -3.9500    -2.2570    -0.3940 C.2   1 <1>   0.0460 
  9 C       -4.6850     0.8720    -0.5980 C.3   1 <1>   0.1200 
 10 C       -0.8200     3.6950     0.4680 C.ar  1 <1>   0.0830 
 11 N       -4.7840    -2.3830    -1.4480 N.2   1 <1>  -0.5650 
 12 C       -4.5640    -2.6350     0.7530 C.2   1 <1>  -0.3320 
 13 O       -4.8120     0.6690     0.7700 O.3   1 <1>  -0.6800 
 14 C       -0.1420     4.3540    -0.5450 C.ar  1 <1>  -0.1500 
 15 C       -1.3890     4.4300     1.5040 C.ar  1 <1>  -0.1500 
 16 C       -5.8780    -2.8330    -0.9260 C.2   1 <1>   0.0360 
 17 N       -5.8100    -3.0070     0.4100 N.pl3 1 <1>   0.0330 
 18 C       -4.0560    -2.6720     2.1850 C.3   1 <1>  -0.0600 
 19 C       -0.0260     5.7340    -0.5400 C.ar  1 <1>  -0.1440 
 20 C       -1.2760     5.8090     1.5110 C.ar  1 <1>  -0.1500 
 21 C       -0.5990     6.4580     0.4930 C.ar  1 <1>  -0.1500 
 22 C        0.7160     6.4500    -1.6530 C.3   1 <1>  -0.0970 
 23 H       -1.1520     1.6570     2.2650 H     1 <1>   0.0800 
 24 H       -2.6290     1.9820     1.3700 H     1 <1>   0.0800 
 25 H       -1.8620    -2.3220     0.0170 H     1 <1>   0.0800 
 26 H       -2.2400    -1.8460    -1.6080 H     1 <1>   0.0800 
 27 H       -3.2380     0.2980    -2.0740 H     1 <1>   0.0800 
 28 H       -2.7390     1.6180    -1.0910 H     1 <1>   0.0800 
 29 H       -5.3370     0.1760    -1.0960 H     1 <1>   0.0800 
 30 H       -5.0140     1.8710    -0.8260 H     1 <1>   0.0800 
 31 H       -4.5020    -0.2470     0.9540 H     1 <1>   0.4000 
 32 H        0.2940     3.7710    -1.3360 H     1 <1>   0.1500 
 33 H       -1.9170     3.9550     2.3080 H     1 <1>   0.1500 
 34 H       -6.7700    -3.0540    -1.4860 H     1 <1>   0.1500 
 35 H       -6.5530    -3.3510     1.0250 H     1 <1>   0.2700 
 36 H       -3.0240    -2.3750     2.2300 H     1 <1>   0.0800 
 37 H       -4.1360    -3.6680     2.5820 H     1 <1>   0.0800 
 38 H       -4.6290    -2.0030     2.8020 H     1 <1>   0.0800 
 39 H       -1.7160     6.3810     2.3100 H     1 <1>   0.1500 
 40 H       -0.5190     7.5310     0.5080 H     1 <1>   0.1500 
 41 H        1.3780     5.7750    -2.1640 H     1 <1>   0.0800 
 42 H        1.3010     7.2570    -1.2490 H     1 <1>   0.0800 
 43 H        0.0130     6.8490    -2.3610 H     1 <1>   0.0800 
@<TRIPOS>BOND
  1   1   2  2   
  2   2   3  am  
  3   2   4  1   
  4   3   5  1   
  5   3   6  1   
  6   4   7  1   
  7   4  23  1   
  8   4  24  1   
  9   5   8  1   
 10   5  25  1   
 11   5  26  1   
 12   6   9  1   
 13   6  27  1   
 14   6  28  1   
 15   7  10  1   
 16   8  11  1   
 17   8  12  2   
 18   9  13  1   
 19   9  29  1   
 20   9  30  1   
 21  10  14  ar  
 22  10  15  ar  
 23  11  16  2   
 24  12  17  1   
 25  12  18  1   
 26  13  31  1   
 27  14  19  ar  
 28  14  32  1   
 29  15  20  ar  
 30  15  33  1   
 31  16  17  1   
 32  16  34  1   
 33  17  35  1   
 34  18  36  1   
 35  18  37  1   
 36  18  38  1   
 37  19  21  ar  
 38  19  22  1   
 39  20  21  ar  
 40  20  39  1   
 41  21  40  1   
 42  22  41  1   
 43  22  42  1   
 44  22  43  1   
@<TRIPOS>SUBSTRUCTURE
  1 ****   3 GROUP 4 **** **** 0

# MOE 2024.06 (io_trps.svl 2023.06)
