@<TRIPOS>MOLECULE
NONAME
55 58 1 0 0 
SMALL
USER_CHARGES


@<TRIPOS>ATOM
  1 O       -0.7430     0.6990     1.7130 O.2   1 <1>  -0.5700 
  2 C       -1.7450     1.2010     1.2370 C.2   1 <1>   0.7160 
  3 N       -2.9760     0.6590     1.5480 N.am  1 <1>  -0.6600 
  4 C       -1.6210     2.3370     0.3520 C.2   1 <1>  -0.0860 
  5 C       -3.1480    -0.3140     2.6620 C.3   1 <1>   0.1400 
  6 C       -4.1820     0.8110     0.6900 C.3   1 <1>   0.1400 
  7 C       -0.7610     2.5420    -0.6840 C.2   1 <1>  -0.0400 
  8 C       -2.3930     3.5180     0.3930 C.2   1 <1>  -0.1500 
  9 C       -3.5080    -1.6850     2.0860 C.3   1 <1>  -0.1600 
 10 C       -4.5490    -0.5510     0.0960 C.3   1 <1>  -0.1600 
 11 O       -0.9680     3.7070    -1.2480 O.3   1 <1>  -0.2800 
 12 C        0.3370     1.6610    -1.2430 C.3   1 <1>  -0.0600 
 13 C       -1.9460     4.3050    -0.6060 C.2   1 <1>  -0.0400 
 14 C       -4.7490    -1.6200     1.1840 C.3   1 <1>   0.4240 
 15 C       -2.3740     5.6830    -1.0580 C.3   1 <1>  -0.0600 
 16 O       -5.7970    -1.1960     2.0250 O.3   1 <1>  -0.5600 
 17 C       -5.0370    -3.0030     0.5620 C.ar  1 <1>  -0.1440 
 18 C       -7.1020    -1.4760     1.6210 C.3   1 <1>   0.1200 
 19 C       -6.2460    -3.6520     0.7720 C.ar  1 <1>  -0.1440 
 20 C       -4.0850    -3.6280    -0.2340 C.ar  1 <1>  -0.1500 
 21 C       -7.3060    -2.9880     1.6280 C.3   1 <1>  -0.0170 
 22 C       -6.4900    -4.8930     0.2040 C.ar  1 <1>  -0.1500 
 23 C       -4.3090    -4.8700    -0.8040 C.ar  1 <1>   0.0820 
 24 C       -5.5360    -5.5170    -0.5950 C.ar  1 <1>   0.0820 
 25 O       -3.2720    -5.3530    -1.5460 O.3   1 <1>  -0.3620 
 26 O       -5.7820    -6.7240    -1.1860 O.3   1 <1>  -0.3620 
 27 C       -2.9980    -6.7360    -1.5970 C.3   1 <1>   0.0400 
 28 C       -7.0540    -7.3330    -1.1510 C.3   1 <1>   0.0400 
 29 H       -3.9350     0.0300     3.3110 H     1 <1>   0.0800 
 30 H       -2.2470    -0.3900     3.2470 H     1 <1>   0.0800 
 31 H       -4.0040     1.5050    -0.1130 H     1 <1>   0.0800 
 32 H       -4.9960     1.1860     1.2880 H     1 <1>   0.0800 
 33 H       -3.1730     3.7140     1.1060 H     1 <1>   0.1500 
 34 H       -3.6890    -2.3810     2.8850 H     1 <1>   0.0800 
 35 H       -2.6610    -2.0440     1.5320 H     1 <1>   0.0800 
 36 H       -3.7550    -0.8530    -0.5610 H     1 <1>   0.0800 
 37 H       -5.4350    -0.4650    -0.5040 H     1 <1>   0.0800 
 38 H        0.3910     0.7330    -0.7040 H     1 <1>   0.0800 
 39 H        1.2810     2.1660    -1.1590 H     1 <1>   0.0800 
 40 H        0.1420     1.4530    -2.2790 H     1 <1>   0.0800 
 41 H       -3.1750     6.0460    -0.4400 H     1 <1>   0.0800 
 42 H       -2.7070     5.6420    -2.0790 H     1 <1>   0.0800 
 43 H       -1.5420     6.3590    -0.9880 H     1 <1>   0.0800 
 44 H       -7.2650    -1.0680     0.6390 H     1 <1>   0.0800 
 45 H       -7.7710    -1.0020     2.3170 H     1 <1>   0.0800 
 46 H       -3.1390    -3.1580    -0.4260 H     1 <1>   0.1500 
 47 H       -8.2870    -3.2130     1.2500 H     1 <1>   0.0800 
 48 H       -7.2390    -3.3530     2.6370 H     1 <1>   0.0800 
 49 H       -7.4360    -5.3590     0.3980 H     1 <1>   0.1500 
 50 H       -1.9740    -6.8640    -1.8960 H     1 <1>   0.0800 
 51 H       -3.6480    -7.1910    -2.3220 H     1 <1>   0.0800 
 52 H       -3.1560    -7.1620    -0.6220 H     1 <1>   0.0800 
 53 H       -7.0100    -8.2290    -1.7430 H     1 <1>   0.0800 
 54 H       -7.7770    -6.6550    -1.5670 H     1 <1>   0.0800 
 55 H       -7.2940    -7.5810    -0.1320 H     1 <1>   0.0800 
@<TRIPOS>BOND
  1   1   2  2   
  2   2   3  am  
  3   2   4  1   
  4   3   5  1   
  5   3   6  1   
  6   4   7  2   
  7   4   8  1   
  8   5   9  1   
  9   5  29  1   
 10   5  30  1   
 11   6  10  1   
 12   6  31  1   
 13   6  32  1   
 14   7  11  1   
 15   7  12  1   
 16   8  13  2   
 17   8  33  1   
 18   9  14  1   
 19   9  34  1   
 20   9  35  1   
 21  10  14  1   
 22  10  36  1   
 23  10  37  1   
 24  11  13  1   
 25  12  38  1   
 26  12  39  1   
 27  12  40  1   
 28  13  15  1   
 29  14  16  1   
 30  14  17  1   
 31  15  41  1   
 32  15  42  1   
 33  15  43  1   
 34  16  18  1   
 35  17  19  ar  
 36  17  20  ar  
 37  18  21  1   
 38  18  44  1   
 39  18  45  1   
 40  19  21  1   
 41  19  22  ar  
 42  20  23  ar  
 43  20  46  1   
 44  21  47  1   
 45  21  48  1   
 46  22  24  ar  
 47  22  49  1   
 48  23  24  ar  
 49  23  25  1   
 50  24  26  1   
 51  25  27  1   
 52  26  28  1   
 53  27  50  1   
 54  27  51  1   
 55  27  52  1   
 56  28  53  1   
 57  28  54  1   
 58  28  55  1   
@<TRIPOS>SUBSTRUCTURE
  1 ****  10 GROUP 4 **** **** 0

# MOE 2024.06 (io_trps.svl 2023.06)
