@<TRIPOS>MOLECULE
NONAME
36 36 1 0 0 
SMALL
USER_CHARGES


@<TRIPOS>ATOM
  1 S       -0.7120     0.0720     0.5820 S.3   1 <1>  -0.0800 
  2 C       -1.4170    -0.8510    -0.7040 C.2   1 <1>   0.4420 
  3 C       -0.6140     1.4000    -0.5230 C.2   1 <1>   0.1980 
  4 N       -1.5270    -0.1700    -1.7860 N.2   1 <1>  -0.3380 
  5 N       -1.7540    -2.1540    -0.4130 N.am  1 <1>  -0.4940 
  6 N       -1.0670     1.1140    -1.6750 N.2   1 <1>  -0.3380 
  7 C       -0.0300     2.7100    -0.0290 C.3   1 <1>   0.0200 
  8 C       -2.3640    -3.1040    -1.1840 C.2   1 <1>   0.5690 
  9 C        1.4900     2.6140     0.1650 C.3   1 <1>  -0.1600 
 10 O       -2.7610    -2.8990    -2.3040 O.2   1 <1>  -0.5700 
 11 C       -2.5520    -4.5060    -0.5900 C.3   1 <1>   0.2110 
 12 C        2.0830     3.9500     0.6330 C.3   1 <1>  -0.1600 
 13 S       -2.3620    -4.4690     1.2330 S.3   1 <1>  -0.4600 
 14 C       -1.5330    -5.5190    -1.1260 C.3   1 <1>  -0.2400 
 15 C        3.6000     3.8440     0.8230 C.3   1 <1>  -0.1600 
 16 C       -3.2390    -5.9550     1.7960 C.3   1 <1>  -0.0100 
 17 C        4.1910     5.1770     1.2900 C.3   1 <1>  -0.2400 
 18 H       -1.5470    -2.4660     0.5360 H     1 <1>   0.3700 
 19 H       -0.5060     2.9790     0.8960 H     1 <1>   0.0800 
 20 H       -0.2510     3.4740    -0.7530 H     1 <1>   0.0800 
 21 H        1.9450     2.3270    -0.7690 H     1 <1>   0.0800 
 22 H        1.7120     1.8510     0.8910 H     1 <1>   0.0800 
 23 H       -3.5550    -4.8340    -0.7940 H     1 <1>   0.0800 
 24 H        1.6270     4.2400     1.5650 H     1 <1>   0.0800 
 25 H        1.8690     4.7140    -0.0960 H     1 <1>   0.0800 
 26 H       -0.5340    -5.2170    -0.8680 H     1 <1>   0.0800 
 27 H       -1.6070    -5.5720    -2.1980 H     1 <1>   0.0800 
 28 H       -1.7220    -6.4970    -0.7240 H     1 <1>   0.0800 
 29 H        4.0630     3.5580    -0.1070 H     1 <1>   0.0800 
 30 H        3.8230     3.0840     1.5530 H     1 <1>   0.0800 
 31 H       -3.2170    -5.9600     2.8710 H     1 <1>   0.0800 
 32 H       -2.7300    -6.8170     1.4030 H     1 <1>   0.0800 
 33 H       -4.2510    -5.9040     1.4360 H     1 <1>   0.0800 
 34 H        4.0010     5.9480     0.5640 H     1 <1>   0.0800 
 35 H        5.2550     5.0820     1.4170 H     1 <1>   0.0800 
 36 H        3.7600     5.4720     2.2300 H     1 <1>   0.0800 
@<TRIPOS>BOND
  1   1   2  1   
  2   1   3  1   
  3   2   4  2   
  4   2   5  1   
  5   3   6  2   
  6   3   7  1   
  7   4   6  1   
  8   5   8  am  
  9   5  18  1   
 10   7   9  1   
 11   7  19  1   
 12   7  20  1   
 13   8  10  2   
 14   8  11  1   
 15   9  12  1   
 16   9  21  1   
 17   9  22  1   
 18  11  13  1   
 19  11  14  1   
 20  11  23  1   
 21  12  15  1   
 22  12  24  1   
 23  12  25  1   
 24  13  16  1   
 25  14  26  1   
 26  14  27  1   
 27  14  28  1   
 28  15  17  1   
 29  15  29  1   
 30  15  30  1   
 31  16  31  1   
 32  16  32  1   
 33  16  33  1   
 34  17  34  1   
 35  17  35  1   
 36  17  36  1   
@<TRIPOS>SUBSTRUCTURE
  1 ****   2 GROUP 4 **** **** 0

# MOE 2024.06 (io_trps.svl 2023.06)
