@<TRIPOS>MOLECULE
NONAME
51 54 1 0 0 
SMALL
USER_CHARGES


@<TRIPOS>ATOM
  1 S        0.3400    -0.4780     2.4990 S.3   1 <1>  -0.0800 
  2 C        0.0630    -1.1290     0.8910 C.2   1 <1>   0.3250 
  3 C       -1.1660    -1.1380     3.0280 C.2   1 <1>  -0.1100 
  4 N       -1.0530    -1.7630     0.8100 N.2   1 <1>  -0.5650 
  5 C        1.0560    -0.9210    -0.1440 C.ar  1 <1>   0.0530 
  6 C       -1.7800    -1.7810     2.0120 C.2   1 <1>   0.1410 
  7 C        1.0050    -1.6750    -1.3180 C.ar  1 <1>  -0.1500 
  8 C        2.0870     0.0170    -0.0380 C.ar  1 <1>  -0.1500 
  9 C       -3.0730    -2.4550     2.1560 C.2   1 <1>   0.7160 
 10 C        1.9310    -1.5080    -2.3320 C.ar  1 <1>  -0.1500 
 11 C        3.0180     0.1880    -1.0470 C.ar  1 <1>  -0.1500 
 12 O       -3.3590    -2.9080     3.2530 O.2   1 <1>  -0.5700 
 13 N       -3.9920    -2.5950     1.1260 N.am  1 <1>  -0.6600 
 14 C        2.9420    -0.5750    -2.1980 C.ar  1 <1>  -0.1500 
 15 C       -5.2910    -3.2920     1.3300 C.3   1 <1>   0.1400 
 16 C       -3.8450    -1.8850    -0.1780 C.3   1 <1>   0.1400 
 17 C       -6.4740    -2.3220     1.1770 C.3   1 <1>  -0.1600 
 18 C       -5.1920    -1.6660    -0.8840 C.3   1 <1>  -0.1600 
 19 C       -6.2930    -1.2150     0.1090 C.3   1 <1>   0.2800 
 20 O       -5.8090    -0.0900     0.7990 O.3   1 <1>  -0.5600 
 21 C       -7.6860    -0.8810    -0.5390 C.3   1 <1>   0.2000 
 22 C       -5.5920     1.1140     0.1160 C.3   1 <1>   0.1200 
 23 O       -7.8420    -1.5930    -1.7420 O.3   1 <1>  -0.6800 
 24 C       -7.9510     0.6430    -0.7400 C.3   1 <1>   0.2800 
 25 C       -6.6340     1.3830    -0.9820 C.3   1 <1>  -0.1600 
 26 O       -8.5040     1.1490     0.4210 O.3   1 <1>  -0.6800 
 27 C       -8.9750     0.9690    -1.8350 C.3   1 <1>  -0.2400 
 28 H       -1.4630    -0.9940     4.0510 H     1 <1>   0.1500 
 29 H        0.2250    -2.4070    -1.4350 H     1 <1>   0.1500 
 30 H        2.1730     0.6300     0.8410 H     1 <1>   0.1500 
 31 H        1.8670    -2.1060    -3.2250 H     1 <1>   0.1500 
 32 H        3.8030     0.9170    -0.9390 H     1 <1>   0.1500 
 33 H        3.6660    -0.4430    -2.9840 H     1 <1>   0.1500 
 34 H       -5.3700    -4.0720     0.5930 H     1 <1>   0.0800 
 35 H       -5.3370    -3.7630     2.2970 H     1 <1>   0.0800 
 36 H       -3.3970    -0.9230     0.0030 H     1 <1>   0.0800 
 37 H       -3.1840    -2.4470    -0.8150 H     1 <1>   0.0800 
 38 H       -6.6870    -1.8660     2.1270 H     1 <1>   0.0800 
 39 H       -7.3250    -2.9300     0.9270 H     1 <1>   0.0800 
 40 H       -5.4830    -2.5930    -1.3450 H     1 <1>   0.0800 
 41 H       -5.0640    -0.9540    -1.6750 H     1 <1>   0.0800 
 42 H       -8.4680    -1.2440     0.1040 H     1 <1>   0.0800 
 43 H       -5.6390     1.8920     0.8590 H     1 <1>   0.0800 
 44 H       -4.5970     1.0990    -0.2940 H     1 <1>   0.0800 
 45 H       -7.2110    -1.2660    -2.4090 H     1 <1>   0.4000 
 46 H       -6.2250     1.0650    -1.9230 H     1 <1>   0.0800 
 47 H       -6.8020     2.4410    -1.0650 H     1 <1>   0.0800 
 48 H       -8.6420     2.1080     0.3340 H     1 <1>   0.4000 
 49 H       -8.6040     0.6770    -2.8000 H     1 <1>   0.0800 
 50 H       -9.1860     2.0230    -1.8670 H     1 <1>   0.0800 
 51 H       -9.8890     0.4310    -1.6530 H     1 <1>   0.0800 
@<TRIPOS>BOND
  1   1   2  1   
  2   1   3  1   
  3   2   4  2   
  4   2   5  1   
  5   3   6  2   
  6   3  28  1   
  7   4   6  1   
  8   5   7  ar  
  9   5   8  ar  
 10   6   9  1   
 11   7  10  ar  
 12   7  29  1   
 13   8  11  ar  
 14   8  30  1   
 15   9  12  2   
 16   9  13  am  
 17  10  14  ar  
 18  10  31  1   
 19  11  14  ar  
 20  11  32  1   
 21  13  15  1   
 22  13  16  1   
 23  14  33  1   
 24  15  17  1   
 25  15  34  1   
 26  15  35  1   
 27  16  18  1   
 28  16  36  1   
 29  16  37  1   
 30  17  19  1   
 31  17  38  1   
 32  17  39  1   
 33  18  19  1   
 34  18  40  1   
 35  18  41  1   
 36  19  20  1   
 37  19  21  1   
 38  20  22  1   
 39  21  23  1   
 40  21  24  1   
 41  21  42  1   
 42  22  25  1   
 43  22  43  1   
 44  22  44  1   
 45  23  45  1   
 46  24  25  1   
 47  24  26  1   
 48  24  27  1   
 49  25  46  1   
 50  25  47  1   
 51  26  48  1   
 52  27  49  1   
 53  27  50  1   
 54  27  51  1   
@<TRIPOS>SUBSTRUCTURE
  1 ****  16 GROUP 4 **** **** 0

# MOE 2024.06 (io_trps.svl 2023.06)
