@<TRIPOS>MOLECULE
NONAME
45 46 1 0 0 
SMALL
USER_CHARGES


@<TRIPOS>ATOM
  1 CL       2.1640    -1.6080     1.4660 Cl    1 <1>  -0.1770 
  2 C        1.1270    -2.9210     0.9660 C.ar  1 <1>   0.1770 
  3 C        0.9870    -4.0230     1.7860 C.ar  1 <1>  -0.1500 
  4 C        0.4610    -2.8380    -0.2450 C.ar  1 <1>  -0.1500 
  5 C        0.1590    -5.0410     1.3570 C.ar  1 <1>   0.1900 
  6 C       -0.3650    -3.8760    -0.6510 C.ar  1 <1>  -0.1500 
  7 F        0.0250    -6.0870     2.1350 F     1 <1>  -0.1900 
  8 C       -0.5370    -5.0070     0.1460 C.ar  1 <1>   0.1170 
  9 N       -1.3620    -6.0870    -0.2230 N.am  1 <1>  -0.5470 
 10 C       -2.2710    -6.2810    -1.2220 C.2   1 <1>   0.5690 
 11 O       -2.5540    -5.4550    -2.0560 O.2   1 <1>  -0.5700 
 12 C       -2.9590    -7.6470    -1.2560 C.3   1 <1>   0.1710 
 13 N       -2.8390    -8.4030     0.0360 N.3   1 <1>  -0.8100 
 14 C       -2.7660    -9.8720    -0.1790 C.3   1 <1>   0.1900 
 15 C       -3.8860    -7.9360     0.9670 C.3   1 <1>   0.0300 
 16 C       -3.1050   -10.7010     1.0810 C.3   1 <1>  -0.0170 
 17 C       -1.3380   -10.1960    -0.6450 C.3   1 <1>  -0.2400 
 18 C       -3.0500   -12.2000     0.8290 C.ar  1 <1>   0.1670 
 19 N       -2.0070   -12.8490     1.3230 N.ar  1 <1>  -0.6200 
 20 C       -4.0730   -12.8070     0.1140 C.ar  1 <1>  -0.1500 
 21 C       -1.9820   -14.1510     1.0900 C.ar  1 <1>   0.1600 
 22 C       -4.0370   -14.1650    -0.1230 C.ar  1 <1>  -0.1430 
 23 C       -2.9510   -14.8450     0.3860 C.ar  1 <1>  -0.1500 
 24 C       -5.1310   -14.8720    -0.9020 C.3   1 <1>  -0.0970 
 25 H        1.5050    -4.0840     2.7240 H     1 <1>   0.1500 
 26 H        0.5890    -1.9680    -0.8640 H     1 <1>   0.1500 
 27 H       -0.8720    -3.7970    -1.5960 H     1 <1>   0.1500 
 28 H       -1.3370    -6.9010     0.4080 H     1 <1>   0.3700 
 29 H       -2.5150    -8.1970    -2.0640 H     1 <1>   0.0800 
 30 H       -3.9960    -7.5060    -1.5070 H     1 <1>   0.0800 
 31 H       -3.4620   -10.1480    -0.9540 H     1 <1>   0.0800 
 32 H       -3.9040    -6.8590     1.0000 H     1 <1>   0.0800 
 33 H       -3.6830    -8.2850     1.9650 H     1 <1>   0.0800 
 34 H       -4.8550    -8.2880     0.6530 H     1 <1>   0.0800 
 35 H       -4.1010   -10.4840     1.4150 H     1 <1>   0.0800 
 36 H       -2.4210   -10.4490     1.8720 H     1 <1>   0.0800 
 37 H       -0.6360    -9.9650     0.1360 H     1 <1>   0.0800 
 38 H       -1.0650    -9.6530    -1.5290 H     1 <1>   0.0800 
 39 H       -1.2460   -11.2420    -0.8750 H     1 <1>   0.0800 
 40 H       -4.8920   -12.2180    -0.2550 H     1 <1>   0.1500 
 41 H       -1.1410   -14.6970     1.4830 H     1 <1>   0.1500 
 42 H       -2.8490   -15.9050     0.2420 H     1 <1>   0.1500 
 43 H       -6.0770   -14.3830    -0.7490 H     1 <1>   0.0800 
 44 H       -5.2220   -15.8930    -0.5780 H     1 <1>   0.0800 
 45 H       -4.8980   -14.8600    -1.9510 H     1 <1>   0.0800 
@<TRIPOS>BOND
  1   1   2  1   
  2   2   3  ar  
  3   2   4  ar  
  4   3   5  ar  
  5   3  25  1   
  6   4   6  ar  
  7   4  26  1   
  8   5   7  1   
  9   5   8  ar  
 10   6   8  ar  
 11   6  27  1   
 12   8   9  1   
 13   9  10  am  
 14   9  28  1   
 15  10  11  2   
 16  10  12  1   
 17  12  13  1   
 18  12  29  1   
 19  12  30  1   
 20  13  14  1   
 21  13  15  1   
 22  14  16  1   
 23  14  17  1   
 24  14  31  1   
 25  15  32  1   
 26  15  33  1   
 27  15  34  1   
 28  16  18  1   
 29  16  35  1   
 30  16  36  1   
 31  17  37  1   
 32  17  38  1   
 33  17  39  1   
 34  18  19  ar  
 35  18  20  ar  
 36  19  21  ar  
 37  20  22  ar  
 38  20  40  1   
 39  21  23  ar  
 40  21  41  1   
 41  22  23  ar  
 42  22  24  1   
 43  23  42  1   
 44  24  43  1   
 45  24  44  1   
 46  24  45  1   
@<TRIPOS>SUBSTRUCTURE
  1 ****  13 GROUP 4 **** **** 0

# MOE 2024.06 (io_trps.svl 2023.06)
