@<TRIPOS>MOLECULE
NONAME
43 45 1 0 0 
SMALL
USER_CHARGES


@<TRIPOS>ATOM
  1 O        1.0590    -0.1940    -1.6890 O.3   1 <1>  -0.6800 
  2 C        2.3450    -0.1790    -1.1640 C.3   1 <1>   0.2000 
  3 C        2.5460    -1.3460    -0.2040 C.3   1 <1>  -0.0800 
  4 C        2.5880     1.0570    -0.3080 C.3   1 <1>   0.2090 
  5 C        3.5980    -0.8420     0.7910 C.3   1 <1>   0.2090 
  6 C        2.9560    -2.6450    -0.9150 C.3   1 <1>  -0.0170 
  7 N        3.6250     0.6430     0.6770 N.pl3 1 <1>  -0.8380 
  8 C        3.2190    -3.7610     0.0830 C.ar  1 <1>  -0.1440 
  9 C        4.8690     1.2270     0.5370 C.ar  1 <1>   0.4100 
 10 C        4.4980    -4.1790     0.3940 C.ar  1 <1>  -0.1500 
 11 C        2.1910    -4.4130     0.7330 C.ar  1 <1>  -0.1500 
 12 N        5.5000     0.9500    -0.6000 N.ar  1 <1>  -0.6200 
 13 C        5.4000     2.0470     1.5380 C.ar  1 <1>   0.0730 
 14 C        4.6800    -5.1970     1.3150 C.ar  1 <1>   0.1600 
 15 C        2.4810    -5.4200     1.6380 C.ar  1 <1>   0.1600 
 16 C        6.6900     1.4940    -0.7730 C.ar  1 <1>   0.1670 
 17 C        4.6740     2.3040     2.7430 C.1   1 <1>   0.4840 
 18 C        6.6460     2.6070     1.3340 C.ar  1 <1>  -0.1500 
 19 N        3.7020    -5.8280     1.9450 N.ar  1 <1>  -0.6200 
 20 C        7.3070     2.3290     0.1530 C.ar  1 <1>  -0.1430 
 21 C        7.3650     1.1480    -2.0880 C.3   1 <1>  -0.0970 
 22 N        4.1500     2.5470     3.7280 N.1   1 <1>  -0.5570 
 23 C        8.6790     2.9480    -0.0880 C.3   1 <1>  -0.0970 
 24 H        0.9420    -0.9570    -2.2860 H     1 <1>   0.4000 
 25 H        3.0580    -0.1970    -1.9710 H     1 <1>   0.0800 
 26 H        1.6370    -1.5040     0.3510 H     1 <1>   0.0800 
 27 H        1.6920     1.3300     0.2220 H     1 <1>   0.0800 
 28 H        2.9260     1.8820    -0.9110 H     1 <1>   0.0800 
 29 H        4.5690    -1.2430     0.5530 H     1 <1>   0.0800 
 30 H        3.3420    -1.1320     1.7950 H     1 <1>   0.0800 
 31 H        3.8400    -2.4710    -1.5050 H     1 <1>   0.0800 
 32 H        2.1730    -2.9520    -1.5860 H     1 <1>   0.0800 
 33 H        5.3550    -3.7240    -0.0690 H     1 <1>   0.1500 
 34 H        1.1670    -4.1470     0.5450 H     1 <1>   0.1500 
 35 H        5.6840    -5.5100     1.5460 H     1 <1>   0.1500 
 36 H        1.6660    -5.9170     2.1350 H     1 <1>   0.1500 
 37 H        7.0840     3.2450     2.0820 H     1 <1>   0.1500 
 38 H        8.3990     0.9040    -1.9320 H     1 <1>   0.0800 
 39 H        7.2910     1.9810    -2.7610 H     1 <1>   0.0800 
 40 H        6.8870     0.2980    -2.5410 H     1 <1>   0.0800 
 41 H        8.9140     3.6730     0.6700 H     1 <1>   0.0800 
 42 H        8.7010     3.4450    -1.0420 H     1 <1>   0.0800 
 43 H        9.4350     2.1840    -0.0730 H     1 <1>   0.0800 
@<TRIPOS>BOND
  1   1   2  1   
  2   1  24  1   
  3   2   3  1   
  4   2   4  1   
  5   2  25  1   
  6   3   5  1   
  7   3   6  1   
  8   3  26  1   
  9   4   7  1   
 10   4  27  1   
 11   4  28  1   
 12   5   7  1   
 13   5  29  1   
 14   5  30  1   
 15   6   8  1   
 16   6  31  1   
 17   6  32  1   
 18   7   9  1   
 19   8  10  ar  
 20   8  11  ar  
 21   9  12  ar  
 22   9  13  ar  
 23  10  14  ar  
 24  10  33  1   
 25  11  15  ar  
 26  11  34  1   
 27  12  16  ar  
 28  13  17  1   
 29  13  18  ar  
 30  14  19  ar  
 31  14  35  1   
 32  15  19  ar  
 33  15  36  1   
 34  16  20  ar  
 35  16  21  1   
 36  17  22  3   
 37  18  20  ar  
 38  18  37  1   
 39  20  23  1   
 40  21  38  1   
 41  21  39  1   
 42  21  40  1   
 43  23  41  1   
 44  23  42  1   
 45  23  43  1   
@<TRIPOS>SUBSTRUCTURE
  1 ****   5 GROUP 4 **** **** 0

# MOE 2024.06 (io_trps.svl 2023.06)
