@<TRIPOS>MOLECULE
NONAME
57 60 1 0 0 
SMALL
USER_CHARGES


@<TRIPOS>ATOM
  1 CL       1.4430    -0.6600    -0.5810 Cl    1 <1>  -0.1770 
  2 C        0.1500    -1.8310    -0.5530 C.ar  1 <1>   0.1770 
  3 C       -1.1320    -1.4220    -0.2400 C.ar  1 <1>  -0.1500 
  4 C        0.4250    -3.1540    -0.8440 C.ar  1 <1>  -0.1500 
  5 C       -2.1520    -2.3570    -0.2180 C.ar  1 <1>  -0.1500 
  6 C       -0.6040    -4.0790    -0.8200 C.ar  1 <1>  -0.1500 
  7 C       -1.9090    -3.6990    -0.5030 C.ar  1 <1>   0.0530 
  8 C       -2.9820    -4.6600    -0.4710 C.2   1 <1>  -0.2050 
  9 N       -2.8450    -5.9250     0.0260 N.pl3 1 <1>   0.0330 
 10 C       -4.2770    -4.5240    -0.8900 C.2   1 <1>  -0.1500 
 11 C       -4.0330    -6.5740    -0.0830 C.2   1 <1>  -0.3320 
 12 C       -4.9380    -5.7280    -0.6480 C.2   1 <1>  -0.1500 
 13 C       -4.1910    -8.0120     0.3910 C.3   1 <1>   0.0200 
 14 C       -5.6100    -8.5470     0.1570 C.3   1 <1>  -0.0990 
 15 C       -5.8200    -9.9730     0.6510 C.2   1 <1>   0.5690 
 16 O       -4.8470   -10.6040     0.9950 O.2   1 <1>  -0.5700 
 17 N       -7.0830   -10.5170     0.7040 N.am  1 <1>  -0.6600 
 18 C       -8.2970    -9.8120     0.1870 C.3   1 <1>   0.2200 
 19 C       -7.2720   -11.8710     1.3150 C.3   1 <1>   0.0600 
 20 C       -9.2760   -10.6930    -0.5880 C.3   1 <1>  -0.1600 
 21 C       -9.1380    -9.2150     1.3090 C.3   1 <1>  -0.1600 
 22 C      -10.5880    -9.8960    -0.5740 C.3   1 <1>  -0.0800 
 23 C      -10.5150    -8.9830     0.6730 C.3   1 <1>  -0.0800 
 24 C      -11.8370   -10.7950    -0.6550 C.3   1 <1>   0.1400 
 25 C      -11.6790    -9.1890     1.6580 C.3   1 <1>  -0.0990 
 26 N      -13.0390   -10.0430    -0.2140 N.am  1 <1>  -0.6600 
 27 C      -12.9940    -9.2640     0.9090 C.2   1 <1>   0.5690 
 28 C      -14.2800   -10.2280    -1.0130 C.3   1 <1>   0.0600 
 29 O      -13.9400    -8.6420     1.3270 O.2   1 <1>  -0.5700 
 30 H       -1.3240    -0.3880    -0.0180 H     1 <1>   0.1500 
 31 H        1.4290    -3.4480    -1.0890 H     1 <1>   0.1500 
 32 H       -3.1530    -2.0490     0.0280 H     1 <1>   0.1500 
 33 H       -0.3970    -5.1070    -1.0580 H     1 <1>   0.1500 
 34 H       -1.9850    -6.3050     0.4320 H     1 <1>   0.2700 
 35 H       -4.7250    -3.6540    -1.3350 H     1 <1>   0.1500 
 36 H       -5.9720    -5.9110    -0.8810 H     1 <1>   0.1500 
 37 H       -3.4880    -8.6360    -0.1340 H     1 <1>   0.0800 
 38 H       -3.9620    -8.0660     1.4420 H     1 <1>   0.0800 
 39 H       -5.8190    -8.5180    -0.8950 H     1 <1>   0.0800 
 40 H       -6.3000    -7.9030     0.6700 H     1 <1>   0.0800 
 41 H       -8.0110    -9.0140    -0.4750 H     1 <1>   0.0800 
 42 H       -8.1700   -11.8990     1.9050 H     1 <1>   0.0800 
 43 H       -6.4440   -12.1170     1.9580 H     1 <1>   0.0800 
 44 H       -7.3300   -12.6120     0.5380 H     1 <1>   0.0800 
 45 H       -8.9320   -10.8760    -1.5900 H     1 <1>   0.0800 
 46 H       -9.4320   -11.6290    -0.0840 H     1 <1>   0.0800 
 47 H       -9.2180    -9.9160     2.1200 H     1 <1>   0.0800 
 48 H       -8.7130    -8.2970     1.6740 H     1 <1>   0.0800 
 49 H      -10.5940    -9.2570    -1.4420 H     1 <1>   0.0800 
 50 H      -10.5610    -7.9640     0.3240 H     1 <1>   0.0800 
 51 H      -11.7240   -11.6510    -0.0120 H     1 <1>   0.0800 
 52 H      -11.9670   -11.1460    -1.6650 H     1 <1>   0.0800 
 53 H      -11.7130    -8.3810     2.3660 H     1 <1>   0.0800 
 54 H      -11.5590   -10.1090     2.2000 H     1 <1>   0.0800 
 55 H      -14.1180    -9.8900    -2.0210 H     1 <1>   0.0800 
 56 H      -15.0910    -9.6620    -0.5870 H     1 <1>   0.0800 
 57 H      -14.5550   -11.2680    -1.0230 H     1 <1>   0.0800 
@<TRIPOS>BOND
  1   1   2  1   
  2   2   3  ar  
  3   2   4  ar  
  4   3   5  ar  
  5   3  30  1   
  6   4   6  ar  
  7   4  31  1   
  8   5   7  ar  
  9   5  32  1   
 10   6   7  ar  
 11   6  33  1   
 12   7   8  1   
 13   8   9  1   
 14   8  10  2   
 15   9  11  1   
 16   9  34  1   
 17  10  12  1   
 18  10  35  1   
 19  11  12  2   
 20  11  13  1   
 21  12  36  1   
 22  13  14  1   
 23  13  37  1   
 24  13  38  1   
 25  14  15  1   
 26  14  39  1   
 27  14  40  1   
 28  15  16  2   
 29  15  17  am  
 30  17  18  1   
 31  17  19  1   
 32  18  20  1   
 33  18  21  1   
 34  18  41  1   
 35  19  42  1   
 36  19  43  1   
 37  19  44  1   
 38  20  22  1   
 39  20  45  1   
 40  20  46  1   
 41  21  23  1   
 42  21  47  1   
 43  21  48  1   
 44  22  23  1   
 45  22  24  1   
 46  22  49  1   
 47  23  25  1   
 48  23  50  1   
 49  24  26  1   
 50  24  51  1   
 51  24  52  1   
 52  25  27  1   
 53  25  53  1   
 54  25  54  1   
 55  26  27  am  
 56  26  28  1   
 57  27  29  2   
 58  28  55  1   
 59  28  56  1   
 60  28  57  1   
@<TRIPOS>SUBSTRUCTURE
  1 ****  14 GROUP 4 **** **** 0

# MOE 2024.06 (io_trps.svl 2023.06)
