@<TRIPOS>MOLECULE
NONAME
47 49 1 0 0 
SMALL
USER_CHARGES


@<TRIPOS>ATOM
  1 O       -0.5080    -0.0300    -1.2100 O.2   1 <1>  -0.5700 
  2 C       -1.4740     0.6960    -1.0750 C.2   1 <1>   0.5440 
  3 N       -2.7150     0.1270    -0.8950 N.am  1 <1>  -0.6600 
  4 C       -1.2980     2.1360    -1.0790 C.ar  1 <1>   0.0860 
  5 C       -3.8850     0.8420    -0.3240 C.3   1 <1>   0.1400 
  6 C       -2.9330    -1.3390    -0.8380 C.3   1 <1>   0.1400 
  7 C       -0.3690     2.7410    -0.2350 C.ar  1 <1>  -0.1500 
  8 C       -2.0460     2.9630    -1.9160 C.ar  1 <1>  -0.1500 
  9 C       -4.8030    -0.2530     0.2270 C.3   1 <1>   0.2000 
 10 C       -3.9660    -1.5310     0.2710 C.3   1 <1>  -0.0800 
 11 C       -0.1960     4.1160    -0.1980 C.ar  1 <1>  -0.1440 
 12 C       -1.8870     4.3360    -1.8930 C.ar  1 <1>  -0.1500 
 13 O       -5.2500     0.0550     1.5020 O.3   1 <1>  -0.6800 
 14 C       -4.8210    -2.8020     0.1280 C.3   1 <1>  -0.0170 
 15 C       -0.9670     4.9100    -1.0340 C.ar  1 <1>  -0.1500 
 16 C        0.8340     4.7270     0.7500 C.3   1 <1>   0.0630 
 17 C       -3.9700    -4.0600     0.1790 C.ar  1 <1>   0.1670 
 18 C        0.1590     5.6510     1.7690 C.3   1 <1>  -0.2400 
 19 C        1.9180     5.4770    -0.0300 C.3   1 <1>  -0.2400 
 20 N       -3.4380    -4.4610    -0.9650 N.ar  1 <1>  -0.6200 
 21 C       -3.7830    -4.7250     1.3890 C.ar  1 <1>   0.1600 
 22 C       -2.7090    -5.5540    -0.8180 C.ar  1 <1>   0.1600 
 23 N       -3.0550    -5.8200     1.5390 N.ar  1 <1>  -0.6200 
 24 C       -2.5230    -6.2110     0.3930 C.ar  1 <1>   0.1600 
 25 H       -3.5610     1.5090     0.4560 H     1 <1>   0.0800 
 26 H       -4.3890     1.3950    -1.0960 H     1 <1>   0.0800 
 27 H       -3.3180    -1.6740    -1.7870 H     1 <1>   0.0800 
 28 H       -2.0220    -1.8720    -0.6210 H     1 <1>   0.0800 
 29 H        0.2240     2.1040     0.3980 H     1 <1>   0.1500 
 30 H       -2.7540     2.5190    -2.5930 H     1 <1>   0.1500 
 31 H       -5.6610    -0.3640    -0.4150 H     1 <1>   0.0800 
 32 H       -3.4220    -1.5710     1.1990 H     1 <1>   0.0800 
 33 H       -2.4740     4.9600    -2.5440 H     1 <1>   0.1500 
 34 H       -4.4910     0.1820     2.1040 H     1 <1>   0.4000 
 35 H       -5.3580    -2.7810    -0.8040 H     1 <1>   0.0800 
 36 H       -5.5490    -2.8290     0.9190 H     1 <1>   0.0800 
 37 H       -0.8510     5.9790    -1.0250 H     1 <1>   0.1500 
 38 H        1.3150     3.9330     1.2970 H     1 <1>   0.0800 
 39 H       -0.2970     6.4930     1.2800 H     1 <1>   0.0800 
 40 H        0.8810     6.0150     2.4770 H     1 <1>   0.0800 
 41 H       -0.6030     5.1110     2.3030 H     1 <1>   0.0800 
 42 H        1.5020     6.3150    -0.5590 H     1 <1>   0.0800 
 43 H        2.3760     4.8150    -0.7440 H     1 <1>   0.0800 
 44 H        2.6790     5.8350     0.6400 H     1 <1>   0.0800 
 45 H       -4.2530    -4.3330     2.2740 H     1 <1>   0.1500 
 46 H       -2.2340    -5.9500    -1.6970 H     1 <1>   0.1500 
 47 H       -1.9110    -7.0940     0.4120 H     1 <1>   0.1500 
@<TRIPOS>BOND
  1   1   2  2   
  2   2   3  am  
  3   2   4  1   
  4   3   5  1   
  5   3   6  1   
  6   4   7  ar  
  7   4   8  ar  
  8   5   9  1   
  9   5  25  1   
 10   5  26  1   
 11   6  10  1   
 12   6  27  1   
 13   6  28  1   
 14   7  11  ar  
 15   7  29  1   
 16   8  12  ar  
 17   8  30  1   
 18   9  10  1   
 19   9  13  1   
 20   9  31  1   
 21  10  14  1   
 22  10  32  1   
 23  11  15  ar  
 24  11  16  1   
 25  12  15  ar  
 26  12  33  1   
 27  13  34  1   
 28  14  17  1   
 29  14  35  1   
 30  14  36  1   
 31  15  37  1   
 32  16  18  1   
 33  16  19  1   
 34  16  38  1   
 35  17  20  ar  
 36  17  21  ar  
 37  18  39  1   
 38  18  40  1   
 39  18  41  1   
 40  19  42  1   
 41  19  43  1   
 42  19  44  1   
 43  20  22  ar  
 44  21  23  ar  
 45  21  45  1   
 46  22  24  ar  
 47  22  46  1   
 48  23  24  ar  
 49  24  47  1   
@<TRIPOS>SUBSTRUCTURE
  1 ****   3 GROUP 4 **** **** 0

# MOE 2024.06 (io_trps.svl 2023.06)
