@<TRIPOS>MOLECULE
NONAME
54 56 1 0 0 
SMALL
USER_CHARGES


@<TRIPOS>ATOM
  1 O        0.7590     2.6830    -1.9310 O.3   1 <1>  -0.6800 
  2 C       -0.3470     3.2540    -1.2890 C.3   1 <1>   0.2000 
  3 C       -1.0500     2.2330    -0.3330 C.3   1 <1>   0.0000 
  4 C        0.1810     4.4560    -0.4840 C.3   1 <1>   0.3430 
  5 C       -0.4540     2.3390     1.1070 C.3   1 <1>  -0.1600 
  6 C       -0.8600     0.7860    -0.8780 C.3   1 <1>   0.1200 
  7 C       -2.5810     2.5250    -0.2870 C.3   1 <1>  -0.1600 
  8 N        1.2850     4.0150     0.4410 N.4   1 <1>  -0.9590 
  9 C        1.0360     2.7000     1.1140 C.3   1 <1>   0.3430 
 10 O       -1.5940    -0.1470    -0.1590 O.3   1 <1>  -0.6800 
 11 C       -3.0260     3.9750    -0.0030 C.3   1 <1>  -0.1600 
 12 C        1.7130     5.0920     1.3780 C.3   1 <1>   0.4860 
 13 C       -4.5520     4.0620     0.0640 C.3   1 <1>  -0.2400 
 14 C        2.0590     6.3320     0.5720 C.ar  1 <1>  -0.1440 
 15 C        3.2290     6.3090    -0.2340 C.ar  1 <1>   0.0000 
 16 C        1.2330     7.4330     0.6000 C.ar  1 <1>  -0.1440 
 17 C        3.4830     7.4130    -1.0780 C.ar  1 <1>   0.0000 
 18 C        4.1680     5.2470    -0.2520 C.ar  1 <1>  -0.1500 
 19 C        1.5220     8.5310    -0.2200 C.ar  1 <1>  -0.1500 
 20 C       -0.0080     7.5370     1.4810 C.3   1 <1>  -0.0970 
 21 C        2.6110     8.5150    -1.0410 C.ar  1 <1>  -0.1500 
 22 C        4.6040     7.3920    -1.9310 C.ar  1 <1>  -0.1500 
 23 C        5.2520     5.2550    -1.0850 C.ar  1 <1>  -0.1500 
 24 C        5.4700     6.3370    -1.9420 C.ar  1 <1>  -0.1500 
 25 H        0.4810     2.1700    -2.7190 H     1 <1>   0.4000 
 26 H       -1.0240     3.5890    -2.0570 H     1 <1>   0.0800 
 27 H       -0.6240     4.8840     0.0860 H     1 <1>   0.0800 
 28 H        0.5450     5.2090    -1.1640 H     1 <1>   0.0800 
 29 H       -0.5870     1.4130     1.6360 H     1 <1>   0.0800 
 30 H       -0.9700     3.0800     1.6880 H     1 <1>   0.0800 
 31 H        0.1730     0.4810    -0.8490 H     1 <1>   0.0800 
 32 H       -1.2040     0.7300    -1.8980 H     1 <1>   0.0800 
 33 H       -3.0120     2.2320    -1.2310 H     1 <1>   0.0800 
 34 H       -3.0320     1.8900     0.4570 H     1 <1>   0.0800 
 35 H        2.0680     3.8620    -0.2140 H     1 <1>   0.4500 
 36 H        1.5730     1.9300     0.5820 H     1 <1>   0.0800 
 37 H        1.4050     2.7220     2.1270 H     1 <1>   0.0800 
 38 H       -1.1880    -0.3540     0.7030 H     1 <1>   0.4000 
 39 H       -2.6320     4.3230     0.9350 H     1 <1>   0.0800 
 40 H       -2.6930     4.6360    -0.7840 H     1 <1>   0.0800 
 41 H        0.9190     5.3040     2.0720 H     1 <1>   0.0800 
 42 H        2.5770     4.7790     1.9410 H     1 <1>   0.0800 
 43 H       -4.9350     3.4370     0.8530 H     1 <1>   0.0800 
 44 H       -4.9920     3.7460    -0.8670 H     1 <1>   0.0800 
 45 H       -4.8600     5.0760     0.2560 H     1 <1>   0.0800 
 46 H        4.0540     4.4090     0.4070 H     1 <1>   0.1500 
 47 H        0.8800     9.3950    -0.2070 H     1 <1>   0.1500 
 48 H       -0.3580     8.5540     1.5270 H     1 <1>   0.0800 
 49 H        0.2110     7.2330     2.4890 H     1 <1>   0.0800 
 50 H       -0.8040     6.9310     1.0880 H     1 <1>   0.0800 
 51 H        2.8240     9.3580    -1.6750 H     1 <1>   0.1500 
 52 H        4.7710     8.2330    -2.5810 H     1 <1>   0.1500 
 53 H        5.9580     4.4410    -1.0940 H     1 <1>   0.1500 
 54 H        6.3250     6.3270    -2.5960 H     1 <1>   0.1500 
@<TRIPOS>BOND
  1   1   2  1   
  2   1  25  1   
  3   2   3  1   
  4   2   4  1   
  5   2  26  1   
  6   3   5  1   
  7   3   6  1   
  8   3   7  1   
  9   4   8  1   
 10   4  27  1   
 11   4  28  1   
 12   5   9  1   
 13   5  29  1   
 14   5  30  1   
 15   6  10  1   
 16   6  31  1   
 17   6  32  1   
 18   7  11  1   
 19   7  33  1   
 20   7  34  1   
 21   8   9  1   
 22   8  12  1   
 23   8  35  1   
 24   9  36  1   
 25   9  37  1   
 26  10  38  1   
 27  11  13  1   
 28  11  39  1   
 29  11  40  1   
 30  12  14  1   
 31  12  41  1   
 32  12  42  1   
 33  13  43  1   
 34  13  44  1   
 35  13  45  1   
 36  14  15  ar  
 37  14  16  ar  
 38  15  17  ar  
 39  15  18  ar  
 40  16  19  ar  
 41  16  20  1   
 42  17  21  ar  
 43  17  22  ar  
 44  18  23  ar  
 45  18  46  1   
 46  19  21  ar  
 47  19  47  1   
 48  20  48  1   
 49  20  49  1   
 50  20  50  1   
 51  21  51  1   
 52  22  24  ar  
 53  22  52  1   
 54  23  24  ar  
 55  23  53  1   
 56  24  54  1   
@<TRIPOS>SUBSTRUCTURE
  1 ****   4 GROUP 4 **** **** 0

# MOE 2024.06 (io_trps.svl 2023.06)
