@<TRIPOS>MOLECULE
NONAME
38 40 1 0 0 
SMALL
USER_CHARGES


@<TRIPOS>ATOM
  1 O       -0.5530    -0.1790    -0.0710 O.3   1 <1>  -0.2800 
  2 C       -0.2420     0.9210    -0.6930 C.2   1 <1>   0.4780 
  3 C       -0.5220    -1.0920    -0.9850 C.2   1 <1>   0.2980 
  4 N       -0.0130     0.6880    -1.9450 N.2   1 <1>  -0.3380 
  5 C       -0.1850     2.1820    -0.0020 C.2   1 <1>   0.1400 
  6 N       -0.1930    -0.6190    -2.1260 N.2   1 <1>  -0.3380 
  7 C       -0.8210    -2.5500    -0.6390 C.3   1 <1>   0.2900 
  8 O       -0.4490     2.2650     1.2990 O.3   1 <1>  -0.2800 
  9 C        0.1130     3.4290    -0.4620 C.2   1 <1>  -0.1500 
 10 N       -2.2670    -2.8660    -0.4660 N.3   1 <1>  -0.8100 
 11 C       -0.3270     3.5200     1.6750 C.2   1 <1>  -0.0100 
 12 C        0.0210     4.2960     0.6280 C.2   1 <1>  -0.1500 
 13 C       -2.4790    -4.3210    -0.3720 C.3   1 <1>   0.1100 
 14 C       -2.8510    -2.1520     0.6840 C.3   1 <1>   0.0300 
 15 C       -3.9000    -4.6900    -0.8080 C.3   1 <1>   0.0960 
 16 N       -4.0790    -6.1510    -0.7170 N.pl3 1 <1>   0.0480 
 17 C       -4.5080    -6.8930     0.3340 C.2   1 <1>   0.0060 
 18 C       -3.8100    -7.0490    -1.6820 C.2   1 <1>  -0.3020 
 19 N       -4.5230    -8.1640     0.1010 N.2   1 <1>  -0.5650 
 20 C       -4.9310    -6.3030     1.6650 C.3   1 <1>  -0.0600 
 21 C       -4.0860    -8.2660    -1.1670 C.2   1 <1>   0.0770 
 22 H       -0.2830    -2.8120     0.2550 H     1 <1>   0.0800 
 23 H       -0.4310    -3.1470    -1.4440 H     1 <1>   0.0800 
 24 H        0.3720     3.7070    -1.4690 H     1 <1>   0.1500 
 25 H       -0.5050     3.7760     2.7060 H     1 <1>   0.1500 
 26 H        0.1970     5.3580     0.6050 H     1 <1>   0.1500 
 27 H       -2.2950    -4.6580     0.6350 H     1 <1>   0.0800 
 28 H       -1.7950    -4.8290    -1.0320 H     1 <1>   0.0800 
 29 H       -2.8160    -1.0890     0.5180 H     1 <1>   0.0800 
 30 H       -2.3120    -2.3830     1.5880 H     1 <1>   0.0800 
 31 H       -3.8830    -2.4210     0.8140 H     1 <1>   0.0800 
 32 H       -4.0570    -4.3840    -1.8260 H     1 <1>   0.0800 
 33 H       -4.6290    -4.2120    -0.1840 H     1 <1>   0.0800 
 34 H       -3.4460    -6.7840    -2.6570 H     1 <1>   0.1500 
 35 H       -4.1230    -5.7440     2.0980 H     1 <1>   0.0800 
 36 H       -5.2020    -7.0940     2.3410 H     1 <1>   0.0800 
 37 H       -5.7820    -5.6620     1.5290 H     1 <1>   0.0800 
 38 H       -3.9930    -9.2250    -1.6490 H     1 <1>   0.1500 
@<TRIPOS>BOND
  1   1   2  1   
  2   1   3  1   
  3   2   4  2   
  4   2   5  1   
  5   3   6  2   
  6   3   7  1   
  7   4   6  1   
  8   5   8  1   
  9   5   9  2   
 10   7  10  1   
 11   7  22  1   
 12   7  23  1   
 13   8  11  1   
 14   9  12  1   
 15   9  24  1   
 16  10  13  1   
 17  10  14  1   
 18  11  12  2   
 19  11  25  1   
 20  12  26  1   
 21  13  15  1   
 22  13  27  1   
 23  13  28  1   
 24  14  29  1   
 25  14  30  1   
 26  14  31  1   
 27  15  16  1   
 28  15  32  1   
 29  15  33  1   
 30  16  17  1   
 31  16  18  1   
 32  17  19  2   
 33  17  20  1   
 34  18  21  2   
 35  18  34  1   
 36  19  21  1   
 37  20  35  1   
 38  20  36  1   
 39  20  37  1   
 40  21  38  1   
@<TRIPOS>SUBSTRUCTURE
  1 ****  10 GROUP 4 **** **** 0

# MOE 2024.06 (io_trps.svl 2023.06)
