@<TRIPOS>MOLECULE
NONAME
44 47 1 0 0 
SMALL
USER_CHARGES


@<TRIPOS>ATOM
  1 S       -0.1830     0.2720     1.2570 S.o2  1 <1>   1.5010 
  2 O       -0.4960     1.5260     1.9060 O.2   1 <1>  -0.6500 
  3 O       -0.0060    -0.9190     2.0600 O.2   1 <1>  -0.6500 
  4 N       -1.4530    -0.0670     0.1840 N.am  1 <1>  -0.8490 
  5 C        1.2180     0.5160     0.1600 C.2   1 <1>  -0.0630 
  6 C       -2.7860     0.0420     0.8100 C.3   1 <1>   0.1960 
  7 C       -1.2240    -1.2950    -0.5980 C.3   1 <1>   0.1960 
  8 C        2.4110    -0.0940     0.0540 C.2   1 <1>  -0.0400 
  9 C        1.2910     1.4540    -0.8500 C.2   1 <1>   0.1080 
 10 C       -3.3970    -1.3330     1.0660 C.3   1 <1>  -0.1600 
 11 C       -2.5070    -1.7630    -1.2820 C.3   1 <1>  -0.1600 
 12 O        3.1320     0.4050    -0.9270 O.3   1 <1>  -0.0190 
 13 C        3.0320    -1.2240     0.8550 C.3   1 <1>  -0.0600 
 14 N        2.4090     1.3600    -1.4660 N.2   1 <1>  -0.4100 
 15 C        0.2240     2.4680    -1.2140 C.3   1 <1>  -0.0590 
 16 C       -3.6240    -2.0640    -0.2670 C.3   1 <1>   0.4610 
 17 O       -4.8020    -1.5510    -0.8610 O.3   1 <1>  -0.5600 
 18 C       -3.7580    -3.5740    -0.0440 C.2   1 <1>  -0.1810 
 19 C       -6.0540    -2.0580    -0.4570 C.3   1 <1>   0.1200 
 20 C       -4.9100    -4.2090    -0.2940 C.2   1 <1>  -0.1400 
 21 C       -2.7280    -4.4560     0.4290 C.2   1 <1>  -0.1500 
 22 C       -6.1780    -3.5560    -0.7720 C.3   1 <1>   0.0200 
 23 S       -4.7910    -5.9290     0.0090 S.3   1 <1>  -0.0800 
 24 C       -3.1180    -5.7430     0.5120 C.2   1 <1>  -0.1100 
 25 H       -3.4320     0.5910     0.1450 H     1 <1>   0.0800 
 26 H       -2.7380     0.5940     1.7340 H     1 <1>   0.0800 
 27 H       -0.8670    -2.0830     0.0440 H     1 <1>   0.0800 
 28 H       -0.4690    -1.1070    -1.3430 H     1 <1>   0.0800 
 29 H       -4.3200    -1.2340     1.6040 H     1 <1>   0.0800 
 30 H       -2.7270    -1.8940     1.6920 H     1 <1>   0.0800 
 31 H       -2.3000    -2.6420    -1.8650 H     1 <1>   0.0800 
 32 H       -2.8190    -0.9900    -1.9620 H     1 <1>   0.0800 
 33 H        2.3930    -1.5400     1.6570 H     1 <1>   0.0800 
 34 H        3.9660    -0.8960     1.2740 H     1 <1>   0.0800 
 35 H        3.2200    -2.0650     0.2120 H     1 <1>   0.0800 
 36 H       -0.0450     3.0490    -0.3500 H     1 <1>   0.0800 
 37 H       -0.6490     1.9680    -1.5900 H     1 <1>   0.0800 
 38 H        0.5940     3.1340    -1.9730 H     1 <1>   0.0800 
 39 H       -6.8160    -1.5050    -0.9770 H     1 <1>   0.0800 
 40 H       -6.1670    -1.8900     0.5990 H     1 <1>   0.0800 
 41 H       -1.7500    -4.0930     0.6890 H     1 <1>   0.1500 
 42 H       -6.2970    -3.7090    -1.8290 H     1 <1>   0.0800 
 43 H       -7.0290    -3.9680    -0.2610 H     1 <1>   0.0800 
 44 H       -2.5970    -6.6310     0.8230 H     1 <1>   0.1500 
@<TRIPOS>BOND
  1   1   2  2   
  2   1   3  2   
  3   1   4  am  
  4   1   5  1   
  5   4   6  1   
  6   4   7  1   
  7   5   8  2   
  8   5   9  1   
  9   6  10  1   
 10   6  25  1   
 11   6  26  1   
 12   7  11  1   
 13   7  27  1   
 14   7  28  1   
 15   8  12  1   
 16   8  13  1   
 17   9  14  2   
 18   9  15  1   
 19  10  16  1   
 20  10  29  1   
 21  10  30  1   
 22  11  16  1   
 23  11  31  1   
 24  11  32  1   
 25  12  14  1   
 26  13  33  1   
 27  13  34  1   
 28  13  35  1   
 29  15  36  1   
 30  15  37  1   
 31  15  38  1   
 32  16  17  1   
 33  16  18  1   
 34  17  19  1   
 35  18  20  2   
 36  18  21  1   
 37  19  22  1   
 38  19  39  1   
 39  19  40  1   
 40  20  22  1   
 41  20  23  1   
 42  21  24  2   
 43  21  41  1   
 44  22  42  1   
 45  22  43  1   
 46  23  24  1   
 47  24  44  1   
@<TRIPOS>SUBSTRUCTURE
  1 ****   7 GROUP 4 **** **** 0

# MOE 2024.06 (io_trps.svl 2023.06)
