@<TRIPOS>MOLECULE
NONAME
26 27 1 0 0 
SMALL
USER_CHARGES


@<TRIPOS>ATOM
  1 F        0.2860    -0.1460    -1.1940 F     1 <1>  -0.1900 
  2 C        1.3590    -0.7580    -0.7570 C.ar  1 <1>   0.1900 
  3 C        2.4640    -0.0180    -0.3260 C.ar  1 <1>   0.1170 
  4 C        1.3320    -2.1390    -0.7560 C.ar  1 <1>  -0.1500 
  5 N        2.5030     1.3980    -0.3030 N.am  1 <1>  -0.4770 
  6 C        3.5670    -0.7500     0.1060 C.ar  1 <1>  -0.1500 
  7 C        2.4460    -2.8320    -0.3150 C.ar  1 <1>  -0.1500 
  8 C        3.5540     2.2090    -0.6210 C.2   1 <1>   0.5690 
  9 C        1.3550     2.1950     0.1810 C.3   1 <1>   0.1400 
 10 C        3.5670    -2.1380     0.1140 C.ar  1 <1>  -0.1440 
 11 O        4.6310     1.8680    -1.0450 O.2   1 <1>  -0.5700 
 12 C        3.2250     3.6560    -0.3700 C.3   1 <1>  -0.0990 
 13 C        1.9290     3.5900     0.4480 C.3   1 <1>  -0.1600 
 14 C        4.7930    -2.8950     0.5920 C.3   1 <1>  -0.0970 
 15 H        0.4570    -2.6610    -1.0970 H     1 <1>   0.1500 
 16 H        4.4410    -0.2210     0.4410 H     1 <1>   0.1500 
 17 H        2.4380    -3.9080    -0.3090 H     1 <1>   0.1500 
 18 H        0.9370     1.7590     1.0720 H     1 <1>   0.0800 
 19 H        0.6060     2.2430    -0.5910 H     1 <1>   0.0800 
 20 H        3.0670     4.1440    -1.3130 H     1 <1>   0.0800 
 21 H        4.0180     4.1410     0.1690 H     1 <1>   0.0800 
 22 H        2.1570     3.6780     1.4960 H     1 <1>   0.0800 
 23 H        1.2350     4.3660     0.1760 H     1 <1>   0.0800 
 24 H        5.6800    -2.3040     0.4480 H     1 <1>   0.0800 
 25 H        4.9050    -3.8120     0.0420 H     1 <1>   0.0800 
 26 H        4.6950    -3.1250     1.6370 H     1 <1>   0.0800 
@<TRIPOS>BOND
  1   1   2  1   
  2   2   3  ar  
  3   2   4  ar  
  4   3   5  1   
  5   3   6  ar  
  6   4   7  ar  
  7   4  15  1   
  8   5   8  am  
  9   5   9  1   
 10   6  10  ar  
 11   6  16  1   
 12   7  10  ar  
 13   7  17  1   
 14   8  11  2   
 15   8  12  1   
 16   9  13  1   
 17   9  18  1   
 18   9  19  1   
 19  10  14  1   
 20  12  13  1   
 21  12  20  1   
 22  12  21  1   
 23  13  22  1   
 24  13  23  1   
 25  14  24  1   
 26  14  25  1   
 27  14  26  1   
@<TRIPOS>SUBSTRUCTURE
  1 ****   3 GROUP 4 **** **** 0

# MOE 2024.06 (io_trps.svl 2023.06)
