@<TRIPOS>MOLECULE
NONAME
50 52 1 0 0 
SMALL
USER_CHARGES


@<TRIPOS>ATOM
  1 F       -0.4480     0.7370     0.4200 F     1 <1>  -0.1900 
  2 C       -1.7430     0.9290     0.3990 C.ar  1 <1>   0.1900 
  3 C       -2.3500     1.7960    -0.5170 C.ar  1 <1>   0.0830 
  4 C       -2.4830     0.2320     1.3350 C.ar  1 <1>  -0.1500 
  5 O       -1.7320     2.5360    -1.4820 O.3   1 <1>  -0.3630 
  6 C       -3.7270     1.9330    -0.4560 C.ar  1 <1>  -0.1500 
  7 C       -3.8550     0.3930     1.3680 C.ar  1 <1>  -0.1500 
  8 C       -0.3420     2.4870    -1.7170 C.3   1 <1>   0.0400 
  9 C       -4.5080     1.2420     0.4730 C.ar  1 <1>   0.0530 
 10 C       -5.9380     1.4250     0.5030 C.2   1 <1>   0.0870 
 11 O       -6.4280     2.6290     0.3560 O.3   1 <1>  -0.0190 
 12 C       -6.9960     0.5820     0.6690 C.2   1 <1>  -0.0860 
 13 N       -7.7310     2.6640     0.4200 N.2   1 <1>  -0.4100 
 14 C       -8.0990     1.4470     0.6100 C.2   1 <1>   0.3720 
 15 C       -7.0470    -0.8390     0.8430 C.2   1 <1>   0.7160 
 16 N       -9.4490     1.0720     0.7160 N.pl3 1 <1>  -0.8210 
 17 O       -6.0640    -1.5380     0.6860 O.2   1 <1>  -0.5700 
 18 N       -8.2180    -1.4410     1.1870 N.am  1 <1>  -0.7300 
 19 C      -10.1060     0.9520    -0.6140 C.3   1 <1>   0.1290 
 20 C      -10.2400     1.9450     1.6310 C.3   1 <1>   0.1290 
 21 C       -8.4800    -2.8850     1.3230 C.3   1 <1>   0.1400 
 22 C       -9.5720    -3.2800     0.3310 C.3   1 <1>  -0.1600 
 23 C       -9.8960    -4.7760     0.4280 C.3   1 <1>   0.0200 
 24 C      -10.9910    -5.1980    -0.5350 C.2   1 <1>  -0.0400 
 25 O      -11.3790    -6.4570    -0.5060 O.3   1 <1>  -0.2800 
 26 C      -11.6910    -4.5130    -1.4670 C.2   1 <1>  -0.1500 
 27 C      -12.3270    -6.6070    -1.4090 C.2   1 <1>  -0.0100 
 28 C      -12.5700    -5.4400    -2.0420 C.2   1 <1>  -0.1500 
 29 H       -1.9900    -0.4280     2.0250 H     1 <1>   0.1500 
 30 H       -4.2060     2.5960    -1.1530 H     1 <1>   0.1500 
 31 H       -4.4300    -0.1480     2.0990 H     1 <1>   0.1500 
 32 H       -0.1190     3.1400    -2.5400 H     1 <1>   0.0800 
 33 H       -0.0640     1.4780    -1.9670 H     1 <1>   0.0800 
 34 H        0.1750     2.8230    -0.8350 H     1 <1>   0.0800 
 35 H       -9.0260    -0.8020     1.2390 H     1 <1>   0.3700 
 36 H       -9.5350     0.2920    -1.2450 H     1 <1>   0.0800 
 37 H      -10.1650     1.9180    -1.0860 H     1 <1>   0.0800 
 38 H      -11.0980     0.5510    -0.5020 H     1 <1>   0.0800 
 39 H       -9.7040     2.0860     2.5550 H     1 <1>   0.0800 
 40 H      -11.1890     1.4870     1.8490 H     1 <1>   0.0800 
 41 H      -10.4050     2.9080     1.1790 H     1 <1>   0.0800 
 42 H       -8.7960    -3.0930     2.3310 H     1 <1>   0.0800 
 43 H       -7.5790    -3.4440     1.1250 H     1 <1>   0.0800 
 44 H       -9.2380    -3.0570    -0.6670 H     1 <1>   0.0800 
 45 H      -10.4630    -2.7140     0.5380 H     1 <1>   0.0800 
 46 H      -10.2140    -5.0150     1.4270 H     1 <1>   0.0800 
 47 H       -9.0130    -5.3540     0.2120 H     1 <1>   0.0800 
 48 H      -11.6210    -3.4770    -1.7430 H     1 <1>   0.1500 
 49 H      -12.7740    -7.5770    -1.5360 H     1 <1>   0.1500 
 50 H      -13.2780    -5.2320    -2.8240 H     1 <1>   0.1500 
@<TRIPOS>BOND
  1   1   2  1   
  2   2   3  ar  
  3   2   4  ar  
  4   3   5  1   
  5   3   6  ar  
  6   4   7  ar  
  7   4  29  1   
  8   5   8  1   
  9   6   9  ar  
 10   6  30  1   
 11   7   9  ar  
 12   7  31  1   
 13   8  32  1   
 14   8  33  1   
 15   8  34  1   
 16   9  10  1   
 17  10  11  1   
 18  10  12  2   
 19  11  13  1   
 20  12  14  1   
 21  12  15  1   
 22  13  14  2   
 23  14  16  1   
 24  15  17  2   
 25  15  18  am  
 26  16  19  1   
 27  16  20  1   
 28  18  21  1   
 29  18  35  1   
 30  19  36  1   
 31  19  37  1   
 32  19  38  1   
 33  20  39  1   
 34  20  40  1   
 35  20  41  1   
 36  21  22  1   
 37  21  42  1   
 38  21  43  1   
 39  22  23  1   
 40  22  44  1   
 41  22  45  1   
 42  23  24  1   
 43  23  46  1   
 44  23  47  1   
 45  24  25  1   
 46  24  26  2   
 47  25  27  1   
 48  26  28  1   
 49  26  48  1   
 50  27  28  2   
 51  27  49  1   
 52  28  50  1   
@<TRIPOS>SUBSTRUCTURE
  1 ****  15 GROUP 4 **** **** 0

# MOE 2024.06 (io_trps.svl 2023.06)
