@<TRIPOS>MOLECULE
NONAME
43 45 1 0 0 
SMALL
USER_CHARGES


@<TRIPOS>ATOM
  1 S       -1.5080     1.4180    -1.0860 S.o2  1 <1>   1.5000 
  2 O       -2.3050     2.4570    -0.4670 O.2   1 <1>  -0.6500 
  3 O       -1.3570     1.4170    -2.5250 O.2   1 <1>  -0.6500 
  4 N       -2.1820    -0.0750    -0.6420 N.am  1 <1>  -0.8490 
  5 C        0.1420     1.4010    -0.3410 C.2   1 <1>  -0.0220 
  6 C       -1.4760    -1.2530    -1.2020 C.3   1 <1>   0.1960 
  7 C       -2.6010    -0.1870     0.7490 C.3   1 <1>   0.1960 
  8 S        0.3140     1.9000     1.3410 S.3   1 <1>  -0.0800 
  9 C        1.3490     1.0290    -0.8180 C.2   1 <1>  -0.1500 
 10 C       -1.6890    -2.5800    -0.4270 C.3   1 <1>  -0.1060 
 11 C       -3.5380    -1.3900     0.9190 C.3   1 <1>  -0.1600 
 12 C        2.0380     1.5780     1.3270 C.2   1 <1>  -0.1100 
 13 C        2.4250     1.1260     0.1210 C.2   1 <1>  -0.1810 
 14 C       -1.4700    -3.7320    -1.4130 C.2   1 <1>   0.9060 
 15 C       -3.1640    -2.5850     0.0260 C.3   1 <1>   0.2000 
 16 C       -0.7300    -2.8040     0.7900 C.3   1 <1>  -0.0650 
 17 C        3.8320     0.7270    -0.2740 C.3   1 <1>  -0.0590 
 18 O       -0.8000    -3.5530    -2.4360 O.co2 1 <1>  -0.9000 
 19 O       -1.9680    -4.8390    -1.1550 O.co2 1 <1>  -0.9000 
 20 O       -3.4460    -3.7490     0.7140 O.3   1 <1>  -0.6800 
 21 C        0.7090    -2.3000     0.6090 C.3   1 <1>  -0.1950 
 22 C        1.6850    -3.0350    -0.2500 C.3   1 <1>  -0.2000 
 23 C        1.8520    -3.0250     1.2430 C.3   1 <1>  -0.2000 
 24 H       -1.8530    -1.3770    -2.2050 H     1 <1>   0.0800 
 25 H       -0.4240    -1.0630    -1.3110 H     1 <1>   0.0800 
 26 H       -1.7340    -0.2860     1.3780 H     1 <1>   0.0800 
 27 H       -3.1280     0.7020     1.0530 H     1 <1>   0.0800 
 28 H        1.5200     0.6730    -1.8210 H     1 <1>   0.1500 
 29 H       -4.5370    -1.0850     0.6710 H     1 <1>   0.0800 
 30 H       -3.5300    -1.6800     1.9550 H     1 <1>   0.0800 
 31 H        2.5830     1.7610     2.2360 H     1 <1>   0.1500 
 32 H       -3.7880    -2.5770    -0.8540 H     1 <1>   0.0800 
 33 H       -1.1230    -2.3510     1.6790 H     1 <1>   0.0800 
 34 H       -0.7000    -3.8610     0.9970 H     1 <1>   0.0800 
 35 H        3.8500    -0.3080    -0.5660 H     1 <1>   0.0800 
 36 H        4.5070     0.8640     0.5520 H     1 <1>   0.0800 
 37 H        4.1670     1.3280    -1.0990 H     1 <1>   0.0800 
 38 H       -3.0390    -4.4790     0.1600 H     1 <1>   0.4000 
 39 H        0.7710    -1.2290     0.6380 H     1 <1>   0.1000 
 40 H        1.3520    -3.9360    -0.7400 H     1 <1>   0.1000 
 41 H        2.3430    -2.4560    -0.8720 H     1 <1>   0.1000 
 42 H        2.6560    -2.4510     1.6690 H     1 <1>   0.1000 
 43 H        1.6650    -3.9390     1.7790 H     1 <1>   0.1000 
@<TRIPOS>BOND
  1   1   2  2   
  2   1   3  2   
  3   1   4  am  
  4   1   5  1   
  5   4   6  1   
  6   4   7  1   
  7   5   8  1   
  8   5   9  2   
  9   6  10  1   
 10   6  24  1   
 11   6  25  1   
 12   7  11  1   
 13   7  26  1   
 14   7  27  1   
 15   8  12  1   
 16   9  13  1   
 17   9  28  1   
 18  10  14  1   
 19  10  15  1   
 20  10  16  1   
 21  11  15  1   
 22  11  29  1   
 23  11  30  1   
 24  12  13  2   
 25  12  31  1   
 26  13  17  1   
 27  14  18  ar  
 28  14  19  ar  
 29  15  20  1   
 30  15  32  1   
 31  16  21  1   
 32  16  33  1   
 33  16  34  1   
 34  17  35  1   
 35  17  36  1   
 36  17  37  1   
 37  20  38  1   
 38  21  22  1   
 39  21  23  1   
 40  21  39  1   
 41  22  23  1   
 42  22  40  1   
 43  22  41  1   
 44  23  42  1   
 45  23  43  1   
@<TRIPOS>SUBSTRUCTURE
  1 ****   6 GROUP 4 **** **** 0

# MOE 2024.06 (io_trps.svl 2023.06)
