@<TRIPOS>MOLECULE
NONAME
61 63 1 0 0 
SMALL
USER_CHARGES


@<TRIPOS>ATOM
  1 S       -0.0830     1.2820     0.2160 S.3   1 <1>  -0.0800 
  2 C        0.6330    -0.2630     0.6570 C.2   1 <1>  -0.1400 
  3 C        1.2880     1.6830    -0.8120 C.2   1 <1>  -0.1400 
  4 C        1.8210    -0.4180     0.0420 C.2   1 <1>  -0.1500 
  5 C       -0.1350    -1.1520     1.6190 C.3   1 <1>   0.5230 
  6 C        2.1910     0.6830    -0.7940 C.2   1 <1>  -0.1500 
  7 C        1.2690     3.0170    -1.5380 C.3   1 <1>   0.5230 
  8 N       -1.3540    -1.6720     0.9430 N.4   1 <1>  -0.9590 
  9 N        1.3590     4.1180    -0.5430 N.4   1 <1>  -0.9590 
 10 C       -0.9880    -2.5920    -0.1960 C.3   1 <1>   0.3430 
 11 C       -2.2710    -2.3160     1.9310 C.3   1 <1>   0.3430 
 12 C        1.0880     5.4440    -1.1720 C.3   1 <1>   0.3430 
 13 C        2.6650     4.1030     0.1820 C.3   1 <1>   0.3430 
 14 C       -2.2140    -3.2500    -0.8680 C.3   1 <1>   0.2000 
 15 C       -3.5170    -2.8260     1.2090 C.3   1 <1>  -0.1600 
 16 C        1.0480     6.5280    -0.0940 C.3   1 <1>  -0.1600 
 17 C        2.6530     5.1600     1.2870 C.3   1 <1>  -0.1600 
 18 O       -1.7390    -4.1930    -1.7660 O.3   1 <1>  -0.6800 
 19 C       -3.1680    -3.9150     0.1630 C.3   1 <1>   0.0000 
 20 C        2.3380     6.5560     0.7350 C.3   1 <1>  -0.1600 
 21 C       -2.4300    -5.1140     0.8320 C.3   1 <1>   0.1200 
 22 C       -4.4600    -4.4670    -0.5090 C.3   1 <1>  -0.1600 
 23 O       -3.0240    -5.4630     2.0360 O.3   1 <1>  -0.6800 
 24 C       -5.4010    -3.4550    -1.1990 C.3   1 <1>  -0.1600 
 25 C       -6.5740    -3.0280    -0.3070 C.3   1 <1>  -0.2400 
 26 H        2.4780    -1.2690     0.1340 H     1 <1>   0.1500 
 27 H       -0.4080    -0.5790     2.4900 H     1 <1>   0.0800 
 28 H        0.4880    -1.9730     1.9340 H     1 <1>   0.0800 
 29 H        3.1230     0.6580    -1.3370 H     1 <1>   0.1500 
 30 H        0.3540     3.0990    -2.1020 H     1 <1>   0.0800 
 31 H        2.0980     3.0710    -2.2240 H     1 <1>   0.0800 
 32 H       -1.8360    -0.8570     0.5430 H     1 <1>   0.4500 
 33 H        0.6270     3.9490     0.1580 H     1 <1>   0.4500 
 34 H       -0.4410    -2.0430    -0.9450 H     1 <1>   0.0800 
 35 H       -0.3490    -3.3750     0.1740 H     1 <1>   0.0800 
 36 H       -1.7790    -3.1430     2.4200 H     1 <1>   0.0800 
 37 H       -2.5630    -1.6040     2.6860 H     1 <1>   0.0800 
 38 H        1.8650     5.6770    -1.8830 H     1 <1>   0.0800 
 39 H        0.1440     5.4240    -1.6940 H     1 <1>   0.0800 
 40 H        2.8380     3.1320     0.6190 H     1 <1>   0.0800 
 41 H        3.4690     4.3130    -0.5060 H     1 <1>   0.0800 
 42 H       -2.7290    -2.4990    -1.4390 H     1 <1>   0.0800 
 43 H       -4.2000    -3.2220     1.9410 H     1 <1>   0.0800 
 44 H       -4.0070    -1.9910     0.7430 H     1 <1>   0.0800 
 45 H        0.9070     7.4870    -0.5640 H     1 <1>   0.0800 
 46 H        0.2010     6.3610     0.5500 H     1 <1>   0.0800 
 47 H        1.9280     4.8880     2.0350 H     1 <1>   0.0800 
 48 H        3.6160     5.1770     1.7680 H     1 <1>   0.0800 
 49 H       -2.4680    -4.5550    -2.3140 H     1 <1>   0.4000 
 50 H        2.2360     7.2570     1.5480 H     1 <1>   0.0800 
 51 H        3.1550     6.8910     0.1170 H     1 <1>   0.0800 
 52 H       -1.4060    -4.8760     1.0580 H     1 <1>   0.0800 
 53 H       -2.4280    -5.9810     0.1910 H     1 <1>   0.0800 
 54 H       -4.1690    -5.1910    -1.2510 H     1 <1>   0.0800 
 55 H       -5.0320    -5.0150     0.2200 H     1 <1>   0.0800 
 56 H       -3.8330    -5.9950     1.8850 H     1 <1>   0.4000 
 57 H       -4.8750    -2.5840    -1.5450 H     1 <1>   0.0800 
 58 H       -5.8220    -3.9280    -2.0710 H     1 <1>   0.0800 
 59 H       -6.2420    -2.5370     0.5880 H     1 <1>   0.0800 
 60 H       -7.1640    -3.8840    -0.0280 H     1 <1>   0.0800 
 61 H       -7.2120    -2.3480    -0.8460 H     1 <1>   0.0800 
@<TRIPOS>BOND
  1   1   2  1   
  2   1   3  1   
  3   2   4  2   
  4   2   5  1   
  5   3   6  2   
  6   3   7  1   
  7   4   6  1   
  8   4  26  1   
  9   5   8  1   
 10   5  27  1   
 11   5  28  1   
 12   6  29  1   
 13   7   9  1   
 14   7  30  1   
 15   7  31  1   
 16   8  10  1   
 17   8  11  1   
 18   8  32  1   
 19   9  12  1   
 20   9  13  1   
 21   9  33  1   
 22  10  14  1   
 23  10  34  1   
 24  10  35  1   
 25  11  15  1   
 26  11  36  1   
 27  11  37  1   
 28  12  16  1   
 29  12  38  1   
 30  12  39  1   
 31  13  17  1   
 32  13  40  1   
 33  13  41  1   
 34  14  18  1   
 35  14  19  1   
 36  14  42  1   
 37  15  19  1   
 38  15  43  1   
 39  15  44  1   
 40  16  20  1   
 41  16  45  1   
 42  16  46  1   
 43  17  20  1   
 44  17  47  1   
 45  17  48  1   
 46  18  49  1   
 47  19  21  1   
 48  19  22  1   
 49  20  50  1   
 50  20  51  1   
 51  21  23  1   
 52  21  52  1   
 53  21  53  1   
 54  22  24  1   
 55  22  54  1   
 56  22  55  1   
 57  23  56  1   
 58  24  25  1   
 59  24  57  1   
 60  24  58  1   
 61  25  59  1   
 62  25  60  1   
 63  25  61  1   
@<TRIPOS>SUBSTRUCTURE
  1 ****   2 GROUP 4 **** **** 0

# MOE 2024.06 (io_trps.svl 2023.06)
