@<TRIPOS>MOLECULE
NONAME
49 50 1 0 0 
SMALL
USER_CHARGES


@<TRIPOS>ATOM
  1 O       -0.6650     0.3340     0.4720 O.3   1 <1>  -0.5600 
  2 C        0.6030     0.3180    -0.1150 C.3   1 <1>   0.1200 
  3 C       -1.6570     0.8650    -0.3380 C.3   1 <1>   0.1200 
  4 C        1.5970    -0.2860     0.8710 C.3   1 <1>   0.1200 
  5 C       -2.9730     0.7930     0.4450 C.3   1 <1>   0.3430 
  6 O        2.8500    -0.2910     0.2650 O.3   1 <1>  -0.5600 
  7 N       -4.1480     1.2800    -0.3460 N.4   1 <1>  -0.9590 
  8 C        3.8590    -0.8220     1.0630 C.3   1 <1>   0.0400 
  9 C       -5.4130     0.9260     0.3760 C.3   1 <1>   0.3430 
 10 C       -4.0880     2.7480    -0.6120 C.3   1 <1>   0.3430 
 11 C       -6.6660     1.2980    -0.4470 C.3   1 <1>   0.0000 
 12 C       -5.2810     3.1700    -1.4740 C.3   1 <1>  -0.1600 
 13 C       -7.9240     0.9550     0.3660 C.3   1 <1>   0.2000 
 14 C       -6.6190     2.7940    -0.8200 C.3   1 <1>  -0.1600 
 15 C       -6.8070     0.3850    -1.6770 C.3   1 <1>  -0.1600 
 16 O       -7.6910     1.1930     1.7210 O.3   1 <1>  -0.5600 
 17 C       -8.2030    -0.5320     0.1090 C.3   1 <1>  -0.1600 
 18 C       -7.3990    -0.9190    -1.1390 C.3   1 <1>  -0.1600 
 19 C       -8.8400     1.2460     2.5110 C.3   1 <1>   0.0400 
 20 H        0.5670    -0.2820    -1.0090 H     1 <1>   0.0800 
 21 H        0.8920     1.3280    -0.3510 H     1 <1>   0.0800 
 22 H       -1.3950     1.8840    -0.5670 H     1 <1>   0.0800 
 23 H       -1.7140     0.2740    -1.2360 H     1 <1>   0.0800 
 24 H        1.3240    -1.3010     1.1050 H     1 <1>   0.0800 
 25 H        1.6490     0.3100     1.7650 H     1 <1>   0.0800 
 26 H       -2.8760     1.3760     1.3460 H     1 <1>   0.0800 
 27 H       -3.1350    -0.2350     0.7260 H     1 <1>   0.0800 
 28 H       -4.1750     0.7890    -1.2470 H     1 <1>   0.4500 
 29 H        4.7800    -0.7810     0.5090 H     1 <1>   0.0800 
 30 H        3.6230    -1.8460     1.2990 H     1 <1>   0.0800 
 31 H        3.9490    -0.2360     1.9610 H     1 <1>   0.0800 
 32 H       -5.4370    -0.1290     0.5920 H     1 <1>   0.0800 
 33 H       -5.4480     1.4530     1.3160 H     1 <1>   0.0800 
 34 H       -4.1140     3.2870     0.3220 H     1 <1>   0.0800 
 35 H       -3.1730     2.9990    -1.1230 H     1 <1>   0.0800 
 36 H       -5.2470     4.2370    -1.6160 H     1 <1>   0.0800 
 37 H       -5.2010     2.7170    -2.4470 H     1 <1>   0.0800 
 38 H       -8.7540     1.5560     0.0310 H     1 <1>   0.0800 
 39 H       -7.4320     3.0430    -1.4810 H     1 <1>   0.0800 
 40 H       -6.7450     3.3790     0.0770 H     1 <1>   0.0800 
 41 H       -7.5140     0.8180    -2.3660 H     1 <1>   0.0800 
 42 H       -5.8860     0.2160    -2.2050 H     1 <1>   0.0800 
 43 H       -7.8960    -1.1350     0.9460 H     1 <1>   0.0800 
 44 H       -9.2550    -0.6780    -0.0650 H     1 <1>   0.0800 
 45 H       -6.6110    -1.5990    -0.8640 H     1 <1>   0.0800 
 46 H       -8.0220    -1.3980    -1.8770 H     1 <1>   0.0800 
 47 H       -8.5410     1.4370     3.5260 H     1 <1>   0.0800 
 48 H       -9.3570     0.3030     2.4610 H     1 <1>   0.0800 
 49 H       -9.4750     2.0430     2.1660 H     1 <1>   0.0800 
@<TRIPOS>BOND
  1   1   2  1   
  2   1   3  1   
  3   2   4  1   
  4   2  20  1   
  5   2  21  1   
  6   3   5  1   
  7   3  22  1   
  8   3  23  1   
  9   4   6  1   
 10   4  24  1   
 11   4  25  1   
 12   5   7  1   
 13   5  26  1   
 14   5  27  1   
 15   6   8  1   
 16   7   9  1   
 17   7  10  1   
 18   7  28  1   
 19   8  29  1   
 20   8  30  1   
 21   8  31  1   
 22   9  11  1   
 23   9  32  1   
 24   9  33  1   
 25  10  12  1   
 26  10  34  1   
 27  10  35  1   
 28  11  13  1   
 29  11  14  1   
 30  11  15  1   
 31  12  14  1   
 32  12  36  1   
 33  12  37  1   
 34  13  16  1   
 35  13  17  1   
 36  13  38  1   
 37  14  39  1   
 38  14  40  1   
 39  15  18  1   
 40  15  41  1   
 41  15  42  1   
 42  16  19  1   
 43  17  18  1   
 44  17  43  1   
 45  17  44  1   
 46  18  45  1   
 47  18  46  1   
 48  19  47  1   
 49  19  48  1   
 50  19  49  1   
@<TRIPOS>SUBSTRUCTURE
  1 ****   7 GROUP 4 **** **** 0

# MOE 2024.06 (io_trps.svl 2023.06)
