@<TRIPOS>MOLECULE
NONAME
47 49 1 0 0 
SMALL
USER_CHARGES


@<TRIPOS>ATOM
  1 O        0.2290     0.1830    -0.3060 O.3   1 <1>  -0.5600 
  2 C        1.3890    -0.5090    -0.6760 C.3   1 <1>   0.3440 
  3 C        0.1870     1.5330    -0.6750 C.3   1 <1>   0.2000 
  4 C        1.2900    -1.9580    -0.2200 C.ar  1 <1>  -0.1440 
  5 C        2.6190     0.1520    -0.0130 C.3   1 <1>   0.3430 
  6 C       -1.1970     2.1000    -0.2930 C.3   1 <1>  -0.0800 
  7 C        1.3460     2.2840     0.0220 C.3   1 <1>   0.3430 
  8 C        0.6700    -2.2960     0.9750 C.ar  1 <1>  -0.1500 
  9 C        1.8460    -2.9640    -1.0000 C.ar  1 <1>  -0.1500 
 10 N        2.6890     1.6450    -0.2380 N.4   1 <1>  -0.9590 
 11 C       -2.3320     1.3200    -0.9790 C.3   1 <1>  -0.2400 
 12 C       -1.3300     3.5880    -0.6590 C.3   1 <1>  -0.2400 
 13 C        0.6150    -3.6150     1.3900 C.ar  1 <1>  -0.1500 
 14 C        1.7910    -4.2830    -0.5850 C.ar  1 <1>  -0.1500 
 15 C        3.7660     2.2730     0.5750 C.3   1 <1>   0.4860 
 16 C        1.1780    -4.6100     0.6100 C.ar  1 <1>  -0.1500 
 17 C        3.8510     3.7440     0.2130 C.ar  1 <1>  -0.1440 
 18 C        3.3640     4.7270     1.0550 C.ar  1 <1>  -0.1500 
 19 C        4.4100     4.1760    -0.9760 C.ar  1 <1>  -0.1500 
 20 C        3.4400     6.0550     0.6690 C.ar  1 <1>   0.1600 
 21 C        4.4360     5.5300    -1.2650 C.ar  1 <1>   0.1600 
 22 N        3.9550     6.4710    -0.4730 N.ar  1 <1>  -0.6200 
 23 H        1.4700    -0.4760    -1.7490 H     1 <1>   0.0800 
 24 H        0.3000     1.5930    -1.7450 H     1 <1>   0.0800 
 25 H        3.5110    -0.3240    -0.3870 H     1 <1>   0.0800 
 26 H        2.5620    -0.0530     1.0430 H     1 <1>   0.0800 
 27 H       -1.3240     2.0050     0.7730 H     1 <1>   0.0800 
 28 H        1.1450     2.2940     1.0810 H     1 <1>   0.0800 
 29 H        1.3570     3.3060    -0.3190 H     1 <1>   0.0800 
 30 H        0.2160    -1.5380     1.5910 H     1 <1>   0.1500 
 31 H        2.3230    -2.7390    -1.9380 H     1 <1>   0.1500 
 32 H        2.9160     1.8210    -1.2240 H     1 <1>   0.4500 
 33 H       -2.2440     1.3760    -2.0500 H     1 <1>   0.0800 
 34 H       -3.2890     1.7200    -0.6940 H     1 <1>   0.0800 
 35 H       -2.3100     0.2840    -0.6890 H     1 <1>   0.0800 
 36 H       -1.1740     3.7390    -1.7140 H     1 <1>   0.0800 
 37 H       -0.6320     4.1970    -0.1130 H     1 <1>   0.0800 
 38 H       -2.3190     3.9390    -0.4160 H     1 <1>   0.0800 
 39 H        0.1300    -3.8710     2.3160 H     1 <1>   0.1500 
 40 H        2.2220    -5.0600    -1.1940 H     1 <1>   0.1500 
 41 H        3.5520     2.1660     1.6260 H     1 <1>   0.0800 
 42 H        4.7130     1.8000     0.3700 H     1 <1>   0.0800 
 43 H        1.1340    -5.6360     0.9320 H     1 <1>   0.1500 
 44 H        2.9270     4.4890     2.0090 H     1 <1>   0.1500 
 45 H        4.8340     3.4880    -1.6850 H     1 <1>   0.1500 
 46 H        3.0590     6.8150     1.3320 H     1 <1>   0.1500 
 47 H        4.8750     5.8590    -2.1930 H     1 <1>   0.1500 
@<TRIPOS>BOND
  1   1   2  1   
  2   1   3  1   
  3   2   4  1   
  4   2   5  1   
  5   2  23  1   
  6   3   6  1   
  7   3   7  1   
  8   3  24  1   
  9   4   8  ar  
 10   4   9  ar  
 11   5  10  1   
 12   5  25  1   
 13   5  26  1   
 14   6  11  1   
 15   6  12  1   
 16   6  27  1   
 17   7  10  1   
 18   7  28  1   
 19   7  29  1   
 20   8  13  ar  
 21   8  30  1   
 22   9  14  ar  
 23   9  31  1   
 24  10  15  1   
 25  10  32  1   
 26  11  33  1   
 27  11  34  1   
 28  11  35  1   
 29  12  36  1   
 30  12  37  1   
 31  12  38  1   
 32  13  16  ar  
 33  13  39  1   
 34  14  16  ar  
 35  14  40  1   
 36  15  17  1   
 37  15  41  1   
 38  15  42  1   
 39  16  43  1   
 40  17  18  ar  
 41  17  19  ar  
 42  18  20  ar  
 43  18  44  1   
 44  19  21  ar  
 45  19  45  1   
 46  20  22  ar  
 47  20  46  1   
 48  21  22  ar  
 49  21  47  1   
@<TRIPOS>SUBSTRUCTURE
  1 ****  10 GROUP 4 **** **** 0

# MOE 2024.06 (io_trps.svl 2023.06)
