@<TRIPOS>MOLECULE
NONAME
51 54 1 0 0 
SMALL
USER_CHARGES


@<TRIPOS>ATOM
  1 O       -1.9680     1.5740    -0.3020 O.2   1 <1>  -0.5700 
  2 C       -1.2560     2.5020     0.0660 C.2   1 <1>   0.6160 
  3 N        0.0230     2.6660    -0.4350 N.am  1 <1>  -0.4770 
  4 C       -1.7670     3.4620     0.9950 C.2   1 <1>  -0.1240 
  5 C        0.7880     3.8050    -0.1060 C.ar  1 <1>   0.1170 
  6 C        0.6020     1.6120    -1.3250 C.3   1 <1>   0.0600 
  7 C       -1.0370     4.5460     1.3470 C.2   1 <1>  -0.1780 
  8 C       -3.1480     3.1950     1.5590 C.3   1 <1>   0.4810 
  9 C        0.2630     4.7540     0.7940 C.ar  1 <1>   0.0280 
 10 C        2.0600     4.0390    -0.6430 C.ar  1 <1>  -0.1500 
 11 N       -4.1390     3.1150     0.4570 N.4   1 <1>  -0.9590 
 12 C        1.0170     5.8810     1.1280 C.ar  1 <1>  -0.1500 
 13 C        2.7890     5.1580    -0.3030 C.ar  1 <1>  -0.1500 
 14 C       -5.4490     2.5730     0.9260 C.3   1 <1>   0.3430 
 15 C       -4.2920     4.3910    -0.2960 C.3   1 <1>   0.3430 
 16 C        2.2670     6.0830     0.5870 C.ar  1 <1>  -0.1500 
 17 C       -6.3980     2.2960    -0.2610 C.3   1 <1>   0.0000 
 18 C       -5.1970     4.1650    -1.5090 C.3   1 <1>  -0.1600 
 19 C       -7.7510     1.7830     0.2610 C.3   1 <1>   0.2000 
 20 C       -6.5590     3.5750    -1.1080 C.3   1 <1>  -0.1600 
 21 C       -5.8950     1.1000    -1.0870 C.3   1 <1>  -0.1600 
 22 O       -8.0860     2.3900     1.4610 O.3   1 <1>  -0.6800 
 23 C       -7.6000     0.2730     0.4610 C.3   1 <1>  -0.1600 
 24 C       -6.3350    -0.1380    -0.3040 C.3   1 <1>  -0.1600 
 25 H        1.5450     1.2810    -0.9260 H     1 <1>   0.0800 
 26 H        0.7520     2.0140    -2.3110 H     1 <1>   0.0800 
 27 H       -0.0450     0.7560    -1.4000 H     1 <1>   0.0800 
 28 H       -1.3920     5.2830     2.0460 H     1 <1>   0.1500 
 29 H       -3.4240     3.9740     2.2500 H     1 <1>   0.0800 
 30 H       -3.1260     2.2580     2.0920 H     1 <1>   0.0800 
 31 H        2.4970     3.3470    -1.3370 H     1 <1>   0.1500 
 32 H       -3.7380     2.4140    -0.1950 H     1 <1>   0.4500 
 33 H        0.6190     6.6030     1.8180 H     1 <1>   0.1500 
 34 H        3.7660     5.3200    -0.7260 H     1 <1>   0.1500 
 35 H       -5.2990     1.6580     1.4740 H     1 <1>   0.0800 
 36 H       -5.9170     3.2840     1.5880 H     1 <1>   0.0800 
 37 H       -4.7300     5.1410     0.3430 H     1 <1>   0.0800 
 38 H       -3.3290     4.7450    -0.6290 H     1 <1>   0.0800 
 39 H        2.8420     6.9550     0.8500 H     1 <1>   0.1500 
 40 H       -5.3510     5.1050    -2.0090 H     1 <1>   0.0800 
 41 H       -4.7000     3.5120    -2.2060 H     1 <1>   0.0800 
 42 H       -8.5310     1.9840    -0.4560 H     1 <1>   0.0800 
 43 H       -7.1400     3.3690    -1.9920 H     1 <1>   0.0800 
 44 H       -7.1010     4.3090    -0.5340 H     1 <1>   0.0800 
 45 H       -6.3900     1.0890    -2.0450 H     1 <1>   0.0800 
 46 H       -4.8330     1.1030    -1.2600 H     1 <1>   0.0800 
 47 H       -8.9690     2.0830     1.7550 H     1 <1>   0.4000 
 48 H       -7.4980     0.0150     1.5010 H     1 <1>   0.0800 
 49 H       -8.4580    -0.2340     0.0530 H     1 <1>   0.0800 
 50 H       -5.5660    -0.4240     0.3940 H     1 <1>   0.0800 
 51 H       -6.5220    -0.9710    -0.9630 H     1 <1>   0.0800 
@<TRIPOS>BOND
  1   1   2  2   
  2   2   3  am  
  3   2   4  1   
  4   3   5  1   
  5   3   6  1   
  6   4   7  2   
  7   4   8  1   
  8   5   9  ar  
  9   5  10  ar  
 10   6  25  1   
 11   6  26  1   
 12   6  27  1   
 13   7   9  1   
 14   7  28  1   
 15   8  11  1   
 16   8  29  1   
 17   8  30  1   
 18   9  12  ar  
 19  10  13  ar  
 20  10  31  1   
 21  11  14  1   
 22  11  15  1   
 23  11  32  1   
 24  12  16  ar  
 25  12  33  1   
 26  13  16  ar  
 27  13  34  1   
 28  14  17  1   
 29  14  35  1   
 30  14  36  1   
 31  15  18  1   
 32  15  37  1   
 33  15  38  1   
 34  16  39  1   
 35  17  19  1   
 36  17  20  1   
 37  17  21  1   
 38  18  20  1   
 39  18  40  1   
 40  18  41  1   
 41  19  22  1   
 42  19  23  1   
 43  19  42  1   
 44  20  43  1   
 45  20  44  1   
 46  21  24  1   
 47  21  45  1   
 48  21  46  1   
 49  22  47  1   
 50  23  24  1   
 51  23  48  1   
 52  23  49  1   
 53  24  50  1   
 54  24  51  1   
@<TRIPOS>SUBSTRUCTURE
  1 ****  11 GROUP 4 **** **** 0

# MOE 2024.06 (io_trps.svl 2023.06)
