@<TRIPOS>MOLECULE
NONAME
40 42 1 0 0 
SMALL
USER_CHARGES


@<TRIPOS>ATOM
  1 O       -0.5710     0.0240    -0.6030 O.2   1 <1>  -0.5700 
  2 C       -1.4740     0.6530    -0.0800 C.2   1 <1>   0.5440 
  3 N       -2.5380    -0.0260     0.4540 N.am  1 <1>  -0.6600 
  4 C       -1.3890     2.1010    -0.0320 C.ar  1 <1>   0.0860 
  5 C       -3.6470     0.5560     1.2660 C.3   1 <1>   0.2350 
  6 C       -2.9370    -1.3880     0.0030 C.3   1 <1>   0.2350 
  7 C       -2.3780     2.9110    -0.5890 C.ar  1 <1>  -0.1500 
  8 C       -0.3000     2.7350     0.5630 C.ar  1 <1>  -0.1500 
  9 C       -4.9000    -0.1400     0.7700 C.3   1 <1>  -0.2420 
 10 C       -4.4590    -1.3650     0.0040 C.3   1 <1>  -0.2420 
 11 C       -2.2940     4.2900    -0.5370 C.ar  1 <1>  -0.1500 
 12 C       -0.2100     4.1140     0.6160 C.ar  1 <1>  -0.1500 
 13 C       -6.0630     0.1210     1.7310 C.2   1 <1>   0.9470 
 14 C       -5.2030    -0.2610    -0.7040 C.3   1 <1>  -0.2000 
 15 C       -5.0260    -2.7860    -0.0300 C.2   1 <1>   0.9470 
 16 C       -1.2090     4.9020     0.0690 C.ar  1 <1>  -0.1430 
 17 O       -7.0930     0.6630     1.3070 O.co2 1 <1>  -0.9000 
 18 O       -5.8830    -0.0470     2.9450 O.co2 1 <1>  -0.9000 
 19 O       -5.7670    -3.1240    -0.9640 O.co2 1 <1>  -0.9000 
 20 O       -4.6100    -3.6180     0.7880 O.co2 1 <1>  -0.9000 
 21 C       -1.1170     6.4190     0.1310 C.3   1 <1>  -0.0170 
 22 C       -0.3960     6.9660    -1.1060 C.3   1 <1>  -0.1600 
 23 C       -0.2910     8.4950    -1.0670 C.3   1 <1>  -0.2400 
 24 H       -3.4850     0.3140     2.3030 H     1 <1>   0.0800 
 25 H       -3.7370     1.6190     1.1600 H     1 <1>   0.0800 
 26 H       -2.5560    -1.6070    -0.9790 H     1 <1>   0.0800 
 27 H       -2.5730    -2.1180     0.7060 H     1 <1>   0.0800 
 28 H       -3.2240     2.4420    -1.0630 H     1 <1>   0.1500 
 29 H        0.4790     2.1250     0.9840 H     1 <1>   0.1500 
 30 H       -3.0800     4.8840    -0.9710 H     1 <1>   0.1500 
 31 H        0.6440     4.5720     1.0840 H     1 <1>   0.1500 
 32 H       -4.6820     0.3530    -1.4130 H     1 <1>   0.1000 
 33 H       -6.2220    -0.4530    -0.9940 H     1 <1>   0.1000 
 34 H       -2.1070     6.8360     0.1900 H     1 <1>   0.0800 
 35 H       -0.5870     6.7110     1.0210 H     1 <1>   0.0800 
 36 H        0.5920     6.5410    -1.1590 H     1 <1>   0.0800 
 37 H       -0.9310     6.6670    -1.9910 H     1 <1>   0.0800 
 38 H        0.2620     8.8130    -0.2000 H     1 <1>   0.0800 
 39 H       -1.2700     8.9400    -1.0380 H     1 <1>   0.0800 
 40 H        0.2190     8.8500    -1.9460 H     1 <1>   0.0800 
@<TRIPOS>BOND
  1   1   2  2   
  2   2   3  am  
  3   2   4  1   
  4   3   5  1   
  5   3   6  1   
  6   4   7  ar  
  7   4   8  ar  
  8   5   9  1   
  9   5  24  1   
 10   5  25  1   
 11   6  10  1   
 12   6  26  1   
 13   6  27  1   
 14   7  11  ar  
 15   7  28  1   
 16   8  12  ar  
 17   8  29  1   
 18   9  10  1   
 19   9  13  1   
 20   9  14  1   
 21  10  14  1   
 22  10  15  1   
 23  11  16  ar  
 24  11  30  1   
 25  12  16  ar  
 26  12  31  1   
 27  13  17  ar  
 28  13  18  ar  
 29  14  32  1   
 30  14  33  1   
 31  15  19  ar  
 32  15  20  ar  
 33  16  21  1   
 34  21  22  1   
 35  21  34  1   
 36  21  35  1   
 37  22  23  1   
 38  22  36  1   
 39  22  37  1   
 40  23  38  1   
 41  23  39  1   
 42  23  40  1   
@<TRIPOS>SUBSTRUCTURE
  1 ****   5 GROUP 4 **** **** 0

# MOE 2024.06 (io_trps.svl 2023.06)
