@<TRIPOS>MOLECULE
NONAME
54 57 1 0 0 
SMALL
USER_CHARGES


@<TRIPOS>ATOM
  1 O        1.5810     0.0260     1.8340 O.2   1 <1>  -0.5700 
  2 C        2.0240    -1.0300     1.4040 C.2   1 <1>   0.4690 
  3 C        3.0390    -1.1320     0.3750 C.ar  1 <1>   0.0860 
  4 C        1.4890    -2.2180     1.9570 C.2   1 <1>  -0.1360 
  5 C        3.4070    -2.4330    -0.0460 C.ar  1 <1>   0.1000 
  6 C        3.6830    -0.0280    -0.2270 C.ar  1 <1>  -0.1440 
  7 C        1.8500    -3.4490     1.5300 C.2   1 <1>  -0.0380 
  8 N        2.7800    -3.5540     0.5120 N.pl3 1 <1>  -0.6000 
  9 C        4.4030    -2.6010    -1.0180 C.ar  1 <1>  -0.1430 
 10 C        4.6490    -0.2250    -1.1890 C.ar  1 <1>  -0.1500 
 11 C        3.3640     1.4190     0.1400 C.3   1 <1>  -0.0970 
 12 C        1.2200    -4.6880     2.1680 C.3   1 <1>   0.4810 
 13 C        5.0090    -1.5020    -1.5810 C.ar  1 <1>  -0.1500 
 14 C        4.8590    -3.9740    -1.4910 C.3   1 <1>  -0.0970 
 15 N        0.5270    -5.5010     1.1380 N.4   1 <1>  -0.9590 
 16 C       -0.3350    -4.7300     0.1910 C.3   1 <1>   0.3430 
 17 C       -0.3260    -6.6160     1.6310 C.3   1 <1>   0.3430 
 18 C       -1.4550    -5.6930    -0.2520 C.3   1 <1>   0.2000 
 19 C       -1.1350    -7.0460     0.3990 C.3   1 <1>  -0.0800 
 20 O       -2.6370    -5.2340     0.3070 O.3   1 <1>  -0.6800 
 21 C       -0.3620    -8.0260    -0.5280 C.3   1 <1>   0.0200 
 22 C        1.1130    -7.6710    -0.6080 C.2   1 <1>  -0.3320 
 23 N        1.6530    -6.7630    -1.4500 N.pl3 1 <1>   0.3000 
 24 C        2.1120    -8.1050     0.1920 C.2   1 <1>  -0.1500 
 25 N        2.9170    -6.4830    -1.0950 N.2   1 <1>  -0.7070 
 26 C        3.2080    -7.3320    -0.1600 C.2   1 <1>   0.1080 
 27 C        4.5840    -7.4280     0.4620 C.3   1 <1>  -0.0590 
 28 H        0.7690    -2.0680     2.7410 H     1 <1>   0.1500 
 29 H        3.0780    -4.4650     0.1190 H     1 <1>   0.4000 
 30 H        5.1440     0.6110    -1.6520 H     1 <1>   0.1500 
 31 H        3.9620     2.1120    -0.4230 H     1 <1>   0.0800 
 32 H        3.5560     1.5860     1.1850 H     1 <1>   0.0800 
 33 H        2.3290     1.6320    -0.0620 H     1 <1>   0.0800 
 34 H        0.5120    -4.3750     2.9180 H     1 <1>   0.0800 
 35 H        1.9860    -5.2750     2.6470 H     1 <1>   0.0800 
 36 H        5.7710    -1.6150    -2.3330 H     1 <1>   0.1500 
 37 H        5.7900    -3.9080    -2.0250 H     1 <1>   0.0800 
 38 H        4.1250    -4.3920    -2.1550 H     1 <1>   0.0800 
 39 H        5.0100    -4.6330    -0.6570 H     1 <1>   0.0800 
 40 H        1.2730    -5.9430     0.5700 H     1 <1>   0.4500 
 41 H       -0.7740    -3.8750     0.6800 H     1 <1>   0.0800 
 42 H        0.2480    -4.3950    -0.6510 H     1 <1>   0.0800 
 43 H        0.2630    -7.4270     2.0270 H     1 <1>   0.0800 
 44 H       -1.0000    -6.2510     2.3900 H     1 <1>   0.0800 
 45 H       -1.5730    -5.7290    -1.3220 H     1 <1>   0.0800 
 46 H       -2.0400    -7.5390     0.7080 H     1 <1>   0.0800 
 47 H       -3.4210    -5.6780    -0.0810 H     1 <1>   0.4000 
 48 H       -0.8030    -8.0610    -1.5100 H     1 <1>   0.0800 
 49 H       -0.4410    -9.0180    -0.1140 H     1 <1>   0.0800 
 50 H        1.1930    -6.2960    -2.2440 H     1 <1>   0.2700 
 51 H        2.0960    -8.8580     0.9630 H     1 <1>   0.1500 
 52 H        4.6680    -8.3200     1.0540 H     1 <1>   0.0800 
 53 H        4.7690    -6.5720     1.0850 H     1 <1>   0.0800 
 54 H        5.3270    -7.4590    -0.3140 H     1 <1>   0.0800 
@<TRIPOS>BOND
  1   1   2  2   
  2   2   3  1   
  3   2   4  1   
  4   3   5  ar  
  5   3   6  ar  
  6   4   7  2   
  7   4  28  1   
  8   5   8  1   
  9   5   9  ar  
 10   6  10  ar  
 11   6  11  1   
 12   7   8  1   
 13   7  12  1   
 14   8  29  1   
 15   9  13  ar  
 16   9  14  1   
 17  10  13  ar  
 18  10  30  1   
 19  11  31  1   
 20  11  32  1   
 21  11  33  1   
 22  12  15  1   
 23  12  34  1   
 24  12  35  1   
 25  13  36  1   
 26  14  37  1   
 27  14  38  1   
 28  14  39  1   
 29  15  16  1   
 30  15  17  1   
 31  15  40  1   
 32  16  18  1   
 33  16  41  1   
 34  16  42  1   
 35  17  19  1   
 36  17  43  1   
 37  17  44  1   
 38  18  19  1   
 39  18  20  1   
 40  18  45  1   
 41  19  21  1   
 42  19  46  1   
 43  20  47  1   
 44  21  22  1   
 45  21  48  1   
 46  21  49  1   
 47  22  23  1   
 48  22  24  2   
 49  23  25  1   
 50  23  50  1   
 51  24  26  1   
 52  24  51  1   
 53  25  26  2   
 54  26  27  1   
 55  27  52  1   
 56  27  53  1   
 57  27  54  1   
@<TRIPOS>SUBSTRUCTURE
  1 ****   8 GROUP 4 **** **** 0

# MOE 2024.06 (io_trps.svl 2023.06)
