@<TRIPOS>MOLECULE
NONAME
55 58 1 0 0 
SMALL
USER_CHARGES


@<TRIPOS>ATOM
  1 O       -1.3260     0.3840    -0.1030 O.2   1 <1>  -0.5700 
  2 C       -2.1780     1.2040    -0.4210 C.2   1 <1>   0.5440 
  3 N       -3.4240     0.6830    -0.7270 N.am  1 <1>  -0.6600 
  4 C       -1.8720     2.6440    -0.4360 C.ar  1 <1>   0.3960 
  5 C       -3.5710    -0.7230    -1.1390 C.3   1 <1>   0.1400 
  6 C       -4.6730     1.2060    -0.1190 C.3   1 <1>   0.1400 
  7 N       -2.7300     3.5040    -0.9490 N.ar  1 <1>  -0.6200 
  8 C       -0.6460     3.0830     0.1020 C.ar  1 <1>  -0.1500 
  9 C       -3.9750    -1.4630     0.1460 C.3   1 <1>   0.4230 
 10 C       -5.1970     0.2300     0.9690 C.3   1 <1>  -0.1600 
 11 C       -2.4200     4.8200    -0.9530 C.ar  1 <1>   0.3100 
 12 C       -0.3060     4.4070     0.1150 C.ar  1 <1>   0.0820 
 13 N       -3.3450    -2.8260     0.3120 N.4   1 <1>  -0.9590 
 14 C       -5.5410    -1.2630     0.4270 C.3   1 <1>   0.0000 
 15 C       -1.2170     5.3330    -0.4280 C.ar  1 <1>   0.0000 
 16 C       -3.3480     5.7180    -1.5070 C.ar  1 <1>  -0.1500 
 17 O        0.8550     4.8830     0.6180 O.3   1 <1>  -0.3620 
 18 C       -3.6610    -3.7300    -0.8090 C.3   1 <1>   0.3430 
 19 C       -1.8660    -2.7030     0.5250 C.3   1 <1>   0.2630 
 20 C       -5.9370    -2.7140    -0.1720 C.3   1 <1>  -0.1600 
 21 C       -7.0840    -1.0350     0.7920 C.3   1 <1>   0.1200 
 22 C       -0.9960     6.7250    -0.4750 C.ar  1 <1>  -0.1500 
 23 C       -3.1120     7.0660    -1.5430 C.ar  1 <1>  -0.1500 
 24 C        1.8540     4.0420     1.1510 C.3   1 <1>   0.0400 
 25 C       -5.0930    -3.4610    -1.2350 C.3   1 <1>  -0.1600 
 26 O       -7.6830    -0.2720    -0.2070 O.3   1 <1>  -0.6800 
 27 C       -1.9210     7.5750    -1.0200 C.ar  1 <1>  -0.1500 
 28 H       -4.3370    -0.7910    -1.8910 H     1 <1>   0.0800 
 29 H       -2.6440    -1.0860    -1.5450 H     1 <1>   0.0800 
 30 H       -4.4980     2.1710     0.3250 H     1 <1>   0.0800 
 31 H       -5.4170     1.3300    -0.8900 H     1 <1>   0.0800 
 32 H        0.0150     2.3400     0.5020 H     1 <1>   0.1500 
 33 H       -3.4390    -0.9180     0.9020 H     1 <1>   0.0800 
 34 H       -4.5110     0.2120     1.8010 H     1 <1>   0.0800 
 35 H       -5.9910     0.8290     1.3860 H     1 <1>   0.0800 
 36 H       -3.7650    -3.2280     1.1600 H     1 <1>   0.4500 
 37 H       -4.2580     5.3090    -1.9060 H     1 <1>   0.1500 
 38 H       -2.9970    -3.5530    -1.6400 H     1 <1>   0.0800 
 39 H       -3.5520    -4.7550    -0.4920 H     1 <1>   0.0800 
 40 H       -1.3930    -2.2730    -0.3440 H     1 <1>   0.0800 
 41 H       -1.4290    -3.6690     0.7150 H     1 <1>   0.0800 
 42 H       -1.6620    -2.0590     1.3660 H     1 <1>   0.0800 
 43 H       -6.0760    -3.3940     0.6550 H     1 <1>   0.0800 
 44 H       -6.8750    -2.6870    -0.7120 H     1 <1>   0.0800 
 45 H       -7.2520    -0.5560     1.7440 H     1 <1>   0.0800 
 46 H       -7.6940    -1.9180     0.9170 H     1 <1>   0.0800 
 47 H       -0.0770     7.1140    -0.0720 H     1 <1>   0.1500 
 48 H       -3.8320     7.7430    -1.9710 H     1 <1>   0.1500 
 49 H        2.6780     4.6580     1.4640 H     1 <1>   0.0800 
 50 H        2.1800     3.3580     0.3870 H     1 <1>   0.0800 
 51 H        1.4520     3.5120     1.9960 H     1 <1>   0.0800 
 52 H       -5.0880    -2.9000    -2.1530 H     1 <1>   0.0800 
 53 H       -5.5580    -4.4040    -1.4670 H     1 <1>   0.0800 
 54 H       -8.6300    -0.1160    -0.0160 H     1 <1>   0.4000 
 55 H       -1.7430     8.6370    -1.0520 H     1 <1>   0.1500 
@<TRIPOS>BOND
  1   1   2  2   
  2   2   3  am  
  3   2   4  1   
  4   3   5  1   
  5   3   6  1   
  6   4   7  ar  
  7   4   8  ar  
  8   5   9  1   
  9   5  28  1   
 10   5  29  1   
 11   6  10  1   
 12   6  30  1   
 13   6  31  1   
 14   7  11  ar  
 15   8  12  ar  
 16   8  32  1   
 17   9  13  1   
 18   9  14  1   
 19   9  33  1   
 20  10  14  1   
 21  10  34  1   
 22  10  35  1   
 23  11  15  ar  
 24  11  16  ar  
 25  12  15  ar  
 26  12  17  1   
 27  13  18  1   
 28  13  19  1   
 29  13  36  1   
 30  14  20  1   
 31  14  21  1   
 32  15  22  ar  
 33  16  23  ar  
 34  16  37  1   
 35  17  24  1   
 36  18  25  1   
 37  18  38  1   
 38  18  39  1   
 39  19  40  1   
 40  19  41  1   
 41  19  42  1   
 42  20  25  1   
 43  20  43  1   
 44  20  44  1   
 45  21  26  1   
 46  21  45  1   
 47  21  46  1   
 48  22  27  ar  
 49  22  47  1   
 50  23  27  ar  
 51  23  48  1   
 52  24  49  1   
 53  24  50  1   
 54  24  51  1   
 55  25  52  1   
 56  25  53  1   
 57  26  54  1   
 58  27  55  1   
@<TRIPOS>SUBSTRUCTURE
  1 ****   2 GROUP 4 **** **** 0

# MOE 2024.06 (io_trps.svl 2023.06)
