@<TRIPOS>MOLECULE
NONAME
53 56 1 0 0 
SMALL
USER_CHARGES


@<TRIPOS>ATOM
  1 O        0.9870    -1.2530     0.5250 O.3   1 <1>  -0.5600 
  2 C        0.3270    -2.0870    -0.4050 C.3   1 <1>   0.2800 
  3 C        1.0030     0.1240     0.2530 C.3   1 <1>   0.1200 
  4 C       -0.9920    -1.4330    -0.8890 C.3   1 <1>  -0.1600 
  5 C        0.0580    -3.4160     0.3350 C.3   1 <1>  -0.1600 
  6 C        1.2920    -2.3880    -1.5670 C.3   1 <1>  -0.1600 
  7 C       -0.4210     0.7030     0.2850 C.3   1 <1>  -0.1600 
  8 C       -1.5070    -0.3550     0.0680 C.3   1 <1>   0.2800 
  9 C        1.3050    -4.2810     0.5670 C.3   1 <1>   0.3430 
 10 C        2.6150    -3.0230    -1.1130 C.3   1 <1>   0.3430 
 11 O       -1.7440    -0.9470     1.2800 O.3   1 <1>  -0.6800 
 12 C       -2.8310     0.2510    -0.3890 C.3   1 <1>  -0.2400 
 13 N        2.5250    -3.4820     0.3030 N.4   1 <1>  -0.9590 
 14 C        3.7810    -4.0840     0.8150 C.3   1 <1>   0.4860 
 15 C        4.8840    -3.0480     0.7110 C.ar  1 <1>  -0.1440 
 16 C        5.9160    -3.1990    -0.1780 C.ar  1 <1>  -0.1500 
 17 C        4.8400    -1.9080     1.5290 C.ar  1 <1>  -0.1500 
 18 C        6.9320    -2.2300    -0.3030 C.ar  1 <1>   0.0000 
 19 C        5.8120    -0.9520     1.4290 C.ar  1 <1>  -0.1500 
 20 C        6.8760    -1.0800     0.5150 C.ar  1 <1>   0.0000 
 21 C        8.0010    -2.3640    -1.2150 C.ar  1 <1>  -0.1500 
 22 C        7.8860    -0.1070     0.3880 C.ar  1 <1>  -0.1500 
 23 C        8.9700    -1.4050    -1.3200 C.ar  1 <1>  -0.1500 
 24 C        8.9060    -0.2660    -0.5080 C.ar  1 <1>   0.0820 
 25 O        9.8580     0.6720    -0.6130 O.3   1 <1>  -0.5330 
 26 H        1.4540     0.2790    -0.7120 H     1 <1>   0.0800 
 27 H        1.6170     0.6040     0.9960 H     1 <1>   0.0800 
 28 H       -1.7550    -2.1730    -1.0480 H     1 <1>   0.0800 
 29 H       -0.8270    -0.9690    -1.8440 H     1 <1>   0.0800 
 30 H       -0.6370    -4.0080    -0.2320 H     1 <1>   0.0800 
 31 H       -0.4160    -3.2180     1.2790 H     1 <1>   0.0800 
 32 H        1.5030    -1.4970    -2.1300 H     1 <1>   0.0800 
 33 H        0.8100    -3.0660    -2.2490 H     1 <1>   0.0800 
 34 H       -0.4830     1.4430    -0.4930 H     1 <1>   0.0800 
 35 H       -0.5930     1.2230     1.2120 H     1 <1>   0.0800 
 36 H        1.2830    -5.1340    -0.0930 H     1 <1>   0.0800 
 37 H        1.3040    -4.6380     1.5840 H     1 <1>   0.0800 
 38 H        3.3990    -2.2860    -1.1940 H     1 <1>   0.0800 
 39 H        2.8640    -3.8480    -1.7600 H     1 <1>   0.0800 
 40 H       -0.8750    -1.1340     1.6860 H     1 <1>   0.4000 
 41 H       -2.7160     0.7250    -1.3470 H     1 <1>   0.0800 
 42 H       -3.1640     0.9900     0.3180 H     1 <1>   0.0800 
 43 H       -3.5820    -0.5130    -0.4760 H     1 <1>   0.0800 
 44 H        2.3730    -2.5960     0.8230 H     1 <1>   0.4500 
 45 H        4.0370    -4.9580     0.2380 H     1 <1>   0.0800 
 46 H        3.6620    -4.3750     1.8460 H     1 <1>   0.0800 
 47 H        5.9840    -4.0660    -0.8120 H     1 <1>   0.1500 
 48 H        4.0420    -1.7820     2.2420 H     1 <1>   0.1500 
 49 H        5.7850    -0.0760     2.0540 H     1 <1>   0.1500 
 50 H        8.0430    -3.2430    -1.8330 H     1 <1>   0.1500 
 51 H        7.8530     0.7710     1.0050 H     1 <1>   0.1500 
 52 H        9.7800    -1.5160    -2.0180 H     1 <1>   0.1500 
 53 H       10.5460     0.4590    -1.2680 H     1 <1>   0.4500 
@<TRIPOS>BOND
  1   1   2  1   
  2   1   3  1   
  3   2   4  1   
  4   2   5  1   
  5   2   6  1   
  6   3   7  1   
  7   3  26  1   
  8   3  27  1   
  9   4   8  1   
 10   4  28  1   
 11   4  29  1   
 12   5   9  1   
 13   5  30  1   
 14   5  31  1   
 15   6  10  1   
 16   6  32  1   
 17   6  33  1   
 18   7   8  1   
 19   7  34  1   
 20   7  35  1   
 21   8  11  1   
 22   8  12  1   
 23   9  13  1   
 24   9  36  1   
 25   9  37  1   
 26  10  13  1   
 27  10  38  1   
 28  10  39  1   
 29  11  40  1   
 30  12  41  1   
 31  12  42  1   
 32  12  43  1   
 33  13  14  1   
 34  13  44  1   
 35  14  15  1   
 36  14  45  1   
 37  14  46  1   
 38  15  16  ar  
 39  15  17  ar  
 40  16  18  ar  
 41  16  47  1   
 42  17  19  ar  
 43  17  48  1   
 44  18  20  ar  
 45  18  21  ar  
 46  19  20  ar  
 47  19  49  1   
 48  20  22  ar  
 49  21  23  ar  
 50  21  50  1   
 51  22  24  ar  
 52  22  51  1   
 53  23  24  ar  
 54  23  52  1   
 55  24  25  1   
 56  25  53  1   
@<TRIPOS>SUBSTRUCTURE
  1 ****  10 GROUP 4 **** **** 0

# MOE 2024.06 (io_trps.svl 2023.06)
