@<TRIPOS>MOLECULE
NONAME
48 51 1 0 0 
SMALL
USER_CHARGES


@<TRIPOS>ATOM
  1 S       -0.5630     0.2110     0.7380 S.o2  1 <1>   1.0900 
  2 O       -0.9660     1.3520     1.5250 O.2   1 <1>  -0.6500 
  3 O        0.8170    -0.2020     0.6400 O.2   1 <1>  -0.6500 
  4 C       -1.5160    -1.2170     1.1690 C.3   1 <1>  -0.0550 
  5 C       -1.2200     0.3260    -0.9200 C.3   1 <1>  -0.0550 
  6 C       -1.6130    -2.0060    -0.1340 C.3   1 <1>   0.1760 
  7 C       -1.9330    -0.9970    -1.2560 C.3   1 <1>  -0.1600 
  8 N       -2.6380    -3.0760    -0.0390 N.pl3 1 <1>   0.3140 
  9 N       -3.8970    -2.7930     0.3410 N.2   1 <1>  -0.7070 
 10 C       -2.4780    -4.4020    -0.2840 C.2   1 <1>  -0.3320 
 11 C       -4.5110    -3.9350     0.3460 C.2   1 <1>   0.1080 
 12 C       -3.6720    -4.9860    -0.0380 C.2   1 <1>   0.0630 
 13 C       -1.1730    -5.0460    -0.7310 C.3   1 <1>  -0.0600 
 14 C       -5.9730    -4.0450     0.7210 C.3   1 <1>  -0.0590 
 15 N       -3.9690    -6.3660    -0.1800 N.am  1 <1>  -0.4930 
 16 C       -4.6370    -7.2040     0.6740 C.2   1 <1>   0.5440 
 17 O       -5.0870    -6.7740     1.7190 O.2   1 <1>  -0.5700 
 18 C       -4.8130    -8.6000     0.3230 C.ar  1 <1>   0.0860 
 19 C       -5.9780    -9.2810     0.6780 C.ar  1 <1>  -0.1500 
 20 C       -3.8360    -9.3140    -0.3820 C.ar  1 <1>  -0.1500 
 21 C       -6.1720   -10.6050     0.3320 C.ar  1 <1>   0.0820 
 22 C       -4.0180   -10.6420    -0.7270 C.ar  1 <1>  -0.1500 
 23 O       -7.3360   -11.2120     0.6800 O.3   1 <1>  -0.3630 
 24 C       -5.1830   -11.2950    -0.3690 C.ar  1 <1>   0.0820 
 25 C       -7.6370   -12.4380     0.0400 C.3   1 <1>   0.1200 
 26 O       -5.3370   -12.5980    -0.7010 O.3   1 <1>  -0.3630 
 27 C       -6.3780   -13.3110    -0.0610 C.3   1 <1>   0.1200 
 28 H       -2.4960    -0.9140     1.4880 H     1 <1>   0.0800 
 29 H       -1.0420    -1.7890     1.9430 H     1 <1>   0.0800 
 30 H       -0.4230     0.5120    -1.6150 H     1 <1>   0.0800 
 31 H       -1.9210     1.1370    -0.9840 H     1 <1>   0.0800 
 32 H       -0.6560    -2.4540    -0.3290 H     1 <1>   0.0800 
 33 H       -1.6160    -1.3750    -2.2130 H     1 <1>   0.0800 
 34 H       -2.9940    -0.8150    -1.2880 H     1 <1>   0.0800 
 35 H       -0.8590    -4.6380    -1.6750 H     1 <1>   0.0800 
 36 H       -1.2930    -6.1090    -0.8430 H     1 <1>   0.0800 
 37 H       -0.4040    -4.8730     0.0010 H     1 <1>   0.0800 
 38 H       -6.4790    -3.1240     0.4960 H     1 <1>   0.0800 
 39 H       -6.0570    -4.2430     1.7730 H     1 <1>   0.0800 
 40 H       -6.4390    -4.8430     0.1750 H     1 <1>   0.0800 
 41 H       -3.6140    -6.7820    -1.0370 H     1 <1>   0.3700 
 42 H       -6.7450    -8.7670     1.2300 H     1 <1>   0.1500 
 43 H       -2.9150    -8.8320    -0.6540 H     1 <1>   0.1500 
 44 H       -3.2600   -11.1810    -1.2670 H     1 <1>   0.1500 
 45 H       -8.0200   -12.2190    -0.9410 H     1 <1>   0.0800 
 46 H       -8.4000   -12.9320     0.6140 H     1 <1>   0.0800 
 47 H       -6.5730   -14.1990    -0.6350 H     1 <1>   0.0800 
 48 H       -6.0380   -13.5910     0.9200 H     1 <1>   0.0800 
@<TRIPOS>BOND
  1   1   2  2   
  2   1   3  2   
  3   1   4  1   
  4   1   5  1   
  5   4   6  1   
  6   4  28  1   
  7   4  29  1   
  8   5   7  1   
  9   5  30  1   
 10   5  31  1   
 11   6   7  1   
 12   6   8  1   
 13   6  32  1   
 14   7  33  1   
 15   7  34  1   
 16   8   9  1   
 17   8  10  1   
 18   9  11  2   
 19  10  12  2   
 20  10  13  1   
 21  11  12  1   
 22  11  14  1   
 23  12  15  1   
 24  13  35  1   
 25  13  36  1   
 26  13  37  1   
 27  14  38  1   
 28  14  39  1   
 29  14  40  1   
 30  15  16  am  
 31  15  41  1   
 32  16  17  2   
 33  16  18  1   
 34  18  19  ar  
 35  18  20  ar  
 36  19  21  ar  
 37  19  42  1   
 38  20  22  ar  
 39  20  43  1   
 40  21  23  1   
 41  21  24  ar  
 42  22  24  ar  
 43  22  44  1   
 44  23  25  1   
 45  24  26  1   
 46  25  27  1   
 47  25  45  1   
 48  25  46  1   
 49  26  27  1   
 50  27  47  1   
 51  27  48  1   
@<TRIPOS>SUBSTRUCTURE
  1 ****  15 GROUP 4 **** **** 0

# MOE 2024.06 (io_trps.svl 2023.06)
