@<TRIPOS>MOLECULE
NONAME
50 52 1 0 0 
SMALL
USER_CHARGES


@<TRIPOS>ATOM
  1 O       -1.2610     0.3430     2.9620 O.2   1 <1>  -0.5700 
  2 C       -1.7080     1.0180     2.0620 C.2   1 <1>   0.5690 
  3 N       -2.4840     0.4630     1.0780 N.am  1 <1>  -0.6600 
  4 C       -1.4130     2.5160     2.0810 C.3   1 <1>   0.1810 
  5 C       -3.0020     1.1510    -0.1320 C.3   1 <1>   0.1400 
  6 C       -2.8230    -0.9750     1.0280 C.3   1 <1>   0.1400 
  7 O       -0.7950     2.9470     0.8770 O.3   1 <1>  -0.3620 
  8 C       -3.7930     0.0880    -0.9070 C.3   1 <1>   0.2000 
  9 C       -3.1810    -1.2370    -0.4370 C.3   1 <1>  -0.0800 
 10 C       -0.5440     4.2590     0.6460 C.ar  1 <1>   0.0830 
 11 O       -5.1410     0.1210    -0.5280 O.3   1 <1>  -0.5600 
 12 C       -4.0830    -2.4680    -0.6390 C.3   1 <1>   0.0200 
 13 C       -0.0570     4.5900    -0.6070 C.ar  1 <1>  -0.1500 
 14 C       -0.7520     5.2640     1.5880 C.ar  1 <1>  -0.1500 
 15 C       -5.9280     1.0420    -1.2170 C.3   1 <1>   0.0400 
 16 C       -3.3810    -3.7800    -0.3300 C.2   1 <1>  -0.0400 
 17 C        0.2200     5.9050    -0.9370 C.ar  1 <1>   0.0830 
 18 C       -0.4760     6.5820     1.2640 C.ar  1 <1>  -0.1500 
 19 O       -4.0700    -4.8890    -0.3860 O.3   1 <1>  -0.0190 
 20 C       -2.1220    -4.1010     0.0110 C.2   1 <1>  -0.1500 
 21 O        0.6910     6.1360    -2.1880 O.3   1 <1>  -0.3630 
 22 C        0.0070     6.9060     0.0080 C.ar  1 <1>  -0.1500 
 23 N       -3.3440    -5.9310    -0.1010 N.2   1 <1>  -0.4100 
 24 C       -2.1650    -5.4850     0.1450 C.2   1 <1>   0.1080 
 25 C        1.0410     7.4350    -2.6120 C.3   1 <1>   0.0400 
 26 C       -0.9890    -6.3560     0.5270 C.3   1 <1>  -0.0590 
 27 H       -0.7480     2.7370     2.8960 H     1 <1>   0.0800 
 28 H       -2.3350     3.0530     2.2040 H     1 <1>   0.0800 
 29 H       -3.6150     1.9940     0.1340 H     1 <1>   0.0800 
 30 H       -2.1690     1.4820    -0.7260 H     1 <1>   0.0800 
 31 H       -1.9950    -1.5770     1.3590 H     1 <1>   0.0800 
 32 H       -3.6730    -1.1520     1.6640 H     1 <1>   0.0800 
 33 H       -3.7190     0.2090    -1.9740 H     1 <1>   0.0800 
 34 H       -2.2640    -1.3830    -0.9790 H     1 <1>   0.0800 
 35 H       -4.4190    -2.4980    -1.6600 H     1 <1>   0.0800 
 36 H       -4.9540    -2.3890    -0.0120 H     1 <1>   0.0800 
 37 H        0.1110     3.8180    -1.3340 H     1 <1>   0.1500 
 38 H       -1.1200     5.0460     2.5720 H     1 <1>   0.1500 
 39 H       -6.9300     0.9760    -0.8330 H     1 <1>   0.0800 
 40 H       -5.9270     0.7980    -2.2650 H     1 <1>   0.0800 
 41 H       -5.5460     2.0360    -1.0590 H     1 <1>   0.0800 
 42 H       -0.6360     7.3580     1.9920 H     1 <1>   0.1500 
 43 H       -1.2580    -3.4800     0.1560 H     1 <1>   0.1500 
 44 H        0.2120     7.9360    -0.2160 H     1 <1>   0.1500 
 45 H        1.3990     7.3710    -3.6240 H     1 <1>   0.0800 
 46 H        1.8180     7.8140    -1.9730 H     1 <1>   0.0800 
 47 H        0.1680     8.0630    -2.5740 H     1 <1>   0.0800 
 48 H       -0.2040    -6.2480    -0.1990 H     1 <1>   0.0800 
 49 H       -1.2920    -7.3860     0.5630 H     1 <1>   0.0800 
 50 H       -0.6210    -6.0660     1.4940 H     1 <1>   0.0800 
@<TRIPOS>BOND
  1   1   2  2   
  2   2   3  am  
  3   2   4  1   
  4   3   5  1   
  5   3   6  1   
  6   4   7  1   
  7   4  27  1   
  8   4  28  1   
  9   5   8  1   
 10   5  29  1   
 11   5  30  1   
 12   6   9  1   
 13   6  31  1   
 14   6  32  1   
 15   7  10  1   
 16   8   9  1   
 17   8  11  1   
 18   8  33  1   
 19   9  12  1   
 20   9  34  1   
 21  10  13  ar  
 22  10  14  ar  
 23  11  15  1   
 24  12  16  1   
 25  12  35  1   
 26  12  36  1   
 27  13  17  ar  
 28  13  37  1   
 29  14  18  ar  
 30  14  38  1   
 31  15  39  1   
 32  15  40  1   
 33  15  41  1   
 34  16  19  1   
 35  16  20  2   
 36  17  21  1   
 37  17  22  ar  
 38  18  22  ar  
 39  18  42  1   
 40  19  23  1   
 41  20  24  1   
 42  20  43  1   
 43  21  25  1   
 44  22  44  1   
 45  23  24  2   
 46  24  26  1   
 47  25  45  1   
 48  25  46  1   
 49  25  47  1   
 50  26  48  1   
 51  26  49  1   
 52  26  50  1   
@<TRIPOS>SUBSTRUCTURE
  1 ****   5 GROUP 4 **** **** 0

# MOE 2024.06 (io_trps.svl 2023.06)
