@<TRIPOS>MOLECULE
NONAME
46 48 1 0 0 
SMALL
USER_CHARGES


@<TRIPOS>ATOM
  1 O        0.1150    -0.6630    -0.2570 O.3   1 <1>  -0.3630 
  2 C       -0.1650    -1.9630    -0.0400 C.ar  1 <1>   0.3920 
  3 C        1.3100    -0.0510     0.1710 C.3   1 <1>   0.0400 
  4 N       -1.2930    -2.3820    -0.5550 N.ar  1 <1>  -0.6200 
  5 C        0.6670    -2.8020     0.6740 C.ar  1 <1>  -0.1500 
  6 C       -1.5840    -3.6560    -0.3600 C.ar  1 <1>   0.7200 
  7 C        0.2610    -4.1010     0.8260 C.ar  1 <1>   0.1600 
  8 N       -0.8650    -4.5490     0.3210 N.ar  1 <1>  -0.6200 
  9 N       -2.7680    -4.1080    -0.9000 N.pl3 1 <1>  -0.8380 
 10 C       -2.9930    -5.5550    -1.1230 C.3   1 <1>   0.2090 
 11 C       -4.0120    -3.3180    -0.6950 C.3   1 <1>   0.2090 
 12 C       -3.7010    -6.1500     0.1160 C.3   1 <1>   0.4230 
 13 C       -4.7400    -3.8850     0.5310 C.3   1 <1>  -0.1600 
 14 N       -3.8190    -7.6720     0.1020 N.4   1 <1>  -0.9590 
 15 C       -5.0370    -5.4120     0.4380 C.3   1 <1>   0.0000 
 16 C       -4.8420    -8.2150     1.0530 C.3   1 <1>   0.3430 
 17 C       -3.9970    -8.2890    -1.2530 C.3   1 <1>   0.2630 
 18 C       -5.5710    -5.8990     1.8190 C.3   1 <1>  -0.1600 
 19 C       -6.0830    -5.6860    -0.6800 C.3   1 <1>   0.1200 
 20 C       -5.0320    -7.2790     2.2450 C.3   1 <1>  -0.1600 
 21 O       -7.2230    -4.9150    -0.5200 O.3   1 <1>  -0.6800 
 22 H        1.2900     0.9760    -0.1480 H     1 <1>   0.0800 
 23 H        2.1450    -0.5560    -0.2810 H     1 <1>   0.0800 
 24 H        1.3630    -0.0960     1.2450 H     1 <1>   0.0800 
 25 H        1.5920    -2.4700     1.0990 H     1 <1>   0.1500 
 26 H        0.8780    -4.7910     1.3780 H     1 <1>   0.1500 
 27 H       -3.5860    -5.6740    -2.0120 H     1 <1>   0.0800 
 28 H       -2.0490    -6.0470    -1.2840 H     1 <1>   0.0800 
 29 H       -3.7830    -2.2770    -0.5320 H     1 <1>   0.0800 
 30 H       -4.6310    -3.3790    -1.5740 H     1 <1>   0.0800 
 31 H       -3.0470    -5.9100     0.9380 H     1 <1>   0.0800 
 32 H       -4.1140    -3.6850     1.3840 H     1 <1>   0.0800 
 33 H       -5.6470    -3.3270     0.6800 H     1 <1>   0.0800 
 34 H       -2.9050    -7.9920     0.4560 H     1 <1>   0.4500 
 35 H       -5.7890    -8.3230     0.5500 H     1 <1>   0.0800 
 36 H       -4.5380    -9.1910     1.4000 H     1 <1>   0.0800 
 37 H       -4.9170    -7.9540    -1.7040 H     1 <1>   0.0800 
 38 H       -4.0270    -9.3640    -1.1720 H     1 <1>   0.0800 
 39 H       -3.1770    -8.0240    -1.9010 H     1 <1>   0.0800 
 40 H       -5.3050    -5.2010     2.5950 H     1 <1>   0.0800 
 41 H       -6.6460    -5.9340     1.8090 H     1 <1>   0.0800 
 42 H       -6.3930    -6.7150    -0.6860 H     1 <1>   0.0800 
 43 H       -5.6910    -5.4440    -1.6520 H     1 <1>   0.0800 
 44 H       -5.7210    -7.7260     2.9410 H     1 <1>   0.0800 
 45 H       -4.0920    -7.1670     2.7590 H     1 <1>   0.0800 
 46 H       -7.6580    -5.0700     0.3410 H     1 <1>   0.4000 
@<TRIPOS>BOND
  1   1   2  1   
  2   1   3  1   
  3   2   4  ar  
  4   2   5  ar  
  5   3  22  1   
  6   3  23  1   
  7   3  24  1   
  8   4   6  ar  
  9   5   7  ar  
 10   5  25  1   
 11   6   8  ar  
 12   6   9  1   
 13   7   8  ar  
 14   7  26  1   
 15   9  10  1   
 16   9  11  1   
 17  10  12  1   
 18  10  27  1   
 19  10  28  1   
 20  11  13  1   
 21  11  29  1   
 22  11  30  1   
 23  12  14  1   
 24  12  15  1   
 25  12  31  1   
 26  13  15  1   
 27  13  32  1   
 28  13  33  1   
 29  14  16  1   
 30  14  17  1   
 31  14  34  1   
 32  15  18  1   
 33  15  19  1   
 34  16  20  1   
 35  16  35  1   
 36  16  36  1   
 37  17  37  1   
 38  17  38  1   
 39  17  39  1   
 40  18  20  1   
 41  18  40  1   
 42  18  41  1   
 43  19  21  1   
 44  19  42  1   
 45  19  43  1   
 46  20  44  1   
 47  20  45  1   
 48  21  46  1   
@<TRIPOS>SUBSTRUCTURE
  1 ****   9 GROUP 4 **** **** 0

# MOE 2024.06 (io_trps.svl 2023.06)
