@<TRIPOS>MOLECULE
NONAME
51 53 1 0 0 
SMALL
USER_CHARGES


@<TRIPOS>ATOM
  1 O        0.5890    -0.2050    -1.9820 O.2   1 <1>  -0.5700 
  2 C       -0.1730     0.6700    -1.6410 C.2   1 <1>   0.5690 
  3 N       -1.3740     0.3770    -1.0530 N.am  1 <1>  -0.6600 
  4 C        0.2380     2.1130    -1.9000 C.3   1 <1>   0.0440 
  5 C       -2.3600     1.3590    -0.5370 C.3   1 <1>   0.1400 
  6 C       -1.7920    -1.0080    -0.7300 C.3   1 <1>   0.1400 
  7 C        0.5130     2.8820    -0.6060 C.ar  1 <1>  -0.1440 
  8 C       -3.5390     0.5130    -0.0620 C.3   1 <1>   0.2000 
  9 C       -2.9460    -0.8560     0.2630 C.3   1 <1>  -0.0800 
 10 C       -0.2270     4.0040    -0.2350 C.ar  1 <1>   0.0830 
 11 C        1.5320     2.4330     0.2190 C.ar  1 <1>  -0.1500 
 12 O       -4.1400     1.0570     1.0620 O.3   1 <1>  -0.6800 
 13 C       -3.9730    -1.9950     0.1930 C.3   1 <1>   0.0210 
 14 O       -1.2270     4.4140    -1.0620 O.3   1 <1>  -0.3630 
 15 C        0.0690     4.6560     0.9590 C.ar  1 <1>  -0.1500 
 16 C        1.8210     3.0830     1.4060 C.ar  1 <1>  -0.1500 
 17 C       -3.3090    -3.3410     0.4050 C.2   1 <1>   0.1080 
 18 C       -1.9970     5.5620    -0.7790 C.3   1 <1>   0.0400 
 19 C        1.0850     4.2020     1.7800 C.ar  1 <1>   0.0830 
 20 N       -2.7270    -3.6720     1.5160 N.2   1 <1>  -0.7070 
 21 C       -3.2360    -4.3520    -0.5480 C.2   1 <1>  -0.1500 
 22 O        1.2990     4.8960     2.9260 O.3   1 <1>  -0.3630 
 23 N       -2.2610    -4.9160     1.2980 N.pl3 1 <1>   0.3000 
 24 C       -2.5560    -5.3490     0.0550 C.2   1 <1>  -0.3320 
 25 C        2.3180     4.5250     3.8270 C.3   1 <1>   0.0400 
 26 C       -2.1630    -6.7100    -0.4890 C.3   1 <1>  -0.0600 
 27 H        1.1350     2.1100    -2.4920 H     1 <1>   0.0800 
 28 H       -0.5240     2.5800    -2.4920 H     1 <1>   0.0800 
 29 H       -1.9250     1.8950     0.2890 H     1 <1>   0.0800 
 30 H       -2.6610     2.0420    -1.3110 H     1 <1>   0.0800 
 31 H       -2.1180    -1.4930    -1.6340 H     1 <1>   0.0800 
 32 H       -0.9770    -1.5680    -0.3010 H     1 <1>   0.0800 
 33 H       -4.2760     0.4480    -0.8440 H     1 <1>   0.0800 
 34 H       -2.5100    -0.8370     1.2470 H     1 <1>   0.0800 
 35 H        2.1060     1.5650    -0.0610 H     1 <1>   0.1500 
 36 H       -3.5170     1.0380     1.8150 H     1 <1>   0.4000 
 37 H       -4.4690    -1.9890    -0.7610 H     1 <1>   0.0800 
 38 H       -4.7170    -1.8530     0.9570 H     1 <1>   0.0800 
 39 H       -0.4750     5.5220     1.2810 H     1 <1>   0.1500 
 40 H        2.6160     2.7030     2.0180 H     1 <1>   0.1500 
 41 H       -2.7040     5.6970    -1.5780 H     1 <1>   0.0800 
 42 H       -1.3440     6.4150    -0.7210 H     1 <1>   0.0800 
 43 H       -2.5190     5.4130     0.1500 H     1 <1>   0.0800 
 44 H       -3.6410    -4.3180    -1.5430 H     1 <1>   0.1500 
 45 H       -1.7470    -5.4390     2.0170 H     1 <1>   0.2700 
 46 H        2.3020     5.2140     4.6520 H     1 <1>   0.0800 
 47 H        3.2670     4.5800     3.3220 H     1 <1>   0.0800 
 48 H        2.1260     3.5270     4.1800 H     1 <1>   0.0800 
 49 H       -2.5110    -6.8180    -1.5010 H     1 <1>   0.0800 
 50 H       -2.6000    -7.4910     0.1080 H     1 <1>   0.0800 
 51 H       -1.0930    -6.8190    -0.4830 H     1 <1>   0.0800 
@<TRIPOS>BOND
  1   1   2  2   
  2   2   3  am  
  3   2   4  1   
  4   3   5  1   
  5   3   6  1   
  6   4   7  1   
  7   4  27  1   
  8   4  28  1   
  9   5   8  1   
 10   5  29  1   
 11   5  30  1   
 12   6   9  1   
 13   6  31  1   
 14   6  32  1   
 15   7  10  ar  
 16   7  11  ar  
 17   8   9  1   
 18   8  12  1   
 19   8  33  1   
 20   9  13  1   
 21   9  34  1   
 22  10  14  1   
 23  10  15  ar  
 24  11  16  ar  
 25  11  35  1   
 26  12  36  1   
 27  13  17  1   
 28  13  37  1   
 29  13  38  1   
 30  14  18  1   
 31  15  19  ar  
 32  15  39  1   
 33  16  19  ar  
 34  16  40  1   
 35  17  20  2   
 36  17  21  1   
 37  18  41  1   
 38  18  42  1   
 39  18  43  1   
 40  19  22  1   
 41  20  23  1   
 42  21  24  2   
 43  21  44  1   
 44  22  25  1   
 45  23  24  1   
 46  23  45  1   
 47  24  26  1   
 48  25  46  1   
 49  25  47  1   
 50  25  48  1   
 51  26  49  1   
 52  26  50  1   
 53  26  51  1   
@<TRIPOS>SUBSTRUCTURE
  1 ****   3 GROUP 4 **** **** 0

# MOE 2024.06 (io_trps.svl 2023.06)
