@<TRIPOS>MOLECULE
NONAME
51 54 1 0 0 
SMALL
USER_CHARGES


@<TRIPOS>ATOM
  1 O        1.7070     0.4190    -1.3730 O.3   1 <1>  -0.6800 
  2 C        1.4640     0.3010    -0.0160 C.3   1 <1>   0.4240 
  3 C        0.5410     1.4500     0.4410 C.ar  1 <1>  -0.1440 
  4 C        2.8080     0.3330     0.7610 C.3   1 <1>  -0.0800 
  5 C        0.8090    -1.0830     0.1410 C.3   1 <1>  -0.1600 
  6 C       -0.0100     1.4310     1.7190 C.ar  1 <1>  -0.1500 
  7 C        0.2410     2.5340    -0.3800 C.ar  1 <1>  -0.1500 
  8 C        3.5300    -1.0190     0.8940 C.3   1 <1>  -0.0800 
  9 C        3.8450     1.3220     0.2230 C.3   1 <1>   0.2090 
 10 C        1.6920    -2.2450    -0.3770 C.3   1 <1>  -0.1600 
 11 C       -0.8320     2.4530     2.1610 C.ar  1 <1>  -0.1500 
 12 C       -0.5810     3.5580     0.0580 C.ar  1 <1>  -0.1500 
 13 C        3.2070    -1.9690    -0.2710 C.3   1 <1>  -0.1600 
 14 C        5.0170    -0.6740     0.9980 C.3   1 <1>   0.2090 
 15 N        5.1800     0.7090     0.4750 N.pl3 1 <1>  -0.8380 
 16 C       -1.1200     3.5190     1.3300 C.ar  1 <1>  -0.1500 
 17 C        6.3730     1.3280     0.2470 C.ar  1 <1>   0.1000 
 18 C        7.5950     0.7440     0.6130 C.ar  1 <1>  -0.1500 
 19 C        6.4480     2.5870    -0.3670 C.ar  1 <1>  -0.1500 
 20 C        8.7890     1.3770     0.3790 C.ar  1 <1>   0.2180 
 21 C        7.6510     3.2040    -0.5920 C.ar  1 <1>   0.2180 
 22 N        8.8010     2.5930    -0.2180 N.ar  1 <1>  -0.1790 
 23 C       10.1190     0.7550     0.7720 C.3   1 <1>  -0.0970 
 24 C        7.7430     4.5670    -1.2560 C.3   1 <1>  -0.0970 
 25 H        2.0970    -0.4220    -1.6740 H     1 <1>   0.4000 
 26 H        2.5940     0.6470     1.7660 H     1 <1>   0.0800 
 27 H        0.6160    -1.2520     1.1840 H     1 <1>   0.0800 
 28 H       -0.1460    -1.0890    -0.3570 H     1 <1>   0.0800 
 29 H        0.1970     0.6190     2.3920 H     1 <1>   0.1500 
 30 H        0.6420     2.5960    -1.3770 H     1 <1>   0.1500 
 31 H        3.2250    -1.5060     1.8050 H     1 <1>   0.0800 
 32 H        3.7560     2.2670     0.7320 H     1 <1>   0.0800 
 33 H        3.7430     1.4850    -0.8350 H     1 <1>   0.0800 
 34 H        1.4510    -3.1290     0.1890 H     1 <1>   0.0800 
 35 H        1.4480    -2.4550    -1.4050 H     1 <1>   0.0800 
 36 H       -1.2490     2.4190     3.1520 H     1 <1>   0.1500 
 37 H       -0.8020     4.3840    -0.5950 H     1 <1>   0.1500 
 38 H        3.5660    -1.5320    -1.1880 H     1 <1>   0.0800 
 39 H        3.7290    -2.9030    -0.1420 H     1 <1>   0.0800 
 40 H        5.6180    -1.3670     0.4340 H     1 <1>   0.0800 
 41 H        5.3230    -0.6940     2.0300 H     1 <1>   0.0800 
 42 H       -1.7590     4.3140     1.6710 H     1 <1>   0.1500 
 43 H        7.5860    -0.2170     1.0900 H     1 <1>   0.1500 
 44 H        5.5380     3.0720    -0.6670 H     1 <1>   0.1500 
 45 H        9.6950     3.0590    -0.3890 H     1 <1>   0.4570 
 46 H        9.9660    -0.2050     1.2320 H     1 <1>   0.0800 
 47 H       10.6340     1.3840     1.4760 H     1 <1>   0.0800 
 48 H       10.7390     0.6140    -0.0960 H     1 <1>   0.0800 
 49 H        6.7610     4.9360    -1.4990 H     1 <1>   0.0800 
 50 H        8.3100     4.5040    -2.1680 H     1 <1>   0.0800 
 51 H        8.2120     5.2760    -0.5970 H     1 <1>   0.0800 
@<TRIPOS>BOND
  1   1   2  1   
  2   1  25  1   
  3   2   3  1   
  4   2   4  1   
  5   2   5  1   
  6   3   6  ar  
  7   3   7  ar  
  8   4   8  1   
  9   4   9  1   
 10   4  26  1   
 11   5  10  1   
 12   5  27  1   
 13   5  28  1   
 14   6  11  ar  
 15   6  29  1   
 16   7  12  ar  
 17   7  30  1   
 18   8  13  1   
 19   8  14  1   
 20   8  31  1   
 21   9  15  1   
 22   9  32  1   
 23   9  33  1   
 24  10  13  1   
 25  10  34  1   
 26  10  35  1   
 27  11  16  ar  
 28  11  36  1   
 29  12  16  ar  
 30  12  37  1   
 31  13  38  1   
 32  13  39  1   
 33  14  15  1   
 34  14  40  1   
 35  14  41  1   
 36  15  17  1   
 37  16  42  1   
 38  17  18  ar  
 39  17  19  ar  
 40  18  20  ar  
 41  18  43  1   
 42  19  21  ar  
 43  19  44  1   
 44  20  22  ar  
 45  20  23  1   
 46  21  22  ar  
 47  21  24  1   
 48  22  45  1   
 49  23  46  1   
 50  23  47  1   
 51  23  48  1   
 52  24  49  1   
 53  24  50  1   
 54  24  51  1   
@<TRIPOS>SUBSTRUCTURE
  1 ****   9 GROUP 4 **** **** 0

# MOE 2024.06 (io_trps.svl 2023.06)
