@<TRIPOS>MOLECULE
NONAME
50 51 1 0 0 
SMALL
USER_CHARGES


@<TRIPOS>ATOM
  1 O       -0.3050    -1.1120    -1.2200 O.2   1 <1>  -0.5700 
  2 C       -0.3810    -2.2390    -0.7880 C.2   1 <1>   0.5690 
  3 N        0.5620    -3.1960    -1.0920 N.am  1 <1>  -0.6600 
  4 C       -1.5650    -2.5660     0.1320 C.3   1 <1>   0.2010 
  5 C        0.4730    -4.5910    -0.5740 C.3   1 <1>   0.1400 
  6 C        1.6880    -2.9300    -2.0300 C.3   1 <1>   0.0600 
  7 N       -1.6690    -4.0100     0.5520 N.am  1 <1>  -0.6600 
  8 C       -0.3470    -4.6800     0.7220 C.3   1 <1>   0.1400 
  9 C       -2.8960    -4.5930     0.7300 C.2   1 <1>   0.5690 
 10 O       -3.9150    -3.9550     0.6070 O.2   1 <1>  -0.5700 
 11 C       -2.9950    -6.0690     1.0860 C.3   1 <1>  -0.0990 
 12 C       -4.4370    -6.5860     1.2560 C.3   1 <1>  -0.0990 
 13 C       -4.5040    -8.0870     1.5210 C.2   1 <1>   0.4230 
 14 O       -3.5930    -8.5740     2.1470 O.2   1 <1>  -0.5700 
 15 C       -5.5830    -8.8840     0.9860 C.ar  1 <1>   0.0860 
 16 C       -6.9190    -8.4570     0.9100 C.ar  1 <1>   0.0820 
 17 C       -5.2960   -10.1650     0.5110 C.ar  1 <1>  -0.1500 
 18 O       -7.2250    -7.2350     1.4140 O.3   1 <1>  -0.3630 
 19 C       -7.8960    -9.2790     0.3520 C.ar  1 <1>  -0.1500 
 20 C       -6.2540   -10.9830    -0.0500 C.ar  1 <1>   0.0820 
 21 C       -8.5180    -6.6720     1.3680 C.3   1 <1>   0.0400 
 22 C       -7.5840   -10.5450    -0.1290 C.ar  1 <1>   0.0820 
 23 O       -5.8120   -12.1960    -0.4850 O.3   1 <1>  -0.3630 
 24 O       -8.5330   -11.3690    -0.6490 O.3   1 <1>  -0.3620 
 25 C       -6.2480   -12.6940    -1.7310 C.3   1 <1>   0.0400 
 26 C       -9.9130   -11.0820    -0.5910 C.3   1 <1>   0.0400 
 27 H       -2.4630    -2.2710    -0.3800 H     1 <1>   0.0800 
 28 H       -1.4790    -1.9570     1.0130 H     1 <1>   0.0800 
 29 H        1.4640    -4.9650    -0.3840 H     1 <1>   0.0800 
 30 H        0.0190    -5.2140    -1.3260 H     1 <1>   0.0800 
 31 H        1.6510    -1.9180    -2.3950 H     1 <1>   0.0800 
 32 H        1.6270    -3.5990    -2.8700 H     1 <1>   0.0800 
 33 H        2.6260    -3.0770    -1.5240 H     1 <1>   0.0800 
 34 H        0.1930    -4.1920     1.5150 H     1 <1>   0.0800 
 35 H       -0.4610    -5.7130     0.9940 H     1 <1>   0.0800 
 36 H       -2.4630    -6.2300     2.0060 H     1 <1>   0.0800 
 37 H       -2.5150    -6.6380     0.3110 H     1 <1>   0.0800 
 38 H       -4.9920    -6.3630     0.3620 H     1 <1>   0.0800 
 39 H       -4.9040    -6.0700     2.0760 H     1 <1>   0.0800 
 40 H       -4.2860   -10.5300     0.5780 H     1 <1>   0.1500 
 41 H       -8.9060    -8.9320     0.2970 H     1 <1>   0.1500 
 42 H       -8.4720    -5.6950     1.8140 H     1 <1>   0.0800 
 43 H       -9.1920    -7.2960     1.9280 H     1 <1>   0.0800 
 44 H       -8.8280    -6.5890     0.3410 H     1 <1>   0.0800 
 45 H       -5.5120   -13.3900    -2.0890 H     1 <1>   0.0800 
 46 H       -6.3510   -11.8760    -2.4230 H     1 <1>   0.0800 
 47 H       -7.1870   -13.1980    -1.5950 H     1 <1>   0.0800 
 48 H      -10.4450   -11.9230    -0.9990 H     1 <1>   0.0800 
 49 H      -10.1140   -10.2050    -1.1790 H     1 <1>   0.0800 
 50 H      -10.1970   -10.9350     0.4360 H     1 <1>   0.0800 
@<TRIPOS>BOND
  1   1   2  2   
  2   2   3  am  
  3   2   4  1   
  4   3   5  1   
  5   3   6  1   
  6   4   7  1   
  7   4  27  1   
  8   4  28  1   
  9   5   8  1   
 10   5  29  1   
 11   5  30  1   
 12   6  31  1   
 13   6  32  1   
 14   6  33  1   
 15   7   8  1   
 16   7   9  am  
 17   8  34  1   
 18   8  35  1   
 19   9  10  2   
 20   9  11  1   
 21  11  12  1   
 22  11  36  1   
 23  11  37  1   
 24  12  13  1   
 25  12  38  1   
 26  12  39  1   
 27  13  14  2   
 28  13  15  1   
 29  15  16  ar  
 30  15  17  ar  
 31  16  18  1   
 32  16  19  ar  
 33  17  20  ar  
 34  17  40  1   
 35  18  21  1   
 36  19  22  ar  
 37  19  41  1   
 38  20  22  ar  
 39  20  23  1   
 40  21  42  1   
 41  21  43  1   
 42  21  44  1   
 43  22  24  1   
 44  23  25  1   
 45  24  26  1   
 46  25  45  1   
 47  25  46  1   
 48  25  47  1   
 49  26  48  1   
 50  26  49  1   
 51  26  50  1   
@<TRIPOS>SUBSTRUCTURE
  1 ****  12 GROUP 4 **** **** 0

# MOE 2024.06 (io_trps.svl 2023.06)
