@<TRIPOS>MOLECULE
NONAME
40 42 1 0 0 
SMALL
USER_CHARGES


@<TRIPOS>ATOM
  1 O        0.8500     0.3420    -0.2200 O.co2 1 <1>  -0.9000 
  2 C        0.8390     1.4470     0.3320 C.2   1 <1>   0.8710 
  3 O       -0.1850     1.9320     0.8260 O.co2 1 <1>  -0.9000 
  4 C        2.1200     2.2290     0.4170 C.3   1 <1>  -0.0710 
  5 C        1.9030     3.7290     0.1780 C.3   1 <1>   0.2450 
  6 C        2.9080     2.2290    -0.9010 C.3   1 <1>   0.2450 
  7 N        3.1300     3.7120    -0.6990 N.3   1 <1>  -0.5900 
  8 C        4.2910     4.3770    -0.4740 C.ar  1 <1>   0.4100 
  9 N        5.3880     3.6490    -0.3840 N.ar  1 <1>  -0.6200 
 10 C        4.3190     5.7930    -0.3430 C.ar  1 <1>  -0.1440 
 11 C        6.5270     4.2550    -0.1100 C.ar  1 <1>   0.7710 
 12 C        5.5100     6.3820    -0.0340 C.ar  1 <1>   0.2180 
 13 C        3.0350     6.6000    -0.5740 C.3   1 <1>  -0.0970 
 14 N        6.5930     5.5790     0.0750 N.ar  1 <1>  -0.1790 
 15 N        7.6600     3.5190    -0.0070 N.pl3 1 <1>  -0.8380 
 16 C        5.7440     7.8710     0.1960 C.3   1 <1>  -0.0970 
 17 C        7.6280     2.0350    -0.1560 C.3   1 <1>   0.2090 
 18 C        9.0600     3.9780     0.2090 C.3   1 <1>   0.2090 
 19 C        9.0310     1.5670     0.2050 C.3   1 <1>  -0.1600 
 20 C        9.9240     2.7630    -0.1000 C.3   1 <1>  -0.1600 
 21 H        2.7230     2.0120     1.2820 H     1 <1>   0.0000 
 22 H        2.0350     4.3270     1.0620 H     1 <1>   0.0000 
 23 H        1.0250     3.9730    -0.3950 H     1 <1>   0.0000 
 24 H        2.3100     2.0480    -1.7770 H     1 <1>   0.0000 
 25 H        3.8140     1.6510    -0.8630 H     1 <1>   0.0000 
 26 H        2.4460     6.1530    -1.3570 H     1 <1>   0.0800 
 27 H        3.2350     7.6090    -0.8820 H     1 <1>   0.0800 
 28 H        2.4420     6.6210     0.3230 H     1 <1>   0.0800 
 29 H        7.5110     5.9330     0.3010 H     1 <1>   0.4570 
 30 H        4.8300     8.3830     0.4360 H     1 <1>   0.0800 
 31 H        6.1650     8.3210    -0.6860 H     1 <1>   0.0800 
 32 H        6.4170     8.0260     1.0200 H     1 <1>   0.0800 
 33 H        7.4010     1.7840    -1.1800 H     1 <1>   0.0800 
 34 H        6.8880     1.5910     0.4900 H     1 <1>   0.0800 
 35 H        9.1910     4.2590     1.2410 H     1 <1>   0.0800 
 36 H        9.3180     4.7990    -0.4390 H     1 <1>   0.0800 
 37 H        9.3130     0.6900    -0.3500 H     1 <1>   0.0800 
 38 H        9.0640     1.3390     1.2560 H     1 <1>   0.0800 
 39 H       10.8300     2.7550     0.4800 H     1 <1>   0.0800 
 40 H       10.1800     2.7680    -1.1460 H     1 <1>   0.0800 
@<TRIPOS>BOND
  1   1   2  ar  
  2   2   3  ar  
  3   2   4  1   
  4   4   5  1   
  5   4   6  1   
  6   4  21  1   
  7   5   7  1   
  8   5  22  1   
  9   5  23  1   
 10   6   7  1   
 11   6  24  1   
 12   6  25  1   
 13   7   8  1   
 14   8   9  ar  
 15   8  10  ar  
 16   9  11  ar  
 17  10  12  ar  
 18  10  13  1   
 19  11  14  ar  
 20  11  15  1   
 21  12  14  ar  
 22  12  16  1   
 23  13  26  1   
 24  13  27  1   
 25  13  28  1   
 26  14  29  1   
 27  15  17  1   
 28  15  18  1   
 29  16  30  1   
 30  16  31  1   
 31  16  32  1   
 32  17  19  1   
 33  17  33  1   
 34  17  34  1   
 35  18  20  1   
 36  18  35  1   
 37  18  36  1   
 38  19  20  1   
 39  19  37  1   
 40  19  38  1   
 41  20  39  1   
 42  20  40  1   
@<TRIPOS>SUBSTRUCTURE
  1 ****   9 GROUP 4 **** **** 0

# MOE 2024.06 (io_trps.svl 2023.06)
