@<TRIPOS>MOLECULE
NONAME
49 52 1 0 0 
SMALL
USER_CHARGES


@<TRIPOS>ATOM
  1 F       -1.0610    -3.3190    -3.4370 F     1 <1>  -0.1900 
  2 C       -1.6920    -3.6870    -2.3520 C.ar  1 <1>   0.1900 
  3 C       -3.0300    -3.4050    -2.2310 C.ar  1 <1>  -0.1500 
  4 C       -0.9610    -4.3580    -1.3670 C.ar  1 <1>  -0.1500 
  5 C       -3.6810    -3.8190    -1.0650 C.ar  1 <1>   0.0000 
  6 C       -1.6000    -4.7610    -0.2160 C.ar  1 <1>  -0.1500 
  7 C       -2.9650    -4.4860    -0.0720 C.ar  1 <1>  -0.1520 
  8 C       -5.0090    -3.7230    -0.6040 C.2   1 <1>  -0.1500 
  9 N       -3.8190    -4.7700     0.9620 N.pl3 1 <1>   0.0330 
 10 C       -5.0670    -4.3280     0.6090 C.2   1 <1>  -0.3320 
 11 C       -6.2750    -4.5490     1.4960 C.3   1 <1>   0.3890 
 12 N       -6.5190    -6.0160     1.6700 N.pl3 1 <1>  -0.8380 
 13 C       -6.5270    -6.9650     0.6850 C.ar  1 <1>   0.7710 
 14 C       -7.0320    -6.3390     3.0460 C.3   1 <1>   0.1290 
 15 N       -7.0820    -8.1430     0.9340 N.ar  1 <1>  -0.6200 
 16 N       -5.9730    -6.7020    -0.5140 N.ar  1 <1>  -0.1790 
 17 C       -7.1150    -9.0540    -0.0210 C.ar  1 <1>   0.4100 
 18 C       -5.9510    -7.6100    -1.5140 C.ar  1 <1>   0.2110 
 19 N       -7.7290   -10.2360     0.2520 N.pl3 1 <1>  -0.8380 
 20 C       -6.5270    -8.8110    -1.2780 C.ar  1 <1>  -0.1500 
 21 C       -8.4310   -11.0860    -0.7660 C.3   1 <1>   0.2090 
 22 C       -7.8550   -10.7770     1.6400 C.3   1 <1>   0.2090 
 23 C       -7.8700   -12.5180    -0.7440 C.3   1 <1>   0.2000 
 24 C       -7.2850   -12.2020     1.6890 C.3   1 <1>  -0.1600 
 25 O       -8.5940   -13.3160    -1.6120 O.3   1 <1>  -0.6800 
 26 C       -7.9450   -13.1330     0.6570 C.3   1 <1>  -0.1600 
 27 H       -3.5600    -2.8810    -3.0050 H     1 <1>   0.1500 
 28 H        0.0870    -4.5430    -1.5260 H     1 <1>   0.1500 
 29 H       -1.0610    -5.2730     0.5630 H     1 <1>   0.1500 
 30 H       -5.7960    -3.2400    -1.1630 H     1 <1>   0.1500 
 31 H       -3.5470    -5.2180     1.8470 H     1 <1>   0.2700 
 32 H       -7.1490    -4.0900     1.0630 H     1 <1>   0.0800 
 33 H       -6.0960    -4.0800     2.4500 H     1 <1>   0.0800 
 34 H       -6.4780    -5.7980     3.7940 H     1 <1>   0.0800 
 35 H       -6.9330    -7.3890     3.2680 H     1 <1>   0.0800 
 36 H       -8.0730    -6.0720     3.1200 H     1 <1>   0.0800 
 37 H       -5.5140    -5.7900    -0.5810 H     1 <1>   0.4570 
 38 H       -5.4740    -7.3560    -2.4480 H     1 <1>   0.1500 
 39 H       -6.5290    -9.5840    -2.0220 H     1 <1>   0.1500 
 40 H       -8.3350   -10.6760    -1.7540 H     1 <1>   0.0800 
 41 H       -9.4780   -11.1130    -0.5190 H     1 <1>   0.0800 
 42 H       -8.8940   -10.7840     1.9250 H     1 <1>   0.0800 
 43 H       -7.3200   -10.1630     2.3440 H     1 <1>   0.0800 
 44 H       -6.8520   -12.5040    -1.0930 H     1 <1>   0.0800 
 45 H       -7.4250   -12.6040     2.6770 H     1 <1>   0.0800 
 46 H       -6.2260   -12.1530     1.5060 H     1 <1>   0.0800 
 47 H       -9.4600   -13.5460    -1.2230 H     1 <1>   0.4000 
 48 H       -7.4430   -14.0850     0.6610 H     1 <1>   0.0800 
 49 H       -8.9740   -13.2820     0.9360 H     1 <1>   0.0800 
@<TRIPOS>BOND
  1   1   2  1   
  2   2   3  ar  
  3   2   4  ar  
  4   3   5  ar  
  5   3  27  1   
  6   4   6  ar  
  7   4  28  1   
  8   5   7  ar  
  9   5   8  1   
 10   6   7  ar  
 11   6  29  1   
 12   7   9  1   
 13   8  10  2   
 14   8  30  1   
 15   9  10  1   
 16   9  31  1   
 17  10  11  1   
 18  11  12  1   
 19  11  32  1   
 20  11  33  1   
 21  12  13  1   
 22  12  14  1   
 23  13  15  ar  
 24  13  16  ar  
 25  14  34  1   
 26  14  35  1   
 27  14  36  1   
 28  15  17  ar  
 29  16  18  ar  
 30  16  37  1   
 31  17  19  1   
 32  17  20  ar  
 33  18  20  ar  
 34  18  38  1   
 35  19  21  1   
 36  19  22  1   
 37  20  39  1   
 38  21  23  1   
 39  21  40  1   
 40  21  41  1   
 41  22  24  1   
 42  22  42  1   
 43  22  43  1   
 44  23  25  1   
 45  23  26  1   
 46  23  44  1   
 47  24  26  1   
 48  24  45  1   
 49  24  46  1   
 50  25  47  1   
 51  26  48  1   
 52  26  49  1   
@<TRIPOS>SUBSTRUCTURE
  1 ****  16 GROUP 4 **** **** 0

# MOE 2024.06 (io_trps.svl 2023.06)
