@<TRIPOS>MOLECULE
NONAME
54 57 1 0 0 
SMALL
USER_CHARGES


@<TRIPOS>ATOM
  1 CL      -3.0300    -2.8800     1.7880 Cl    1 <1>  -0.1770 
  2 C       -4.0460    -1.5360     1.3420 C.ar  1 <1>   0.1770 
  3 C       -4.6580    -1.5270     0.1030 C.ar  1 <1>  -0.1500 
  4 C       -4.2290    -0.4950     2.2310 C.ar  1 <1>  -0.1500 
  5 C       -5.4690    -0.4620    -0.2440 C.ar  1 <1>  -0.1500 
  6 C       -5.0430     0.5650     1.8740 C.ar  1 <1>  -0.1500 
  7 C       -5.6890     0.6010     0.6360 C.ar  1 <1>   0.0530 
  8 C       -6.5620     1.6940     0.2930 C.2   1 <1>   0.0870 
  9 O       -6.3270     2.9060     0.7320 O.3   1 <1>  -0.0190 
 10 C       -7.6930     1.7590    -0.4550 C.2   1 <1>  -0.0860 
 11 N       -7.2080     3.7780     0.3150 N.2   1 <1>  -0.4100 
 12 C       -8.0350     3.1120    -0.4050 C.2   1 <1>   0.3720 
 13 C       -8.3890     0.7190    -1.1400 C.2   1 <1>   0.7160 
 14 N       -9.1040     3.7420    -1.0220 N.pl3 1 <1>  -0.8520 
 15 O       -8.1190     0.4960    -2.3070 O.2   1 <1>  -0.5700 
 16 N       -9.3350    -0.0650    -0.5080 N.am  1 <1>  -0.6600 
 17 C      -10.4500     3.4390    -0.4730 C.3   1 <1>   0.2090 
 18 C       -9.9980    -1.2090    -1.2100 C.3   1 <1>   0.1400 
 19 C       -9.8270     0.1810     0.8850 C.3   1 <1>   0.1400 
 20 C      -11.2880     2.6810    -1.5030 C.3   1 <1>   0.1200 
 21 C       -9.9630    -2.4820    -0.3430 C.3   1 <1>  -0.0800 
 22 C       -9.8370    -1.1130     1.7260 C.3   1 <1>  -0.0800 
 23 O      -12.4430     2.2110    -0.8750 O.3   1 <1>  -0.5600 
 24 C      -10.6630    -2.1820     0.9930 C.3   1 <1>  -0.1600 
 25 C       -8.5070    -2.9760    -0.1360 C.3   1 <1>  -0.1600 
 26 C       -8.4010    -1.6130     2.0240 C.3   1 <1>  -0.1600 
 27 C      -13.2890     1.5070    -1.7250 C.3   1 <1>   0.0400 
 28 C       -8.0390    -2.9380     1.3290 C.3   1 <1>  -0.1600 
 29 H       -4.4980    -2.3440    -0.5780 H     1 <1>   0.1500 
 30 H       -3.7380    -0.5190     3.1880 H     1 <1>   0.1500 
 31 H       -5.9340    -0.4580    -1.2150 H     1 <1>   0.1500 
 32 H       -5.1870     1.3770     2.5660 H     1 <1>   0.1500 
 33 H       -8.9350     4.7520    -0.9740 H     1 <1>   0.4000 
 34 H      -10.3570     2.8480     0.4210 H     1 <1>   0.0800 
 35 H      -10.9480     4.3590    -0.2210 H     1 <1>   0.0800 
 36 H      -11.0190    -0.9390    -1.4140 H     1 <1>   0.0800 
 37 H       -9.5180    -1.4100    -2.1530 H     1 <1>   0.0800 
 38 H       -9.2260     0.9220     1.3810 H     1 <1>   0.0800 
 39 H      -10.8320     0.5630     0.8230 H     1 <1>   0.0800 
 40 H      -10.7420     1.8400    -1.8900 H     1 <1>   0.0800 
 41 H      -11.5690     3.3380    -2.3070 H     1 <1>   0.0800 
 42 H      -10.5160    -3.2480    -0.8580 H     1 <1>   0.0800 
 43 H      -10.3180    -0.8900     2.6620 H     1 <1>   0.0800 
 44 H      -10.7420    -3.0740     1.5880 H     1 <1>   0.0800 
 45 H      -11.6610    -1.8200     0.8150 H     1 <1>   0.0800 
 46 H       -8.4230    -3.9870    -0.4960 H     1 <1>   0.0800 
 47 H       -7.8310    -2.3810    -0.7250 H     1 <1>   0.0800 
 48 H       -7.6900    -0.8660     1.7270 H     1 <1>   0.0800 
 49 H       -8.2860    -1.7460     3.0850 H     1 <1>   0.0800 
 50 H      -14.1390     1.1770    -1.1540 H     1 <1>   0.0800 
 51 H      -12.7660     0.6560    -2.1240 H     1 <1>   0.0800 
 52 H      -13.6170     2.1560    -2.5190 H     1 <1>   0.0800 
 53 H       -6.9750    -3.0950     1.3770 H     1 <1>   0.0800 
 54 H       -8.5040    -3.7490     1.8630 H     1 <1>   0.0800 
@<TRIPOS>BOND
  1   1   2  1   
  2   2   3  ar  
  3   2   4  ar  
  4   3   5  ar  
  5   3  29  1   
  6   4   6  ar  
  7   4  30  1   
  8   5   7  ar  
  9   5  31  1   
 10   6   7  ar  
 11   6  32  1   
 12   7   8  1   
 13   8   9  1   
 14   8  10  2   
 15   9  11  1   
 16  10  12  1   
 17  10  13  1   
 18  11  12  2   
 19  12  14  1   
 20  13  15  2   
 21  13  16  am  
 22  14  17  1   
 23  14  33  1   
 24  16  18  1   
 25  16  19  1   
 26  17  20  1   
 27  17  34  1   
 28  17  35  1   
 29  18  21  1   
 30  18  36  1   
 31  18  37  1   
 32  19  22  1   
 33  19  38  1   
 34  19  39  1   
 35  20  23  1   
 36  20  40  1   
 37  20  41  1   
 38  21  24  1   
 39  21  25  1   
 40  21  42  1   
 41  22  24  1   
 42  22  26  1   
 43  22  43  1   
 44  23  27  1   
 45  24  44  1   
 46  24  45  1   
 47  25  28  1   
 48  25  46  1   
 49  25  47  1   
 50  26  28  1   
 51  26  48  1   
 52  26  49  1   
 53  27  50  1   
 54  27  51  1   
 55  27  52  1   
 56  28  53  1   
 57  28  54  1   
@<TRIPOS>SUBSTRUCTURE
  1 ****  13 GROUP 4 **** **** 0

# MOE 2024.06 (io_trps.svl 2023.06)
