@<TRIPOS>MOLECULE
NONAME
44 46 1 0 0 
SMALL
USER_CHARGES


@<TRIPOS>ATOM
  1 O        0.5680    -1.2460    -0.4110 O.3   1 <1>  -0.5600 
  2 C       -0.0230    -2.2730     0.3590 C.3   1 <1>   0.2800 
  3 C        0.3830     0.0740     0.0300 C.3   1 <1>   0.1200 
  4 C       -1.4360    -1.8570     0.8380 C.3   1 <1>  -0.1600 
  5 C        0.9180    -2.6090     1.5310 C.3   1 <1>  -0.1600 
  6 C       -0.0820    -3.5120    -0.5610 C.3   1 <1>  -0.1600 
  7 C       -1.1020     0.4680    -0.0290 C.3   1 <1>  -0.1600 
  8 C       -2.0470    -0.7380    -0.0090 C.3   1 <1>   0.2800 
  9 C        2.3290    -3.0190     1.0830 C.3   1 <1>   0.3430 
 10 C        1.2780    -4.1720    -0.8300 C.3   1 <1>   0.3430 
 11 O       -2.1480    -1.1930    -1.2980 O.3   1 <1>  -0.6800 
 12 C       -3.4580    -0.3680     0.4370 C.3   1 <1>  -0.2400 
 13 N        2.3670    -3.2640    -0.3910 N.4   1 <1>  -0.9590 
 14 C        3.7090    -3.6200    -0.9230 C.3   1 <1>   0.4860 
 15 C        4.6860    -2.5210    -0.5760 C.ar  1 <1>  -0.1440 
 16 C        4.6130    -1.2780    -1.1640 C.ar  1 <1>   0.1600 
 17 C        5.6810    -2.7150     0.3560 C.ar  1 <1>   0.1600 
 18 N        5.4350    -0.3070    -0.8450 N.ar  1 <1>  -0.6200 
 19 N        6.5140    -1.7600     0.6930 N.ar  1 <1>  -0.6200 
 20 C        6.3470    -0.6050     0.0680 C.ar  1 <1>   0.4700 
 21 H        0.9650     0.7240    -0.6020 H     1 <1>   0.0800 
 22 H        0.7560     0.1570     1.0360 H     1 <1>   0.0800 
 23 H       -1.3770    -1.5030     1.8520 H     1 <1>   0.0800 
 24 H       -2.1020    -2.7020     0.8600 H     1 <1>   0.0800 
 25 H        0.4940    -3.4230     2.0920 H     1 <1>   0.0800 
 26 H        0.9900    -1.7810     2.2120 H     1 <1>   0.0800 
 27 H       -0.5400    -3.2510    -1.4980 H     1 <1>   0.0800 
 28 H       -0.7150    -4.2600    -0.1170 H     1 <1>   0.0800 
 29 H       -1.2940     1.0740    -0.8970 H     1 <1>   0.0800 
 30 H       -1.3020     1.0910     0.8250 H     1 <1>   0.0800 
 31 H        2.6380    -3.9020     1.6190 H     1 <1>   0.0800 
 32 H        3.0140    -2.2220     1.3270 H     1 <1>   0.0800 
 33 H        1.3660    -4.3820    -1.8840 H     1 <1>   0.0800 
 34 H        1.3430    -5.1040    -0.2910 H     1 <1>   0.0800 
 35 H       -1.2490    -1.1940    -1.6780 H     1 <1>   0.4000 
 36 H       -3.4510    -0.0110     1.4500 H     1 <1>   0.0800 
 37 H       -4.1040    -1.2260     0.3830 H     1 <1>   0.0800 
 38 H       -3.8550     0.4080    -0.1940 H     1 <1>   0.0800 
 39 H        2.0900    -2.3430    -0.7850 H     1 <1>   0.4500 
 40 H        3.6640    -3.7310    -1.9950 H     1 <1>   0.0800 
 41 H        4.0390    -4.5550    -0.4990 H     1 <1>   0.0800 
 42 H        3.8670    -1.0610    -1.9110 H     1 <1>   0.1500 
 43 H        5.8050    -3.6680     0.8460 H     1 <1>   0.1500 
 44 H        7.0320     0.1850     0.3340 H     1 <1>   0.1500 
@<TRIPOS>BOND
  1   1   2  1   
  2   1   3  1   
  3   2   4  1   
  4   2   5  1   
  5   2   6  1   
  6   3   7  1   
  7   3  21  1   
  8   3  22  1   
  9   4   8  1   
 10   4  23  1   
 11   4  24  1   
 12   5   9  1   
 13   5  25  1   
 14   5  26  1   
 15   6  10  1   
 16   6  27  1   
 17   6  28  1   
 18   7   8  1   
 19   7  29  1   
 20   7  30  1   
 21   8  11  1   
 22   8  12  1   
 23   9  13  1   
 24   9  31  1   
 25   9  32  1   
 26  10  13  1   
 27  10  33  1   
 28  10  34  1   
 29  11  35  1   
 30  12  36  1   
 31  12  37  1   
 32  12  38  1   
 33  13  14  1   
 34  13  39  1   
 35  14  15  1   
 36  14  40  1   
 37  14  41  1   
 38  15  16  ar  
 39  15  17  ar  
 40  16  18  ar  
 41  16  42  1   
 42  17  19  ar  
 43  17  43  1   
 44  18  20  ar  
 45  19  20  ar  
 46  20  44  1   
@<TRIPOS>SUBSTRUCTURE
  1 ****   1 GROUP 4 **** **** 0

# MOE 2024.06 (io_trps.svl 2023.06)
