@<TRIPOS>MOLECULE
NONAME
54 57 1 0 0 
SMALL
USER_CHARGES


@<TRIPOS>ATOM
  1 O       -1.4890     0.8940    -3.0450 O.2   1 <1>  -0.5700 
  2 C       -1.9430     0.9000    -1.9110 C.2   1 <1>   0.5440 
  3 N       -2.7790    -0.1500    -1.5460 N.am  1 <1>  -0.6600 
  4 C       -1.5980     2.0200    -1.0270 C.ar  1 <1>   0.3960 
  5 C       -3.6270    -0.1350    -0.3230 C.3   1 <1>   0.1400 
  6 C       -2.8300    -1.4130    -2.3360 C.3   1 <1>   0.1400 
  7 N       -1.2970     1.8050     0.2680 N.ar  1 <1>  -0.6200 
  8 C       -1.5770     3.3080    -1.5640 C.ar  1 <1>  -0.1500 
  9 C       -5.0810    -0.4480    -0.6800 C.3   1 <1>  -0.1600 
 10 C       -4.2740    -1.7730    -2.6880 C.3   1 <1>  -0.1600 
 11 C       -0.9850     2.8530     1.0050 C.ar  1 <1>   0.1670 
 12 C       -1.2540     4.3990    -0.7900 C.ar  1 <1>  -0.1500 
 13 C       -5.2750    -1.7220    -1.5220 C.3   1 <1>   0.4240 
 14 C       -0.9510     4.1540     0.5300 C.ar  1 <1>  -0.1500 
 15 C       -0.6490     2.5640     2.4520 C.3   1 <1>  -0.0960 
 16 O       -6.5140    -1.5740    -2.1730 O.3   1 <1>  -0.5600 
 17 C       -5.2620    -3.0180    -0.6610 C.ar  1 <1>  -0.1430 
 18 C       -7.6680    -1.8630    -1.4520 C.3   1 <1>   0.1200 
 19 C       -6.4120    -3.7890    -0.5150 C.ar  1 <1>  -0.1430 
 20 C       -4.1180    -3.4520     0.0000 C.ar  1 <1>  -0.1500 
 21 C       -7.7000    -3.3620    -1.1920 C.3   1 <1>  -0.0170 
 22 C       -6.4080    -4.9470     0.2470 C.ar  1 <1>  -0.1500 
 23 C       -4.0910    -4.6080     0.7610 C.ar  1 <1>   0.0830 
 24 C       -5.2570    -5.3720     0.9020 C.ar  1 <1>   0.0830 
 25 O       -2.8840    -4.8930     1.3280 O.3   1 <1>  -0.3630 
 26 O       -5.2510    -6.4930     1.6820 O.3   1 <1>  -0.3620 
 27 C       -2.4530    -6.2280     1.4790 C.3   1 <1>   0.0400 
 28 C       -6.4320    -7.2000     1.9890 C.3   1 <1>   0.0400 
 29 H       -3.6050     0.8330     0.1420 H     1 <1>   0.0800 
 30 H       -3.2420    -0.8410     0.3900 H     1 <1>   0.0800 
 31 H       -2.3600    -2.2000    -1.7790 H     1 <1>   0.0800 
 32 H       -2.2720    -1.3110    -3.2500 H     1 <1>   0.0800 
 33 H       -1.8140     3.4380    -2.6050 H     1 <1>   0.1500 
 34 H       -5.4610     0.3920    -1.2330 H     1 <1>   0.0800 
 35 H       -5.6430    -0.5310     0.2310 H     1 <1>   0.0800 
 36 H       -4.2950    -2.7520    -3.1270 H     1 <1>   0.0800 
 37 H       -4.5880    -1.0710    -3.4410 H     1 <1>   0.0800 
 38 H       -1.2350     5.3950    -1.1980 H     1 <1>   0.1500 
 39 H       -0.6880     4.9670     1.1820 H     1 <1>   0.1500 
 40 H        0.1870     1.8900     2.4980 H     1 <1>   0.0800 
 41 H       -1.4920     2.1000     2.9310 H     1 <1>   0.0800 
 42 H       -0.3990     3.4640     2.9820 H     1 <1>   0.0800 
 43 H       -8.5130    -1.5640    -2.0470 H     1 <1>   0.0800 
 44 H       -7.6650    -1.3040    -0.5330 H     1 <1>   0.0800 
 45 H       -3.2020    -2.9050    -0.0530 H     1 <1>   0.1500 
 46 H       -7.8100    -3.8850    -2.1250 H     1 <1>   0.0800 
 47 H       -8.5450    -3.5940    -0.5700 H     1 <1>   0.0800 
 48 H       -7.3190    -5.5060     0.3210 H     1 <1>   0.1500 
 49 H       -1.3830    -6.2250     1.5690 H     1 <1>   0.0800 
 50 H       -2.7510    -6.7940     0.6140 H     1 <1>   0.0800 
 51 H       -2.8920    -6.6340     2.3720 H     1 <1>   0.0800 
 52 H       -6.1780    -7.9940     2.6680 H     1 <1>   0.0800 
 53 H       -6.8380    -7.6120     1.0830 H     1 <1>   0.0800 
 54 H       -7.1290    -6.5280     2.4570 H     1 <1>   0.0800 
@<TRIPOS>BOND
  1   1   2  2   
  2   2   3  am  
  3   2   4  1   
  4   3   5  1   
  5   3   6  1   
  6   4   7  ar  
  7   4   8  ar  
  8   5   9  1   
  9   5  29  1   
 10   5  30  1   
 11   6  10  1   
 12   6  31  1   
 13   6  32  1   
 14   7  11  ar  
 15   8  12  ar  
 16   8  33  1   
 17   9  13  1   
 18   9  34  1   
 19   9  35  1   
 20  10  13  1   
 21  10  36  1   
 22  10  37  1   
 23  11  14  ar  
 24  11  15  1   
 25  12  14  ar  
 26  12  38  1   
 27  13  16  1   
 28  13  17  1   
 29  14  39  1   
 30  15  40  1   
 31  15  41  1   
 32  15  42  1   
 33  16  18  1   
 34  17  19  ar  
 35  17  20  ar  
 36  18  21  1   
 37  18  43  1   
 38  18  44  1   
 39  19  21  1   
 40  19  22  ar  
 41  20  23  ar  
 42  20  45  1   
 43  21  46  1   
 44  21  47  1   
 45  22  24  ar  
 46  22  48  1   
 47  23  24  ar  
 48  23  25  1   
 49  24  26  1   
 50  25  27  1   
 51  26  28  1   
 52  27  49  1   
 53  27  50  1   
 54  27  51  1   
 55  28  52  1   
 56  28  53  1   
 57  28  54  1   
@<TRIPOS>SUBSTRUCTURE
  1 ****   5 GROUP 4 **** **** 0

# MOE 2024.06 (io_trps.svl 2023.06)
