@<TRIPOS>MOLECULE
NONAME
39 40 1 0 0 
SMALL
USER_CHARGES


@<TRIPOS>ATOM
  1 CL      -5.3100    -0.3460     1.5040 Cl    1 <1>  -0.1770 
  2 C       -4.0060    -1.1370     0.6500 C.ar  1 <1>   0.1770 
  3 C       -3.0530    -0.3800    -0.0170 C.ar  1 <1>  -0.1440 
  4 C       -3.9560    -2.5170     0.6620 C.ar  1 <1>  -0.1500 
  5 C       -2.0320    -1.0450    -0.6750 C.ar  1 <1>  -0.1500 
  6 C       -3.1170     1.1400    -0.0260 C.3   1 <1>  -0.0960 
  7 C       -2.9410    -3.1970    -0.0070 C.ar  1 <1>   0.0860 
  8 C       -1.9800    -2.4290    -0.6650 C.ar  1 <1>  -0.1500 
  9 C       -2.8650    -4.6470    -0.0260 C.2   1 <1>   0.5440 
 10 O       -1.8080    -5.1800     0.2560 O.2   1 <1>  -0.5700 
 11 N       -3.9290    -5.4380    -0.4070 N.am  1 <1>  -0.6600 
 12 C       -3.9030    -6.9070    -0.1010 C.3   1 <1>   0.3210 
 13 C       -4.9440    -4.9570    -1.4060 C.3   1 <1>   0.1400 
 14 C       -5.1450    -7.3740     0.6560 C.2   1 <1>   0.0460 
 15 C       -6.4110    -5.0140    -0.9420 C.3   1 <1>   0.1200 
 16 N       -5.4760    -6.8230     1.8450 N.2   1 <1>  -0.5650 
 17 C       -6.0460    -8.3250     0.3050 C.2   1 <1>  -0.3320 
 18 O       -6.5410    -4.5990     0.3710 O.3   1 <1>  -0.6800 
 19 C       -6.5560    -7.4420     2.1900 C.2   1 <1>   0.0360 
 20 N       -6.9560    -8.3680     1.2970 N.pl3 1 <1>   0.0330 
 21 C       -6.1330    -9.2290    -0.9140 C.3   1 <1>  -0.0600 
 22 H       -4.7060    -3.0680     1.1980 H     1 <1>   0.1500 
 23 H       -1.2700    -0.4910    -1.1970 H     1 <1>   0.1500 
 24 H       -3.0580     1.5150     0.9800 H     1 <1>   0.0800 
 25 H       -4.0430     1.4660    -0.4630 H     1 <1>   0.0800 
 26 H       -2.3050     1.5580    -0.5940 H     1 <1>   0.0800 
 27 H       -1.1770    -2.9360    -1.1720 H     1 <1>   0.1500 
 28 H       -3.0520    -7.1480     0.5120 H     1 <1>   0.0800 
 29 H       -3.8030    -7.4530    -1.0200 H     1 <1>   0.0800 
 30 H       -4.8470    -5.5400    -2.3040 H     1 <1>   0.0800 
 31 H       -4.7290    -3.9400    -1.6800 H     1 <1>   0.0800 
 32 H       -6.7930    -6.0170    -1.0130 H     1 <1>   0.0800 
 33 H       -7.0190    -4.3730    -1.5550 H     1 <1>   0.0800 
 34 H       -6.0560    -5.2450     0.9520 H     1 <1>   0.4000 
 35 H       -7.0980    -7.2500     3.1000 H     1 <1>   0.1500 
 36 H       -7.7800    -8.9720     1.3690 H     1 <1>   0.2700 
 37 H       -5.3220    -9.0400    -1.5920 H     1 <1>   0.0800 
 38 H       -7.0590    -9.0600    -1.4350 H     1 <1>   0.0800 
 39 H       -6.0880   -10.2600    -0.6120 H     1 <1>   0.0800 
@<TRIPOS>BOND
  1   1   2  1   
  2   2   3  ar  
  3   2   4  ar  
  4   3   5  ar  
  5   3   6  1   
  6   4   7  ar  
  7   4  22  1   
  8   5   8  ar  
  9   5  23  1   
 10   6  24  1   
 11   6  25  1   
 12   6  26  1   
 13   7   8  ar  
 14   7   9  1   
 15   8  27  1   
 16   9  10  2   
 17   9  11  am  
 18  11  12  1   
 19  11  13  1   
 20  12  14  1   
 21  12  28  1   
 22  12  29  1   
 23  13  15  1   
 24  13  30  1   
 25  13  31  1   
 26  14  16  1   
 27  14  17  2   
 28  15  18  1   
 29  15  32  1   
 30  15  33  1   
 31  16  19  2   
 32  17  20  1   
 33  17  21  1   
 34  18  34  1   
 35  19  20  1   
 36  19  35  1   
 37  20  36  1   
 38  21  37  1   
 39  21  38  1   
 40  21  39  1   
@<TRIPOS>SUBSTRUCTURE
  1 ****  11 GROUP 4 **** **** 0

# MOE 2024.06 (io_trps.svl 2023.06)
