@<TRIPOS>MOLECULE
NONAME
45 47 1 0 0 
SMALL
USER_CHARGES


@<TRIPOS>ATOM
  1 CL      -0.6820    -0.3010     0.8420 Cl    1 <1>  -0.1770 
  2 C       -2.1880    -1.0750     0.4070 C.ar  1 <1>   0.1770 
  3 C       -2.1850    -2.3590    -0.1200 C.ar  1 <1>  -0.1440 
  4 C       -3.3610    -0.3730     0.6040 C.ar  1 <1>  -0.1500 
  5 C       -3.4030    -2.9320    -0.4520 C.ar  1 <1>  -0.1500 
  6 C       -0.8890    -3.1260    -0.3310 C.3   1 <1>  -0.0960 
  7 C       -4.5810    -0.9470     0.2740 C.ar  1 <1>   0.1170 
  8 C       -4.5820    -2.2330    -0.2590 C.ar  1 <1>  -0.1500 
  9 N       -5.7540    -0.2040     0.4690 N.am  1 <1>  -0.5470 
 10 C       -7.0480    -0.5980     0.6620 C.2   1 <1>   0.6900 
 11 O       -7.3190    -1.7690     0.8500 O.2   1 <1>  -0.5700 
 12 N       -8.0380     0.3550     0.6690 N.am  1 <1>  -0.6600 
 13 C       -9.4260     0.0150     1.1110 C.3   1 <1>   0.1400 
 14 C       -7.9110     1.7170     0.0810 C.3   1 <1>   0.1400 
 15 C      -10.4410     0.1220    -0.0530 C.3   1 <1>   0.0000 
 16 C       -8.8830     1.8640    -1.0940 C.3   1 <1>  -0.1600 
 17 C      -11.8470    -0.1990     0.4980 C.3   1 <1>   0.2000 
 18 C      -10.3280     1.5290    -0.6890 C.3   1 <1>  -0.1600 
 19 C      -10.2130    -1.0080    -1.0770 C.3   1 <1>  -0.1600 
 20 O      -12.8220     0.2260    -0.3880 O.3   1 <1>  -0.6800 
 21 C      -11.9200    -1.7240     0.5460 C.3   1 <1>  -0.1600 
 22 C      -10.9640    -2.2350    -0.5420 C.3   1 <1>  -0.1600 
 23 H       -3.3160     0.6160     1.0170 H     1 <1>   0.1500 
 24 H       -3.4440    -3.9260    -0.8630 H     1 <1>   0.1500 
 25 H       -1.0790    -4.1000    -0.7440 H     1 <1>   0.0800 
 26 H       -0.3780    -3.2470     0.6080 H     1 <1>   0.0800 
 27 H       -0.2490    -2.5860    -1.0070 H     1 <1>   0.0800 
 28 H       -5.5150    -2.6960    -0.5270 H     1 <1>   0.1500 
 29 H       -5.6290     0.7910     0.6040 H     1 <1>   0.3700 
 30 H       -9.4480    -0.9740     1.5340 H     1 <1>   0.0800 
 31 H       -9.7070     0.7010     1.8910 H     1 <1>   0.0800 
 32 H       -8.1440     2.4470     0.8390 H     1 <1>   0.0800 
 33 H       -6.9110     1.9010    -0.2680 H     1 <1>   0.0800 
 34 H       -8.8410     2.8730    -1.4630 H     1 <1>   0.0800 
 35 H       -8.5660     1.2140    -1.8910 H     1 <1>   0.0800 
 36 H      -12.0440     0.2600     1.4520 H     1 <1>   0.0800 
 37 H      -10.9600     1.6030    -1.5560 H     1 <1>   0.0800 
 38 H      -10.6720     2.2610     0.0210 H     1 <1>   0.0800 
 39 H      -10.6370    -0.7290    -2.0260 H     1 <1>   0.0800 
 40 H       -9.1700    -1.2250    -1.2290 H     1 <1>   0.0800 
 41 H      -12.6830    -0.2250    -1.2420 H     1 <1>   0.4000 
 42 H      -11.5650    -2.0590     1.5040 H     1 <1>   0.0800 
 43 H      -12.9260    -2.0870     0.4160 H     1 <1>   0.0800 
 44 H      -10.2660    -2.9360    -0.1150 H     1 <1>   0.0800 
 45 H      -11.5030    -2.7230    -1.3360 H     1 <1>   0.0800 
@<TRIPOS>BOND
  1   1   2  1   
  2   2   3  ar  
  3   2   4  ar  
  4   3   5  ar  
  5   3   6  1   
  6   4   7  ar  
  7   4  23  1   
  8   5   8  ar  
  9   5  24  1   
 10   6  25  1   
 11   6  26  1   
 12   6  27  1   
 13   7   8  ar  
 14   7   9  1   
 15   8  28  1   
 16   9  10  am  
 17   9  29  1   
 18  10  11  2   
 19  10  12  am  
 20  12  13  1   
 21  12  14  1   
 22  13  15  1   
 23  13  30  1   
 24  13  31  1   
 25  14  16  1   
 26  14  32  1   
 27  14  33  1   
 28  15  17  1   
 29  15  18  1   
 30  15  19  1   
 31  16  18  1   
 32  16  34  1   
 33  16  35  1   
 34  17  20  1   
 35  17  21  1   
 36  17  36  1   
 37  18  37  1   
 38  18  38  1   
 39  19  22  1   
 40  19  39  1   
 41  19  40  1   
 42  20  41  1   
 43  21  22  1   
 44  21  42  1   
 45  21  43  1   
 46  22  44  1   
 47  22  45  1   
@<TRIPOS>SUBSTRUCTURE
  1 ****  10 GROUP 4 **** **** 0

# MOE 2024.06 (io_trps.svl 2023.06)
