@<TRIPOS>MOLECULE
NONAME
54 57 1 0 0 
SMALL
USER_CHARGES


@<TRIPOS>ATOM
  1 O       -0.5150    -0.3160    -0.0650 O.2   1 <1>  -0.5700 
  2 C       -1.5560     0.2330    -0.3390 C.2   1 <1>   0.5690 
  3 N       -2.6810    -0.4890    -0.6200 N.am  1 <1>  -0.6600 
  4 C       -1.6170     1.7560    -0.3830 C.3   1 <1>  -0.0990 
  5 C       -3.9940     0.0480    -1.0550 C.3   1 <1>   0.1400 
  6 C       -2.6980    -1.9690    -0.5860 C.3   1 <1>   0.1400 
  7 C       -0.3520     2.4590     0.1500 C.3   1 <1>  -0.1600 
  8 C       -4.8070    -1.1830    -1.4580 C.3   1 <1>   0.2000 
  9 C       -4.1710    -2.3590    -0.7200 C.3   1 <1>  -0.0800 
 10 C       -0.4430     3.9900     0.0540 C.3   1 <1>  -0.0800 
 11 O       -6.1370    -1.0560    -1.0920 O.3   1 <1>  -0.6800 
 12 C       -4.3860    -3.7020    -1.4390 C.3   1 <1>  -0.0170 
 13 C        0.8260     4.6800     0.5430 C.3   1 <1>  -0.1600 
 14 C       -1.5400     4.6100     0.9200 C.3   1 <1>  -0.1600 
 15 C       -3.7750    -4.8530    -0.6460 C.ar  1 <1>  -0.1440 
 16 C        0.3980     6.1170     0.8410 C.3   1 <1>  -0.1600 
 17 C       -1.1010     6.0580     1.1570 C.3   1 <1>  -0.1600 
 18 C       -4.4110    -5.4130     0.4870 C.ar  1 <1>   0.0000 
 19 C       -2.5710    -5.3770    -1.0160 C.ar  1 <1>  -0.1500 
 20 C       -3.7440    -6.4640     1.1630 C.ar  1 <1>   0.3100 
 21 C       -5.6660    -4.9940     0.9890 C.ar  1 <1>  -0.1500 
 22 C       -2.0010    -6.4230    -0.2810 C.ar  1 <1>   0.1600 
 23 N       -2.5440    -6.9570     0.7660 N.ar  1 <1>  -0.6200 
 24 C       -4.3440    -7.0310     2.2980 C.ar  1 <1>  -0.1500 
 25 C       -6.2240    -5.5700     2.0980 C.ar  1 <1>  -0.1500 
 26 C       -5.5570    -6.6000     2.7640 C.ar  1 <1>  -0.1500 
 27 H       -1.7780     2.0530    -1.4020 H     1 <1>   0.0800 
 28 H       -2.4620     2.0710     0.2000 H     1 <1>   0.0800 
 29 H       -4.4570     0.5620    -0.2320 H     1 <1>   0.0800 
 30 H       -3.8720     0.7130    -1.8920 H     1 <1>   0.0800 
 31 H       -2.1200    -2.3390    -1.4150 H     1 <1>   0.0800 
 32 H       -2.2730    -2.3360     0.3340 H     1 <1>   0.0800 
 33 H        0.4970     2.1260    -0.4220 H     1 <1>   0.0800 
 34 H       -0.1880     2.1650     1.1730 H     1 <1>   0.0800 
 35 H       -4.7590    -1.3160    -2.5260 H     1 <1>   0.0800 
 36 H       -4.5710    -2.4110     0.2770 H     1 <1>   0.0800 
 37 H       -0.6080     4.2790    -0.9710 H     1 <1>   0.0800 
 38 H       -6.2160    -0.9610    -0.1230 H     1 <1>   0.4000 
 39 H       -3.9370    -3.6580    -2.4160 H     1 <1>   0.0800 
 40 H       -5.4360    -3.8770    -1.5890 H     1 <1>   0.0800 
 41 H        1.1640     4.2170     1.4550 H     1 <1>   0.0800 
 42 H        1.6160     4.6380    -0.1860 H     1 <1>   0.0800 
 43 H       -2.5040     4.5610     0.4460 H     1 <1>   0.0800 
 44 H       -1.5850     4.0990     1.8670 H     1 <1>   0.0800 
 45 H        0.9610     6.5290     1.6600 H     1 <1>   0.0800 
 46 H        0.5550     6.7270    -0.0320 H     1 <1>   0.0800 
 47 H       -1.6360     6.7210     0.4980 H     1 <1>   0.0800 
 48 H       -1.2950     6.3490     2.1750 H     1 <1>   0.0800 
 49 H       -2.0300    -5.0060    -1.8680 H     1 <1>   0.1500 
 50 H       -6.1990    -4.2070     0.4910 H     1 <1>   0.1500 
 51 H       -1.0480    -6.8050    -0.6070 H     1 <1>   0.1500 
 52 H       -3.8130    -7.8230     2.7930 H     1 <1>   0.1500 
 53 H       -7.1800    -5.2420     2.4690 H     1 <1>   0.1500 
 54 H       -6.0050    -7.0450     3.6350 H     1 <1>   0.1500 
@<TRIPOS>BOND
  1   1   2  2   
  2   2   3  am  
  3   2   4  1   
  4   3   5  1   
  5   3   6  1   
  6   4   7  1   
  7   4  27  1   
  8   4  28  1   
  9   5   8  1   
 10   5  29  1   
 11   5  30  1   
 12   6   9  1   
 13   6  31  1   
 14   6  32  1   
 15   7  10  1   
 16   7  33  1   
 17   7  34  1   
 18   8   9  1   
 19   8  11  1   
 20   8  35  1   
 21   9  12  1   
 22   9  36  1   
 23  10  13  1   
 24  10  14  1   
 25  10  37  1   
 26  11  38  1   
 27  12  15  1   
 28  12  39  1   
 29  12  40  1   
 30  13  16  1   
 31  13  41  1   
 32  13  42  1   
 33  14  17  1   
 34  14  43  1   
 35  14  44  1   
 36  15  18  ar  
 37  15  19  ar  
 38  16  17  1   
 39  16  45  1   
 40  16  46  1   
 41  17  47  1   
 42  17  48  1   
 43  18  20  ar  
 44  18  21  ar  
 45  19  22  ar  
 46  19  49  1   
 47  20  23  ar  
 48  20  24  ar  
 49  21  25  ar  
 50  21  50  1   
 51  22  23  ar  
 52  22  51  1   
 53  24  26  ar  
 54  24  52  1   
 55  25  26  ar  
 56  25  53  1   
 57  26  54  1   
@<TRIPOS>SUBSTRUCTURE
  1 ****   6 GROUP 4 **** **** 0

# MOE 2024.06 (io_trps.svl 2023.06)
