@<TRIPOS>MOLECULE
NONAME
42 43 1 0 0 
SMALL
USER_CHARGES


@<TRIPOS>ATOM
  1 CL       0.3930     0.0080     1.5090 Cl    1 <1>  -0.1230 
  2 C        1.0960    -1.5290     1.0410 C.2   1 <1>   0.1230 
  3 C        2.2980    -1.7220     0.4480 C.2   1 <1>  -0.3020 
  4 C        0.4920    -2.7620     1.2290 C.2   1 <1>  -0.1500 
  5 N        2.4690    -3.0540     0.2560 N.pl3 1 <1>   0.0480 
  6 C        1.3510    -3.7120     0.7270 C.2   1 <1>  -0.2370 
  7 C        3.6670    -3.6710    -0.3470 C.3   1 <1>   0.0160 
  8 C        1.1940    -5.1430     0.6800 C.2   1 <1>   0.7150 
  9 O        2.1320    -5.8690     0.9540 O.2   1 <1>  -0.5700 
 10 N        0.0030    -5.7240     0.3100 N.am  1 <1>  -0.6600 
 11 C       -1.0850    -5.0320    -0.4280 C.3   1 <1>   0.1400 
 12 C       -0.1590    -7.1970     0.1880 C.3   1 <1>   0.1400 
 13 C       -2.1590    -6.1020    -0.6090 C.3   1 <1>   0.2000 
 14 C       -1.3620    -7.4000    -0.7420 C.3   1 <1>  -0.0800 
 15 O       -2.9160    -6.1520     0.5530 O.3   1 <1>  -0.6800 
 16 C       -2.1850    -8.6790    -0.4690 C.3   1 <1>  -0.0550 
 17 S       -1.3120   -10.2080    -0.8210 S.o2  1 <1>   1.3330 
 18 O       -0.6520   -10.0530    -2.0980 O.2   1 <1>  -0.6500 
 19 O       -2.2060   -11.3230    -0.6050 O.2   1 <1>  -0.6500 
 20 N       -0.1190   -10.2680     0.3870 N.am  1 <1>  -0.8490 
 21 C        1.0890   -10.9710    -0.0530 C.3   1 <1>   0.1160 
 22 C       -0.5970   -10.8380     1.6520 C.3   1 <1>   0.1160 
 23 H        3.0250    -0.9830     0.1650 H     1 <1>   0.1500 
 24 H       -0.4650    -2.9080     1.6970 H     1 <1>   0.1500 
 25 H        4.2980    -2.9090    -0.7650 H     1 <1>   0.0800 
 26 H        3.3670    -4.3530    -1.1210 H     1 <1>   0.0800 
 27 H        4.2060    -4.2090     0.4120 H     1 <1>   0.0800 
 28 H       -1.4700    -4.1820     0.1070 H     1 <1>   0.0800 
 29 H       -0.7120    -4.7160    -1.3870 H     1 <1>   0.0800 
 30 H        0.7300    -7.6520    -0.2190 H     1 <1>   0.0800 
 31 H       -0.3480    -7.6070     1.1650 H     1 <1>   0.0800 
 32 H       -2.8160    -5.9110    -1.4410 H     1 <1>   0.0800 
 33 H       -0.9840    -7.4460    -1.7500 H     1 <1>   0.0800 
 34 H       -2.3100    -6.1090     1.3210 H     1 <1>   0.4000 
 35 H       -3.0610    -8.6460    -1.0870 H     1 <1>   0.0800 
 36 H       -2.5170    -8.6880     0.5500 H     1 <1>   0.0800 
 37 H        1.8270   -10.9740     0.7320 H     1 <1>   0.0800 
 38 H        1.5140   -10.4750    -0.9090 H     1 <1>   0.0800 
 39 H        0.8540   -11.9880    -0.3230 H     1 <1>   0.0800 
 40 H        0.1690   -10.7590     2.4050 H     1 <1>   0.0800 
 41 H       -0.8560   -11.8760     1.5230 H     1 <1>   0.0800 
 42 H       -1.4670   -10.3060     1.9950 H     1 <1>   0.0800 
@<TRIPOS>BOND
  1   1   2  1   
  2   2   3  2   
  3   2   4  1   
  4   3   5  1   
  5   3  23  1   
  6   4   6  2   
  7   4  24  1   
  8   5   6  1   
  9   5   7  1   
 10   6   8  1   
 11   7  25  1   
 12   7  26  1   
 13   7  27  1   
 14   8   9  2   
 15   8  10  am  
 16  10  11  1   
 17  10  12  1   
 18  11  13  1   
 19  11  28  1   
 20  11  29  1   
 21  12  14  1   
 22  12  30  1   
 23  12  31  1   
 24  13  14  1   
 25  13  15  1   
 26  13  32  1   
 27  14  16  1   
 28  14  33  1   
 29  15  34  1   
 30  16  17  1   
 31  16  35  1   
 32  16  36  1   
 33  17  18  2   
 34  17  19  2   
 35  17  20  am  
 36  20  21  1   
 37  20  22  1   
 38  21  37  1   
 39  21  38  1   
 40  21  39  1   
 41  22  40  1   
 42  22  41  1   
 43  22  42  1   
@<TRIPOS>SUBSTRUCTURE
  1 ****  10 GROUP 4 **** **** 0

# MOE 2024.06 (io_trps.svl 2023.06)
