@<TRIPOS>MOLECULE
NONAME
51 53 1 0 0 
SMALL
USER_CHARGES


@<TRIPOS>ATOM
  1 O        1.8500     2.9150     0.6170 O.co2 1 <1>  -0.9000 
  2 C        1.1410     3.1970    -0.3560 C.2   1 <1>   0.9060 
  3 O        1.6470     3.4190    -1.4620 O.co2 1 <1>  -0.9000 
  4 C       -0.3310     3.5630    -0.1110 C.3   1 <1>   0.0380 
  5 C       -1.2660     2.3900     0.2370 C.ar  1 <1>  -0.1440 
  6 C       -0.2370     4.5730     1.0190 C.3   1 <1>   0.3430 
  7 C       -0.9000     4.4440    -1.2340 C.3   1 <1>  -0.1600 
  8 C       -0.8300     1.0740     0.1360 C.ar  1 <1>  -0.1500 
  9 C       -2.5700     2.6220     0.6620 C.ar  1 <1>  -0.1500 
 10 N        0.1840     5.8730     0.3900 N.4   1 <1>  -0.9590 
 11 C       -0.1520     5.7610    -1.0690 C.3   1 <1>   0.3430 
 12 C       -1.6720     0.0210     0.4500 C.ar  1 <1>  -0.1500 
 13 C       -3.4130     1.5700     0.9770 C.ar  1 <1>  -0.1500 
 14 C        1.6610     6.0260     0.5640 C.3   1 <1>   0.3430 
 15 C       -2.9650     0.2670     0.8720 C.ar  1 <1>  -0.1500 
 16 C        2.0980     7.4500     0.2450 C.3   1 <1>  -0.1600 
 17 C        3.6210     7.5290     0.2850 C.3   1 <1>   0.1200 
 18 O        3.9860     8.8660     0.0480 O.3   1 <1>  -0.3630 
 19 C        5.2940     9.2320     0.0150 C.ar  1 <1>   0.0830 
 20 C        5.5590    10.5790    -0.1760 C.ar  1 <1>  -0.1500 
 21 C        6.3540     8.3400     0.1600 C.ar  1 <1>  -0.1500 
 22 C        6.8620    11.0430    -0.2220 C.ar  1 <1>  -0.1500 
 23 C        7.6570     8.8040     0.1140 C.ar  1 <1>  -0.1500 
 24 C        7.9220    10.1510    -0.0760 C.ar  1 <1>   0.0830 
 25 O        9.2300    10.5160    -0.1070 O.3   1 <1>  -0.3630 
 26 C        9.6030    11.8630    -0.2960 C.3   1 <1>   0.0400 
 27 H        0.4600     4.2440     1.7750 H     1 <1>   0.0800 
 28 H       -1.2070     4.6860     1.4700 H     1 <1>   0.0800 
 29 H       -1.9530     4.6130    -1.1150 H     1 <1>   0.0800 
 30 H       -0.7280     4.0140    -2.2060 H     1 <1>   0.0800 
 31 H        0.1730     0.8440    -0.1860 H     1 <1>   0.1500 
 32 H       -2.9540     3.6210     0.7510 H     1 <1>   0.1500 
 33 H       -0.3070     6.6560     0.8330 H     1 <1>   0.4500 
 34 H       -0.7440     6.5950    -1.4100 H     1 <1>   0.0800 
 35 H        0.7570     5.7090    -1.6490 H     1 <1>   0.0800 
 36 H       -1.3130    -0.9900     0.3670 H     1 <1>   0.1500 
 37 H       -4.4200     1.7640     1.3030 H     1 <1>   0.1500 
 38 H        2.1810     5.3370    -0.0860 H     1 <1>   0.0800 
 39 H        1.9370     5.7830     1.5780 H     1 <1>   0.0800 
 40 H       -3.6170    -0.5530     1.1160 H     1 <1>   0.1500 
 41 H        1.6890     8.1260     0.9740 H     1 <1>   0.0800 
 42 H        1.7720     7.7300    -0.7400 H     1 <1>   0.0800 
 43 H        4.0560     6.9140    -0.4860 H     1 <1>   0.0800 
 44 H        4.0020     7.2410     1.2510 H     1 <1>   0.0800 
 45 H        4.7370    11.2620    -0.2890 H     1 <1>   0.1500 
 46 H        6.1930     7.2900     0.3070 H     1 <1>   0.1500 
 47 H        7.0310    12.0920    -0.3710 H     1 <1>   0.1500 
 48 H        8.4800     8.1220     0.2250 H     1 <1>   0.1500 
 49 H       10.6770    11.9160    -0.2850 H     1 <1>   0.0800 
 50 H        9.2010    12.4530     0.5090 H     1 <1>   0.0800 
 51 H        9.2300    12.1990    -1.2470 H     1 <1>   0.0800 
@<TRIPOS>BOND
  1   1   2  ar  
  2   2   3  ar  
  3   2   4  1   
  4   4   5  1   
  5   4   6  1   
  6   4   7  1   
  7   5   8  ar  
  8   5   9  ar  
  9   6  10  1   
 10   6  27  1   
 11   6  28  1   
 12   7  11  1   
 13   7  29  1   
 14   7  30  1   
 15   8  12  ar  
 16   8  31  1   
 17   9  13  ar  
 18   9  32  1   
 19  10  11  1   
 20  10  14  1   
 21  10  33  1   
 22  11  34  1   
 23  11  35  1   
 24  12  15  ar  
 25  12  36  1   
 26  13  15  ar  
 27  13  37  1   
 28  14  16  1   
 29  14  38  1   
 30  14  39  1   
 31  15  40  1   
 32  16  17  1   
 33  16  41  1   
 34  16  42  1   
 35  17  18  1   
 36  17  43  1   
 37  17  44  1   
 38  18  19  1   
 39  19  20  ar  
 40  19  21  ar  
 41  20  22  ar  
 42  20  45  1   
 43  21  23  ar  
 44  21  46  1   
 45  22  24  ar  
 46  22  47  1   
 47  23  24  ar  
 48  23  48  1   
 49  24  25  1   
 50  25  26  1   
 51  26  49  1   
 52  26  50  1   
 53  26  51  1   
@<TRIPOS>SUBSTRUCTURE
  1 ****  14 GROUP 4 **** **** 0

# MOE 2024.06 (io_trps.svl 2023.06)
