@<TRIPOS>MOLECULE
NONAME
54 56 1 0 0 
SMALL
USER_CHARGES


@<TRIPOS>ATOM
  1 O        0.1730     0.3460    -0.1190 O.2   1 <1>  -0.5700 
  2 C        0.1410     1.5420     0.0500 C.2   1 <1>   0.5690 
  3 N       -1.0230     2.2130     0.3180 N.am  1 <1>  -0.6600 
  4 C        1.4550     2.3180    -0.0770 C.3   1 <1>   0.1810 
  5 C       -1.0350     3.7000     0.5200 C.3   1 <1>   0.3640 
  6 C       -2.3090     1.5010     0.5740 C.3   1 <1>   0.0600 
  7 O        1.4150     3.5850     0.5320 O.3   1 <1>  -0.5600 
  8 C       -2.1550     4.3330    -0.3200 C.ar  1 <1>  -0.1430 
  9 C        0.3060     4.3760     0.1510 C.3   1 <1>   0.2610 
 10 C       -3.0860     5.2230     0.2150 C.ar  1 <1>  -0.1430 
 11 C       -2.2290     4.0160    -1.6730 C.ar  1 <1>  -0.1500 
 12 C        0.3660     5.7650     0.8070 C.2   1 <1>   0.5690 
 13 C       -4.0500     5.7830    -0.6110 C.ar  1 <1>  -0.1500 
 14 C       -3.0970     5.6150     1.6880 C.3   1 <1>  -0.0960 
 15 C       -3.1940     4.5770    -2.4870 C.ar  1 <1>  -0.1500 
 16 O        0.3750     5.8200     2.0180 O.2   1 <1>  -0.5700 
 17 N        0.4000     6.9230     0.0560 N.am  1 <1>  -0.6600 
 18 C       -4.1060     5.4660    -1.9550 C.ar  1 <1>  -0.1500 
 19 C        0.5560     8.2560     0.7210 C.3   1 <1>   0.1400 
 20 C        0.1690     6.9670    -1.4170 C.3   1 <1>   0.0600 
 21 C        2.0240     8.7280     0.7540 C.3   1 <1>   0.0000 
 22 C        2.1290    10.2130     1.2170 C.3   1 <1>   0.0000 
 23 C        2.5680     9.1750    -0.6360 C.3   1 <1>   0.0000 
 24 C        2.9260     7.7440     1.5410 C.3   1 <1>   0.1200 
 25 C        3.0680    10.4920     0.0140 C.3   1 <1>   0.0000 
 26 O        4.2390     8.1890     1.6400 O.3   1 <1>  -0.6800 
 27 H        1.6970     2.4470    -1.1150 H     1 <1>   0.0800 
 28 H        2.2420     1.7580     0.3940 H     1 <1>   0.0800 
 29 H       -1.2110     3.8710     1.5660 H     1 <1>   0.0800 
 30 H       -2.7170     1.8120     1.5200 H     1 <1>   0.0800 
 31 H       -2.1570     0.4360     0.6000 H     1 <1>   0.0800 
 32 H       -3.0160     1.7270    -0.2050 H     1 <1>   0.0800 
 33 H        0.3630     4.4810    -0.9130 H     1 <1>   0.0800 
 34 H       -1.5320     3.3170    -2.1040 H     1 <1>   0.1500 
 35 H       -4.7720     6.4740    -0.2110 H     1 <1>   0.1500 
 36 H       -3.9580     6.2150     1.9210 H     1 <1>   0.0800 
 37 H       -2.2220     6.1870     1.9320 H     1 <1>   0.0800 
 38 H       -3.1330     4.7390     2.3110 H     1 <1>   0.0800 
 39 H       -3.2390     4.3190    -3.5310 H     1 <1>   0.1500 
 40 H       -4.8610     5.9070    -2.5820 H     1 <1>   0.1500 
 41 H       -0.0540     8.9820     0.2120 H     1 <1>   0.0800 
 42 H        0.1900     8.2010     1.7330 H     1 <1>   0.0800 
 43 H       -0.0900     7.9630    -1.7320 H     1 <1>   0.0800 
 44 H       -0.6460     6.3180    -1.6870 H     1 <1>   0.0800 
 45 H        1.0610     6.6600    -1.9350 H     1 <1>   0.0800 
 46 H        1.2020    10.7530     1.1300 H     1 <1>   0.0000 
 47 H        2.6030    10.3500     2.1730 H     1 <1>   0.0000 
 48 H        3.3600     8.5570    -1.0220 H     1 <1>   0.0000 
 49 H        1.7940     9.3660    -1.3580 H     1 <1>   0.0000 
 50 H        2.9440     6.7810     1.0620 H     1 <1>   0.0800 
 51 H        2.5500     7.6170     2.5420 H     1 <1>   0.0800 
 52 H        4.1100    10.4610     0.2770 H     1 <1>   0.0000 
 53 H        2.7980    11.3720    -0.5430 H     1 <1>   0.0000 
 54 H        4.6310     8.2890     0.7520 H     1 <1>   0.4000 
@<TRIPOS>BOND
  1   1   2  2   
  2   2   3  am  
  3   2   4  1   
  4   3   5  1   
  5   3   6  1   
  6   4   7  1   
  7   4  27  1   
  8   4  28  1   
  9   5   8  1   
 10   5   9  1   
 11   5  29  1   
 12   6  30  1   
 13   6  31  1   
 14   6  32  1   
 15   7   9  1   
 16   8  10  ar  
 17   8  11  ar  
 18   9  12  1   
 19   9  33  1   
 20  10  13  ar  
 21  10  14  1   
 22  11  15  ar  
 23  11  34  1   
 24  12  16  2   
 25  12  17  am  
 26  13  18  ar  
 27  13  35  1   
 28  14  36  1   
 29  14  37  1   
 30  14  38  1   
 31  15  18  ar  
 32  15  39  1   
 33  17  19  1   
 34  17  20  1   
 35  18  40  1   
 36  19  21  1   
 37  19  41  1   
 38  19  42  1   
 39  20  43  1   
 40  20  44  1   
 41  20  45  1   
 42  21  22  1   
 43  21  23  1   
 44  21  24  1   
 45  22  25  1   
 46  22  46  1   
 47  22  47  1   
 48  23  25  1   
 49  23  48  1   
 50  23  49  1   
 51  24  26  1   
 52  24  50  1   
 53  24  51  1   
 54  25  52  1   
 55  25  53  1   
 56  26  54  1   
@<TRIPOS>SUBSTRUCTURE
  1 ****  12 GROUP 4 **** **** 0

# MOE 2024.06 (io_trps.svl 2023.06)
