@<TRIPOS>MOLECULE
NONAME
52 54 1 0 0 
SMALL
USER_CHARGES


@<TRIPOS>ATOM
  1 O        0.1150    -0.2890    -1.2740 O.2   1 <1>  -0.5700 
  2 C        0.9890    -0.9740    -0.8020 C.2   1 <1>   0.4230 
  3 C        2.0410    -0.4390     0.0440 C.ar  1 <1>   0.0860 
  4 C        0.9620    -2.4520    -1.1700 C.3   1 <1>   0.1810 
  5 C        2.0240     0.9110     0.4060 C.ar  1 <1>  -0.1500 
  6 C        3.1070    -1.2040     0.5310 C.ar  1 <1>  -0.1500 
  7 O        0.8470    -3.2570    -0.0090 O.3   1 <1>  -0.3620 
  8 C        3.0070     1.4700     1.2010 C.ar  1 <1>  -0.1500 
  9 C        4.0940    -0.6530     1.3280 C.ar  1 <1>  -0.1500 
 10 C        0.7440    -4.6050    -0.0880 C.ar  1 <1>   0.0820 
 11 C        4.0470     0.6870     1.6650 C.ar  1 <1>  -0.1500 
 12 C        0.6580    -5.2900     1.1120 C.ar  1 <1>  -0.1500 
 13 C        0.7210    -5.3160    -1.2840 C.ar  1 <1>  -0.1500 
 14 C        0.5430    -6.6680     1.1290 C.ar  1 <1>  -0.1500 
 15 C        0.6020    -6.6950    -1.2670 C.ar  1 <1>  -0.1500 
 16 C        0.5040    -7.3780    -0.0630 C.ar  1 <1>  -0.1430 
 17 C        0.3460    -8.8860    -0.0470 C.3   1 <1>   0.4860 
 18 N       -1.0510    -9.2060     0.3450 N.4   1 <1>  -0.9590 
 19 C       -1.2090   -10.6750     0.6710 C.3   1 <1>   0.3430 
 20 C       -2.0310    -8.7460    -0.6820 C.3   1 <1>   0.3430 
 21 C       -2.6400   -11.2240     0.4490 C.3   1 <1>   0.2000 
 22 C       -3.4580    -8.8830    -0.1360 C.3   1 <1>  -0.1600 
 23 O       -2.7540   -11.6120    -0.8820 O.3   1 <1>  -0.6800 
 24 C       -3.6810   -10.1320     0.7560 C.3   1 <1>  -0.0800 
 25 C       -5.1250   -10.6490     0.6800 C.3   1 <1>   0.1200 
 26 O       -5.9650    -9.6320     1.0920 O.3   1 <1>  -0.6800 
 27 H        1.8630    -2.7200    -1.6880 H     1 <1>   0.0800 
 28 H        0.1090    -2.6430    -1.7960 H     1 <1>   0.0800 
 29 H        1.2200     1.5350     0.0530 H     1 <1>   0.1500 
 30 H        3.1800    -2.2500     0.2960 H     1 <1>   0.1500 
 31 H        2.9620     2.5140     1.4600 H     1 <1>   0.1500 
 32 H        4.9020    -1.2660     1.6890 H     1 <1>   0.1500 
 33 H        4.8150     1.1180     2.2850 H     1 <1>   0.1500 
 34 H        0.6840    -4.7320     2.0320 H     1 <1>   0.1500 
 35 H        0.7910    -4.8160    -2.2320 H     1 <1>   0.1500 
 36 H        0.4860    -7.1680     2.0810 H     1 <1>   0.1500 
 37 H        0.5870    -7.2250    -2.2050 H     1 <1>   0.1500 
 38 H        1.0380    -9.3070     0.6640 H     1 <1>   0.0800 
 39 H        0.5630    -9.2950    -1.0200 H     1 <1>   0.0800 
 40 H       -1.2570    -8.6530     1.1850 H     1 <1>   0.4500 
 41 H       -0.5370   -11.2640     0.0690 H     1 <1>   0.0800 
 42 H       -0.9410   -10.8260     1.7030 H     1 <1>   0.0800 
 43 H       -1.8490    -7.7180    -0.9540 H     1 <1>   0.0800 
 44 H       -1.9320    -9.3560    -1.5670 H     1 <1>   0.0800 
 45 H       -2.7930   -12.0990     1.0590 H     1 <1>   0.0800 
 46 H       -3.7190    -7.9990     0.4200 H     1 <1>   0.0800 
 47 H       -4.1200    -8.9180    -0.9830 H     1 <1>   0.0800 
 48 H       -3.5850   -12.1060    -1.0410 H     1 <1>   0.4000 
 49 H       -3.5180    -9.8400     1.7800 H     1 <1>   0.0800 
 50 H       -5.2720   -11.4910     1.3360 H     1 <1>   0.0800 
 51 H       -5.3940   -10.9210    -0.3270 H     1 <1>   0.0800 
 52 H       -6.9030    -9.9110     1.0680 H     1 <1>   0.4000 
@<TRIPOS>BOND
  1   1   2  2   
  2   2   3  1   
  3   2   4  1   
  4   3   5  ar  
  5   3   6  ar  
  6   4   7  1   
  7   4  27  1   
  8   4  28  1   
  9   5   8  ar  
 10   5  29  1   
 11   6   9  ar  
 12   6  30  1   
 13   7  10  1   
 14   8  11  ar  
 15   8  31  1   
 16   9  11  ar  
 17   9  32  1   
 18  10  12  ar  
 19  10  13  ar  
 20  11  33  1   
 21  12  14  ar  
 22  12  34  1   
 23  13  15  ar  
 24  13  35  1   
 25  14  16  ar  
 26  14  36  1   
 27  15  16  ar  
 28  15  37  1   
 29  16  17  1   
 30  17  18  1   
 31  17  38  1   
 32  17  39  1   
 33  18  19  1   
 34  18  20  1   
 35  18  40  1   
 36  19  21  1   
 37  19  41  1   
 38  19  42  1   
 39  20  22  1   
 40  20  43  1   
 41  20  44  1   
 42  21  23  1   
 43  21  24  1   
 44  21  45  1   
 45  22  24  1   
 46  22  46  1   
 47  22  47  1   
 48  23  48  1   
 49  24  25  1   
 50  24  49  1   
 51  25  26  1   
 52  25  50  1   
 53  25  51  1   
 54  26  52  1   
@<TRIPOS>SUBSTRUCTURE
  1 ****  10 GROUP 4 **** **** 0

# MOE 2024.06 (io_trps.svl 2023.06)
