@<TRIPOS>MOLECULE
NONAME
43 45 1 0 0 
SMALL
USER_CHARGES


@<TRIPOS>ATOM
  1 S        1.0360    -0.6790    -2.2280 S.3   1 <1>  -0.0800 
  2 C        0.8330    -2.3840    -1.8630 C.2   1 <1>  -0.1100 
  3 C        0.1600    -0.2240    -0.7780 C.2   1 <1>  -0.1100 
  4 C        0.1420    -2.5520    -0.7200 C.2   1 <1>  -0.1810 
  5 C       -0.2380    -1.3160    -0.1000 C.2   1 <1>  -0.1500 
  6 C       -0.2250    -3.8900    -0.1010 C.3   1 <1>   0.0210 
  7 C       -1.7270    -4.1630    -0.2630 C.3   1 <1>  -0.0990 
  8 C       -2.1830    -5.4840     0.3450 C.2   1 <1>   0.5690 
  9 O       -1.3330    -6.2390     0.7590 O.2   1 <1>  -0.5700 
 10 N       -3.5200    -5.7980     0.4210 N.am  1 <1>  -0.6600 
 11 C       -4.5990    -4.9470    -0.1700 C.3   1 <1>   0.2200 
 12 C       -3.9330    -7.0540     1.1250 C.3   1 <1>   0.0600 
 13 C       -5.6760    -5.7190    -0.9320 C.3   1 <1>  -0.1600 
 14 C       -5.3700    -4.1680     0.8900 C.3   1 <1>  -0.1600 
 15 C       -6.8550    -4.7400    -1.0070 C.3   1 <1>  -0.0800 
 16 C       -6.6990    -3.7980     0.2140 C.3   1 <1>  -0.0800 
 17 C       -8.2180    -5.4510    -1.1400 C.3   1 <1>   0.1400 
 18 C       -7.8950    -3.8200     1.1850 C.3   1 <1>  -0.0990 
 19 N       -9.3000    -4.5580    -0.6790 N.am  1 <1>  -0.7300 
 20 C       -9.1980    -3.7800     0.4190 C.2   1 <1>   0.5690 
 21 O      -10.1090    -3.0840     0.7860 O.2   1 <1>  -0.5700 
 22 H        1.2580    -3.0890    -2.5550 H     1 <1>   0.1500 
 23 H        0.0370     0.8260    -0.5840 H     1 <1>   0.1500 
 24 H       -0.7870    -1.3040     0.8250 H     1 <1>   0.1500 
 25 H        0.3350    -4.6730    -0.5830 H     1 <1>   0.0800 
 26 H        0.0420    -3.8890     0.9420 H     1 <1>   0.0800 
 27 H       -1.9590    -4.1730    -1.3120 H     1 <1>   0.0800 
 28 H       -2.2740    -3.3660     0.2030 H     1 <1>   0.0800 
 29 H       -4.1800    -4.2380    -0.8610 H     1 <1>   0.0800 
 30 H       -4.8460    -6.9040     1.6710 H     1 <1>   0.0800 
 31 H       -3.1750    -7.3650     1.8240 H     1 <1>   0.0800 
 32 H       -4.0730    -7.8410     0.4050 H     1 <1>   0.0800 
 33 H       -5.3340    -6.0070    -1.9100 H     1 <1>   0.0800 
 34 H       -5.9800    -6.5920    -0.3860 H     1 <1>   0.0800 
 35 H       -5.5520    -4.7930     1.7460 H     1 <1>   0.0800 
 36 H       -4.8300    -3.2920     1.2010 H     1 <1>   0.0800 
 37 H       -6.7220    -4.1380    -1.8910 H     1 <1>   0.0800 
 38 H       -6.6150    -2.7940    -0.1700 H     1 <1>   0.0800 
 39 H       -8.2380    -6.3420    -0.5340 H     1 <1>   0.0800 
 40 H       -8.3880    -5.7340    -2.1660 H     1 <1>   0.0800 
 41 H       -7.8460    -2.9810     1.8550 H     1 <1>   0.0800 
 42 H       -7.8900    -4.7210     1.7710 H     1 <1>   0.0800 
 43 H      -10.1940    -4.5600    -1.1750 H     1 <1>   0.3700 
@<TRIPOS>BOND
  1   1   2  1   
  2   1   3  1   
  3   2   4  2   
  4   2  22  1   
  5   3   5  2   
  6   3  23  1   
  7   4   5  1   
  8   4   6  1   
  9   5  24  1   
 10   6   7  1   
 11   6  25  1   
 12   6  26  1   
 13   7   8  1   
 14   7  27  1   
 15   7  28  1   
 16   8   9  2   
 17   8  10  am  
 18  10  11  1   
 19  10  12  1   
 20  11  13  1   
 21  11  14  1   
 22  11  29  1   
 23  12  30  1   
 24  12  31  1   
 25  12  32  1   
 26  13  15  1   
 27  13  33  1   
 28  13  34  1   
 29  14  16  1   
 30  14  35  1   
 31  14  36  1   
 32  15  16  1   
 33  15  17  1   
 34  15  37  1   
 35  16  18  1   
 36  16  38  1   
 37  17  19  1   
 38  17  39  1   
 39  17  40  1   
 40  18  20  1   
 41  18  41  1   
 42  18  42  1   
 43  19  20  am  
 44  19  43  1   
 45  20  21  2   
@<TRIPOS>SUBSTRUCTURE
  1 ****  11 GROUP 4 **** **** 0

# MOE 2024.06 (io_trps.svl 2023.06)
