@<TRIPOS>MOLECULE
NONAME
50 52 1 0 0 
SMALL
USER_CHARGES


@<TRIPOS>ATOM
  1 F        0.6090     1.6940     0.4170 F     1 <1>  -0.1900 
  2 C        1.8590     1.8800     0.0450 C.ar  1 <1>   0.1900 
  3 C        2.8020     0.8550     0.0660 C.ar  1 <1>   0.4100 
  4 C        2.2370     3.1290    -0.3570 C.ar  1 <1>   0.1600 
  5 N        4.0400     1.1220    -0.3070 N.ar  1 <1>  -0.6200 
  6 N        2.5420    -0.4520     0.4700 N.pl3 1 <1>  -0.8380 
  7 N        3.4770     3.3980    -0.7250 N.ar  1 <1>  -0.6200 
  8 C        4.3160     2.3580    -0.7000 C.ar  1 <1>   0.7200 
  9 C        1.2260    -1.1100     0.2860 C.3   1 <1>   0.2090 
 10 C        3.6170    -1.4700     0.5810 C.3   1 <1>   0.2090 
 11 N        5.6200     2.6060    -1.0980 N.pl3 1 <1>  -0.8380 
 12 C        1.5420    -2.5890     0.0990 C.3   1 <1>  -0.1600 
 13 C        2.8850    -2.7870     0.7940 C.3   1 <1>  -0.1600 
 14 C        6.1240     3.9870    -1.3240 C.3   1 <1>   0.2090 
 15 C        6.5120     1.5000    -1.5490 C.3   1 <1>   0.2090 
 16 C        6.2230     4.7270     0.0250 C.3   1 <1>   0.3430 
 17 C        7.5210     1.1950    -0.4470 C.3   1 <1>  -0.2400 
 18 N        5.8310     6.1760    -0.0480 N.4   1 <1>  -0.9590 
 19 C        6.1890     6.8880     1.2270 C.3   1 <1>   0.3430 
 20 C        4.3520     6.3140    -0.3040 C.3   1 <1>   0.3430 
 21 C        5.6650     8.3370     1.2310 C.3   1 <1>   0.1200 
 22 C        3.8960     7.7840    -0.2300 C.3   1 <1>   0.1200 
 23 O        4.2890     8.3570     0.9840 O.3   1 <1>  -0.5600 
 24 H        1.5070     3.9180    -0.3720 H     1 <1>   0.1500 
 25 H        0.7060    -0.7150    -0.5700 H     1 <1>   0.0800 
 26 H        0.6340    -0.9630     1.1730 H     1 <1>   0.0800 
 27 H        4.2760    -1.2410     1.4000 H     1 <1>   0.0800 
 28 H        4.1780    -1.5010    -0.3380 H     1 <1>   0.0800 
 29 H        1.6420    -2.7930    -0.9520 H     1 <1>   0.0800 
 30 H        0.7710    -3.2170     0.5080 H     1 <1>   0.0800 
 31 H        2.7340    -2.9340     1.8490 H     1 <1>   0.0800 
 32 H        3.4370    -3.6200     0.3970 H     1 <1>   0.0800 
 33 H        5.4530     4.4890    -1.9980 H     1 <1>   0.0800 
 34 H        7.0960     3.9540    -1.7830 H     1 <1>   0.0800 
 35 H        7.0230     1.7840    -2.4540 H     1 <1>   0.0800 
 36 H        5.9410     0.6130    -1.7720 H     1 <1>   0.0800 
 37 H        7.2330     4.6370     0.3870 H     1 <1>   0.0800 
 38 H        5.5750     4.2270     0.7280 H     1 <1>   0.0800 
 39 H        8.1430     2.0480    -0.2500 H     1 <1>   0.0800 
 40 H        8.1490     0.3780    -0.7520 H     1 <1>   0.0800 
 41 H        7.0030     0.9070     0.4500 H     1 <1>   0.0800 
 42 H        6.3340     6.6310    -0.8200 H     1 <1>   0.4500 
 43 H        7.2590     6.8950     1.3590 H     1 <1>   0.0800 
 44 H        5.7550     6.3700     2.0670 H     1 <1>   0.0800 
 45 H        3.8030     5.7500     0.4330 H     1 <1>   0.0800 
 46 H        4.1000     5.9100    -1.2710 H     1 <1>   0.0800 
 47 H        6.1610     8.9350     0.4850 H     1 <1>   0.0800 
 48 H        5.8290     8.7880     2.1940 H     1 <1>   0.0800 
 49 H        2.8230     7.8400    -0.2850 H     1 <1>   0.0800 
 50 H        4.3110     8.3620    -1.0380 H     1 <1>   0.0800 
@<TRIPOS>BOND
  1   1   2  1   
  2   2   3  ar  
  3   2   4  ar  
  4   3   5  ar  
  5   3   6  1   
  6   4   7  ar  
  7   4  24  1   
  8   5   8  ar  
  9   6   9  1   
 10   6  10  1   
 11   7   8  ar  
 12   8  11  1   
 13   9  12  1   
 14   9  25  1   
 15   9  26  1   
 16  10  13  1   
 17  10  27  1   
 18  10  28  1   
 19  11  14  1   
 20  11  15  1   
 21  12  13  1   
 22  12  29  1   
 23  12  30  1   
 24  13  31  1   
 25  13  32  1   
 26  14  16  1   
 27  14  33  1   
 28  14  34  1   
 29  15  17  1   
 30  15  35  1   
 31  15  36  1   
 32  16  18  1   
 33  16  37  1   
 34  16  38  1   
 35  17  39  1   
 36  17  40  1   
 37  17  41  1   
 38  18  19  1   
 39  18  20  1   
 40  18  42  1   
 41  19  21  1   
 42  19  43  1   
 43  19  44  1   
 44  20  22  1   
 45  20  45  1   
 46  20  46  1   
 47  21  23  1   
 48  21  47  1   
 49  21  48  1   
 50  22  23  1   
 51  22  49  1   
 52  22  50  1   
@<TRIPOS>SUBSTRUCTURE
  1 ****   8 GROUP 4 **** **** 0

# MOE 2024.06 (io_trps.svl 2023.06)
