@<TRIPOS>MOLECULE
NONAME
41 43 1 0 0 
SMALL
USER_CHARGES


@<TRIPOS>ATOM
  1 CL      -0.2680     1.0610    -0.7710 Cl    1 <1>  -0.1770 
  2 C        0.1050    -0.5960    -0.3550 C.ar  1 <1>   0.1770 
  3 C        1.4170    -1.0550    -0.3310 C.ar  1 <1>  -0.1440 
  4 C       -0.9630    -1.4250    -0.0560 C.ar  1 <1>  -0.1500 
  5 C        1.6140    -2.3880     0.0080 C.ar  1 <1>   0.1770 
  6 C        2.6020    -0.1370    -0.6460 C.3   1 <1>   0.0450 
  7 C       -0.7390    -2.7500     0.2780 C.ar  1 <1>  -0.1500 
  8 CL       3.2240    -3.0660     0.0650 Cl    1 <1>  -0.1770 
  9 C        0.5580    -3.2310     0.3090 C.ar  1 <1>  -0.1500 
 10 C        3.2570     0.4060     0.6230 C.2   1 <1>   0.5690 
 11 O        2.5360     1.0180     1.3770 O.2   1 <1>  -0.5700 
 12 N        4.6040     0.2700     0.8920 N.am  1 <1>  -0.6600 
 13 C        5.2330     1.1700     1.9150 C.3   1 <1>   0.1400 
 14 C        5.6040    -0.4680     0.0570 C.3   1 <1>   0.1400 
 15 C        5.9770     2.3830     1.2920 C.3   1 <1>   0.2200 
 16 C        6.4030     0.4630    -0.8810 C.3   1 <1>  -0.0190 
 17 N        5.5390     2.6900    -0.1120 N.am  1 <1>  -0.6600 
 18 C        7.5090     2.2180     1.3580 C.3   1 <1>   0.1200 
 19 C        5.7030     1.7880    -1.1330 C.2   1 <1>   0.5690 
 20 C        7.8520     0.6930    -0.4260 C.3   1 <1>   0.1200 
 21 C        4.6680     3.8880    -0.2630 C.3   1 <1>   0.0600 
 22 O        7.9380     0.9530     0.9410 O.3   1 <1>  -0.5600 
 23 O        5.2900     1.9940    -2.2500 O.2   1 <1>  -0.5700 
 24 H       -1.9630    -1.0300    -0.0840 H     1 <1>   0.1500 
 25 H        2.2800     0.7120    -1.2180 H     1 <1>   0.0800 
 26 H        3.2960    -0.6530    -1.2740 H     1 <1>   0.0800 
 27 H       -1.5660    -3.3980     0.5130 H     1 <1>   0.1500 
 28 H        0.7550    -4.2560     0.5670 H     1 <1>   0.1500 
 29 H        4.4800     1.5490     2.5830 H     1 <1>   0.0800 
 30 H        5.9090     0.5950     2.5240 H     1 <1>   0.0800 
 31 H        6.2790    -0.9920     0.7120 H     1 <1>   0.0800 
 32 H        5.1170    -1.2220    -0.5290 H     1 <1>   0.0800 
 33 H        5.7480     3.2390     1.9020 H     1 <1>   0.0800 
 34 H        6.4730    -0.0330    -1.8310 H     1 <1>   0.0800 
 35 H        7.8250     2.3220     2.3810 H     1 <1>   0.0800 
 36 H        8.0040     2.9740     0.7750 H     1 <1>   0.0800 
 37 H        8.3100     1.5020    -0.9710 H     1 <1>   0.0800 
 38 H        8.4260    -0.2000    -0.6040 H     1 <1>   0.0800 
 39 H        5.1860     4.7650     0.0830 H     1 <1>   0.0800 
 40 H        3.7680     3.7530     0.3120 H     1 <1>   0.0800 
 41 H        4.3960     4.0360    -1.2940 H     1 <1>   0.0800 
@<TRIPOS>BOND
  1   1   2  1   
  2   2   3  ar  
  3   2   4  ar  
  4   3   5  ar  
  5   3   6  1   
  6   4   7  ar  
  7   4  24  1   
  8   5   8  1   
  9   5   9  ar  
 10   6  10  1   
 11   6  25  1   
 12   6  26  1   
 13   7   9  ar  
 14   7  27  1   
 15   9  28  1   
 16  10  11  2   
 17  10  12  am  
 18  12  13  1   
 19  12  14  1   
 20  13  15  1   
 21  13  29  1   
 22  13  30  1   
 23  14  16  1   
 24  14  31  1   
 25  14  32  1   
 26  15  17  1   
 27  15  18  1   
 28  15  33  1   
 29  16  19  1   
 30  16  20  1   
 31  16  34  1   
 32  17  19  am  
 33  17  21  1   
 34  18  22  1   
 35  18  35  1   
 36  18  36  1   
 37  19  23  2   
 38  20  22  1   
 39  20  37  1   
 40  20  38  1   
 41  21  39  1   
 42  21  40  1   
 43  21  41  1   
@<TRIPOS>SUBSTRUCTURE
  1 ****  10 GROUP 4 **** **** 0

# MOE 2024.06 (io_trps.svl 2023.06)
