@<TRIPOS>MOLECULE
NONAME
38 40 1 0 0 
SMALL
USER_CHARGES


@<TRIPOS>ATOM
  1 S        2.0340    -0.8440    -0.5270 S.3   1 <1>  -0.0800 
  2 C        1.1370    -1.8520     0.6010 C.2   1 <1>  -0.1400 
  3 C        2.2130     0.4210     0.6740 C.2   1 <1>  -0.1100 
  4 C        1.0160    -1.2320     1.7910 C.2   1 <1>  -0.1500 
  5 C        0.6730    -3.2040     0.1050 C.3   1 <1>   0.5230 
  6 C        1.6250     0.0630     1.8300 C.2   1 <1>  -0.1500 
  7 N       -0.7110    -3.0820    -0.4340 N.4   1 <1>  -0.9590 
  8 C       -1.3200    -4.4450    -0.6280 C.3   1 <1>   0.3430 
  9 C       -0.7550    -2.2620    -1.6820 C.3   1 <1>   0.3430 
 10 C       -2.7670    -4.3950    -1.1780 C.3   1 <1>   0.2890 
 11 C       -2.1980    -2.1420    -2.1810 C.3   1 <1>  -0.1600 
 12 N       -3.2520    -5.7430    -1.5320 N.pl3 1 <1>  -0.8690 
 13 C       -2.8460    -3.5150    -2.4290 C.3   1 <1>  -0.1600 
 14 C       -3.3030    -6.6890    -0.5420 C.ar  1 <1>   0.4100 
 15 N       -2.1750    -7.3580    -0.3830 N.ar  1 <1>  -0.6200 
 16 C       -4.4510    -6.9140     0.2360 C.ar  1 <1>   0.1600 
 17 C       -2.2730    -8.2740     0.5700 C.ar  1 <1>   0.1600 
 18 N       -4.5350    -7.8050     1.2040 N.ar  1 <1>  -0.6200 
 19 C       -3.4090    -8.4910     1.3400 C.ar  1 <1>   0.1600 
 20 H        2.7480     1.3100     0.3870 H     1 <1>   0.1500 
 21 H        0.5260    -1.6200     2.6690 H     1 <1>   0.1500 
 22 H        0.6780    -3.8940     0.9330 H     1 <1>   0.0800 
 23 H        1.3480    -3.5740    -0.6500 H     1 <1>   0.0800 
 24 H        1.5970     0.6630     2.7250 H     1 <1>   0.1500 
 25 H       -1.2480    -2.5740     0.2810 H     1 <1>   0.4500 
 26 H       -1.3300    -4.9790     0.3080 H     1 <1>   0.0800 
 27 H       -0.7190    -5.0070    -1.3250 H     1 <1>   0.0800 
 28 H       -0.1470    -2.7220    -2.4460 H     1 <1>   0.0800 
 29 H       -0.3660    -1.2740    -1.4910 H     1 <1>   0.0800 
 30 H       -3.4130    -3.9900    -0.4170 H     1 <1>   0.0800 
 31 H       -2.2010    -1.5810    -3.1000 H     1 <1>   0.0800 
 32 H       -2.7780    -1.5830    -1.4670 H     1 <1>   0.0800 
 33 H       -2.7580    -6.1230    -2.3460 H     1 <1>   0.4000 
 34 H       -3.8780    -3.3820    -2.7070 H     1 <1>   0.0800 
 35 H       -2.3380    -4.0000    -3.2450 H     1 <1>   0.0800 
 36 H       -5.3210    -6.3200     0.0240 H     1 <1>   0.1500 
 37 H       -1.4080    -8.8880     0.7550 H     1 <1>   0.1500 
 38 H       -3.3910    -9.2580     2.0950 H     1 <1>   0.1500 
@<TRIPOS>BOND
  1   1   2  1   
  2   1   3  1   
  3   2   4  2   
  4   2   5  1   
  5   3   6  2   
  6   3  20  1   
  7   4   6  1   
  8   4  21  1   
  9   5   7  1   
 10   5  22  1   
 11   5  23  1   
 12   6  24  1   
 13   7   8  1   
 14   7   9  1   
 15   7  25  1   
 16   8  10  1   
 17   8  26  1   
 18   8  27  1   
 19   9  11  1   
 20   9  28  1   
 21   9  29  1   
 22  10  12  1   
 23  10  13  1   
 24  10  30  1   
 25  11  13  1   
 26  11  31  1   
 27  11  32  1   
 28  12  14  1   
 29  12  33  1   
 30  13  34  1   
 31  13  35  1   
 32  14  15  ar  
 33  14  16  ar  
 34  15  17  ar  
 35  16  18  ar  
 36  16  36  1   
 37  17  19  ar  
 38  17  37  1   
 39  18  19  ar  
 40  19  38  1   
@<TRIPOS>SUBSTRUCTURE
  1 ****   8 GROUP 4 **** **** 0

# MOE 2024.06 (io_trps.svl 2023.06)
