@<TRIPOS>MOLECULE
NONAME
33 34 1 0 0 
SMALL
USER_CHARGES


@<TRIPOS>ATOM
  1 F       -0.7330    -0.5520    -0.9530 F     1 <1>  -0.1900 
  2 C       -1.8450    -1.0840    -0.4950 C.ar  1 <1>   0.1900 
  3 C       -2.9210    -0.3350    -0.0320 C.ar  1 <1>   0.3920 
  4 C       -1.9480    -2.4480    -0.4780 C.ar  1 <1>   0.1600 
  5 O       -2.9830     1.0170     0.0170 O.3   1 <1>  -0.3630 
  6 N       -4.0050    -0.9330     0.4100 N.ar  1 <1>  -0.6200 
  7 N       -3.0300    -3.0530    -0.0370 N.ar  1 <1>  -0.6200 
  8 C       -1.9190     1.8810    -0.3130 C.3   1 <1>   0.0400 
  9 C       -4.0150    -2.2630     0.3950 C.ar  1 <1>   0.7200 
 10 N       -5.1560    -2.8830     0.8640 N.pl3 1 <1>  -0.8380 
 11 C       -6.4850    -2.1880     0.8640 C.3   1 <1>   0.2090 
 12 C       -5.3050    -4.3710     0.8990 C.3   1 <1>   0.2090 
 13 C       -7.3370    -2.6550    -0.3290 C.3   1 <1>   0.1400 
 14 C       -6.1320    -4.8550    -0.3050 C.3   1 <1>   0.1400 
 15 N       -7.4550    -4.1510    -0.3730 N.am  1 <1>  -0.6600 
 16 C       -8.6800    -4.7610    -0.4300 C.2   1 <1>   0.5690 
 17 O       -9.7120    -4.1350    -0.4250 O.2   1 <1>  -0.5700 
 18 C       -8.7860    -6.2670    -0.5020 C.3   1 <1>  -0.1790 
 19 H       -1.1300    -3.0510    -0.8310 H     1 <1>   0.1500 
 20 H       -2.2420     2.8910    -0.1310 H     1 <1>   0.0800 
 21 H       -1.6760     1.7590    -1.3530 H     1 <1>   0.0800 
 22 H       -1.0740     1.6530     0.3120 H     1 <1>   0.0800 
 23 H       -6.3750    -1.1190     0.8220 H     1 <1>   0.0800 
 24 H       -7.0030    -2.4190     1.7780 H     1 <1>   0.0800 
 25 H       -5.8090    -4.6500     1.8070 H     1 <1>   0.0800 
 26 H       -4.3480    -4.8610     0.9030 H     1 <1>   0.0800 
 27 H       -6.8770    -2.3130    -1.2390 H     1 <1>   0.0800 
 28 H       -8.3090    -2.1990    -0.2620 H     1 <1>   0.0800 
 29 H       -6.2600    -5.9180    -0.2310 H     1 <1>   0.0800 
 30 H       -5.5800    -4.6500    -1.2060 H     1 <1>   0.0800 
 31 H       -8.2400    -6.6320    -1.3510 H     1 <1>   0.0800 
 32 H       -9.8170    -6.5500    -0.6100 H     1 <1>   0.0800 
 33 H       -8.4020    -6.7030     0.4000 H     1 <1>   0.0800 
@<TRIPOS>BOND
  1   1   2  1   
  2   2   3  ar  
  3   2   4  ar  
  4   3   5  1   
  5   3   6  ar  
  6   4   7  ar  
  7   4  19  1   
  8   5   8  1   
  9   6   9  ar  
 10   7   9  ar  
 11   8  20  1   
 12   8  21  1   
 13   8  22  1   
 14   9  10  1   
 15  10  11  1   
 16  10  12  1   
 17  11  13  1   
 18  11  23  1   
 19  11  24  1   
 20  12  14  1   
 21  12  25  1   
 22  12  26  1   
 23  13  15  1   
 24  13  27  1   
 25  13  28  1   
 26  14  15  1   
 27  14  29  1   
 28  14  30  1   
 29  15  16  am  
 30  16  17  2   
 31  16  18  1   
 32  18  31  1   
 33  18  32  1   
 34  18  33  1   
@<TRIPOS>SUBSTRUCTURE
  1 ****   9 GROUP 4 **** **** 0

# MOE 2024.06 (io_trps.svl 2023.06)
