@<TRIPOS>MOLECULE
NONAME
59 61 1 0 0 
SMALL
USER_CHARGES


@<TRIPOS>ATOM
  1 O        0.2980    -0.9050    -0.6150 O.2   1 <1>  -0.5700 
  2 C        0.2880    -1.0600     0.5840 C.2   1 <1>   0.5690 
  3 N        1.4240    -0.9720     1.3310 N.am  1 <1>  -0.7300 
  4 C       -1.0730    -1.3490     1.2450 C.3   1 <1>   0.4040 
  5 C        2.7670    -0.6550     0.7740 C.3   1 <1>   0.1400 
  6 N       -2.2450    -0.8860     0.4150 N.4   1 <1>  -0.9590 
  7 C        3.6000    -1.9310     0.6400 C.3   1 <1>  -0.0170 
  8 C       -3.5350    -1.5020     0.8570 C.3   1 <1>   0.3430 
  9 C       -2.3240     0.6010     0.3440 C.3   1 <1>   0.3430 
 10 C        4.9990    -1.5880     0.1570 C.ar  1 <1>  -0.1430 
 11 C       -4.6950    -1.1360    -0.0930 C.3   1 <1>   0.0000 
 12 C       -3.4390     1.0160    -0.6180 C.3   1 <1>  -0.1600 
 13 C        5.2510    -1.4360    -1.1970 C.ar  1 <1>  -0.1500 
 14 C        6.0340    -1.4190     1.0640 C.ar  1 <1>  -0.1500 
 15 C       -6.0000    -1.7410     0.4470 C.3   1 <1>   0.2000 
 16 C       -4.7920     0.3980    -0.2310 C.3   1 <1>  -0.1600 
 17 C       -4.5360    -1.8430    -1.4490 C.3   1 <1>  -0.1600 
 18 C        6.5230    -1.1170    -1.6380 C.ar  1 <1>  -0.1500 
 19 C        7.3080    -1.1010     0.6260 C.ar  1 <1>  -0.1500 
 20 O       -5.9960    -1.7130     1.8420 O.3   1 <1>  -0.5600 
 21 C       -6.0470    -3.1840    -0.0730 C.3   1 <1>  -0.1600 
 22 C       -5.0250    -3.2720    -1.2140 C.3   1 <1>  -0.1600 
 23 C        7.5590    -0.9480    -0.7350 C.ar  1 <1>   0.0830 
 24 C       -7.2450    -1.9080     2.4340 C.3   1 <1>   0.0400 
 25 O        8.7750    -0.6370    -1.2490 O.3   1 <1>  -0.3630 
 26 C        9.8980    -0.4530    -0.4160 C.3   1 <1>   0.0400 
 27 H        1.4220    -1.1390     2.3410 H     1 <1>   0.3700 
 28 H       -1.1020    -0.8760     2.2110 H     1 <1>   0.0800 
 29 H       -1.1410    -2.4130     1.3900 H     1 <1>   0.0800 
 30 H        2.6690    -0.1910    -0.1940 H     1 <1>   0.0800 
 31 H        3.2700     0.0400     1.4250 H     1 <1>   0.0800 
 32 H       -2.0430    -1.2010    -0.5480 H     1 <1>   0.4500 
 33 H        3.6610    -2.4320     1.5890 H     1 <1>   0.0800 
 34 H        3.1310    -2.5940    -0.0660 H     1 <1>   0.0800 
 35 H       -3.4430    -2.5750     0.8990 H     1 <1>   0.0800 
 36 H       -3.7760    -1.1530     1.8480 H     1 <1>   0.0800 
 37 H       -2.5290     1.0030     1.3230 H     1 <1>   0.0800 
 38 H       -1.3850     1.0050    -0.0030 H     1 <1>   0.0800 
 39 H       -3.5250     2.0890    -0.6090 H     1 <1>   0.0800 
 40 H       -3.1700     0.7280    -1.6200 H     1 <1>   0.0800 
 41 H        4.4610    -1.5630    -1.9170 H     1 <1>   0.1500 
 42 H        5.8570    -1.5350     2.1190 H     1 <1>   0.1500 
 43 H       -6.8450    -1.1820     0.0770 H     1 <1>   0.0800 
 44 H       -5.5350     0.6620    -0.9640 H     1 <1>   0.0800 
 45 H       -5.1090     0.8140     0.7110 H     1 <1>   0.0800 
 46 H       -5.1830    -1.3780    -2.1750 H     1 <1>   0.0800 
 47 H       -3.5320    -1.8240    -1.8360 H     1 <1>   0.0800 
 48 H        6.7220    -0.9990    -2.6880 H     1 <1>   0.1500 
 49 H        8.0870    -0.9770     1.3530 H     1 <1>   0.1500 
 50 H       -5.7930    -3.8860     0.7030 H     1 <1>   0.0800 
 51 H       -7.0340    -3.4050    -0.4400 H     1 <1>   0.0800 
 52 H       -4.2030    -3.9010    -0.9150 H     1 <1>   0.0800 
 53 H       -5.4640    -3.6860    -2.1070 H     1 <1>   0.0800 
 54 H       -7.1220    -1.8640     3.5020 H     1 <1>   0.0800 
 55 H       -7.6300    -2.8740     2.1560 H     1 <1>   0.0800 
 56 H       -7.9160    -1.1280     2.1160 H     1 <1>   0.0800 
 57 H       10.7420    -0.2220    -1.0400 H     1 <1>   0.0800 
 58 H       10.0820    -1.3640     0.1260 H     1 <1>   0.0800 
 59 H        9.7040     0.3640     0.2560 H     1 <1>   0.0800 
@<TRIPOS>BOND
  1   1   2  2   
  2   2   3  am  
  3   2   4  1   
  4   3   5  1   
  5   3  27  1   
  6   4   6  1   
  7   4  28  1   
  8   4  29  1   
  9   5   7  1   
 10   5  30  1   
 11   5  31  1   
 12   6   8  1   
 13   6   9  1   
 14   6  32  1   
 15   7  10  1   
 16   7  33  1   
 17   7  34  1   
 18   8  11  1   
 19   8  35  1   
 20   8  36  1   
 21   9  12  1   
 22   9  37  1   
 23   9  38  1   
 24  10  13  ar  
 25  10  14  ar  
 26  11  15  1   
 27  11  16  1   
 28  11  17  1   
 29  12  16  1   
 30  12  39  1   
 31  12  40  1   
 32  13  18  ar  
 33  13  41  1   
 34  14  19  ar  
 35  14  42  1   
 36  15  20  1   
 37  15  21  1   
 38  15  43  1   
 39  16  44  1   
 40  16  45  1   
 41  17  22  1   
 42  17  46  1   
 43  17  47  1   
 44  18  23  ar  
 45  18  48  1   
 46  19  23  ar  
 47  19  49  1   
 48  20  24  1   
 49  21  22  1   
 50  21  50  1   
 51  21  51  1   
 52  22  52  1   
 53  22  53  1   
 54  23  25  1   
 55  24  54  1   
 56  24  55  1   
 57  24  56  1   
 58  25  26  1   
 59  26  57  1   
 60  26  58  1   
 61  26  59  1   
@<TRIPOS>SUBSTRUCTURE
  1 ****   2 GROUP 4 **** **** 0

# MOE 2024.06 (io_trps.svl 2023.06)
