@<TRIPOS>MOLECULE
NONAME
49 51 1 0 0 
SMALL
USER_CHARGES


@<TRIPOS>ATOM
  1 O       -0.4970     0.4150     0.5450 O.2   1 <1>  -0.5700 
  2 C       -1.4960     1.0660     0.3440 C.2   1 <1>   0.5690 
  3 N       -2.7010     0.4640     0.0620 N.am  1 <1>  -0.6600 
  4 C       -1.3850     2.5840     0.4100 C.3   1 <1>  -0.0990 
  5 C       -3.9840     1.2240    -0.0710 C.3   1 <1>   0.2200 
  6 C       -2.7530    -1.0200    -0.1200 C.3   1 <1>   0.0600 
  7 C        0.0580     3.1070     0.4660 C.3   1 <1>  -0.0160 
  8 C       -5.1900     0.5820     0.6160 C.3   1 <1>  -0.1600 
  9 C       -4.4160     1.3840    -1.5240 C.3   1 <1>  -0.1600 
 10 C        0.0610     4.6270     0.4900 C.ar  1 <1>  -0.1440 
 11 C       -6.4020     1.2160    -0.0760 C.3   1 <1>  -0.0800 
 12 C       -5.9130     1.7130    -1.4490 C.3   1 <1>  -0.0800 
 13 C       -0.0050     5.3090     1.6940 C.ar  1 <1>  -0.1500 
 14 C        0.1230     5.3470    -0.6920 C.ar  1 <1>  -0.1500 
 15 C       -6.9540     2.4470     0.6580 C.3   1 <1>  -0.1600 
 16 C       -6.2110     3.2190    -1.4970 C.3   1 <1>  -0.1600 
 17 C       -0.0100     6.6930     1.7160 C.ar  1 <1>  -0.1500 
 18 C        0.1190     6.7320    -0.6700 C.ar  1 <1>  -0.1500 
 19 C       -7.2940     3.4290    -0.4510 C.3   1 <1>   0.2000 
 20 C        0.0510     7.4120     0.5340 C.ar  1 <1>  -0.1440 
 21 O       -7.2530     4.7200     0.0260 O.3   1 <1>  -0.6800 
 22 C        0.0500     8.9300     0.5590 C.3   1 <1>  -0.0970 
 23 H       -1.8590     3.0030    -0.4580 H     1 <1>   0.0800 
 24 H       -1.9080     2.9250     1.2840 H     1 <1>   0.0800 
 25 H       -3.8780     2.2070     0.3520 H     1 <1>   0.0800 
 26 H       -3.4290    -1.2820    -0.9130 H     1 <1>   0.0800 
 27 H       -3.0790    -1.4840     0.7950 H     1 <1>   0.0800 
 28 H       -1.7800    -1.4070    -0.3700 H     1 <1>   0.0800 
 29 H        0.6060     2.7540    -0.3900 H     1 <1>   0.0800 
 30 H        0.5500     2.7280     1.3450 H     1 <1>   0.0800 
 31 H       -5.2240    -0.4750     0.4320 H     1 <1>   0.0800 
 32 H       -5.1820     0.7550     1.6780 H     1 <1>   0.0800 
 33 H       -3.8500     2.1470    -2.0280 H     1 <1>   0.0800 
 34 H       -4.2930     0.4540    -2.0490 H     1 <1>   0.0800 
 35 H       -7.1890     0.4910    -0.2040 H     1 <1>   0.0800 
 36 H       -6.4500     1.2120    -2.2370 H     1 <1>   0.0800 
 37 H       -0.0520     4.7640     2.6210 H     1 <1>   0.1500 
 38 H        0.1770     4.8330    -1.6360 H     1 <1>   0.1500 
 39 H       -6.2000     2.8690     1.2990 H     1 <1>   0.0800 
 40 H       -7.8250     2.2000     1.2400 H     1 <1>   0.0800 
 41 H       -6.5490     3.5220    -2.4720 H     1 <1>   0.0800 
 42 H       -5.3340     3.7820    -1.2290 H     1 <1>   0.0800 
 43 H       -0.0590     7.2070     2.6600 H     1 <1>   0.1500 
 44 H        0.1710     7.2760    -1.5960 H     1 <1>   0.1500 
 45 H       -8.2730     3.2340    -0.8580 H     1 <1>   0.0800 
 46 H       -6.3690     4.9160     0.3870 H     1 <1>   0.4000 
 47 H       -0.5010     9.2930     1.4070 H     1 <1>   0.0800 
 48 H       -0.4060     9.3210    -0.3330 H     1 <1>   0.0800 
 49 H        1.0610     9.2930     0.6200 H     1 <1>   0.0800 
@<TRIPOS>BOND
  1   1   2  2   
  2   2   3  am  
  3   2   4  1   
  4   3   5  1   
  5   3   6  1   
  6   4   7  1   
  7   4  23  1   
  8   4  24  1   
  9   5   8  1   
 10   5   9  1   
 11   5  25  1   
 12   6  26  1   
 13   6  27  1   
 14   6  28  1   
 15   7  10  1   
 16   7  29  1   
 17   7  30  1   
 18   8  11  1   
 19   8  31  1   
 20   8  32  1   
 21   9  12  1   
 22   9  33  1   
 23   9  34  1   
 24  10  13  ar  
 25  10  14  ar  
 26  11  12  1   
 27  11  15  1   
 28  11  35  1   
 29  12  16  1   
 30  12  36  1   
 31  13  17  ar  
 32  13  37  1   
 33  14  18  ar  
 34  14  38  1   
 35  15  19  1   
 36  15  39  1   
 37  15  40  1   
 38  16  19  1   
 39  16  41  1   
 40  16  42  1   
 41  17  20  ar  
 42  17  43  1   
 43  18  20  ar  
 44  18  44  1   
 45  19  21  1   
 46  19  45  1   
 47  20  22  1   
 48  21  46  1   
 49  22  47  1   
 50  22  48  1   
 51  22  49  1   
@<TRIPOS>SUBSTRUCTURE
  1 ****   4 GROUP 4 **** **** 0

# MOE 2024.06 (io_trps.svl 2023.06)
