@<TRIPOS>MOLECULE
NONAME
56 59 1 0 0 
SMALL
USER_CHARGES


@<TRIPOS>ATOM
  1 O        1.0640     0.2900    -0.7520 O.2   1 <1>  -0.5700 
  2 C        1.2620     1.4340    -0.3980 C.2   1 <1>   0.6900 
  3 N        0.2670     2.3150    -0.0840 N.am  1 <1>  -0.4200 
  4 N        2.4960     1.9930    -0.2540 N.am  1 <1>  -0.6600 
  5 C        0.8130     3.5040     0.2930 C.2   1 <1>   0.5690 
  6 C       -1.1780     2.0020    -0.1530 C.3   1 <1>   0.0600 
  7 C        2.3450     3.3990     0.2220 C.3   1 <1>   0.3610 
  8 C        3.7890     1.2730    -0.4130 C.3   1 <1>   0.0600 
  9 O        0.2000     4.4950     0.6170 O.2   1 <1>  -0.5700 
 10 C        2.9140     4.3750    -0.8280 C.3   1 <1>  -0.1600 
 11 C        2.9670     3.5700     1.6220 C.3   1 <1>  -0.1600 
 12 C        3.4250     5.6450    -0.1590 C.3   1 <1>   0.2090 
 13 C        4.4210     4.0250     1.5450 C.3   1 <1>   0.2090 
 14 N        4.5490     5.2930     0.7590 N.pl3 1 <1>  -0.8380 
 15 C        5.7710     5.8600     0.5970 C.ar  1 <1>   0.4100 
 16 N        6.7510     5.0270     0.3120 N.ar  1 <1>  -0.6200 
 17 C        5.9760     7.2620     0.7110 C.ar  1 <1>  -0.1440 
 18 C        7.9440     5.5310     0.0590 C.ar  1 <1>   0.7710 
 19 C        7.2180     7.7470     0.4270 C.ar  1 <1>   0.2180 
 20 C        4.8250     8.1630     1.1750 C.3   1 <1>  -0.0960 
 21 N        8.1780     6.8500     0.1030 N.ar  1 <1>  -0.1790 
 22 N        8.9610     4.6930    -0.2570 N.pl3 1 <1>  -0.8380 
 23 C        7.6370     9.2130     0.4470 C.3   1 <1>  -0.0970 
 24 C       10.3610     5.0290    -0.6340 C.3   1 <1>   0.2090 
 25 C        8.7650     3.2160    -0.2980 C.3   1 <1>   0.2090 
 26 C       10.9420     3.7360    -1.1870 C.3   1 <1>  -0.1600 
 27 C       10.1590     2.6330    -0.4870 C.3   1 <1>  -0.1600 
 28 H       -1.3970     1.1740     0.4990 H     1 <1>   0.0800 
 29 H       -1.4380     1.7340    -1.1610 H     1 <1>   0.0800 
 30 H       -1.7580     2.8570     0.1500 H     1 <1>   0.0800 
 31 H        3.6210     0.3220    -0.8900 H     1 <1>   0.0800 
 32 H        4.2310     1.0970     0.5520 H     1 <1>   0.0800 
 33 H        4.4670     1.8460    -1.0190 H     1 <1>   0.0800 
 34 H        2.1530     4.6310    -1.5430 H     1 <1>   0.0800 
 35 H        3.7330     3.9330    -1.3630 H     1 <1>   0.0800 
 36 H        2.8880     2.6550     2.1810 H     1 <1>   0.0800 
 37 H        2.4240     4.3220     2.1670 H     1 <1>   0.0800 
 38 H        2.6330     6.1190     0.3980 H     1 <1>   0.0800 
 39 H        3.7680     6.3320    -0.9140 H     1 <1>   0.0800 
 40 H        5.0160     3.2580     1.0800 H     1 <1>   0.0800 
 41 H        4.8050     4.1860     2.5380 H     1 <1>   0.0800 
 42 H        4.1920     7.6370     1.8690 H     1 <1>   0.0800 
 43 H        4.2270     8.4690     0.3350 H     1 <1>   0.0800 
 44 H        5.1790     9.0370     1.6870 H     1 <1>   0.0800 
 45 H        9.1280     7.1240    -0.1050 H     1 <1>   0.4570 
 46 H        6.7880     9.8700     0.4050 H     1 <1>   0.0800 
 47 H        8.2560     9.4410    -0.4030 H     1 <1>   0.0800 
 48 H        8.1880     9.4280     1.3460 H     1 <1>   0.0800 
 49 H       10.9100     5.3240     0.2460 H     1 <1>   0.0800 
 50 H       10.4010     5.8080    -1.3780 H     1 <1>   0.0800 
 51 H        8.1370     2.9630    -1.1370 H     1 <1>   0.0800 
 52 H        8.3110     2.8540     0.6110 H     1 <1>   0.0800 
 53 H       12.0010     3.6610    -1.0090 H     1 <1>   0.0800 
 54 H       10.7640     3.6930    -2.2480 H     1 <1>   0.0800 
 55 H       10.1360     1.7200    -1.0570 H     1 <1>   0.0800 
 56 H       10.5890     2.4300     0.4780 H     1 <1>   0.0800 
@<TRIPOS>BOND
  1   1   2  2   
  2   2   3  am  
  3   2   4  am  
  4   3   5  am  
  5   3   6  1   
  6   4   7  1   
  7   4   8  1   
  8   5   7  1   
  9   5   9  2   
 10   6  28  1   
 11   6  29  1   
 12   6  30  1   
 13   7  10  1   
 14   7  11  1   
 15   8  31  1   
 16   8  32  1   
 17   8  33  1   
 18  10  12  1   
 19  10  34  1   
 20  10  35  1   
 21  11  13  1   
 22  11  36  1   
 23  11  37  1   
 24  12  14  1   
 25  12  38  1   
 26  12  39  1   
 27  13  14  1   
 28  13  40  1   
 29  13  41  1   
 30  14  15  1   
 31  15  16  ar  
 32  15  17  ar  
 33  16  18  ar  
 34  17  19  ar  
 35  17  20  1   
 36  18  21  ar  
 37  18  22  1   
 38  19  21  ar  
 39  19  23  1   
 40  20  42  1   
 41  20  43  1   
 42  20  44  1   
 43  21  45  1   
 44  22  24  1   
 45  22  25  1   
 46  23  46  1   
 47  23  47  1   
 48  23  48  1   
 49  24  26  1   
 50  24  49  1   
 51  24  50  1   
 52  25  27  1   
 53  25  51  1   
 54  25  52  1   
 55  26  27  1   
 56  26  53  1   
 57  26  54  1   
 58  27  55  1   
 59  27  56  1   
@<TRIPOS>SUBSTRUCTURE
  1 ****  14 GROUP 4 **** **** 0

# MOE 2024.06 (io_trps.svl 2023.06)
