@<TRIPOS>MOLECULE
NONAME
54 56 1 0 0 
SMALL
USER_CHARGES


@<TRIPOS>ATOM
  1 O       -0.2100    -0.3310     1.6220 O.co2 1 <1>  -0.9000 
  2 C       -0.3650    -1.5580     1.6500 C.2   1 <1>   1.0330 
  3 O       -1.2990    -2.0240     2.3350 O.co2 1 <1>  -0.9000 
  4 C        0.4680    -2.4420     0.8870 C.2   1 <1>  -0.2330 
  5 C        0.1700    -3.7870     0.6910 C.2   1 <1>   0.3720 
  6 C        1.6160    -2.2750     0.1740 C.2   1 <1>   0.0870 
  7 N        1.0180    -4.3670    -0.0760 N.2   1 <1>  -0.4100 
  8 N       -0.9160    -4.4460     1.2400 N.pl3 1 <1>  -0.8520 
  9 O        1.8870    -3.4390    -0.3790 O.3   1 <1>  -0.0190 
 10 C        2.5140    -1.1690    -0.0610 C.ar  1 <1>   0.0530 
 11 C       -2.0780    -4.5880     0.3140 C.3   1 <1>   0.2090 
 12 C        3.2290    -1.0710    -1.2570 C.ar  1 <1>  -0.1500 
 13 C        2.7290    -0.1680     0.8870 C.ar  1 <1>  -0.1500 
 14 C       -2.3280    -6.0810    -0.0010 C.3   1 <1>   0.4230 
 15 C        4.1070    -0.0300    -1.4940 C.ar  1 <1>  -0.1500 
 16 C        3.6010     0.8800     0.6580 C.ar  1 <1>  -0.1500 
 17 N       -0.9920    -6.7320    -0.1860 N.4   1 <1>  -0.9590 
 18 C       -3.3210    -6.3120    -1.1760 C.3   1 <1>  -0.0800 
 19 C        4.3020     0.9570    -0.5420 C.ar  1 <1>   0.0830 
 20 C       -0.3740    -6.7460    -1.5300 C.3   1 <1>   0.3430 
 21 C       -0.8250    -8.0600     0.4420 C.3   1 <1>   0.3430 
 22 C       -4.6650    -5.6020    -0.9290 C.3   1 <1>  -0.2400 
 23 C       -3.6140    -7.8050    -1.4210 C.3   1 <1>  -0.2400 
 24 O        5.1740     1.9470    -0.8470 O.3   1 <1>  -0.3630 
 25 C        0.7840    -7.7130    -1.3670 C.3   1 <1>  -0.1600 
 26 C        0.2950    -8.7390    -0.3430 C.3   1 <1>  -0.1600 
 27 C        5.3750     3.0360     0.0250 C.3   1 <1>   0.0400 
 28 H       -1.2360    -3.7800     1.9890 H     1 <1>   0.4000 
 29 H       -1.8930    -4.0450    -0.5990 H     1 <1>   0.0800 
 30 H       -2.9470    -4.1570     0.7800 H     1 <1>   0.0800 
 31 H        3.0920    -1.8220    -2.0130 H     1 <1>   0.1500 
 32 H        2.1980    -0.2090     1.8220 H     1 <1>   0.1500 
 33 H       -2.7780    -6.4970     0.8840 H     1 <1>   0.0800 
 34 H        4.6480     0.0280    -2.4210 H     1 <1>   0.1500 
 35 H        3.7160     1.6230     1.4240 H     1 <1>   0.1500 
 36 H       -0.3860    -6.0760     0.3630 H     1 <1>   0.4500 
 37 H       -2.9050    -5.8880    -2.0740 H     1 <1>   0.0800 
 38 H       -0.0380    -5.7640    -1.8250 H     1 <1>   0.0800 
 39 H       -1.0680    -7.1290    -2.2580 H     1 <1>   0.0800 
 40 H       -1.7330    -8.6340     0.3610 H     1 <1>   0.0800 
 41 H       -0.5600    -7.9500     1.4810 H     1 <1>   0.0800 
 42 H       -5.1150    -5.9380    -0.0100 H     1 <1>   0.0800 
 43 H       -5.3510    -5.8100    -1.7330 H     1 <1>   0.0800 
 44 H       -4.5450    -4.5340    -0.8840 H     1 <1>   0.0800 
 45 H       -4.0330    -8.2600    -0.5400 H     1 <1>   0.0800 
 46 H       -2.7280    -8.3450    -1.6990 H     1 <1>   0.0800 
 47 H       -4.3230    -7.9180    -2.2240 H     1 <1>   0.0800 
 48 H        1.6310    -7.1740    -0.9770 H     1 <1>   0.0800 
 49 H        1.0600    -8.1630    -2.3040 H     1 <1>   0.0800 
 50 H       -0.1030    -9.6060    -0.8410 H     1 <1>   0.0800 
 51 H        1.0890    -9.0540     0.3110 H     1 <1>   0.0800 
 52 H        6.0790     3.7070    -0.4330 H     1 <1>   0.0800 
 53 H        5.7710     2.6690     0.9560 H     1 <1>   0.0800 
 54 H        4.4360     3.5380     0.1780 H     1 <1>   0.0800 
@<TRIPOS>BOND
  1   1   2  ar  
  2   2   3  ar  
  3   2   4  1   
  4   4   5  1   
  5   4   6  2   
  6   5   7  2   
  7   5   8  1   
  8   6   9  1   
  9   6  10  1   
 10   7   9  1   
 11   8  11  1   
 12   8  28  1   
 13  10  12  ar  
 14  10  13  ar  
 15  11  14  1   
 16  11  29  1   
 17  11  30  1   
 18  12  15  ar  
 19  12  31  1   
 20  13  16  ar  
 21  13  32  1   
 22  14  17  1   
 23  14  18  1   
 24  14  33  1   
 25  15  19  ar  
 26  15  34  1   
 27  16  19  ar  
 28  16  35  1   
 29  17  20  1   
 30  17  21  1   
 31  17  36  1   
 32  18  22  1   
 33  18  23  1   
 34  18  37  1   
 35  19  24  1   
 36  20  25  1   
 37  20  38  1   
 38  20  39  1   
 39  21  26  1   
 40  21  40  1   
 41  21  41  1   
 42  22  42  1   
 43  22  43  1   
 44  22  44  1   
 45  23  45  1   
 46  23  46  1   
 47  23  47  1   
 48  24  27  1   
 49  25  26  1   
 50  25  48  1   
 51  25  49  1   
 52  26  50  1   
 53  26  51  1   
 54  27  52  1   
 55  27  53  1   
 56  27  54  1   
@<TRIPOS>SUBSTRUCTURE
  1 ****   5 GROUP 4 **** **** 0

# MOE 2024.06 (io_trps.svl 2023.06)
