@<TRIPOS>MOLECULE
NONAME
32 32 1 0 0 
SMALL
USER_CHARGES


@<TRIPOS>ATOM
  1 N       -5.8050    -0.5010     0.1730 N.4   1 <1>  -0.9590 
  2 C       -5.6270     0.7730    -0.6150 C.3   1 <1>   0.3430 
  3 C       -4.5770    -1.3630     0.0470 C.3   1 <1>   0.3430 
  4 C       -7.0190    -1.2560    -0.2360 C.3   1 <1>   0.3430 
  5 C       -4.3310     1.5160    -0.2220 C.3   1 <1>   0.1100 
  6 C       -3.2940    -0.5970     0.4360 C.3   1 <1>   0.1100 
  7 C       -8.2840    -0.5250     0.2180 C.3   1 <1>  -0.1600 
  8 N       -3.1550     0.6410    -0.3450 N.3   1 <1>  -0.9000 
  9 C       -9.5330    -1.3560    -0.1030 C.3   1 <1>  -0.1600 
 10 C      -10.8070    -0.6330     0.3500 C.3   1 <1>  -0.1600 
 11 C      -12.0520    -1.4640     0.0300 C.3   1 <1>  -0.2400 
 12 H       -5.8980    -0.2430     1.1620 H     1 <1>   0.4500 
 13 H       -6.4670     1.4280    -0.4560 H     1 <1>   0.0800 
 14 H       -5.5780     0.5440    -1.6670 H     1 <1>   0.0800 
 15 H       -4.4720    -1.6970    -0.9720 H     1 <1>   0.0800 
 16 H       -4.6720    -2.2340     0.6740 H     1 <1>   0.0800 
 17 H       -7.0050    -2.2340     0.2180 H     1 <1>   0.0800 
 18 H       -7.0330    -1.3850    -1.3070 H     1 <1>   0.0800 
 19 H       -4.4130     1.8810     0.7880 H     1 <1>   0.0800 
 20 H       -4.2030     2.3660    -0.8700 H     1 <1>   0.0800 
 21 H       -2.4390    -1.2250     0.2490 H     1 <1>   0.0800 
 22 H       -3.3100    -0.3680     1.4880 H     1 <1>   0.0800 
 23 H       -8.3670     0.4230    -0.2830 H     1 <1>   0.0800 
 24 H       -8.2430    -0.3580     1.2800 H     1 <1>   0.0800 
 25 H       -2.3060     1.1510    -0.0490 H     1 <1>   0.3600 
 26 H       -9.4750    -2.3100     0.3940 H     1 <1>   0.0800 
 27 H       -9.5900    -1.5350    -1.1640 H     1 <1>   0.0800 
 28 H      -10.8860     0.3200    -0.1450 H     1 <1>   0.0800 
 29 H      -10.7700    -0.4550     1.4120 H     1 <1>   0.0800 
 30 H      -12.1310    -1.6370    -1.0290 H     1 <1>   0.0800 
 31 H      -12.9350    -0.9420     0.3540 H     1 <1>   0.0800 
 32 H      -12.0150    -2.4140     0.5350 H     1 <1>   0.0800 
@<TRIPOS>BOND
  1   1   2  1   
  2   1   3  1   
  3   1   4  1   
  4   1  12  1   
  5   2   5  1   
  6   2  13  1   
  7   2  14  1   
  8   3   6  1   
  9   3  15  1   
 10   3  16  1   
 11   4   7  1   
 12   4  17  1   
 13   4  18  1   
 14   5   8  1   
 15   5  19  1   
 16   5  20  1   
 17   6   8  1   
 18   6  21  1   
 19   6  22  1   
 20   7   9  1   
 21   7  23  1   
 22   7  24  1   
 23   8  25  1   
 24   9  10  1   
 25   9  26  1   
 26   9  27  1   
 27  10  11  1   
 28  10  28  1   
 29  10  29  1   
 30  11  30  1   
 31  11  31  1   
 32  11  32  1   
@<TRIPOS>SUBSTRUCTURE
  1 ****   4 GROUP 4 **** **** 0

# MOE 2024.06 (io_trps.svl 2023.06)
