@<TRIPOS>MOLECULE
NONAME
40 42 1 0 0 
SMALL
USER_CHARGES


@<TRIPOS>ATOM
  1 O       -0.5740     0.2110     0.4140 O.2   1 <1>  -0.5700 
  2 C       -1.5610     0.7070    -0.1000 C.2   1 <1>   0.7160 
  3 N       -2.7250    -0.0270    -0.1310 N.am  1 <1>  -0.6600 
  4 C       -1.4810     2.0430    -0.6420 C.2   1 <1>  -0.0860 
  5 C       -4.0840     0.5430    -0.2740 C.3   1 <1>   0.1400 
  6 C       -2.7970    -1.4140     0.3790 C.3   1 <1>   0.1400 
  7 C       -2.1600     2.5480    -1.7560 C.2   1 <1>   0.1390 
  8 C       -0.7340     3.1060    -0.2320 C.2   1 <1>  -0.3020 
  9 C       -4.9930    -0.3670     0.5620 C.3   1 <1>  -0.0800 
 10 C       -4.2870    -1.7360     0.5340 C.3   1 <1>  -0.0800 
 11 N       -1.8830     3.7900    -2.0020 N.2   1 <1>  -0.7070 
 12 N       -0.9920     4.1320    -1.0550 N.pl3 1 <1>   0.3000 
 13 C       -6.5000    -0.3930     0.1580 C.3   1 <1>   0.2800 
 14 C       -4.8230    -2.6080    -0.6120 C.3   1 <1>  -0.1600 
 15 O       -6.6420    -0.0920    -1.1830 O.3   1 <1>  -0.6800 
 16 C       -7.0760    -1.8080     0.3510 C.3   1 <1>  -0.1600 
 17 C       -7.3470     0.6340     0.9420 C.3   1 <1>  -0.1600 
 18 C       -6.3270    -2.8950    -0.4500 C.3   1 <1>  -0.1600 
 19 C       -6.9350     2.1070     0.7730 C.3   1 <1>  -0.2400 
 20 H       -4.1210     1.5610     0.0720 H     1 <1>   0.0800 
 21 H       -4.3480     0.5100    -1.3160 H     1 <1>   0.0800 
 22 H       -2.3080    -2.0880    -0.3040 H     1 <1>   0.0800 
 23 H       -2.3050    -1.4650     1.3360 H     1 <1>   0.0800 
 24 H       -2.8400     1.9680    -2.3570 H     1 <1>   0.1500 
 25 H       -0.0460     3.1560     0.5920 H     1 <1>   0.1500 
 26 H       -4.9290    -0.0240     1.5790 H     1 <1>   0.0800 
 27 H       -4.4400    -2.2600     1.4610 H     1 <1>   0.0800 
 28 H       -0.5800     5.0720    -1.0070 H     1 <1>   0.2700 
 29 H       -4.6650    -2.0910    -1.5430 H     1 <1>   0.0800 
 30 H       -4.2820    -3.5380    -0.6610 H     1 <1>   0.0800 
 31 H       -7.5800    -0.1730    -1.4330 H     1 <1>   0.4000 
 32 H       -7.0040    -2.0520     1.3970 H     1 <1>   0.0800 
 33 H       -8.1220    -1.8280     0.0990 H     1 <1>   0.0800 
 34 H       -8.3770     0.5320     0.6480 H     1 <1>   0.0800 
 35 H       -7.3000     0.3900     1.9900 H     1 <1>   0.0800 
 36 H       -6.4630    -3.8410     0.0440 H     1 <1>   0.0800 
 37 H       -6.7620    -2.9790    -1.4320 H     1 <1>   0.0800 
 38 H       -6.9120     2.3810    -0.2670 H     1 <1>   0.0800 
 39 H       -5.9660     2.2870     1.2020 H     1 <1>   0.0800 
 40 H       -7.6430     2.7430     1.2740 H     1 <1>   0.0800 
@<TRIPOS>BOND
  1   1   2  2   
  2   2   3  am  
  3   2   4  1   
  4   3   5  1   
  5   3   6  1   
  6   4   7  1   
  7   4   8  2   
  8   5   9  1   
  9   5  20  1   
 10   5  21  1   
 11   6  10  1   
 12   6  22  1   
 13   6  23  1   
 14   7  11  2   
 15   7  24  1   
 16   8  12  1   
 17   8  25  1   
 18   9  10  1   
 19   9  13  1   
 20   9  26  1   
 21  10  14  1   
 22  10  27  1   
 23  11  12  1   
 24  12  28  1   
 25  13  15  1   
 26  13  16  1   
 27  13  17  1   
 28  14  18  1   
 29  14  29  1   
 30  14  30  1   
 31  15  31  1   
 32  16  18  1   
 33  16  32  1   
 34  16  33  1   
 35  17  19  1   
 36  17  34  1   
 37  17  35  1   
 38  18  36  1   
 39  18  37  1   
 40  19  38  1   
 41  19  39  1   
 42  19  40  1   
@<TRIPOS>SUBSTRUCTURE
  1 ****   5 GROUP 4 **** **** 0

# MOE 2024.06 (io_trps.svl 2023.06)
