@<TRIPOS>MOLECULE
NONAME
50 51 1 0 0 
SMALL
USER_CHARGES


@<TRIPOS>ATOM
  1 CL      -0.0790     0.9590     1.4220 Cl    1 <1>  -0.1770 
  2 C       -1.7740     1.1210     1.0480 C.ar  1 <1>   0.1770 
  3 C       -2.4920     0.0140     0.6410 C.ar  1 <1>  -0.1500 
  4 C       -2.3820     2.3560     1.1620 C.ar  1 <1>  -0.1500 
  5 C       -3.8370     0.1480     0.3440 C.ar  1 <1>  -0.1500 
  6 C       -3.7280     2.4770     0.8640 C.ar  1 <1>  -0.1500 
  7 C       -4.4900     1.3810     0.4480 C.ar  1 <1>   0.0530 
  8 C       -5.8930     1.5360     0.1390 C.2   1 <1>   0.0870 
  9 O       -6.3920     2.7310    -0.0700 O.3   1 <1>  -0.0190 
 10 C       -6.9240     0.6610    -0.0080 C.2   1 <1>  -0.0860 
 11 N       -7.6730     2.7160    -0.3330 N.2   1 <1>  -0.4100 
 12 C       -8.0170     1.4800    -0.2890 C.2   1 <1>   0.3720 
 13 C       -7.0170    -0.7540     0.1010 C.2   1 <1>   0.7160 
 14 N       -9.3170     1.0140    -0.4820 N.pl3 1 <1>  -0.8520 
 15 O       -6.6950    -1.3150     1.1300 O.2   1 <1>  -0.5700 
 16 N       -7.5390    -1.4680    -0.9420 N.am  1 <1>  -0.7300 
 17 C      -10.4190     1.9520    -0.1380 C.3   1 <1>   0.2090 
 18 C       -8.2380    -2.7870    -0.8830 C.3   1 <1>   0.2200 
 19 C      -11.7330     1.1830    -0.0040 C.3   1 <1>   0.1200 
 20 C       -9.6980    -2.6430    -0.3170 C.3   1 <1>   0.2800 
 21 C       -7.3520    -3.8330    -0.1890 C.3   1 <1>  -0.2400 
 22 O      -12.7440     2.0720     0.3540 O.3   1 <1>  -0.5600 
 23 O       -9.7200    -1.7440     0.7340 O.3   1 <1>  -0.6800 
 24 C      -10.6390    -2.0700    -1.3800 C.3   1 <1>  -0.2400 
 25 C      -10.2930    -3.9450     0.2290 C.3   1 <1>  -0.2400 
 26 C      -13.9850     1.4700     0.5290 C.3   1 <1>   0.0400 
 27 H       -2.0010    -0.9390     0.5600 H     1 <1>   0.1500 
 28 H       -1.8060     3.2060     1.4810 H     1 <1>   0.1500 
 29 H       -4.3770    -0.7240     0.0260 H     1 <1>   0.1500 
 30 H       -4.1950     3.4420     0.9580 H     1 <1>   0.1500 
 31 H       -9.4740     0.1050    -0.0090 H     1 <1>   0.4000 
 32 H       -7.8850    -0.8800    -1.7050 H     1 <1>   0.3700 
 33 H      -10.5080     2.6930    -0.9130 H     1 <1>   0.0800 
 34 H      -10.1980     2.4430     0.7950 H     1 <1>   0.0800 
 35 H       -8.3350    -3.1310    -1.8990 H     1 <1>   0.0800 
 36 H      -11.6470     0.4320     0.7630 H     1 <1>   0.0800 
 37 H      -11.9920     0.7300    -0.9450 H     1 <1>   0.0800 
 38 H       -7.3470    -3.7000     0.8770 H     1 <1>   0.0800 
 39 H       -6.3430    -3.7660    -0.5570 H     1 <1>   0.0800 
 40 H       -7.7140    -4.8220    -0.3980 H     1 <1>   0.0800 
 41 H       -8.9660    -1.9460     1.3320 H     1 <1>   0.4000 
 42 H      -10.2540    -1.1500    -1.7810 H     1 <1>   0.0800 
 43 H      -11.6140    -1.8910    -0.9640 H     1 <1>   0.0800 
 44 H      -10.7440    -2.7660    -2.1920 H     1 <1>   0.0800 
 45 H       -9.7280    -4.3120     1.0660 H     1 <1>   0.0800 
 46 H      -10.2990    -4.7000    -0.5370 H     1 <1>   0.0800 
 47 H      -11.3080    -3.7860     0.5490 H     1 <1>   0.0800 
 48 H      -14.6920     2.2340     0.8010 H     1 <1>   0.0800 
 49 H      -13.9190     0.7400     1.3170 H     1 <1>   0.0800 
 50 H      -14.2890     1.0070    -0.3940 H     1 <1>   0.0800 
@<TRIPOS>BOND
  1   1   2  1   
  2   2   3  ar  
  3   2   4  ar  
  4   3   5  ar  
  5   3  27  1   
  6   4   6  ar  
  7   4  28  1   
  8   5   7  ar  
  9   5  29  1   
 10   6   7  ar  
 11   6  30  1   
 12   7   8  1   
 13   8   9  1   
 14   8  10  2   
 15   9  11  1   
 16  10  12  1   
 17  10  13  1   
 18  11  12  2   
 19  12  14  1   
 20  13  15  2   
 21  13  16  am  
 22  14  17  1   
 23  14  31  1   
 24  16  18  1   
 25  16  32  1   
 26  17  19  1   
 27  17  33  1   
 28  17  34  1   
 29  18  20  1   
 30  18  21  1   
 31  18  35  1   
 32  19  22  1   
 33  19  36  1   
 34  19  37  1   
 35  20  23  1   
 36  20  24  1   
 37  20  25  1   
 38  21  38  1   
 39  21  39  1   
 40  21  40  1   
 41  22  26  1   
 42  23  41  1   
 43  24  42  1   
 44  24  43  1   
 45  24  44  1   
 46  25  45  1   
 47  25  46  1   
 48  25  47  1   
 49  26  48  1   
 50  26  49  1   
 51  26  50  1   
@<TRIPOS>SUBSTRUCTURE
  1 ****  10 GROUP 4 **** **** 0

# MOE 2024.06 (io_trps.svl 2023.06)
