@<TRIPOS>MOLECULE
NONAME
32 33 1 0 0 
SMALL
USER_CHARGES


@<TRIPOS>ATOM
  1 N       -1.8230    -0.6780     0.8990 N.ar  1 <1>  -0.6200 
  2 C       -1.6570    -0.6340    -0.4160 C.ar  1 <1>   0.1660 
  3 C       -1.5410     0.4820     1.4740 C.ar  1 <1>   0.1600 
  4 C       -1.2430     0.5030    -1.1020 C.ar  1 <1>   0.1600 
  5 C       -1.9540    -1.9150    -1.1880 C.3   1 <1>   0.4860 
  6 C       -1.1290     1.6200     0.7850 C.ar  1 <1>   0.1670 
  7 N       -0.9740     1.6580    -0.5270 N.ar  1 <1>  -0.6200 
  8 N       -3.2230    -2.5320    -0.7020 N.4   1 <1>  -0.9590 
  9 C       -0.8300     2.9080     1.5250 C.3   1 <1>  -0.0970 
 10 C       -3.3880    -3.9740    -1.0350 C.3   1 <1>   0.5240 
 11 C       -4.4480    -1.7220    -0.9670 C.3   1 <1>   0.2630 
 12 C       -4.1920    -4.6280     0.0840 C.2   1 <1>   0.1080 
 13 N       -4.2120    -4.1540     1.2980 N.2   1 <1>  -0.7070 
 14 C       -4.9780    -5.7680    -0.0460 C.2   1 <1>  -0.1500 
 15 N       -5.0140    -4.9980     1.9830 N.pl3 1 <1>   0.3000 
 16 C       -5.4880    -5.9750     1.1870 C.2   1 <1>  -0.3020 
 17 H       -1.6410     0.5340     2.5450 H     1 <1>   0.1500 
 18 H       -1.1280     0.4680    -2.1720 H     1 <1>   0.1500 
 19 H       -1.1370    -2.5970    -1.0210 H     1 <1>   0.0800 
 20 H       -2.0190    -1.7060    -2.2420 H     1 <1>   0.0800 
 21 H       -3.1370    -2.5500     0.3400 H     1 <1>   0.4500 
 22 H       -0.9770     2.7950     2.5830 H     1 <1>   0.0800 
 23 H       -1.4770     3.6880     1.1660 H     1 <1>   0.0800 
 24 H        0.1890     3.1970     1.3450 H     1 <1>   0.0800 
 25 H       -2.4250    -4.4550    -1.0820 H     1 <1>   0.0800 
 26 H       -3.8900    -4.0940    -1.9800 H     1 <1>   0.0800 
 27 H       -4.6410    -1.6570    -2.0250 H     1 <1>   0.0800 
 28 H       -4.3270    -0.7270    -0.5700 H     1 <1>   0.0800 
 29 H       -5.3000    -2.1750    -0.4830 H     1 <1>   0.0800 
 30 H       -5.1380    -6.3550    -0.9350 H     1 <1>   0.1500 
 31 H       -5.2160    -4.8830     2.9870 H     1 <1>   0.2700 
 32 H       -6.1470    -6.7510     1.5370 H     1 <1>   0.1500 
@<TRIPOS>BOND
  1   1   2  ar  
  2   1   3  ar  
  3   2   4  ar  
  4   2   5  1   
  5   3   6  ar  
  6   3  17  1   
  7   4   7  ar  
  8   4  18  1   
  9   5   8  1   
 10   5  19  1   
 11   5  20  1   
 12   6   7  ar  
 13   6   9  1   
 14   8  10  1   
 15   8  11  1   
 16   8  21  1   
 17   9  22  1   
 18   9  23  1   
 19   9  24  1   
 20  10  12  1   
 21  10  25  1   
 22  10  26  1   
 23  11  27  1   
 24  11  28  1   
 25  11  29  1   
 26  12  13  2   
 27  12  14  1   
 28  13  15  1   
 29  14  16  2   
 30  14  30  1   
 31  15  16  1   
 32  15  31  1   
 33  16  32  1   
@<TRIPOS>SUBSTRUCTURE
  1 ****   8 GROUP 4 **** **** 0

# MOE 2024.06 (io_trps.svl 2023.06)
