@<TRIPOS>MOLECULE
NONAME
52 54 1 0 0 
SMALL
USER_CHARGES


@<TRIPOS>ATOM
  1 S       -1.4490    -0.8620    -0.5760 S.3   1 <1>  -0.3320 
  2 C       -1.8820     0.6850     0.2550 C.ar  1 <1>   0.1020 
  3 C       -0.1250    -0.4850    -1.8090 C.3   1 <1>  -0.0100 
  4 C       -2.7220     0.6480     1.3750 C.ar  1 <1>   0.0860 
  5 C       -1.3680     1.8830    -0.2210 C.ar  1 <1>  -0.1500 
  6 C       -3.3170    -0.5660     1.8980 C.2   1 <1>   0.5440 
  7 C       -2.9840     1.8600     2.0160 C.ar  1 <1>  -0.1500 
  8 C       -1.6650     3.0680     0.4250 C.ar  1 <1>  -0.1500 
  9 O       -3.0820    -0.8760     3.0510 O.2   1 <1>  -0.5700 
 10 N       -4.1760    -1.3720     1.1720 N.am  1 <1>  -0.6600 
 11 C       -2.4700     3.0550     1.5500 C.ar  1 <1>  -0.1500 
 12 C       -4.9440    -0.9150    -0.0300 C.3   1 <1>   0.2200 
 13 C       -4.0910    -2.8490     1.3930 C.3   1 <1>   0.0600 
 14 C       -5.5490     0.4790     0.1440 C.3   1 <1>  -0.1600 
 15 C       -6.1780    -1.7800    -0.2920 C.3   1 <1>  -0.1600 
 16 C       -6.7550     0.5440    -0.8040 C.3   1 <1>  -0.0800 
 17 C       -7.1400    -0.9090    -1.1100 C.3   1 <1>  -0.0800 
 18 C       -7.9900     1.2020    -0.1740 C.3   1 <1>  -0.1600 
 19 C       -8.6060    -1.0680    -0.6880 C.3   1 <1>  -0.1600 
 20 C       -8.8120     0.0270     0.3530 C.3   1 <1>   0.4230 
 21 N      -10.2540     0.3310     0.6080 N.4   1 <1>  -0.9590 
 22 C      -11.0130     0.8770    -0.5650 C.3   1 <1>   0.2630 
 23 C      -10.3940     1.2460     1.7830 C.3   1 <1>   0.2630 
 24 H        0.1990    -1.4200    -2.2300 H     1 <1>   0.0800 
 25 H        0.6830    -0.0010    -1.2910 H     1 <1>   0.0800 
 26 H       -0.5450     0.1490    -2.5690 H     1 <1>   0.0800 
 27 H       -0.7370     1.9150    -1.0870 H     1 <1>   0.1500 
 28 H       -3.6010     1.8510     2.8980 H     1 <1>   0.1500 
 29 H       -1.2660     4.0000     0.0600 H     1 <1>   0.1500 
 30 H       -2.6930     3.9750     2.0630 H     1 <1>   0.1500 
 31 H       -4.3070    -0.9310    -0.8990 H     1 <1>   0.0800 
 32 H       -3.9490    -3.3550     0.4550 H     1 <1>   0.0800 
 33 H       -4.9890    -3.2020     1.8660 H     1 <1>   0.0800 
 34 H       -3.2560    -3.0880     2.0290 H     1 <1>   0.0800 
 35 H       -5.8620     0.5980     1.1670 H     1 <1>   0.0800 
 36 H       -4.8440     1.2500    -0.1100 H     1 <1>   0.0800 
 37 H       -5.9220    -2.6780    -0.8270 H     1 <1>   0.0800 
 38 H       -6.6300    -2.0390     0.6500 H     1 <1>   0.0800 
 39 H       -6.4710     1.0520    -1.7120 H     1 <1>   0.0800 
 40 H       -7.0120    -1.1180    -2.1600 H     1 <1>   0.0800 
 41 H       -8.5150     1.7260    -0.9510 H     1 <1>   0.0800 
 42 H       -7.7230     1.8940     0.6050 H     1 <1>   0.0800 
 43 H       -8.8060    -2.0480    -0.2910 H     1 <1>   0.0800 
 44 H       -9.2190    -0.9010    -1.5540 H     1 <1>   0.0800 
 45 H       -8.3520    -0.3100     1.2690 H     1 <1>   0.0800 
 46 H      -10.6890    -0.5680     0.8640 H     1 <1>   0.4500 
 47 H      -10.6120     1.8310    -0.8640 H     1 <1>   0.0800 
 48 H      -12.0510     1.0110    -0.3060 H     1 <1>   0.0800 
 49 H      -10.9580     0.2010    -1.4020 H     1 <1>   0.0800 
 50 H       -9.9530     2.2050     1.5650 H     1 <1>   0.0800 
 51 H       -9.8980     0.8280     2.6450 H     1 <1>   0.0800 
 52 H      -11.4350     1.3920     2.0240 H     1 <1>   0.0800 
@<TRIPOS>BOND
  1   1   2  1   
  2   1   3  1   
  3   2   4  ar  
  4   2   5  ar  
  5   3  24  1   
  6   3  25  1   
  7   3  26  1   
  8   4   6  1   
  9   4   7  ar  
 10   5   8  ar  
 11   5  27  1   
 12   6   9  2   
 13   6  10  am  
 14   7  11  ar  
 15   7  28  1   
 16   8  11  ar  
 17   8  29  1   
 18  10  12  1   
 19  10  13  1   
 20  11  30  1   
 21  12  14  1   
 22  12  15  1   
 23  12  31  1   
 24  13  32  1   
 25  13  33  1   
 26  13  34  1   
 27  14  16  1   
 28  14  35  1   
 29  14  36  1   
 30  15  17  1   
 31  15  37  1   
 32  15  38  1   
 33  16  17  1   
 34  16  18  1   
 35  16  39  1   
 36  17  19  1   
 37  17  40  1   
 38  18  20  1   
 39  18  41  1   
 40  18  42  1   
 41  19  20  1   
 42  19  43  1   
 43  19  44  1   
 44  20  21  1   
 45  20  45  1   
 46  21  22  1   
 47  21  23  1   
 48  21  46  1   
 49  22  47  1   
 50  22  48  1   
 51  22  49  1   
 52  23  50  1   
 53  23  51  1   
 54  23  52  1   
@<TRIPOS>SUBSTRUCTURE
  1 ****  14 GROUP 4 **** **** 0

# MOE 2024.06 (io_trps.svl 2023.06)
