@<TRIPOS>MOLECULE
NONAME
56 58 1 0 0 
SMALL
USER_CHARGES


@<TRIPOS>ATOM
  1 O        2.9750    -2.6320    -0.5910 O.2   1 <1>  -0.5700 
  2 C        1.9350    -2.7370     0.0300 C.2   1 <1>   0.5440 
  3 N        1.5680    -1.7440     0.9160 N.am  1 <1>  -0.6600 
  4 C        1.1140    -3.9080    -0.1930 C.ar  1 <1>   0.0860 
  5 C        2.5030    -0.6410     1.2800 C.3   1 <1>   0.1400 
  6 C        0.1810    -1.5580     1.4290 C.3   1 <1>   0.1400 
  7 C        0.6850    -4.2700    -1.4550 C.ar  1 <1>  -0.1500 
  8 C        0.7080    -4.7510     0.8320 C.ar  1 <1>  -0.1500 
  9 C        1.9550     0.6930     0.7620 C.3   1 <1>  -0.1600 
 10 C       -0.3860    -0.2300     0.9160 C.3   1 <1>  -0.1600 
 11 C       -0.1030    -5.3940    -1.6470 C.ar  1 <1>   0.4100 
 12 C       -0.0740    -5.8510     0.5510 C.ar  1 <1>   0.1600 
 13 C        0.5290     0.9520     1.2660 C.3   1 <1>  -0.1600 
 14 N       -0.4820    -6.1960    -0.6590 N.ar  1 <1>  -0.6200 
 15 N       -0.5370    -5.6910    -2.9200 N.pl3 1 <1>  -0.8690 
 16 C       -1.1130    -7.0030    -3.3060 C.3   1 <1>   0.2090 
 17 C       -2.5790    -7.0820    -2.8680 C.3   1 <1>  -0.0990 
 18 C       -2.8440    -8.3920    -2.1680 C.2   1 <1>   0.5690 
 19 O       -3.6100    -9.1720    -2.6770 O.2   1 <1>  -0.5700 
 20 N       -2.1760    -8.6260    -1.0010 N.am  1 <1>  -0.5470 
 21 C       -2.1750    -9.7600    -0.1760 C.ar  1 <1>   0.1170 
 22 C       -0.9920   -10.2130     0.4110 C.ar  1 <1>  -0.1430 
 23 C       -3.3590   -10.4410     0.0860 C.ar  1 <1>  -0.1500 
 24 C       -1.0230   -11.3140     1.2520 C.ar  1 <1>  -0.1500 
 25 C        0.3470    -9.5380     0.1430 C.3   1 <1>  -0.0970 
 26 C       -3.3870   -11.5430     0.9200 C.ar  1 <1>  -0.1430 
 27 C       -2.2110   -11.9750     1.5070 C.ar  1 <1>  -0.1500 
 28 C       -4.6900   -12.2720     1.1920 C.3   1 <1>  -0.0970 
 29 H        3.4820    -0.8150     0.8670 H     1 <1>   0.0800 
 30 H        2.5990    -0.6040     2.3510 H     1 <1>   0.0800 
 31 H        0.2040    -1.5540     2.5050 H     1 <1>   0.0800 
 32 H       -0.4620    -2.3580     1.1090 H     1 <1>   0.0800 
 33 H        0.9660    -3.6670    -2.2970 H     1 <1>   0.1500 
 34 H        1.0090    -4.5390     1.8420 H     1 <1>   0.1500 
 35 H        1.9650     0.6730    -0.3140 H     1 <1>   0.0800 
 36 H        2.6030     1.4900     1.0800 H     1 <1>   0.0800 
 37 H       -1.3600    -0.0700     1.3430 H     1 <1>   0.0800 
 38 H       -0.5020    -0.2920    -0.1520 H     1 <1>   0.0800 
 39 H       -0.3810    -6.4840     1.3670 H     1 <1>   0.1500 
 40 H        0.1450     1.8540     0.8210 H     1 <1>   0.0800 
 41 H        0.5460     1.0880     2.3340 H     1 <1>   0.0800 
 42 H       -0.0470    -5.2110    -3.6780 H     1 <1>   0.4000 
 43 H       -0.5270    -7.7870    -2.8560 H     1 <1>   0.0800 
 44 H       -1.0510    -7.1240    -4.3740 H     1 <1>   0.0800 
 45 H       -3.2160    -7.0050    -3.7280 H     1 <1>   0.0800 
 46 H       -2.8260    -6.2840    -2.1930 H     1 <1>   0.0800 
 47 H       -1.5120    -7.8850    -0.7410 H     1 <1>   0.3700 
 48 H       -4.2680   -10.0950    -0.3740 H     1 <1>   0.1500 
 49 H       -0.1190   -11.6700     1.7130 H     1 <1>   0.1500 
 50 H        0.4260    -9.2400    -0.8870 H     1 <1>   0.0800 
 51 H        1.1590   -10.2100     0.3540 H     1 <1>   0.0800 
 52 H        0.4520    -8.6720     0.7690 H     1 <1>   0.0800 
 53 H       -2.2160   -12.8290     2.1620 H     1 <1>   0.1500 
 54 H       -5.4110   -12.0560     0.4240 H     1 <1>   0.0800 
 55 H       -5.0900   -11.9620     2.1410 H     1 <1>   0.0800 
 56 H       -4.5250   -13.3340     1.2130 H     1 <1>   0.0800 
@<TRIPOS>BOND
  1   1   2  2   
  2   2   3  am  
  3   2   4  1   
  4   3   5  1   
  5   3   6  1   
  6   4   7  ar  
  7   4   8  ar  
  8   5   9  1   
  9   5  29  1   
 10   5  30  1   
 11   6  10  1   
 12   6  31  1   
 13   6  32  1   
 14   7  11  ar  
 15   7  33  1   
 16   8  12  ar  
 17   8  34  1   
 18   9  13  1   
 19   9  35  1   
 20   9  36  1   
 21  10  13  1   
 22  10  37  1   
 23  10  38  1   
 24  11  14  ar  
 25  11  15  1   
 26  12  14  ar  
 27  12  39  1   
 28  13  40  1   
 29  13  41  1   
 30  15  16  1   
 31  15  42  1   
 32  16  17  1   
 33  16  43  1   
 34  16  44  1   
 35  17  18  1   
 36  17  45  1   
 37  17  46  1   
 38  18  19  2   
 39  18  20  am  
 40  20  21  1   
 41  20  47  1   
 42  21  22  ar  
 43  21  23  ar  
 44  22  24  ar  
 45  22  25  1   
 46  23  26  ar  
 47  23  48  1   
 48  24  27  ar  
 49  24  49  1   
 50  25  50  1   
 51  25  51  1   
 52  25  52  1   
 53  26  27  ar  
 54  26  28  1   
 55  27  53  1   
 56  28  54  1   
 57  28  55  1   
 58  28  56  1   
@<TRIPOS>SUBSTRUCTURE
  1 ****  14 GROUP 4 **** **** 0

# MOE 2024.06 (io_trps.svl 2023.06)
