@<TRIPOS>MOLECULE
NONAME
42 43 1 0 0 
SMALL
USER_CHARGES


@<TRIPOS>ATOM
  1 F       -0.5930    -2.0390     1.1650 F     1 <1>  -0.1900 
  2 C       -1.8190    -2.1050     0.6940 C.ar  1 <1>   0.1900 
  3 C       -2.5390    -0.9960     0.2670 C.ar  1 <1>   0.3920 
  4 C       -2.4140    -3.3360     0.6210 C.ar  1 <1>   0.1600 
  5 O       -2.1030     0.2840     0.2720 O.3   1 <1>  -0.3630 
  6 N       -3.7610    -1.1400    -0.1930 N.ar  1 <1>  -0.6200 
  7 N       -3.6410    -3.4930     0.1600 N.ar  1 <1>  -0.6200 
  8 C       -0.8390     0.7010     0.7400 C.3   1 <1>   0.0400 
  9 C       -4.2580    -2.3700    -0.2290 C.ar  1 <1>   0.7200 
 10 N       -5.5480    -2.5070    -0.7100 N.pl3 1 <1>  -0.8380 
 11 C       -6.0580    -3.8270    -1.1780 C.3   1 <1>   0.2090 
 12 C       -6.3250    -1.3080    -1.1600 C.3   1 <1>   0.1290 
 13 C       -6.5140    -4.6810     0.0350 C.3   1 <1>   0.4230 
 14 N       -6.2130    -6.1430    -0.1330 N.4   1 <1>  -0.9590 
 15 C       -8.0080    -4.4610     0.2980 C.3   1 <1>  -0.2400 
 16 C       -6.7940    -7.0360     0.9300 C.3   1 <1>   0.3430 
 17 C       -4.7300    -6.3980    -0.2190 C.3   1 <1>   0.3430 
 18 C       -6.3870    -8.5140     0.7260 C.3   1 <1>   0.1200 
 19 C       -4.4140    -7.9000    -0.3960 C.3   1 <1>   0.1200 
 20 O       -5.5870    -8.6670    -0.4140 O.3   1 <1>  -0.5600 
 21 H       -1.8650    -4.2010     0.9490 H     1 <1>   0.1500 
 22 H       -0.7810     1.7690     0.6320 H     1 <1>   0.0800 
 23 H       -0.0730     0.2340     0.1460 H     1 <1>   0.0800 
 24 H       -0.7430     0.4350     1.7770 H     1 <1>   0.0800 
 25 H       -5.2720    -4.3120    -1.7270 H     1 <1>   0.0800 
 26 H       -6.8780    -3.6830    -1.8600 H     1 <1>   0.0800 
 27 H       -6.2070    -0.5000    -0.4570 H     1 <1>   0.0800 
 28 H       -7.3740    -1.5370    -1.2320 H     1 <1>   0.0800 
 29 H       -5.9660    -0.9820    -2.1220 H     1 <1>   0.0800 
 30 H       -5.9650    -4.3230     0.8910 H     1 <1>   0.0800 
 31 H       -6.6070    -6.4820    -1.0210 H     1 <1>   0.4500 
 32 H       -8.6080    -4.8890    -0.4850 H     1 <1>   0.0800 
 33 H       -8.2080    -3.4040     0.3330 H     1 <1>   0.0800 
 34 H       -8.3030    -4.8620     1.2500 H     1 <1>   0.0800 
 35 H       -7.8700    -6.9730     0.9180 H     1 <1>   0.0800 
 36 H       -6.4620    -6.7120     1.9020 H     1 <1>   0.0800 
 37 H       -4.2470    -6.0410     0.6760 H     1 <1>   0.0800 
 38 H       -4.2980    -5.8560    -1.0440 H     1 <1>   0.0800 
 39 H       -7.2630    -9.1250     0.5970 H     1 <1>   0.0800 
 40 H       -5.8440    -8.8820     1.5810 H     1 <1>   0.0800 
 41 H       -3.7810    -8.2540     0.4010 H     1 <1>   0.0800 
 42 H       -3.9010    -8.0630    -1.3290 H     1 <1>   0.0800 
@<TRIPOS>BOND
  1   1   2  1   
  2   2   3  ar  
  3   2   4  ar  
  4   3   5  1   
  5   3   6  ar  
  6   4   7  ar  
  7   4  21  1   
  8   5   8  1   
  9   6   9  ar  
 10   7   9  ar  
 11   8  22  1   
 12   8  23  1   
 13   8  24  1   
 14   9  10  1   
 15  10  11  1   
 16  10  12  1   
 17  11  13  1   
 18  11  25  1   
 19  11  26  1   
 20  12  27  1   
 21  12  28  1   
 22  12  29  1   
 23  13  14  1   
 24  13  15  1   
 25  13  30  1   
 26  14  16  1   
 27  14  17  1   
 28  14  31  1   
 29  15  32  1   
 30  15  33  1   
 31  15  34  1   
 32  16  18  1   
 33  16  35  1   
 34  16  36  1   
 35  17  19  1   
 36  17  37  1   
 37  17  38  1   
 38  18  20  1   
 39  18  39  1   
 40  18  40  1   
 41  19  20  1   
 42  19  41  1   
 43  19  42  1   
@<TRIPOS>SUBSTRUCTURE
  1 ****   7 GROUP 4 **** **** 0

# MOE 2024.06 (io_trps.svl 2023.06)
