@<TRIPOS>MOLECULE
NONAME
53 56 1 0 0 
SMALL
USER_CHARGES


@<TRIPOS>ATOM
  1 O        0.6900    -1.5390    -1.5770 O.3   1 <1>  -0.6800 
  2 C        0.2830    -2.0930    -0.3710 C.3   1 <1>   0.1200 
  3 C        1.4360    -2.1100     0.6750 C.3   1 <1>   0.0000 
  4 C        2.7770    -2.6770     0.1240 C.3   1 <1>   0.4230 
  5 C        1.6780    -0.6670     1.1970 C.3   1 <1>  -0.1600 
  6 C        0.9880    -2.9900     1.8770 C.3   1 <1>  -0.1600 
  7 N        2.6620    -4.1160    -0.3850 N.4   1 <1>  -0.9590 
  8 C        3.4990    -1.6750    -0.8370 C.3   1 <1>   0.3430 
  9 C        2.3080     0.2730     0.1660 C.3   1 <1>   0.3430 
 10 C        1.5130    -4.4400     1.8170 C.3   1 <1>  -0.1600 
 11 C        1.6790    -4.9540     0.3860 C.3   1 <1>   0.3430 
 12 C        2.3640    -4.2550    -1.8520 C.3   1 <1>   0.2630 
 13 N        3.6260    -0.2740    -0.2850 N.4   1 <1>  -0.9590 
 14 C        4.2540     0.6500    -1.2810 C.3   1 <1>   0.4860 
 15 C        4.5750     1.9580    -0.5850 C.ar  1 <1>  -0.1430 
 16 C        5.6360     2.0550     0.3450 C.ar  1 <1>   0.0000 
 17 C        3.8310     3.0780    -0.8270 C.ar  1 <1>  -0.1500 
 18 C        5.8100     3.2930     1.0110 C.ar  1 <1>   0.3100 
 19 C        6.5360     1.0050     0.6470 C.ar  1 <1>  -0.1500 
 20 C        4.1050     4.2620    -0.1320 C.ar  1 <1>   0.1600 
 21 N        5.0350     4.3750     0.7600 N.ar  1 <1>  -0.6200 
 22 C        6.8250     3.4110     1.9720 C.ar  1 <1>  -0.1500 
 23 C        7.5190     1.1560     1.5870 C.ar  1 <1>  -0.1500 
 24 C        7.6630     2.3700     2.2630 C.ar  1 <1>  -0.1500 
 25 H       -0.0910    -1.3970    -2.1630 H     1 <1>   0.4000 
 26 H       -0.5480    -1.5120    -0.0020 H     1 <1>   0.0800 
 27 H       -0.0790    -3.0860    -0.5760 H     1 <1>   0.0800 
 28 H        3.4190    -2.7300     0.9870 H     1 <1>   0.0800 
 29 H        2.3180    -0.6800     2.0630 H     1 <1>   0.0800 
 30 H        0.7420    -0.2390     1.5150 H     1 <1>   0.0800 
 31 H        1.3250    -2.5720     2.8110 H     1 <1>   0.0800 
 32 H       -0.0890    -3.0070     1.9350 H     1 <1>   0.0800 
 33 H        3.5770    -4.5650    -0.2220 H     1 <1>   0.4500 
 34 H        2.9470    -1.6290    -1.7600 H     1 <1>   0.0800 
 35 H        4.4820    -2.0570    -1.0570 H     1 <1>   0.0800 
 36 H        2.4470     1.2460     0.6130 H     1 <1>   0.0800 
 37 H        1.6470     0.3880    -0.6780 H     1 <1>   0.0800 
 38 H        0.8270    -5.0830     2.3430 H     1 <1>   0.0800 
 39 H        2.4580    -4.5150     2.3270 H     1 <1>   0.0800 
 40 H        0.7160    -4.9280    -0.0990 H     1 <1>   0.0800 
 41 H        2.0060    -5.9820     0.4040 H     1 <1>   0.0800 
 42 H        1.4140    -3.8060    -2.0900 H     1 <1>   0.0800 
 43 H        2.3240    -5.2970    -2.1270 H     1 <1>   0.0800 
 44 H        3.1280    -3.7820    -2.4470 H     1 <1>   0.0800 
 45 H        4.2500    -0.2500     0.5360 H     1 <1>   0.4500 
 46 H        5.1630     0.2260    -1.6740 H     1 <1>   0.0800 
 47 H        3.5780     0.8270    -2.1020 H     1 <1>   0.0800 
 48 H        3.0230     3.0960    -1.5380 H     1 <1>   0.1500 
 49 H        6.4730     0.0680     0.1280 H     1 <1>   0.1500 
 50 H        3.5020     5.1310    -0.3450 H     1 <1>   0.1500 
 51 H        6.9260     4.3570     2.4730 H     1 <1>   0.1500 
 52 H        8.2030     0.3560     1.8170 H     1 <1>   0.1500 
 53 H        8.4400     2.4770     3.0020 H     1 <1>   0.1500 
@<TRIPOS>BOND
  1   1   2  1   
  2   1  25  1   
  3   2   3  1   
  4   2  26  1   
  5   2  27  1   
  6   3   4  1   
  7   3   5  1   
  8   3   6  1   
  9   4   7  1   
 10   4   8  1   
 11   4  28  1   
 12   5   9  1   
 13   5  29  1   
 14   5  30  1   
 15   6  10  1   
 16   6  31  1   
 17   6  32  1   
 18   7  11  1   
 19   7  12  1   
 20   7  33  1   
 21   8  13  1   
 22   8  34  1   
 23   8  35  1   
 24   9  13  1   
 25   9  36  1   
 26   9  37  1   
 27  10  11  1   
 28  10  38  1   
 29  10  39  1   
 30  11  40  1   
 31  11  41  1   
 32  12  42  1   
 33  12  43  1   
 34  12  44  1   
 35  13  14  1   
 36  13  45  1   
 37  14  15  1   
 38  14  46  1   
 39  14  47  1   
 40  15  16  ar  
 41  15  17  ar  
 42  16  18  ar  
 43  16  19  ar  
 44  17  20  ar  
 45  17  48  1   
 46  18  21  ar  
 47  18  22  ar  
 48  19  23  ar  
 49  19  49  1   
 50  20  21  ar  
 51  20  50  1   
 52  22  24  ar  
 53  22  51  1   
 54  23  24  ar  
 55  23  52  1   
 56  24  53  1   
@<TRIPOS>SUBSTRUCTURE
  1 ****  13 GROUP 4 **** **** 0

# MOE 2024.06 (io_trps.svl 2023.06)
