@<TRIPOS>MOLECULE
NONAME
51 53 1 0 0 
SMALL
USER_CHARGES


@<TRIPOS>ATOM
  1 S       -3.6060    -2.3300     3.9630 S.3   1 <1>  -0.0800 
  2 C       -3.2570    -1.5280     2.4470 C.2   1 <1>   0.1980 
  3 C       -3.2930    -3.8600     3.2010 C.2   1 <1>  -0.1100 
  4 N       -2.9540    -2.3170     1.4940 N.2   1 <1>  -0.5650 
  5 C       -3.3500    -0.0200     2.4270 C.3   1 <1>  -0.0600 
  6 C       -2.9660    -3.6440     1.9170 C.2   1 <1>   0.0460 
  7 C       -2.6300    -4.7040     0.8780 C.3   1 <1>   0.5240 
  8 N       -3.3570    -4.3630    -0.3720 N.4   1 <1>  -0.9590 
  9 C       -4.8280    -4.5980    -0.1790 C.3   1 <1>   0.3430 
 10 C       -2.8110    -5.0850    -1.5540 C.3   1 <1>   0.3430 
 11 C       -5.7190    -4.0030    -1.2870 C.3   1 <1>   0.1400 
 12 C       -2.8010    -4.1980    -2.8030 C.3   1 <1>  -0.1600 
 13 N       -5.2660    -4.3960    -2.6570 N.am  1 <1>  -0.6600 
 14 C       -4.1500    -3.5760    -3.1890 C.3   1 <1>   0.1400 
 15 C       -5.6890    -5.5280    -3.3220 C.2   1 <1>   0.5690 
 16 O       -5.2290    -5.8250    -4.3990 O.2   1 <1>  -0.5700 
 17 C       -6.7210    -6.4750    -2.7020 C.3   1 <1>   0.1810 
 18 O       -6.2630    -6.9460    -1.4570 O.3   1 <1>  -0.5600 
 19 C       -7.2230    -7.4780    -0.5980 C.3   1 <1>   0.2630 
 20 C       -6.9190    -6.8960     0.7730 C.ar  1 <1>  -0.1440 
 21 C       -7.6270    -5.8010     1.2470 C.ar  1 <1>  -0.1500 
 22 C       -5.9040    -7.4370     1.5470 C.ar  1 <1>  -0.1500 
 23 C       -7.3130    -5.2460     2.4760 C.ar  1 <1>  -0.1500 
 24 C       -5.5930    -6.8860     2.7790 C.ar  1 <1>  -0.1500 
 25 C       -6.2950    -5.7880     3.2410 C.ar  1 <1>  -0.1500 
 26 H       -3.3920    -4.7460     3.8040 H     1 <1>   0.1500 
 27 H       -2.6500     0.3970     3.1280 H     1 <1>   0.0800 
 28 H       -4.3430     0.2900     2.6950 H     1 <1>   0.0800 
 29 H       -3.1200     0.3500     1.4450 H     1 <1>   0.0800 
 30 H       -2.9080    -5.6840     1.2300 H     1 <1>   0.0800 
 31 H       -1.5680    -4.6800     0.6990 H     1 <1>   0.0800 
 32 H       -3.2080    -3.3460    -0.4650 H     1 <1>   0.4500 
 33 H       -5.1440    -4.1770     0.7620 H     1 <1>   0.0800 
 34 H       -5.0060    -5.6570    -0.1250 H     1 <1>   0.0800 
 35 H       -3.4060    -5.9650    -1.7470 H     1 <1>   0.0800 
 36 H       -1.8010    -5.4060    -1.3580 H     1 <1>   0.0800 
 37 H       -5.7230    -2.9300    -1.2020 H     1 <1>   0.0800 
 38 H       -6.7310    -4.3290    -1.1290 H     1 <1>   0.0800 
 39 H       -2.4840    -4.8130    -3.6280 H     1 <1>   0.0800 
 40 H       -2.0640    -3.4220    -2.7010 H     1 <1>   0.0800 
 41 H       -4.2260    -3.5100    -4.2630 H     1 <1>   0.0800 
 42 H       -4.2200    -2.5750    -2.8000 H     1 <1>   0.0800 
 43 H       -6.8790    -7.3210    -3.3480 H     1 <1>   0.0800 
 44 H       -7.6460    -5.9440    -2.5720 H     1 <1>   0.0800 
 45 H       -7.1250    -8.5500    -0.5990 H     1 <1>   0.0800 
 46 H       -8.2150    -7.2080    -0.9180 H     1 <1>   0.0800 
 47 H       -8.4270    -5.3760     0.6660 H     1 <1>   0.1500 
 48 H       -5.3550    -8.2930     1.1920 H     1 <1>   0.1500 
 49 H       -7.8670    -4.3990     2.8440 H     1 <1>   0.1500 
 50 H       -4.8150    -7.3210     3.3830 H     1 <1>   0.1500 
 51 H       -6.0630    -5.3610     4.2030 H     1 <1>   0.1500 
@<TRIPOS>BOND
  1   1   2  1   
  2   1   3  1   
  3   2   4  2   
  4   2   5  1   
  5   3   6  2   
  6   3  26  1   
  7   4   6  1   
  8   5  27  1   
  9   5  28  1   
 10   5  29  1   
 11   6   7  1   
 12   7   8  1   
 13   7  30  1   
 14   7  31  1   
 15   8   9  1   
 16   8  10  1   
 17   8  32  1   
 18   9  11  1   
 19   9  33  1   
 20   9  34  1   
 21  10  12  1   
 22  10  35  1   
 23  10  36  1   
 24  11  13  1   
 25  11  37  1   
 26  11  38  1   
 27  12  14  1   
 28  12  39  1   
 29  12  40  1   
 30  13  14  1   
 31  13  15  am  
 32  14  41  1   
 33  14  42  1   
 34  15  16  2   
 35  15  17  1   
 36  17  18  1   
 37  17  43  1   
 38  17  44  1   
 39  18  19  1   
 40  19  20  1   
 41  19  45  1   
 42  19  46  1   
 43  20  21  ar  
 44  20  22  ar  
 45  21  23  ar  
 46  21  47  1   
 47  22  24  ar  
 48  22  48  1   
 49  23  25  ar  
 50  23  49  1   
 51  24  25  ar  
 52  24  50  1   
 53  25  51  1   
@<TRIPOS>SUBSTRUCTURE
  1 ****   9 GROUP 4 **** **** 0

# MOE 2024.06 (io_trps.svl 2023.06)
