@<TRIPOS>MOLECULE
NONAME
50 51 1 0 0 
SMALL
USER_CHARGES


@<TRIPOS>ATOM
  1 S       -0.1450     0.2590    -1.1630 S.o2  1 <1>   1.5760 
  2 O       -1.0020     1.3860    -1.4580 O.2   1 <1>  -0.6500 
  3 O        0.6010    -0.3780    -2.2270 O.2   1 <1>  -0.6500 
  4 N       -1.0370    -0.9120    -0.3430 N.am  1 <1>  -0.8490 
  5 N        0.9660     0.7040     0.0320 N.am  1 <1>  -0.8490 
  6 C       -1.7740    -1.7860    -1.2810 C.3   1 <1>   0.1960 
  7 C       -1.8580    -0.3720     0.7650 C.3   1 <1>   0.1960 
  8 C        1.8410    -0.4140     0.4060 C.3   1 <1>   0.1960 
  9 C        1.7090     1.8920    -0.3890 C.3   1 <1>   0.1960 
 10 C       -2.9240    -2.5100    -0.5730 C.3   1 <1>   0.2000 
 11 C       -3.3200    -0.1810     0.3470 C.3   1 <1>  -0.1600 
 12 C        1.7560    -0.6260     1.9150 C.3   1 <1>  -0.2400 
 13 C        2.4600     2.5230     0.7820 C.3   1 <1>  -0.2400 
 14 O       -3.4970    -3.4720    -1.3920 O.3   1 <1>  -0.6800 
 15 C       -4.0030    -1.5250    -0.0590 C.3   1 <1>  -0.1060 
 16 C       -4.6130    -2.2810     1.1230 C.2   1 <1>   0.9060 
 17 C       -5.0960    -1.2180    -1.1260 C.3   1 <1>  -0.0160 
 18 O       -4.3890    -1.9200     2.2830 O.co2 1 <1>  -0.9000 
 19 O       -5.2500    -3.3170     0.8740 O.co2 1 <1>  -0.9000 
 20 C       -6.0700    -0.1090    -0.7340 C.ar  1 <1>  -0.1440 
 21 C       -5.9920     1.1430    -1.3270 C.ar  1 <1>  -0.1500 
 22 C       -7.0510    -0.3450     0.2170 C.ar  1 <1>  -0.1500 
 23 C       -6.8820     2.1440    -0.9760 C.ar  1 <1>  -0.1500 
 24 C       -7.9420     0.6540     0.5700 C.ar  1 <1>  -0.1500 
 25 C       -7.8590     1.9000    -0.0270 C.ar  1 <1>  -0.1500 
 26 H       -2.1840    -1.1970    -2.0840 H     1 <1>   0.0800 
 27 H       -1.0920    -2.5080    -1.6960 H     1 <1>   0.0800 
 28 H       -1.8300    -1.0640     1.5900 H     1 <1>   0.0800 
 29 H       -1.4520     0.5620     1.1170 H     1 <1>   0.0800 
 30 H        1.5330    -1.3270    -0.0780 H     1 <1>   0.0800 
 31 H        2.8590    -0.2230     0.1110 H     1 <1>   0.0800 
 32 H        2.3900     1.6410    -1.1870 H     1 <1>   0.0800 
 33 H        1.0180     2.6280    -0.7660 H     1 <1>   0.0800 
 34 H       -2.4950    -3.0450     0.2600 H     1 <1>   0.0800 
 35 H       -3.8670     0.2730     1.1550 H     1 <1>   0.0800 
 36 H       -3.3360     0.5180    -0.4690 H     1 <1>   0.0800 
 37 H        0.7460    -0.8740     2.1910 H     1 <1>   0.0800 
 38 H        2.0610     0.2560     2.4460 H     1 <1>   0.0800 
 39 H        2.3950    -1.4400     2.2020 H     1 <1>   0.0800 
 40 H        3.2600     1.8900     1.1170 H     1 <1>   0.0800 
 41 H        1.7800     2.7100     1.5940 H     1 <1>   0.0800 
 42 H        2.8850     3.4590     0.4710 H     1 <1>   0.0800 
 43 H       -4.2540    -3.8430    -0.8690 H     1 <1>   0.4000 
 44 H       -4.6170    -0.9480    -2.0490 H     1 <1>   0.0800 
 45 H       -5.6730    -2.1040    -1.3280 H     1 <1>   0.0800 
 46 H       -5.2340     1.3420    -2.0630 H     1 <1>   0.1500 
 47 H       -7.1180    -1.3120     0.6900 H     1 <1>   0.1500 
 48 H       -6.8110     3.1100    -1.4410 H     1 <1>   0.1500 
 49 H       -8.6930     0.4550     1.3130 H     1 <1>   0.1500 
 50 H       -8.5510     2.6750     0.2490 H     1 <1>   0.1500 
@<TRIPOS>BOND
  1   1   2  2   
  2   1   3  2   
  3   1   4  am  
  4   1   5  am  
  5   4   6  1   
  6   4   7  1   
  7   5   8  1   
  8   5   9  1   
  9   6  10  1   
 10   6  26  1   
 11   6  27  1   
 12   7  11  1   
 13   7  28  1   
 14   7  29  1   
 15   8  12  1   
 16   8  30  1   
 17   8  31  1   
 18   9  13  1   
 19   9  32  1   
 20   9  33  1   
 21  10  14  1   
 22  10  15  1   
 23  10  34  1   
 24  11  15  1   
 25  11  35  1   
 26  11  36  1   
 27  12  37  1   
 28  12  38  1   
 29  12  39  1   
 30  13  40  1   
 31  13  41  1   
 32  13  42  1   
 33  14  43  1   
 34  15  16  1   
 35  15  17  1   
 36  16  18  ar  
 37  16  19  ar  
 38  17  20  1   
 39  17  44  1   
 40  17  45  1   
 41  20  21  ar  
 42  20  22  ar  
 43  21  23  ar  
 44  21  46  1   
 45  22  24  ar  
 46  22  47  1   
 47  23  25  ar  
 48  23  48  1   
 49  24  25  ar  
 50  24  49  1   
 51  25  50  1   
@<TRIPOS>SUBSTRUCTURE
  1 ****  11 GROUP 4 **** **** 0

# MOE 2024.06 (io_trps.svl 2023.06)
