@<TRIPOS>MOLECULE
NONAME
53 54 1 0 0 
SMALL
USER_CHARGES


@<TRIPOS>ATOM
  1 O        0.7250     0.3790     0.8040 O.3   1 <1>  -0.6800 
  2 C        1.8510     1.1240     1.0970 C.3   1 <1>   0.1200 
  3 C        1.8130     2.3900     0.2420 C.3   1 <1>  -0.1600 
  4 C        3.0350     3.2830     0.5030 C.3   1 <1>  -0.1600 
  5 C        2.9830     4.5500    -0.3600 C.3   1 <1>  -0.1600 
  6 C        4.2030     5.4460    -0.1050 C.3   1 <1>  -0.1600 
  7 C        4.1340     6.7090    -0.9670 C.3   1 <1>   0.3430 
  8 N        5.2980     7.6040    -0.6670 N.4   1 <1>  -0.9590 
  9 C        4.9720     9.0080    -1.1270 C.3   1 <1>   0.3430 
 10 C        6.5300     7.0770    -1.3260 C.3   1 <1>   0.3430 
 11 C        5.9410    10.1370    -0.6650 C.3   1 <1>   0.3430 
 12 C        7.7920     7.4020    -0.5260 C.3   1 <1>  -0.1600 
 13 N        7.4230     9.8700    -0.8140 N.4   1 <1>  -0.9590 
 14 C        7.8970     8.7900     0.1070 C.3   1 <1>   0.3430 
 15 C        8.1760    11.1590    -0.6280 C.3   1 <1>   0.4230 
 16 C        9.6660    10.9880    -0.9490 C.3   1 <1>  -0.1600 
 17 C        8.1020    11.7090     0.8070 C.3   1 <1>  -0.1600 
 18 C       10.4190    11.1170     0.3750 C.3   1 <1>  -0.1600 
 19 C        9.5400    12.0270     1.2250 C.3   1 <1>  -0.1600 
 20 H        0.7060    -0.4440     1.3290 H     1 <1>   0.4000 
 21 H        2.7210     0.5300     0.8700 H     1 <1>   0.0800 
 22 H        1.8350     1.3650     2.1470 H     1 <1>   0.0800 
 23 H        0.9130     2.9350     0.4700 H     1 <1>   0.0800 
 24 H        1.7880     2.1060    -0.7960 H     1 <1>   0.0800 
 25 H        3.9300     2.7270     0.2810 H     1 <1>   0.0800 
 26 H        3.0560     3.5530     1.5460 H     1 <1>   0.0800 
 27 H        2.0780     5.0890    -0.1340 H     1 <1>   0.0800 
 28 H        2.9490     4.2640    -1.3990 H     1 <1>   0.0800 
 29 H        5.0900     4.8810    -0.3290 H     1 <1>   0.0800 
 30 H        4.2160     5.7170     0.9370 H     1 <1>   0.0800 
 31 H        3.2110     7.2200    -0.7420 H     1 <1>   0.0800 
 32 H        4.1210     6.4410    -2.0120 H     1 <1>   0.0800 
 33 H        5.4080     7.5680     0.3570 H     1 <1>   0.4500 
 34 H        3.9850     9.2680    -0.7790 H     1 <1>   0.0800 
 35 H        4.9290     9.0210    -2.2040 H     1 <1>   0.0800 
 36 H        6.6110     7.4900    -2.3200 H     1 <1>   0.0800 
 37 H        6.4660     6.0050    -1.4330 H     1 <1>   0.0800 
 38 H        5.7310    10.3560     0.3700 H     1 <1>   0.0800 
 39 H        5.6900    11.0260    -1.2210 H     1 <1>   0.0800 
 40 H        8.6420     7.2550    -1.1700 H     1 <1>   0.0800 
 41 H        7.8930     6.6730     0.2600 H     1 <1>   0.0800 
 42 H        7.6430     9.5940    -1.7810 H     1 <1>   0.4500 
 43 H        8.9280     8.9570     0.3730 H     1 <1>   0.0800 
 44 H        7.3260     8.8210     1.0210 H     1 <1>   0.0800 
 45 H        7.7800    11.9020    -1.3030 H     1 <1>   0.0800 
 46 H        9.9640    11.8110    -1.5770 H     1 <1>   0.0800 
 47 H        9.9050    10.0740    -1.4620 H     1 <1>   0.0800 
 48 H        7.6880    11.0040     1.5030 H     1 <1>   0.0800 
 49 H        7.5120    12.6090     0.8380 H     1 <1>   0.0800 
 50 H       11.4040    11.5340     0.2380 H     1 <1>   0.0800 
 51 H       10.5210    10.1580     0.8530 H     1 <1>   0.0800 
 52 H        9.7040    11.8770     2.2790 H     1 <1>   0.0800 
 53 H        9.7660    13.0550     0.9880 H     1 <1>   0.0800 
@<TRIPOS>BOND
  1   1   2  1   
  2   1  20  1   
  3   2   3  1   
  4   2  21  1   
  5   2  22  1   
  6   3   4  1   
  7   3  23  1   
  8   3  24  1   
  9   4   5  1   
 10   4  25  1   
 11   4  26  1   
 12   5   6  1   
 13   5  27  1   
 14   5  28  1   
 15   6   7  1   
 16   6  29  1   
 17   6  30  1   
 18   7   8  1   
 19   7  31  1   
 20   7  32  1   
 21   8   9  1   
 22   8  10  1   
 23   8  33  1   
 24   9  11  1   
 25   9  34  1   
 26   9  35  1   
 27  10  12  1   
 28  10  36  1   
 29  10  37  1   
 30  11  13  1   
 31  11  38  1   
 32  11  39  1   
 33  12  14  1   
 34  12  40  1   
 35  12  41  1   
 36  13  14  1   
 37  13  15  1   
 38  13  42  1   
 39  14  43  1   
 40  14  44  1   
 41  15  16  1   
 42  15  17  1   
 43  15  45  1   
 44  16  18  1   
 45  16  46  1   
 46  16  47  1   
 47  17  19  1   
 48  17  48  1   
 49  17  49  1   
 50  18  19  1   
 51  18  50  1   
 52  18  51  1   
 53  19  52  1   
 54  19  53  1   
@<TRIPOS>SUBSTRUCTURE
  1 ****   8 GROUP 4 **** **** 0

# MOE 2024.06 (io_trps.svl 2023.06)
