@<TRIPOS>MOLECULE
NONAME
44 46 1 0 0 
SMALL
USER_CHARGES


@<TRIPOS>ATOM
  1 O       -0.4070     0.5350     2.3850 O.3   1 <1>  -0.5600 
  2 C        0.7090     0.6760     1.5550 C.3   1 <1>   0.1200 
  3 C       -1.5810     0.8020     1.6720 C.3   1 <1>   0.1200 
  4 C        0.2960     1.6630     0.4700 C.3   1 <1>   0.2890 
  5 C       -1.1600     1.2620     0.2730 C.3   1 <1>  -0.0800 
  6 N        0.4100     3.0390     1.0110 N.pl3 1 <1>  -0.8690 
  7 C       -2.0820     2.3300    -0.3440 C.3   1 <1>  -0.0170 
  8 C        0.6190     4.1760     0.2750 C.ar  1 <1>   0.4100 
  9 C       -3.4890     1.7870    -0.5420 C.ar  1 <1>  -0.1430 
 10 N        0.8060     4.0290    -1.0200 N.ar  1 <1>  -0.6200 
 11 C        0.6150     5.4320     0.8670 C.ar  1 <1>  -0.1430 
 12 C       -4.5120     2.0630     0.3410 C.ar  1 <1>  -0.1500 
 13 C       -3.8120     0.9880    -1.6200 C.ar  1 <1>  -0.1500 
 14 C        0.9830     5.1380    -1.7080 C.ar  1 <1>   0.4770 
 15 C        0.8080     6.5060     0.0380 C.ar  1 <1>   0.1600 
 16 C        0.4090     5.6370     2.3650 C.3   1 <1>  -0.0170 
 17 C       -5.7730     1.5360     0.1140 C.ar  1 <1>   0.1600 
 18 C       -5.1060     0.5120    -1.7550 C.ar  1 <1>   0.1600 
 19 N        0.9920     6.3790    -1.2600 N.ar  1 <1>  -0.6200 
 20 C        1.1960     4.9780    -3.1930 C.3   1 <1>  -0.0970 
 21 C       -1.0790     5.5880     2.7260 C.3   1 <1>  -0.2400 
 22 N       -6.0940     0.7650    -0.9120 N.ar  1 <1>  -0.6200 
 23 H        1.5500     1.0220     2.1290 H     1 <1>   0.0800 
 24 H        0.9250    -0.2870     1.1280 H     1 <1>   0.0800 
 25 H       -2.1820    -0.0900     1.6370 H     1 <1>   0.0800 
 26 H       -2.1090     1.5770     2.1990 H     1 <1>   0.0800 
 27 H        0.8870     1.5500    -0.4230 H     1 <1>   0.0800 
 28 H       -1.1760     0.3970    -0.3660 H     1 <1>   0.0800 
 29 H        0.1230     3.1240     1.9870 H     1 <1>   0.4000 
 30 H       -1.6820     2.6390    -1.2940 H     1 <1>   0.0800 
 31 H       -2.1220     3.2010     0.2850 H     1 <1>   0.0800 
 32 H       -4.3430     2.6820     1.2030 H     1 <1>   0.1500 
 33 H       -3.0710     0.7320    -2.3550 H     1 <1>   0.1500 
 34 H        0.8110     7.5050     0.4380 H     1 <1>   0.1500 
 35 H        0.9460     4.8830     2.9140 H     1 <1>   0.0800 
 36 H        0.8120     6.5900     2.6590 H     1 <1>   0.0800 
 37 H       -6.5600     1.7620     0.8130 H     1 <1>   0.1500 
 38 H       -5.3400    -0.1100    -2.6020 H     1 <1>   0.1500 
 39 H        2.0500     5.5540    -3.4990 H     1 <1>   0.0800 
 40 H        0.3270     5.3300    -3.7160 H     1 <1>   0.0800 
 41 H        1.3640     3.9460    -3.4420 H     1 <1>   0.0800 
 42 H       -1.5000     4.6340     2.4640 H     1 <1>   0.0800 
 43 H       -1.6140     6.3570     2.1970 H     1 <1>   0.0800 
 44 H       -1.2080     5.7430     3.7830 H     1 <1>   0.0800 
@<TRIPOS>BOND
  1   1   2  1   
  2   1   3  1   
  3   2   4  1   
  4   2  23  1   
  5   2  24  1   
  6   3   5  1   
  7   3  25  1   
  8   3  26  1   
  9   4   5  1   
 10   4   6  1   
 11   4  27  1   
 12   5   7  1   
 13   5  28  1   
 14   6   8  1   
 15   6  29  1   
 16   7   9  1   
 17   7  30  1   
 18   7  31  1   
 19   8  10  ar  
 20   8  11  ar  
 21   9  12  ar  
 22   9  13  ar  
 23  10  14  ar  
 24  11  15  ar  
 25  11  16  1   
 26  12  17  ar  
 27  12  32  1   
 28  13  18  ar  
 29  13  33  1   
 30  14  19  ar  
 31  14  20  1   
 32  15  19  ar  
 33  15  34  1   
 34  16  21  1   
 35  16  35  1   
 36  16  36  1   
 37  17  22  ar  
 38  17  37  1   
 39  18  22  ar  
 40  18  38  1   
 41  20  39  1   
 42  20  40  1   
 43  20  41  1   
 44  21  42  1   
 45  21  43  1   
 46  21  44  1   
@<TRIPOS>SUBSTRUCTURE
  1 ****   7 GROUP 4 **** **** 0

# MOE 2024.06 (io_trps.svl 2023.06)
