@<TRIPOS>MOLECULE
NONAME
43 45 1 0 0 
SMALL
USER_CHARGES


@<TRIPOS>ATOM
  1 O       -0.4520     0.1510     1.3350 O.2   1 <1>  -0.5700 
  2 C       -1.4440     0.6760     0.8870 C.2   1 <1>   0.6300 
  3 N       -2.6690     0.0610     0.9200 N.am  1 <1>  -0.6600 
  4 C       -1.2900     2.0580     0.2630 C.3   1 <1>  -0.1000 
  5 C       -2.8090    -1.2930     1.5260 C.3   1 <1>   0.3200 
  6 C       -3.9270     0.6960     0.4190 C.3   1 <1>   0.1400 
  7 C       -0.2990     3.0350     0.8290 C.3   1 <1>  -0.0680 
  8 C       -1.7660     3.3040     0.9540 C.3   1 <1>  -0.2000 
  9 C       -3.3930    -2.2590     0.5140 C.2   1 <1>  -0.3320 
 10 C       -4.0820     0.5160    -1.0960 C.3   1 <1>   0.1200 
 11 C        0.5640     3.8340    -0.1300 C.ar  1 <1>  -0.0320 
 12 N       -4.7070    -2.5130     0.3590 N.pl3 1 <1>   0.0330 
 13 C       -2.7520    -3.0200    -0.3990 C.2   1 <1>   0.0770 
 14 O       -5.3620     0.9120    -1.4550 O.3   1 <1>  -0.6800 
 15 C        1.4460     3.1750    -0.9710 C.ar  1 <1>  -0.1500 
 16 C        0.4850     5.2160    -0.1720 C.ar  1 <1>  -0.1500 
 17 C       -4.7790    -3.4080    -0.6490 C.2   1 <1>   0.0070 
 18 N       -3.6260    -3.7380    -1.1300 N.2   1 <1>  -0.5650 
 19 C        2.2370     3.8900    -1.8530 C.ar  1 <1>  -0.1500 
 20 C        1.2750     5.9350    -1.0540 C.ar  1 <1>  -0.1500 
 21 C       -6.0910    -3.9630    -1.1590 C.3   1 <1>  -0.0600 
 22 C        2.1510     5.2710    -1.8960 C.ar  1 <1>  -0.1500 
 23 H       -1.3480     2.0150    -0.8080 H     1 <1>   0.1000 
 24 H       -1.8510    -1.6680     1.8430 H     1 <1>   0.0800 
 25 H       -3.4390    -1.2350     2.3970 H     1 <1>   0.0800 
 26 H       -4.7700     0.2520     0.9170 H     1 <1>   0.0800 
 27 H       -3.9280     1.7450     0.6520 H     1 <1>   0.0800 
 28 H        0.2330     2.7450     1.7190 H     1 <1>   0.1000 
 29 H       -2.2100     4.0800     0.3550 H     1 <1>   0.1000 
 30 H       -2.2120     3.2250     1.9290 H     1 <1>   0.1000 
 31 H       -3.9590    -0.5130    -1.3840 H     1 <1>   0.0800 
 32 H       -3.3770     1.1280    -1.6290 H     1 <1>   0.0800 
 33 H       -5.4950    -2.1110     0.8740 H     1 <1>   0.2700 
 34 H       -1.6900    -3.0860    -0.5750 H     1 <1>   0.1500 
 35 H       -5.4910     0.8070    -2.4190 H     1 <1>   0.4000 
 36 H        1.5150     2.1020    -0.9350 H     1 <1>   0.1500 
 37 H       -0.1910     5.7350     0.4830 H     1 <1>   0.1500 
 38 H        2.9200     3.3730    -2.5040 H     1 <1>   0.1500 
 39 H        1.2090     7.0080    -1.0830 H     1 <1>   0.1500 
 40 H       -5.9050    -4.6450    -1.9700 H     1 <1>   0.0800 
 41 H       -6.7150    -3.1650    -1.5170 H     1 <1>   0.0800 
 42 H       -6.5990    -4.4920    -0.3740 H     1 <1>   0.0800 
 43 H        2.7660     5.8280    -2.5810 H     1 <1>   0.1500 
@<TRIPOS>BOND
  1   1   2  2   
  2   2   3  am  
  3   2   4  1   
  4   3   5  1   
  5   3   6  1   
  6   4   7  1   
  7   4   8  1   
  8   4  23  1   
  9   5   9  1   
 10   5  24  1   
 11   5  25  1   
 12   6  10  1   
 13   6  26  1   
 14   6  27  1   
 15   7   8  1   
 16   7  11  1   
 17   7  28  1   
 18   8  29  1   
 19   8  30  1   
 20   9  12  1   
 21   9  13  2   
 22  10  14  1   
 23  10  31  1   
 24  10  32  1   
 25  11  15  ar  
 26  11  16  ar  
 27  12  17  1   
 28  12  33  1   
 29  13  18  1   
 30  13  34  1   
 31  14  35  1   
 32  15  19  ar  
 33  15  36  1   
 34  16  20  ar  
 35  16  37  1   
 36  17  18  2   
 37  17  21  1   
 38  19  22  ar  
 39  19  38  1   
 40  20  22  ar  
 41  20  39  1   
 42  21  40  1   
 43  21  41  1   
 44  21  42  1   
 45  22  43  1   
@<TRIPOS>SUBSTRUCTURE
  1 ****   2 GROUP 4 **** **** 0

# MOE 2024.06 (io_trps.svl 2023.06)
