@<TRIPOS>MOLECULE
NONAME
59 62 1 0 0 
SMALL
USER_CHARGES


@<TRIPOS>ATOM
  1 F       -1.5310    -1.2350     0.4980 F     1 <1>  -0.1900 
  2 C       -2.6310    -0.5280     0.4460 C.ar  1 <1>   0.1900 
  3 C       -2.6330     0.8590     0.6220 C.ar  1 <1>   0.0830 
  4 C       -3.7990    -1.2270     0.2090 C.ar  1 <1>  -0.1500 
  5 O       -1.5530     1.6580     0.8600 O.3   1 <1>  -0.3630 
  6 C       -3.8520     1.5140     0.5510 C.ar  1 <1>  -0.1500 
  7 C       -4.9980    -0.5420     0.1460 C.ar  1 <1>  -0.1500 
  8 C       -0.2310     1.1690     0.9120 C.3   1 <1>   0.0400 
  9 C       -5.0560     0.8440     0.3140 C.ar  1 <1>   0.0530 
 10 C       -6.3030     1.5720     0.2540 C.2   1 <1>   0.0870 
 11 O       -6.3980     2.7600     0.7980 O.3   1 <1>  -0.0190 
 12 C       -7.5260     1.2880    -0.2710 C.2   1 <1>  -0.0860 
 13 N       -7.5870     3.2880     0.6750 N.2   1 <1>  -0.4100 
 14 C       -8.2850     2.4240     0.0250 C.2   1 <1>   0.3720 
 15 C       -7.9860     0.1350    -0.9760 C.2   1 <1>   0.7160 
 16 N       -9.6310     2.6100    -0.3280 N.pl3 1 <1>  -0.8210 
 17 O       -7.4460    -0.1570    -2.0280 O.2   1 <1>  -0.5700 
 18 N       -8.9790    -0.6960    -0.4870 N.am  1 <1>  -0.6600 
 19 C       -9.8510     2.7930    -1.7890 C.3   1 <1>   0.1290 
 20 C      -10.3700     3.6260     0.4730 C.3   1 <1>   0.1290 
 21 C       -9.5280    -1.8030    -1.3200 C.3   1 <1>   0.1400 
 22 C       -9.6030    -0.5100     0.8510 C.3   1 <1>   0.1400 
 23 C       -8.8480    -3.1100    -0.9160 C.3   1 <1>  -0.1600 
 24 C       -9.3490    -1.7180     1.7620 C.3   1 <1>  -0.1600 
 25 C       -9.5310    -3.8460     0.2510 C.3   1 <1>   0.2800 
 26 C      -10.1600    -2.9600     1.3510 C.3   1 <1>  -0.1600 
 27 O      -10.6080    -4.5750    -0.3040 O.3   1 <1>  -0.4300 
 28 C       -8.5990    -4.9330     0.8420 C.3   1 <1>   0.1400 
 29 C      -10.4850    -5.8730    -0.0780 C.2   1 <1>   0.7800 
 30 N       -9.3490    -6.1630     0.5970 N.am  1 <1>  -0.6600 
 31 O      -11.3180    -6.6670    -0.4550 O.2   1 <1>  -0.5700 
 32 C       -8.8610    -7.5040     0.9960 C.3   1 <1>   0.0600 
 33 H       -3.7640    -2.2930     0.0740 H     1 <1>   0.1500 
 34 H       -3.8580     2.5810     0.6840 H     1 <1>   0.1500 
 35 H       -5.8970    -1.1000    -0.0360 H     1 <1>   0.1500 
 36 H        0.4270     2.0020     1.0840 H     1 <1>   0.0800 
 37 H        0.0090     0.7040    -0.0270 H     1 <1>   0.0800 
 38 H       -0.1480     0.4680     1.7240 H     1 <1>   0.0800 
 39 H       -9.3790     2.0000    -2.3440 H     1 <1>   0.0800 
 40 H       -9.4340     3.7330    -2.1080 H     1 <1>   0.0800 
 41 H      -10.9040     2.7810    -2.0070 H     1 <1>   0.0800 
 42 H      -10.1940     3.4610     1.5230 H     1 <1>   0.0800 
 43 H      -11.4260     3.5470     0.2840 H     1 <1>   0.0800 
 44 H      -10.0340     4.6160     0.2170 H     1 <1>   0.0800 
 45 H       -9.3270    -1.6080    -2.3600 H     1 <1>   0.0800 
 46 H      -10.5970    -1.8700    -1.2080 H     1 <1>   0.0800 
 47 H      -10.6610    -0.3470     0.7270 H     1 <1>   0.0800 
 48 H       -9.2070     0.3630     1.3360 H     1 <1>   0.0800 
 49 H       -7.8230    -2.8940    -0.6720 H     1 <1>   0.0800 
 50 H       -8.8310    -3.7680    -1.7670 H     1 <1>   0.0800 
 51 H       -9.6640    -1.4350     2.7510 H     1 <1>   0.0800 
 52 H       -8.2960    -1.9330     1.8140 H     1 <1>   0.0800 
 53 H      -11.1340    -2.6350     1.0270 H     1 <1>   0.0800 
 54 H      -10.3200    -3.5670     2.2250 H     1 <1>   0.0800 
 55 H       -8.4310    -4.7910     1.8950 H     1 <1>   0.0800 
 56 H       -7.6530    -4.9690     0.3310 H     1 <1>   0.0800 
 57 H       -8.7370    -7.5440     2.0640 H     1 <1>   0.0800 
 58 H       -7.9200    -7.7080     0.5170 H     1 <1>   0.0800 
 59 H       -9.5740    -8.2550     0.6990 H     1 <1>   0.0800 
@<TRIPOS>BOND
  1   1   2  1   
  2   2   3  ar  
  3   2   4  ar  
  4   3   5  1   
  5   3   6  ar  
  6   4   7  ar  
  7   4  33  1   
  8   5   8  1   
  9   6   9  ar  
 10   6  34  1   
 11   7   9  ar  
 12   7  35  1   
 13   8  36  1   
 14   8  37  1   
 15   8  38  1   
 16   9  10  1   
 17  10  11  1   
 18  10  12  2   
 19  11  13  1   
 20  12  14  1   
 21  12  15  1   
 22  13  14  2   
 23  14  16  1   
 24  15  17  2   
 25  15  18  am  
 26  16  19  1   
 27  16  20  1   
 28  18  21  1   
 29  18  22  1   
 30  19  39  1   
 31  19  40  1   
 32  19  41  1   
 33  20  42  1   
 34  20  43  1   
 35  20  44  1   
 36  21  23  1   
 37  21  45  1   
 38  21  46  1   
 39  22  24  1   
 40  22  47  1   
 41  22  48  1   
 42  23  25  1   
 43  23  49  1   
 44  23  50  1   
 45  24  26  1   
 46  24  51  1   
 47  24  52  1   
 48  25  26  1   
 49  25  27  1   
 50  25  28  1   
 51  26  53  1   
 52  26  54  1   
 53  27  29  1   
 54  28  30  1   
 55  28  55  1   
 56  28  56  1   
 57  29  30  am  
 58  29  31  2   
 59  30  32  1   
 60  32  57  1   
 61  32  58  1   
 62  32  59  1   
@<TRIPOS>SUBSTRUCTURE
  1 ****  15 GROUP 4 **** **** 0

# MOE 2024.06 (io_trps.svl 2023.06)
