@<TRIPOS>MOLECULE
NONAME
21 22 1 0 0 
SMALL
USER_CHARGES


@<TRIPOS>ATOM
  1 O        4.7580    -2.8120     0.9210 O.co2 1 <1>  -0.9000 
  2 C        4.1450    -1.7520     0.7750 C.2   1 <1>   0.8710 
  3 O        2.9280    -1.6370     0.9410 O.co2 1 <1>  -0.9000 
  4 C        4.9140    -0.5170     0.3720 C.3   1 <1>  -0.0710 
  5 C        4.9650     0.8230     1.1590 C.3   1 <1>   0.0000 
  6 C        4.6430     0.3550    -0.8870 C.3   1 <1>   0.0000 
  7 C        6.4280    -0.2910     0.0820 C.3   1 <1>   0.0000 
  8 C        5.7790     1.1080    -0.1360 C.3   1 <1>   0.0000 
  9 C        6.4010     2.4350    -0.5370 C.3   1 <1>   0.3430 
 10 N        5.3240     3.4540    -0.6010 N.4   1 <1>  -0.8530 
 11 H        5.5350     0.8040     2.0750 H     1 <1>   0.0000 
 12 H        4.0270     1.3480     1.2500 H     1 <1>   0.0000 
 13 H        3.6870     0.8530    -0.9140 H     1 <1>   0.0000 
 14 H        4.9210    -0.0890    -1.8300 H     1 <1>   0.0000 
 15 H        6.8110    -0.7720    -0.8040 H     1 <1>   0.0000 
 16 H        7.0840    -0.3740     0.9340 H     1 <1>   0.0000 
 17 H        6.8790     2.3310    -1.4980 H     1 <1>   0.0800 
 18 H        7.1450     2.7180     0.1920 H     1 <1>   0.0800 
 19 H        4.6090     3.1600    -1.2780 H     1 <1>   0.4500 
 20 H        5.6800     4.3780    -0.8690 H     1 <1>   0.4500 
 21 H        4.8580     3.5240     0.3120 H     1 <1>   0.4500 
@<TRIPOS>BOND
  1   1   2  ar  
  2   2   3  ar  
  3   2   4  1   
  4   4   5  1   
  5   4   6  1   
  6   4   7  1   
  7   5   8  1   
  8   5  11  1   
  9   5  12  1   
 10   6   8  1   
 11   6  13  1   
 12   6  14  1   
 13   7   8  1   
 14   7  15  1   
 15   7  16  1   
 16   8   9  1   
 17   9  10  1   
 18   9  17  1   
 19   9  18  1   
 20  10  19  1   
 21  10  20  1   
 22  10  21  1   
@<TRIPOS>SUBSTRUCTURE
  1 ****   4 GROUP 4 **** **** 0

# MOE 2024.06 (io_trps.svl 2023.06)
