@<TRIPOS>MOLECULE
NONAME
47 50 1 0 0 
SMALL
USER_CHARGES


@<TRIPOS>ATOM
  1 F       -0.2850    -2.2270    -1.6660 F     1 <1>  -0.1900 
  2 C       -1.2920    -3.0290    -1.4330 C.ar  1 <1>   0.1900 
  3 C       -2.2900    -2.6170    -0.5830 C.ar  1 <1>  -0.1500 
  4 C       -1.2960    -4.2740    -2.0710 C.ar  1 <1>  -0.1500 
  5 C       -3.3460    -3.4970    -0.3590 C.ar  1 <1>   0.2270 
  6 C       -2.3430    -5.1420    -1.8470 C.ar  1 <1>  -0.1500 
  7 N       -4.4450    -3.3430     0.4310 N.2   1 <1>  -0.5650 
  8 C       -3.3650    -4.7330    -0.9840 C.ar  1 <1>  -0.1520 
  9 C       -5.1010    -4.4440     0.2830 C.2   1 <1>   0.0060 
 10 N       -4.5080    -5.3270    -0.5570 N.pl3 1 <1>   0.0330 
 11 C       -6.4170    -4.7940     0.9590 C.3   1 <1>   0.3890 
 12 N       -6.4120    -6.2340     1.3780 N.pl3 1 <1>  -0.8380 
 13 C       -7.6070    -6.9280     1.3420 C.ar  1 <1>   0.4100 
 14 C       -5.5300    -6.4900     2.5530 C.3   1 <1>   0.1290 
 15 N       -8.7250    -6.2280     1.4800 N.ar  1 <1>  -0.6200 
 16 C       -7.5930    -8.3070     1.1770 C.ar  1 <1>  -0.1500 
 17 C       -9.8480    -6.9230     1.4780 C.ar  1 <1>   0.1600 
 18 C       -8.7640    -9.0390     1.1550 C.ar  1 <1>   0.0860 
 19 C       -9.9230    -8.2920     1.3260 C.ar  1 <1>  -0.1500 
 20 C       -8.7680   -10.4790     0.9850 C.2   1 <1>   0.5440 
 21 O       -7.9500   -11.1460     1.5890 O.2   1 <1>  -0.5700 
 22 N       -9.6650   -11.1170     0.1540 N.am  1 <1>  -0.6600 
 23 C       -9.8710   -12.5970     0.2020 C.3   1 <1>   0.1400 
 24 C      -10.3160   -10.4730    -1.0280 C.3   1 <1>   0.1400 
 25 C       -9.5580   -13.2350    -1.1600 C.3   1 <1>   0.1200 
 26 C       -9.9850   -11.2430    -2.3190 C.3   1 <1>   0.1200 
 27 O      -10.2830   -12.6020    -2.1780 O.3   1 <1>  -0.5600 
 28 H       -2.2760    -1.6600    -0.1000 H     1 <1>   0.1500 
 29 H       -0.4810    -4.5310    -2.7240 H     1 <1>   0.1500 
 30 H       -2.3810    -6.1080    -2.3190 H     1 <1>   0.1500 
 31 H       -4.8530    -6.2710    -0.7530 H     1 <1>   0.2700 
 32 H       -7.2150    -4.6120     0.2600 H     1 <1>   0.0800 
 33 H       -6.5700    -4.1600     1.8150 H     1 <1>   0.0800 
 34 H       -4.5050    -6.2750     2.3000 H     1 <1>   0.0800 
 35 H       -5.6000    -7.5170     2.8640 H     1 <1>   0.0800 
 36 H       -5.8260    -5.8610     3.3760 H     1 <1>   0.0800 
 37 H       -6.6520    -8.8100     1.0680 H     1 <1>   0.1500 
 38 H      -10.7600    -6.3650     1.6070 H     1 <1>   0.1500 
 39 H      -10.8770    -8.7860     1.3460 H     1 <1>   0.1500 
 40 H      -10.8960   -12.8020     0.4580 H     1 <1>   0.0800 
 41 H       -9.2500   -13.0470     0.9560 H     1 <1>   0.0800 
 42 H       -9.9840    -9.4570    -1.1380 H     1 <1>   0.0800 
 43 H      -11.3820   -10.4670    -0.8850 H     1 <1>   0.0800 
 44 H       -9.8350   -14.2740    -1.1560 H     1 <1>   0.0800 
 45 H       -8.5070   -13.1570    -1.3800 H     1 <1>   0.0800 
 46 H       -8.9410   -11.1430    -2.5620 H     1 <1>   0.0800 
 47 H      -10.5690   -10.8630    -3.1380 H     1 <1>   0.0800 
@<TRIPOS>BOND
  1   1   2  1   
  2   2   3  ar  
  3   2   4  ar  
  4   3   5  ar  
  5   3  28  1   
  6   4   6  ar  
  7   4  29  1   
  8   5   7  1   
  9   5   8  ar  
 10   6   8  ar  
 11   6  30  1   
 12   7   9  2   
 13   8  10  1   
 14   9  10  1   
 15   9  11  1   
 16  10  31  1   
 17  11  12  1   
 18  11  32  1   
 19  11  33  1   
 20  12  13  1   
 21  12  14  1   
 22  13  15  ar  
 23  13  16  ar  
 24  14  34  1   
 25  14  35  1   
 26  14  36  1   
 27  15  17  ar  
 28  16  18  ar  
 29  16  37  1   
 30  17  19  ar  
 31  17  38  1   
 32  18  19  ar  
 33  18  20  1   
 34  19  39  1   
 35  20  21  2   
 36  20  22  am  
 37  22  23  1   
 38  22  24  1   
 39  23  25  1   
 40  23  40  1   
 41  23  41  1   
 42  24  26  1   
 43  24  42  1   
 44  24  43  1   
 45  25  27  1   
 46  25  44  1   
 47  25  45  1   
 48  26  27  1   
 49  26  46  1   
 50  26  47  1   
@<TRIPOS>SUBSTRUCTURE
  1 ****  12 GROUP 4 **** **** 0

# MOE 2024.06 (io_trps.svl 2023.06)
