@<TRIPOS>MOLECULE
NONAME
46 48 1 0 0 
SMALL
USER_CHARGES


@<TRIPOS>ATOM
  1 O       -0.3370     1.1860     1.3990 O.2   1 <1>  -0.5700 
  2 C       -0.3130     2.2700     0.8740 C.2   1 <1>   0.5690 
  3 N       -1.1350     3.2580     1.2910 N.am  1 <1>  -0.7300 
  4 C        0.6330     2.5360    -0.3000 C.3   1 <1>   0.1810 
  5 C       -1.1850     4.6040     0.6710 C.3   1 <1>   0.3640 
  6 O        0.8350     3.9140    -0.5340 O.3   1 <1>  -0.5600 
  7 C       -2.6470     4.9780     0.4470 C.ar  1 <1>  -0.1440 
  8 C       -0.3660     4.6710    -0.6430 C.3   1 <1>   0.2610 
  9 C       -3.0930     6.2410     0.8070 C.ar  1 <1>  -0.1500 
 10 C       -3.5470     4.0860    -0.1210 C.ar  1 <1>  -0.1500 
 11 C       -0.0510     6.1330    -0.9700 C.2   1 <1>   0.5690 
 12 C       -4.4100     6.6120     0.6020 C.ar  1 <1>   0.0830 
 13 C       -4.8700     4.4450    -0.3200 C.ar  1 <1>  -0.1500 
 14 O       -0.8790     6.8110    -1.5290 O.2   1 <1>  -0.5700 
 15 N        1.1570     6.6410    -0.6140 N.am  1 <1>  -0.7300 
 16 O       -4.7660     7.8660     0.9720 O.3   1 <1>  -0.3630 
 17 C       -5.3210     5.7110     0.0420 C.ar  1 <1>   0.0830 
 18 C        1.6020     8.0270    -0.8200 C.3   1 <1>   0.2350 
 19 C       -5.0210     8.7700    -0.0790 C.3   1 <1>   0.0400 
 20 O       -6.6160     6.1060    -0.1210 O.3   1 <1>  -0.3630 
 21 C        2.3880     8.4570     0.4170 C.3   1 <1>  -0.1950 
 22 C       -7.6100     5.2120    -0.5680 C.3   1 <1>   0.0400 
 23 C        3.4940     9.4600     0.3120 C.3   1 <1>  -0.2000 
 24 C        3.8050     8.0240     0.6280 C.3   1 <1>  -0.2000 
 25 H       -1.7820     3.0740     2.0600 H     1 <1>   0.3700 
 26 H        0.2310     2.0930    -1.1930 H     1 <1>   0.0800 
 27 H        1.5900     2.0940    -0.0930 H     1 <1>   0.0800 
 28 H       -0.7540     5.3010     1.3700 H     1 <1>   0.0800 
 29 H       -0.9420     4.2640    -1.4530 H     1 <1>   0.0800 
 30 H       -2.4250     6.9610     1.2440 H     1 <1>   0.1500 
 31 H       -3.2260     3.1000    -0.4110 H     1 <1>   0.1500 
 32 H       -5.5320     3.7230    -0.7590 H     1 <1>   0.1500 
 33 H        1.8610     5.9970    -0.2430 H     1 <1>   0.3700 
 34 H        2.2260     8.0700    -1.6960 H     1 <1>   0.0800 
 35 H        0.7540     8.6760    -0.9680 H     1 <1>   0.0800 
 36 H       -5.1680     9.7460     0.3460 H     1 <1>   0.0800 
 37 H       -5.9060     8.4620    -0.6040 H     1 <1>   0.0800 
 38 H       -4.1740     8.7790    -0.7430 H     1 <1>   0.0800 
 39 H        1.7550     8.5360     1.2840 H     1 <1>   0.1000 
 40 H       -8.5500     5.7340    -0.5710 H     1 <1>   0.0800 
 41 H       -7.6580     4.3770     0.1090 H     1 <1>   0.0800 
 42 H       -7.3680     4.8910    -1.5650 H     1 <1>   0.0800 
 43 H        3.7720     9.8430    -0.6550 H     1 <1>   0.1000 
 44 H        3.6020    10.1940     1.0910 H     1 <1>   0.1000 
 45 H        4.1260     7.7710     1.6240 H     1 <1>   0.1000 
 46 H        4.2940     7.4290    -0.1250 H     1 <1>   0.1000 
@<TRIPOS>BOND
  1   1   2  2   
  2   2   3  am  
  3   2   4  1   
  4   3   5  1   
  5   3  25  1   
  6   4   6  1   
  7   4  26  1   
  8   4  27  1   
  9   5   7  1   
 10   5   8  1   
 11   5  28  1   
 12   6   8  1   
 13   7   9  ar  
 14   7  10  ar  
 15   8  11  1   
 16   8  29  1   
 17   9  12  ar  
 18   9  30  1   
 19  10  13  ar  
 20  10  31  1   
 21  11  14  2   
 22  11  15  am  
 23  12  16  1   
 24  12  17  ar  
 25  13  17  ar  
 26  13  32  1   
 27  15  18  1   
 28  15  33  1   
 29  16  19  1   
 30  17  20  1   
 31  18  21  1   
 32  18  34  1   
 33  18  35  1   
 34  19  36  1   
 35  19  37  1   
 36  19  38  1   
 37  20  22  1   
 38  21  23  1   
 39  21  24  1   
 40  21  39  1   
 41  22  40  1   
 42  22  41  1   
 43  22  42  1   
 44  23  24  1   
 45  23  43  1   
 46  23  44  1   
 47  24  45  1   
 48  24  46  1   
@<TRIPOS>SUBSTRUCTURE
  1 ****   5 GROUP 4 **** **** 0

# MOE 2024.06 (io_trps.svl 2023.06)
