@<TRIPOS>MOLECULE
NONAME
37 38 1 0 0 
SMALL
USER_CHARGES


@<TRIPOS>ATOM
  1 O       -2.4400     3.9280     1.9790 O.co2 1 <1>  -0.9000 
  2 C       -1.8970     2.9860     1.4010 C.2   1 <1>   0.9060 
  3 O       -1.8260     1.8420     1.8480 O.co2 1 <1>  -0.9000 
  4 C       -1.1990     3.2900     0.1020 C.3   1 <1>  -0.2660 
  5 C        0.1320     3.9970     0.3890 C.3   1 <1>  -0.1600 
  6 C        0.7210     4.5800    -0.8830 C.3   1 <1>   0.3430 
  7 N        1.8600     5.4530    -0.5100 N.4   1 <1>  -0.9590 
  8 C        2.0570     6.5460    -1.4960 C.3   1 <1>   0.4860 
  9 C        3.1090     4.6720    -0.2530 C.3   1 <1>   0.2630 
 10 C        2.9350     7.6060    -0.8620 C.ar  1 <1>  -0.1440 
 11 C        2.4250     8.4260     0.1750 C.ar  1 <1>   0.0000 
 12 C        4.2280     7.7570    -1.2970 C.ar  1 <1>  -0.1500 
 13 C        3.2780     9.3700     0.7750 C.ar  1 <1>   0.0000 
 14 C        1.1090     8.3940     0.6860 C.ar  1 <1>  -0.1500 
 15 C        5.0660     8.7080    -0.7100 C.ar  1 <1>  -0.1500 
 16 C        2.7670    10.1610     1.8280 C.ar  1 <1>   0.1600 
 17 C        4.6000     9.4930     0.3060 C.ar  1 <1>  -0.1500 
 18 C        0.7360     9.2150     1.7110 C.ar  1 <1>   0.1600 
 19 N        1.5580    10.1010     2.2960 N.ar  1 <1>  -0.6200 
 20 H       -1.8580     3.9170    -0.4680 H     1 <1>   0.0800 
 21 H       -1.0460     2.3680    -0.4280 H     1 <1>   0.0800 
 22 H        0.8040     3.2900     0.8440 H     1 <1>   0.0800 
 23 H       -0.0630     4.7890     1.0930 H     1 <1>   0.0800 
 24 H       -0.0440     5.1610    -1.3730 H     1 <1>   0.0800 
 25 H        1.0350     3.7920    -1.5490 H     1 <1>   0.0800 
 26 H        1.6040     5.9120     0.3780 H     1 <1>   0.4500 
 27 H        1.1090     6.9860    -1.7610 H     1 <1>   0.0800 
 28 H        2.5190     6.1630    -2.3910 H     1 <1>   0.0800 
 29 H        3.4300     4.1690    -1.1500 H     1 <1>   0.0800 
 30 H        2.9360     3.9340     0.5140 H     1 <1>   0.0800 
 31 H        3.8980     5.3290     0.0790 H     1 <1>   0.0800 
 32 H        4.6340     7.1560    -2.0940 H     1 <1>   0.1500 
 33 H        0.3740     7.7290     0.2740 H     1 <1>   0.1500 
 34 H        6.0780     8.8140    -1.0670 H     1 <1>   0.1500 
 35 H        3.4390    10.8720     2.2780 H     1 <1>   0.1500 
 36 H        5.2440    10.2260     0.7630 H     1 <1>   0.1500 
 37 H       -0.2700     9.1810     2.0990 H     1 <1>   0.1500 
@<TRIPOS>BOND
  1   1   2  ar  
  2   2   3  ar  
  3   2   4  1   
  4   4   5  1   
  5   4  20  1   
  6   4  21  1   
  7   5   6  1   
  8   5  22  1   
  9   5  23  1   
 10   6   7  1   
 11   6  24  1   
 12   6  25  1   
 13   7   8  1   
 14   7   9  1   
 15   7  26  1   
 16   8  10  1   
 17   8  27  1   
 18   8  28  1   
 19   9  29  1   
 20   9  30  1   
 21   9  31  1   
 22  10  11  ar  
 23  10  12  ar  
 24  11  13  ar  
 25  11  14  ar  
 26  12  15  ar  
 27  12  32  1   
 28  13  16  ar  
 29  13  17  ar  
 30  14  18  ar  
 31  14  33  1   
 32  15  17  ar  
 33  15  34  1   
 34  16  19  ar  
 35  16  35  1   
 36  17  36  1   
 37  18  19  ar  
 38  18  37  1   
@<TRIPOS>SUBSTRUCTURE
  1 ****   7 GROUP 4 **** **** 0

# MOE 2024.06 (io_trps.svl 2023.06)
