@<TRIPOS>MOLECULE
NONAME
40 42 1 0 0 
SMALL
USER_CHARGES


@<TRIPOS>ATOM
  1 F        3.1570    -3.7970     1.1820 F     1 <1>  -0.3400 
  2 C        3.0250    -2.6580     0.5110 C.3   1 <1>   1.1640 
  3 F        4.0360    -2.6150    -0.3490 F     1 <1>  -0.3400 
  4 F        3.2380    -1.6830     1.3840 F     1 <1>  -0.3400 
  5 C        1.6680    -2.5190    -0.1860 C.ar  1 <1>  -0.1440 
  6 C        0.6000    -3.3590     0.0670 C.ar  1 <1>  -0.1500 
  7 C        1.4340    -1.5200    -1.1190 C.ar  1 <1>  -0.1500 
  8 C       -0.6160    -3.1950    -0.5940 C.ar  1 <1>   0.4100 
  9 C        0.1940    -1.4230    -1.7200 C.ar  1 <1>   0.1600 
 10 N       -0.8240    -2.2280    -1.4800 N.ar  1 <1>  -0.6200 
 11 N       -1.6710    -4.0550    -0.3280 N.pl3 1 <1>  -0.8380 
 12 C       -2.9920    -3.8470    -0.9930 C.3   1 <1>   0.2090 
 13 C       -1.4280    -5.5230    -0.2190 C.3   1 <1>   0.2090 
 14 C       -3.7650    -5.1340    -0.7180 C.3   1 <1>   0.2000 
 15 C       -2.6750    -6.2030    -0.7960 C.3   1 <1>  -0.0800 
 16 O       -4.2550    -5.0660     0.5780 O.3   1 <1>  -0.6800 
 17 C       -3.0120    -7.5510    -0.1290 C.3   1 <1>   0.0210 
 18 C       -1.8340    -8.5090    -0.1670 C.2   1 <1>   0.1080 
 19 N       -1.0860    -8.6830    -1.2130 N.2   1 <1>  -0.7070 
 20 C       -1.4250    -9.2970     0.9040 C.2   1 <1>  -0.1500 
 21 N       -0.1740    -9.5970    -0.8340 N.pl3 1 <1>   0.3000 
 22 C       -0.3570    -9.9830     0.4460 C.2   1 <1>  -0.3320 
 23 C        0.5110   -11.0010     1.1620 C.3   1 <1>  -0.0600 
 24 H        0.6840    -4.1520     0.7850 H     1 <1>   0.1500 
 25 H        2.2070    -0.8180    -1.3790 H     1 <1>   0.1500 
 26 H        0.0290    -0.6390    -2.4400 H     1 <1>   0.1500 
 27 H       -3.4970    -2.9800    -0.6040 H     1 <1>   0.0800 
 28 H       -2.8470    -3.7310    -2.0530 H     1 <1>   0.0800 
 29 H       -0.5490    -5.8180    -0.7690 H     1 <1>   0.0800 
 30 H       -1.3030    -5.7820     0.8180 H     1 <1>   0.0800 
 31 H       -4.5840    -5.2990    -1.3960 H     1 <1>   0.0800 
 32 H       -2.4750    -6.3900    -1.8360 H     1 <1>   0.0800 
 33 H       -3.5570    -4.6490     1.1270 H     1 <1>   0.4000 
 34 H       -3.8410    -8.0040    -0.6400 H     1 <1>   0.0800 
 35 H       -3.2970    -7.4010     0.8970 H     1 <1>   0.0800 
 36 H       -1.8830    -9.3320     1.8770 H     1 <1>   0.1500 
 37 H        0.5560    -9.9370    -1.4710 H     1 <1>   0.2700 
 38 H        0.1610   -11.1430     2.1690 H     1 <1>   0.0800 
 39 H        1.5310   -10.6600     1.2000 H     1 <1>   0.0800 
 40 H        0.4750   -11.9460     0.6510 H     1 <1>   0.0800 
@<TRIPOS>BOND
  1   1   2  1   
  2   2   3  1   
  3   2   4  1   
  4   2   5  1   
  5   5   6  ar  
  6   5   7  ar  
  7   6   8  ar  
  8   6  24  1   
  9   7   9  ar  
 10   7  25  1   
 11   8  10  ar  
 12   8  11  1   
 13   9  10  ar  
 14   9  26  1   
 15  11  12  1   
 16  11  13  1   
 17  12  14  1   
 18  12  27  1   
 19  12  28  1   
 20  13  15  1   
 21  13  29  1   
 22  13  30  1   
 23  14  15  1   
 24  14  16  1   
 25  14  31  1   
 26  15  17  1   
 27  15  32  1   
 28  16  33  1   
 29  17  18  1   
 30  17  34  1   
 31  17  35  1   
 32  18  19  2   
 33  18  20  1   
 34  19  21  1   
 35  20  22  2   
 36  20  36  1   
 37  21  22  1   
 38  21  37  1   
 39  22  23  1   
 40  23  38  1   
 41  23  39  1   
 42  23  40  1   
@<TRIPOS>SUBSTRUCTURE
  1 ****  13 GROUP 4 **** **** 0

# MOE 2024.06 (io_trps.svl 2023.06)
