@<TRIPOS>MOLECULE
NONAME
45 46 1 0 0 
SMALL
USER_CHARGES


@<TRIPOS>ATOM
  1 S       -0.1020     0.0860     0.4460 S.o2  1 <1>   1.3330 
  2 O       -0.8000     1.3510     0.4190 O.2   1 <1>  -0.6500 
  3 O        0.0370    -0.6240     1.6970 O.2   1 <1>  -0.6500 
  4 N       -0.8520    -0.9600    -0.6610 N.am  1 <1>  -0.8490 
  5 C        1.5130     0.3390    -0.2930 C.3   1 <1>  -0.0550 
  6 C       -0.5280    -2.3740    -0.4380 C.3   1 <1>   0.1160 
  7 C       -2.3070    -0.7820    -0.6960 C.3   1 <1>   0.1160 
  8 C        2.3980     1.3360     0.4810 C.3   1 <1>  -0.0800 
  9 C        3.6460     1.6850    -0.3090 C.3   1 <1>   0.2200 
 10 C        2.9920     0.7140     1.7500 C.3   1 <1>   0.1200 
 11 N        4.1670     2.9890     0.1590 N.am  1 <1>  -0.7300 
 12 C        4.6030     0.5720     0.1010 C.3   1 <1>   0.1200 
 13 O        4.2430     0.2000     1.3990 O.3   1 <1>  -0.5600 
 14 C        4.2800     4.1150    -0.6030 C.2   1 <1>   0.5440 
 15 O        3.9390     4.0650    -1.7690 O.2   1 <1>  -0.5700 
 16 C        4.7980     5.3360    -0.0140 C.ar  1 <1>   0.0860 
 17 C        5.8950     6.0380    -0.5370 C.ar  1 <1>  -0.1440 
 18 C        4.1770     5.8360     1.1330 C.ar  1 <1>  -0.1500 
 19 C        6.3110     7.2110     0.0870 C.ar  1 <1>   0.0820 
 20 C        6.6240     5.5170    -1.7790 C.3   1 <1>  -0.0970 
 21 C        4.6120     6.9920     1.7530 C.ar  1 <1>  -0.1500 
 22 O        7.3300     7.9350    -0.4000 O.3   1 <1>  -0.5330 
 23 C        5.6830     7.6830     1.2250 C.ar  1 <1>  -0.1500 
 24 H        2.0190    -0.6030    -0.3780 H     1 <1>   0.0800 
 25 H        1.3610     0.7190    -1.2850 H     1 <1>   0.0800 
 26 H       -0.9530    -2.9780    -1.2210 H     1 <1>   0.0800 
 27 H       -0.9180    -2.7050     0.5110 H     1 <1>   0.0800 
 28 H        0.5390    -2.5160    -0.4410 H     1 <1>   0.0800 
 29 H       -2.7480    -1.4490    -1.4170 H     1 <1>   0.0800 
 30 H       -2.5490     0.2280    -0.9820 H     1 <1>   0.0800 
 31 H       -2.7320    -0.9780     0.2750 H     1 <1>   0.0800 
 32 H        1.8190     2.2170     0.7040 H     1 <1>   0.0800 
 33 H        3.4830     1.7040    -1.3740 H     1 <1>   0.0800 
 34 H        2.3960    -0.0790     2.1660 H     1 <1>   0.0800 
 35 H        3.1510     1.4680     2.5020 H     1 <1>   0.0800 
 36 H        4.5360     2.9870     1.1120 H     1 <1>   0.3700 
 37 H        5.6320     0.8840     0.0850 H     1 <1>   0.0800 
 38 H        4.4750    -0.2900    -0.5300 H     1 <1>   0.0800 
 39 H        3.3310     5.3100     1.5410 H     1 <1>   0.1500 
 40 H        6.5890     4.4440    -1.8270 H     1 <1>   0.0800 
 41 H        7.6620     5.7930    -1.7770 H     1 <1>   0.0800 
 42 H        6.1550     5.9100    -2.6640 H     1 <1>   0.0800 
 43 H        4.1170     7.3580     2.6360 H     1 <1>   0.1500 
 44 H        7.6610     7.5880    -1.2460 H     1 <1>   0.4500 
 45 H        6.0340     8.5890     1.6870 H     1 <1>   0.1500 
@<TRIPOS>BOND
  1   1   2  2   
  2   1   3  2   
  3   1   4  am  
  4   1   5  1   
  5   4   6  1   
  6   4   7  1   
  7   5   8  1   
  8   5  24  1   
  9   5  25  1   
 10   6  26  1   
 11   6  27  1   
 12   6  28  1   
 13   7  29  1   
 14   7  30  1   
 15   7  31  1   
 16   8   9  1   
 17   8  10  1   
 18   8  32  1   
 19   9  11  1   
 20   9  12  1   
 21   9  33  1   
 22  10  13  1   
 23  10  34  1   
 24  10  35  1   
 25  11  14  am  
 26  11  36  1   
 27  12  13  1   
 28  12  37  1   
 29  12  38  1   
 30  14  15  2   
 31  14  16  1   
 32  16  17  ar  
 33  16  18  ar  
 34  17  19  ar  
 35  17  20  1   
 36  18  21  ar  
 37  18  39  1   
 38  19  22  1   
 39  19  23  ar  
 40  20  40  1   
 41  20  41  1   
 42  20  42  1   
 43  21  23  ar  
 44  21  43  1   
 45  22  44  1   
 46  23  45  1   
@<TRIPOS>SUBSTRUCTURE
  1 ****  11 GROUP 4 **** **** 0

# MOE 2024.06 (io_trps.svl 2023.06)
