@<TRIPOS>MOLECULE
NONAME
60 63 1 0 0 
SMALL
USER_CHARGES


@<TRIPOS>ATOM
  1 O        0.0220     0.5230     0.6640 O.3   1 <1>  -0.3630 
  2 C       -1.1120    -0.0160     0.1450 C.ar  1 <1>   0.0820 
  3 C        0.1870     1.9210     0.7530 C.3   1 <1>   0.1200 
  4 C       -2.1710     0.7370    -0.3570 C.ar  1 <1>  -0.1500 
  5 C       -1.1920    -1.3990     0.1270 C.ar  1 <1>  -0.1500 
  6 C        1.5530     2.2240     1.3880 C.3   1 <1>  -0.0800 
  7 C       -3.2890     0.1000    -0.8680 C.ar  1 <1>  -0.1500 
  8 C       -2.3100    -2.0360    -0.3840 C.ar  1 <1>  -0.1500 
  9 C        1.7590     3.7440     1.5210 C.3   1 <1>  -0.1600 
 10 C        2.7100     1.5970     0.5860 C.3   1 <1>  -0.1600 
 11 C       -3.3680    -1.2840    -0.8860 C.ar  1 <1>   0.0820 
 12 C        3.1470     4.0850     2.0710 C.3   1 <1>   0.2090 
 13 C        4.0710     1.9850     1.1680 C.3   1 <1>   0.2090 
 14 O       -4.5020    -1.8230    -1.4050 O.3   1 <1>  -0.3630 
 15 N        4.1860     3.4760     1.1770 N.pl3 1 <1>  -0.8380 
 16 C       -4.6790    -3.2210    -1.4680 C.3   1 <1>   0.0400 
 17 C        5.0520     4.2450     0.4590 C.ar  1 <1>   0.7710 
 18 N        5.0220     5.5630     0.5910 N.ar  1 <1>  -0.6200 
 19 N        5.9180     3.6470    -0.3780 N.ar  1 <1>  -0.1790 
 20 C        5.8710     6.2980    -0.1010 C.ar  1 <1>   0.4100 
 21 C        6.7930     4.3580    -1.1270 C.ar  1 <1>   0.2110 
 22 N        5.8350     7.6450     0.0790 N.pl3 1 <1>  -0.8380 
 23 C        6.7790     5.7040    -0.9990 C.ar  1 <1>  -0.1500 
 24 C        7.0210     8.5550    -0.0540 C.3   1 <1>   0.2090 
 25 C        4.6060     8.3630     0.5360 C.3   1 <1>   0.2090 
 26 C        6.7150     9.6890    -1.0470 C.3   1 <1>   0.2000 
 27 C        4.2730     9.4900    -0.4510 C.3   1 <1>  -0.1600 
 28 O        7.7760    10.5770    -1.0810 O.3   1 <1>  -0.6800 
 29 C        5.4510    10.4600    -0.6540 C.3   1 <1>  -0.1600 
 30 H       -0.6080     2.3160     1.3610 H     1 <1>   0.0800 
 31 H        0.1310     2.3310    -0.2410 H     1 <1>   0.0800 
 32 H       -2.1470     1.8090    -0.3610 H     1 <1>   0.1500 
 33 H       -0.3720    -1.9740     0.5170 H     1 <1>   0.1500 
 34 H        1.5510     1.8010     2.3800 H     1 <1>   0.0800 
 35 H       -4.1110     0.6720    -1.2580 H     1 <1>   0.1500 
 36 H       -2.3370    -3.1090    -0.3810 H     1 <1>   0.1500 
 37 H        1.0140     4.1520     2.1810 H     1 <1>   0.0800 
 38 H        1.6430     4.2210     0.5630 H     1 <1>   0.0800 
 39 H        2.6560     1.9110    -0.4420 H     1 <1>   0.0800 
 40 H        2.6180     0.5250     0.6040 H     1 <1>   0.0800 
 41 H        3.2530     3.6840     3.0660 H     1 <1>   0.0800 
 42 H        3.2450     5.1550     2.1460 H     1 <1>   0.0800 
 43 H        4.8520     1.5170     0.5980 H     1 <1>   0.0800 
 44 H        4.1430     1.6180     2.1790 H     1 <1>   0.0800 
 45 H       -5.6380    -3.4160    -1.9120 H     1 <1>   0.0800 
 46 H       -4.6490    -3.6220    -0.4710 H     1 <1>   0.0800 
 47 H       -3.9010    -3.6430    -2.0790 H     1 <1>   0.0800 
 48 H        5.8560     2.6380    -0.4210 H     1 <1>   0.4570 
 49 H        7.4610     3.8400    -1.7970 H     1 <1>   0.1500 
 50 H        7.4330     6.3270    -1.5790 H     1 <1>   0.1500 
 51 H        7.8940     8.0180    -0.3760 H     1 <1>   0.0800 
 52 H        7.2310     8.9790     0.9130 H     1 <1>   0.0800 
 53 H        4.7780     8.7700     1.5180 H     1 <1>   0.0800 
 54 H        3.7660     7.6930     0.5960 H     1 <1>   0.0800 
 55 H        6.6100     9.2740    -2.0350 H     1 <1>   0.0800 
 56 H        3.4190    10.0350    -0.0890 H     1 <1>   0.0800 
 57 H        4.0010     9.0500    -1.3950 H     1 <1>   0.0800 
 58 H        7.7730    11.1440    -0.2870 H     1 <1>   0.4000 
 59 H        5.2040    11.1670    -1.4260 H     1 <1>   0.0800 
 60 H        5.6200    10.9930     0.2650 H     1 <1>   0.0800 
@<TRIPOS>BOND
  1   1   2  1   
  2   1   3  1   
  3   2   4  ar  
  4   2   5  ar  
  5   3   6  1   
  6   3  30  1   
  7   3  31  1   
  8   4   7  ar  
  9   4  32  1   
 10   5   8  ar  
 11   5  33  1   
 12   6   9  1   
 13   6  10  1   
 14   6  34  1   
 15   7  11  ar  
 16   7  35  1   
 17   8  11  ar  
 18   8  36  1   
 19   9  12  1   
 20   9  37  1   
 21   9  38  1   
 22  10  13  1   
 23  10  39  1   
 24  10  40  1   
 25  11  14  1   
 26  12  15  1   
 27  12  41  1   
 28  12  42  1   
 29  13  15  1   
 30  13  43  1   
 31  13  44  1   
 32  14  16  1   
 33  15  17  1   
 34  16  45  1   
 35  16  46  1   
 36  16  47  1   
 37  17  18  ar  
 38  17  19  ar  
 39  18  20  ar  
 40  19  21  ar  
 41  19  48  1   
 42  20  22  1   
 43  20  23  ar  
 44  21  23  ar  
 45  21  49  1   
 46  22  24  1   
 47  22  25  1   
 48  23  50  1   
 49  24  26  1   
 50  24  51  1   
 51  24  52  1   
 52  25  27  1   
 53  25  53  1   
 54  25  54  1   
 55  26  28  1   
 56  26  29  1   
 57  26  55  1   
 58  27  29  1   
 59  27  56  1   
 60  27  57  1   
 61  28  58  1   
 62  29  59  1   
 63  29  60  1   
@<TRIPOS>SUBSTRUCTURE
  1 ****   9 GROUP 4 **** **** 0

# MOE 2024.06 (io_trps.svl 2023.06)
