@<TRIPOS>MOLECULE
NONAME
47 50 1 0 0 
SMALL
USER_CHARGES


@<TRIPOS>ATOM
  1 O       -3.7300     3.8060     2.2120 O.2   1 <1>  -0.5700 
  2 C       -3.4420     3.2430     1.1860 C.2   1 <1>   0.5690 
  3 N       -4.4170     2.6900     0.3900 N.am  1 <1>  -0.6600 
  4 C       -1.9690     3.0180     0.8920 C.3   1 <1>   0.1570 
  5 C       -5.5710     2.0060     1.0440 C.3   1 <1>   0.1400 
  6 C       -4.3000     2.3870    -1.0730 C.3   1 <1>   0.1400 
  7 N       -1.7410     1.5590     0.9730 N.pl3 1 <1>   0.0480 
  8 C       -5.4450     0.4600     0.9300 C.3   1 <1>   0.4230 
  9 C       -4.6960     0.9280    -1.4160 C.3   1 <1>   0.3430 
 10 C       -1.4020     0.6710     0.0030 C.2   1 <1>   0.0060 
 11 C       -2.0810     0.7900     2.0280 C.2   1 <1>  -0.3020 
 12 N       -4.5610     0.0140    -0.2320 N.4   1 <1>  -0.9590 
 13 C       -6.8620    -0.1520     0.8590 C.3   1 <1>   0.1200 
 14 N       -1.5730    -0.5610     0.3550 N.2   1 <1>  -0.5650 
 15 C       -0.8530     1.0480    -1.3620 C.3   1 <1>  -0.0600 
 16 C       -1.9570    -0.4940     1.6410 C.2   1 <1>   0.0770 
 17 C       -4.6920    -1.4570    -0.5260 C.3   1 <1>   0.5180 
 18 O       -6.8040    -1.5310     0.6630 O.3   1 <1>  -0.5600 
 19 C       -3.9400    -1.8140    -1.8280 C.3   1 <1>  -0.1950 
 20 C       -6.1690    -1.9160    -0.5220 C.3   1 <1>   0.1200 
 21 C       -4.5210    -1.7310    -3.2110 C.3   1 <1>  -0.2000 
 22 C       -4.2000    -3.0690    -2.6080 C.3   1 <1>  -0.2000 
 23 H       -1.3700     3.5090     1.6370 H     1 <1>   0.0800 
 24 H       -1.7090     3.3950    -0.0770 H     1 <1>   0.0800 
 25 H       -5.6370     2.2780     2.0850 H     1 <1>   0.0800 
 26 H       -6.4780     2.3460     0.5750 H     1 <1>   0.0800 
 27 H       -4.9430     3.0560    -1.6200 H     1 <1>   0.0800 
 28 H       -3.3000     2.5770    -1.4120 H     1 <1>   0.0800 
 29 H       -4.9960     0.1060     1.8440 H     1 <1>   0.0800 
 30 H       -4.0730     0.5890    -2.2270 H     1 <1>   0.0800 
 31 H       -5.7160     0.9130    -1.7630 H     1 <1>   0.0800 
 32 H       -2.3770     1.1940     2.9830 H     1 <1>   0.1500 
 33 H       -3.5780     0.1070     0.0960 H     1 <1>   0.4500 
 34 H       -7.4360     0.2820     0.0580 H     1 <1>   0.0800 
 35 H       -7.3850     0.0210     1.7840 H     1 <1>   0.0800 
 36 H       -0.2830     0.2230    -1.7530 H     1 <1>   0.0800 
 37 H       -0.1950     1.8940    -1.2840 H     1 <1>   0.0800 
 38 H       -1.6410     1.2660    -2.0550 H     1 <1>   0.0800 
 39 H       -2.1200    -1.3840     2.2300 H     1 <1>   0.1500 
 40 H       -4.2060    -1.9970     0.2700 H     1 <1>   0.0800 
 41 H       -2.8940    -1.5860    -1.7240 H     1 <1>   0.1000 
 42 H       -6.2190    -2.9890    -0.5730 H     1 <1>   0.0800 
 43 H       -6.7120    -1.5080    -1.3550 H     1 <1>   0.0800 
 44 H       -5.5610    -1.5080    -3.3780 H     1 <1>   0.1000 
 45 H       -3.9010    -1.3920    -4.0250 H     1 <1>   0.1000 
 46 H       -3.3560    -3.6150    -2.9970 H     1 <1>   0.1000 
 47 H       -5.0210    -3.7230    -2.3740 H     1 <1>   0.1000 
@<TRIPOS>BOND
  1   1   2  2   
  2   2   3  am  
  3   2   4  1   
  4   3   5  1   
  5   3   6  1   
  6   4   7  1   
  7   4  23  1   
  8   4  24  1   
  9   5   8  1   
 10   5  25  1   
 11   5  26  1   
 12   6   9  1   
 13   6  27  1   
 14   6  28  1   
 15   7  10  1   
 16   7  11  1   
 17   8  12  1   
 18   8  13  1   
 19   8  29  1   
 20   9  12  1   
 21   9  30  1   
 22   9  31  1   
 23  10  14  2   
 24  10  15  1   
 25  11  16  2   
 26  11  32  1   
 27  12  17  1   
 28  12  33  1   
 29  13  18  1   
 30  13  34  1   
 31  13  35  1   
 32  14  16  1   
 33  15  36  1   
 34  15  37  1   
 35  15  38  1   
 36  16  39  1   
 37  17  19  1   
 38  17  20  1   
 39  17  40  1   
 40  18  20  1   
 41  19  21  1   
 42  19  22  1   
 43  19  41  1   
 44  20  42  1   
 45  20  43  1   
 46  21  22  1   
 47  21  44  1   
 48  21  45  1   
 49  22  46  1   
 50  22  47  1   
@<TRIPOS>SUBSTRUCTURE
  1 ****  12 GROUP 4 **** **** 0

# MOE 2024.06 (io_trps.svl 2023.06)
