@<TRIPOS>MOLECULE
NONAME
54 57 1 0 0 
SMALL
USER_CHARGES


@<TRIPOS>ATOM
  1 O       -0.1190     0.6940    -1.2700 O.2   1 <1>  -0.5700 
  2 C       -0.4350     1.6990    -0.6610 C.2   1 <1>   0.5440 
  3 N       -1.7070     1.7860    -0.1290 N.am  1 <1>  -0.6600 
  4 C        0.5250     2.7760    -0.5320 C.ar  1 <1>   0.0860 
  5 C       -2.2910     3.0450     0.4290 C.3   1 <1>   0.1400 
  6 C       -2.6600     0.6370    -0.2350 C.3   1 <1>   0.1400 
  7 C        1.0150     3.4330    -1.6600 C.ar  1 <1>  -0.1500 
  8 C        0.9910     3.1960     0.7140 C.ar  1 <1>  -0.1500 
  9 C       -3.4650     3.5450    -0.4410 C.3   1 <1>   0.1440 
 10 C       -4.1280     1.0880    -0.1410 C.3   1 <1>  -0.1600 
 11 C        1.9120     4.4780    -1.5470 C.ar  1 <1>  -0.1500 
 12 C        1.8900     4.2400     0.8360 C.ar  1 <1>  -0.1500 
 13 C       -4.2310     4.5660     0.3840 C.ar  1 <1>   0.1670 
 14 C       -4.3600     2.3790    -0.9420 C.3   1 <1>  -0.1600 
 15 C       -2.9540     4.4090    -1.6240 C.3   1 <1>  -0.1600 
 16 C        2.3550     4.8930    -0.3020 C.ar  1 <1>   0.0830 
 17 N       -5.0520     4.2900     1.3740 N.ar  1 <1>  -0.6200 
 18 C       -3.9500     5.8410    -0.0090 C.ar  1 <1>  -0.1430 
 19 C       -2.9640     5.8720    -1.1490 C.3   1 <1>  -0.0170 
 20 O        3.2310     5.9230    -0.2760 O.3   1 <1>  -0.3620 
 21 C       -5.5960     5.3540     1.9480 C.ar  1 <1>   0.4770 
 22 C       -4.5690     6.8680     0.6580 C.ar  1 <1>   0.1600 
 23 C        3.8030     6.3820     0.9270 C.3   1 <1>   0.1200 
 24 N       -5.4040     6.6320     1.6490 N.ar  1 <1>  -0.6200 
 25 C       -6.5560     5.0820     3.0800 C.3   1 <1>  -0.0970 
 26 C        4.7650     7.5230     0.5950 C.3   1 <1>  -0.1600 
 27 C        5.4300     8.0800     1.8580 C.3   1 <1>  -0.2400 
 28 H       -1.5550     3.8220     0.5170 H     1 <1>   0.0800 
 29 H       -2.6510     2.8350     1.4220 H     1 <1>   0.0800 
 30 H       -2.4430    -0.0770     0.5400 H     1 <1>   0.0800 
 31 H       -2.5100     0.1490    -1.1840 H     1 <1>   0.0800 
 32 H        0.6840     3.1090    -2.6310 H     1 <1>   0.1500 
 33 H        0.6370     2.6890     1.5950 H     1 <1>   0.1500 
 34 H       -4.3920     1.2490     0.8910 H     1 <1>   0.0800 
 35 H       -4.7630     0.3050    -0.5150 H     1 <1>   0.0800 
 36 H        2.2810     4.9780    -2.4250 H     1 <1>   0.1500 
 37 H        2.2170     4.5290     1.8160 H     1 <1>   0.1500 
 38 H       -4.1310     2.1620    -1.9710 H     1 <1>   0.0800 
 39 H       -5.3980     2.6620    -0.8930 H     1 <1>   0.0800 
 40 H       -3.6420     4.3320    -2.4480 H     1 <1>   0.0800 
 41 H       -1.9820     4.1010    -1.9660 H     1 <1>   0.0800 
 42 H       -3.2770     6.5410    -1.9320 H     1 <1>   0.0800 
 43 H       -1.9940     6.1610    -0.7840 H     1 <1>   0.0800 
 44 H       -4.3810     7.8920     0.3830 H     1 <1>   0.1500 
 45 H        4.3290     5.5640     1.3880 H     1 <1>   0.0800 
 46 H        3.0110     6.7280     1.5700 H     1 <1>   0.0800 
 47 H       -6.4210     4.0840     3.4550 H     1 <1>   0.0800 
 48 H       -7.5630     5.1910     2.7240 H     1 <1>   0.0800 
 49 H       -6.3860     5.7810     3.8770 H     1 <1>   0.0800 
 50 H        4.2220     8.3110     0.1030 H     1 <1>   0.0800 
 51 H        5.5250     7.1590    -0.0750 H     1 <1>   0.0800 
 52 H        4.6890     8.4650     2.5370 H     1 <1>   0.0800 
 53 H        6.1010     8.8790     1.5970 H     1 <1>   0.0800 
 54 H        5.9940     7.3110     2.3580 H     1 <1>   0.0800 
@<TRIPOS>BOND
  1   1   2  2   
  2   2   3  am  
  3   2   4  1   
  4   3   5  1   
  5   3   6  1   
  6   4   7  ar  
  7   4   8  ar  
  8   5   9  1   
  9   5  28  1   
 10   5  29  1   
 11   6  10  1   
 12   6  30  1   
 13   6  31  1   
 14   7  11  ar  
 15   7  32  1   
 16   8  12  ar  
 17   8  33  1   
 18   9  13  1   
 19   9  14  1   
 20   9  15  1   
 21  10  14  1   
 22  10  34  1   
 23  10  35  1   
 24  11  16  ar  
 25  11  36  1   
 26  12  16  ar  
 27  12  37  1   
 28  13  17  ar  
 29  13  18  ar  
 30  14  38  1   
 31  14  39  1   
 32  15  19  1   
 33  15  40  1   
 34  15  41  1   
 35  16  20  1   
 36  17  21  ar  
 37  18  19  1   
 38  18  22  ar  
 39  19  42  1   
 40  19  43  1   
 41  20  23  1   
 42  21  24  ar  
 43  21  25  1   
 44  22  24  ar  
 45  22  44  1   
 46  23  26  1   
 47  23  45  1   
 48  23  46  1   
 49  25  47  1   
 50  25  48  1   
 51  25  49  1   
 52  26  27  1   
 53  26  50  1   
 54  26  51  1   
 55  27  52  1   
 56  27  53  1   
 57  27  54  1   
@<TRIPOS>SUBSTRUCTURE
  1 ****   5 GROUP 4 **** **** 0

# MOE 2024.06 (io_trps.svl 2023.06)
