@<TRIPOS>MOLECULE
NONAME
55 58 1 0 0 
SMALL
USER_CHARGES


@<TRIPOS>ATOM
  1 O       -0.1730     0.1170     0.7220 O.2   1 <1>  -0.5700 
  2 C       -0.1550     1.3300     0.6240 C.2   1 <1>   0.5440 
  3 N       -1.3510     2.0130     0.5500 N.am  1 <1>  -0.6600 
  4 C        1.1170     2.0010     0.5820 C.ar  1 <1>   0.0860 
  5 C       -1.4670     3.3880    -0.0270 C.3   1 <1>   0.1400 
  6 C       -2.6340     1.3210     0.8740 C.3   1 <1>   0.1400 
  7 C        1.3950     3.1400     1.3140 C.ar  1 <1>   0.1600 
  8 C        2.1630     1.5340    -0.1900 C.ar  1 <1>   0.1600 
  9 C       -2.8440     3.5930    -0.6600 C.3   1 <1>  -0.1600 
 10 C       -3.6590     2.3280     1.4010 C.3   1 <1>  -0.1600 
 11 N        2.5480     3.7660     1.2670 N.ar  1 <1>  -0.6200 
 12 N        3.3290     2.1310    -0.2600 N.ar  1 <1>  -0.6200 
 13 C       -3.9720     3.4580     0.3870 C.3   1 <1>   0.2800 
 14 C        3.4710     3.2300     0.4770 C.ar  1 <1>   0.7200 
 15 O       -3.9210     4.6590     1.1300 O.3   1 <1>  -0.5600 
 16 C       -5.3780     3.2440    -0.2600 C.3   1 <1>   0.2000 
 17 N        4.6390     3.9240     0.4480 N.pl3 1 <1>  -0.6000 
 18 C       -5.0430     5.4950     1.1770 C.3   1 <1>   0.1200 
 19 O       -5.4190     2.1170    -1.0900 O.3   1 <1>  -0.6800 
 20 C       -5.9430     4.5080    -0.9740 C.3   1 <1>   0.2800 
 21 C        5.8600     3.7200    -0.2080 C.ar  1 <1>   0.1000 
 22 C       -5.5050     5.7930    -0.2500 C.3   1 <1>  -0.1600 
 23 O       -7.3200     4.4310    -0.8810 O.3   1 <1>  -0.6800 
 24 C       -5.6510     4.6070    -2.4790 C.3   1 <1>  -0.2400 
 25 C        6.5990     4.8280    -0.6070 C.ar  1 <1>  -0.1500 
 26 C        6.3800     2.4540    -0.4570 C.ar  1 <1>  -0.1500 
 27 C        7.8170     4.6780    -1.2450 C.ar  1 <1>  -0.1500 
 28 C        7.5980     2.2990    -1.0960 C.ar  1 <1>  -0.1500 
 29 C        8.3190     3.4120    -1.4910 C.ar  1 <1>  -0.1500 
 30 H       -1.3300     4.1150     0.7560 H     1 <1>   0.0800 
 31 H       -0.7060     3.5370    -0.7740 H     1 <1>   0.0800 
 32 H       -3.0120     0.8390    -0.0120 H     1 <1>   0.0800 
 33 H       -2.4600     0.5620     1.6190 H     1 <1>   0.0800 
 34 H        0.6310     3.5390     1.9600 H     1 <1>   0.1500 
 35 H        2.0180     0.6350    -0.7670 H     1 <1>   0.1500 
 36 H       -2.9660     2.8660    -1.4430 H     1 <1>   0.0800 
 37 H       -2.8820     4.5650    -1.1130 H     1 <1>   0.0800 
 38 H       -3.2690     2.7460     2.3120 H     1 <1>   0.0800 
 39 H       -4.5550     1.7920     1.6530 H     1 <1>   0.0800 
 40 H       -6.0480     3.0220     0.5530 H     1 <1>   0.0800 
 41 H        4.5500     4.7880     0.9720 H     1 <1>   0.4000 
 42 H       -5.8140     5.0120     1.7540 H     1 <1>   0.0800 
 43 H       -4.7510     6.4020     1.6790 H     1 <1>   0.0800 
 44 H       -6.3300     2.0280    -1.4370 H     1 <1>   0.4000 
 45 H       -4.6760     6.2450    -0.7650 H     1 <1>   0.0800 
 46 H       -6.3010     6.5160    -0.2340 H     1 <1>   0.0800 
 47 H       -7.7240     5.1610    -1.3870 H     1 <1>   0.4000 
 48 H       -4.5930     4.6020    -2.6580 H     1 <1>   0.0800 
 49 H       -6.0510     5.5180    -2.8850 H     1 <1>   0.0800 
 50 H       -6.0770     3.7730    -3.0080 H     1 <1>   0.0800 
 51 H        6.2150     5.8140    -0.4230 H     1 <1>   0.1500 
 52 H        5.8330     1.5830    -0.1480 H     1 <1>   0.1500 
 53 H        8.3760     5.5460    -1.5510 H     1 <1>   0.1500 
 54 H        7.9830     1.3120    -1.2830 H     1 <1>   0.1500 
 55 H        9.2660     3.2930    -1.9880 H     1 <1>   0.1500 
@<TRIPOS>BOND
  1   1   2  2   
  2   2   3  am  
  3   2   4  1   
  4   3   5  1   
  5   3   6  1   
  6   4   7  ar  
  7   4   8  ar  
  8   5   9  1   
  9   5  30  1   
 10   5  31  1   
 11   6  10  1   
 12   6  32  1   
 13   6  33  1   
 14   7  11  ar  
 15   7  34  1   
 16   8  12  ar  
 17   8  35  1   
 18   9  13  1   
 19   9  36  1   
 20   9  37  1   
 21  10  13  1   
 22  10  38  1   
 23  10  39  1   
 24  11  14  ar  
 25  12  14  ar  
 26  13  15  1   
 27  13  16  1   
 28  14  17  1   
 29  15  18  1   
 30  16  19  1   
 31  16  20  1   
 32  16  40  1   
 33  17  21  1   
 34  17  41  1   
 35  18  22  1   
 36  18  42  1   
 37  18  43  1   
 38  19  44  1   
 39  20  22  1   
 40  20  23  1   
 41  20  24  1   
 42  21  25  ar  
 43  21  26  ar  
 44  22  45  1   
 45  22  46  1   
 46  23  47  1   
 47  24  48  1   
 48  24  49  1   
 49  24  50  1   
 50  25  27  ar  
 51  25  51  1   
 52  26  28  ar  
 53  26  52  1   
 54  27  29  ar  
 55  27  53  1   
 56  28  29  ar  
 57  28  54  1   
 58  29  55  1   
@<TRIPOS>SUBSTRUCTURE
  1 ****   5 GROUP 4 **** **** 0

# MOE 2024.06 (io_trps.svl 2023.06)
