@<TRIPOS>MOLECULE
NONAME
49 51 1 0 0 
SMALL
USER_CHARGES


@<TRIPOS>ATOM
  1 O       -0.0300     0.7150    -1.0400 O.2   1 <1>  -0.5700 
  2 C       -0.1580     1.8880    -0.7770 C.2   1 <1>   0.5690 
  3 N       -1.3580     2.5360    -0.9320 N.am  1 <1>  -0.6600 
  4 C        1.0560     2.6460    -0.2560 C.3   1 <1>  -0.0990 
  5 C       -1.6200     3.9710    -0.6300 C.3   1 <1>   0.1400 
  6 C       -2.5640     1.8190    -1.4380 C.3   1 <1>   0.1400 
  7 C        2.3130     1.7770    -0.1260 C.3   1 <1>   0.0210 
  8 C       -2.7090     4.0630     0.4410 C.3   1 <1>  -0.1600 
  9 C       -3.6760     1.8960    -0.3900 C.3   1 <1>  -0.1600 
 10 C        3.5540     2.4970     0.3990 C.2   1 <1>  -0.1810 
 11 C       -3.9920     3.3430     0.0010 C.3   1 <1>   0.4180 
 12 C        3.8400     3.7570     0.7910 C.2   1 <1>  -0.0400 
 13 C        4.7730     1.8360     0.5760 C.2   1 <1>   0.1080 
 14 O       -4.4960     3.9620    -1.1590 O.3   1 <1>  -0.5600 
 15 C       -5.0370     3.3580     1.1130 C.2   1 <1>  -0.2880 
 16 O        5.0960     3.7870     1.1500 O.3   1 <1>  -0.0190 
 17 C        3.0790     5.0650     0.9020 C.3   1 <1>  -0.0600 
 18 N        5.6730     2.6320     1.0250 N.2   1 <1>  -0.4100 
 19 C        5.0370     0.3730     0.2870 C.3   1 <1>  -0.0590 
 20 C       -5.2600     5.1240    -0.9930 C.3   1 <1>   0.1200 
 21 C       -6.2000     4.0100     1.0400 C.2   1 <1>  -0.2760 
 22 C       -6.5360     4.8250    -0.1950 C.3   1 <1>  -0.0220 
 23 C       -7.2630     3.9980     2.1240 C.3   1 <1>  -0.1020 
 24 H        0.8100     3.0410     0.7120 H     1 <1>   0.0800 
 25 H        1.2620     3.4500    -0.9360 H     1 <1>   0.0800 
 26 H       -1.9520     4.4620    -1.5300 H     1 <1>   0.0800 
 27 H       -0.7350     4.4720    -0.2860 H     1 <1>   0.0800 
 28 H       -2.3390     0.7880    -1.6500 H     1 <1>   0.0800 
 29 H       -2.8910     2.2820    -2.3540 H     1 <1>   0.0800 
 30 H        2.5450     1.3640    -1.0930 H     1 <1>   0.0800 
 31 H        2.0950     0.9550     0.5330 H     1 <1>   0.0800 
 32 H       -2.9220     5.0910     0.6660 H     1 <1>   0.0800 
 33 H       -2.3430     3.6090     1.3430 H     1 <1>   0.0800 
 34 H       -3.3640     1.3460     0.4790 H     1 <1>   0.0800 
 35 H       -4.5670     1.4310    -0.7680 H     1 <1>   0.0800 
 36 H       -4.7430     2.7760     1.9670 H     1 <1>   0.1500 
 37 H        2.0590     4.9730     0.5940 H     1 <1>   0.0800 
 38 H        3.5560     5.8060     0.2870 H     1 <1>   0.0800 
 39 H        3.0990     5.4030     1.9220 H     1 <1>   0.0800 
 40 H        4.4010    -0.2410     0.8980 H     1 <1>   0.0800 
 41 H        6.0620     0.1350     0.5070 H     1 <1>   0.0800 
 42 H        4.8470     0.1640    -0.7490 H     1 <1>   0.0800 
 43 H       -5.5110     5.4950    -1.9710 H     1 <1>   0.0800 
 44 H       -4.6630     5.8600    -0.4860 H     1 <1>   0.0800 
 45 H       -7.2320     4.2830    -0.8100 H     1 <1>   0.0800 
 46 H       -6.9900     5.7580     0.0860 H     1 <1>   0.0800 
 47 H       -8.1830     3.6000     1.7350 H     1 <1>   0.0800 
 48 H       -7.4390     4.9950     2.4850 H     1 <1>   0.0800 
 49 H       -6.9500     3.3860     2.9520 H     1 <1>   0.0800 
@<TRIPOS>BOND
  1   1   2  2   
  2   2   3  am  
  3   2   4  1   
  4   3   5  1   
  5   3   6  1   
  6   4   7  1   
  7   4  24  1   
  8   4  25  1   
  9   5   8  1   
 10   5  26  1   
 11   5  27  1   
 12   6   9  1   
 13   6  28  1   
 14   6  29  1   
 15   7  10  1   
 16   7  30  1   
 17   7  31  1   
 18   8  11  1   
 19   8  32  1   
 20   8  33  1   
 21   9  11  1   
 22   9  34  1   
 23   9  35  1   
 24  10  12  2   
 25  10  13  1   
 26  11  14  1   
 27  11  15  1   
 28  12  16  1   
 29  12  17  1   
 30  13  18  2   
 31  13  19  1   
 32  14  20  1   
 33  15  21  2   
 34  15  36  1   
 35  16  18  1   
 36  17  37  1   
 37  17  38  1   
 38  17  39  1   
 39  19  40  1   
 40  19  41  1   
 41  19  42  1   
 42  20  22  1   
 43  20  43  1   
 44  20  44  1   
 45  21  22  1   
 46  21  23  1   
 47  22  45  1   
 48  22  46  1   
 49  23  47  1   
 50  23  48  1   
 51  23  49  1   
@<TRIPOS>SUBSTRUCTURE
  1 ****   3 GROUP 4 **** **** 0

# MOE 2024.06 (io_trps.svl 2023.06)
