@<TRIPOS>MOLECULE
NONAME
48 50 1 0 0 
SMALL
USER_CHARGES


@<TRIPOS>ATOM
  1 O       -0.2540     3.0250    -2.5690 O.2   1 <1>  -0.5700 
  2 C       -1.0670     3.5180    -1.7930 C.2   1 <1>   0.6160 
  3 N       -0.7280     3.7650    -0.4660 N.am  1 <1>  -0.4690 
  4 C       -2.3730     3.8520    -2.2390 C.2   1 <1>  -0.1360 
  5 C       -1.6640     4.3410     0.3920 C.2   1 <1>  -0.0290 
  6 C        0.6570     3.4240    -0.0290 C.3   1 <1>   0.1400 
  7 C       -3.2830     4.4100    -1.4000 C.2   1 <1>  -0.1500 
  8 C       -2.9090     4.6570    -0.0590 C.2   1 <1>  -0.1500 
  9 C       -1.2930     4.6210     1.8420 C.3   1 <1>  -0.1020 
 10 C        1.5910     4.6020    -0.3120 C.3   1 <1>  -0.1600 
 11 C        3.0190     4.2890     0.1260 C.3   1 <1>   0.2090 
 12 N        3.8400     5.5060    -0.0300 N.pl3 1 <1>  -0.8690 
 13 C        3.8120     6.4640     0.9460 C.ar  1 <1>   0.4100 
 14 N        3.3600     7.6260     0.5280 N.ar  1 <1>  -0.6200 
 15 C        4.2120     6.2240     2.2690 C.ar  1 <1>   0.1600 
 16 C        3.2870     8.5570     1.4950 C.ar  1 <1>   0.3960 
 17 N        4.1550     7.1100     3.2410 N.ar  1 <1>  -0.6200 
 18 C        2.7800     9.9030     1.2170 C.2   1 <1>   0.5440 
 19 C        3.6790     8.2710     2.8080 C.ar  1 <1>   0.1600 
 20 O        2.2110    10.5130     2.1090 O.2   1 <1>  -0.5700 
 21 N        2.9220    10.5540     0.0050 N.am  1 <1>  -0.6600 
 22 C        2.3670    11.9010    -0.2520 C.3   1 <1>   0.1400 
 23 C        3.6640    10.0550    -1.1750 C.3   1 <1>   0.1400 
 24 C        2.5980    12.1440    -1.7390 C.3   1 <1>  -0.1600 
 25 C        3.7940    11.2650    -2.0920 C.3   1 <1>  -0.1600 
 26 H       -2.5930     3.6400    -3.2670 H     1 <1>   0.1500 
 27 H        0.9980     2.5520    -0.5610 H     1 <1>   0.0800 
 28 H        0.6680     3.1790     1.0170 H     1 <1>   0.0800 
 29 H       -4.2760     4.6700    -1.7220 H     1 <1>   0.1500 
 30 H       -3.6450     5.1030     0.5870 H     1 <1>   0.1500 
 31 H       -0.4410     5.2740     1.8940 H     1 <1>   0.0800 
 32 H       -1.0720     3.7020     2.3540 H     1 <1>   0.0800 
 33 H       -2.1070     5.0990     2.3570 H     1 <1>   0.0800 
 34 H        1.2350     5.4680     0.2170 H     1 <1>   0.0800 
 35 H        1.5850     4.8110    -1.3680 H     1 <1>   0.0800 
 36 H        3.4300     3.5000    -0.4830 H     1 <1>   0.0800 
 37 H        3.0310     3.9680     1.1550 H     1 <1>   0.0800 
 38 H        3.6760     5.9400    -0.9440 H     1 <1>   0.4000 
 39 H        4.5930     5.2480     2.5040 H     1 <1>   0.1500 
 40 H        3.5910     9.0550     3.5410 H     1 <1>   0.1500 
 41 H        2.9070    12.6200     0.3410 H     1 <1>   0.0800 
 42 H        1.3210    11.9380     0.0020 H     1 <1>   0.0800 
 43 H        3.0840     9.2840    -1.6530 H     1 <1>   0.0800 
 44 H        4.6280     9.6650    -0.8940 H     1 <1>   0.0800 
 45 H        2.7740    13.1840    -1.9500 H     1 <1>   0.0800 
 46 H        1.7300    11.8170    -2.2830 H     1 <1>   0.0800 
 47 H        3.8050    10.9810    -3.1290 H     1 <1>   0.0800 
 48 H        4.7090    11.7820    -1.8600 H     1 <1>   0.0800 
@<TRIPOS>BOND
  1   1   2  2   
  2   2   3  am  
  3   2   4  1   
  4   3   5  1   
  5   3   6  1   
  6   4   7  2   
  7   4  26  1   
  8   5   8  2   
  9   5   9  1   
 10   6  10  1   
 11   6  27  1   
 12   6  28  1   
 13   7   8  1   
 14   7  29  1   
 15   8  30  1   
 16   9  31  1   
 17   9  32  1   
 18   9  33  1   
 19  10  11  1   
 20  10  34  1   
 21  10  35  1   
 22  11  12  1   
 23  11  36  1   
 24  11  37  1   
 25  12  13  1   
 26  12  38  1   
 27  13  14  ar  
 28  13  15  ar  
 29  14  16  ar  
 30  15  17  ar  
 31  15  39  1   
 32  16  18  1   
 33  16  19  ar  
 34  17  19  ar  
 35  18  20  2   
 36  18  21  am  
 37  19  40  1   
 38  21  22  1   
 39  21  23  1   
 40  22  24  1   
 41  22  41  1   
 42  22  42  1   
 43  23  25  1   
 44  23  43  1   
 45  23  44  1   
 46  24  25  1   
 47  24  45  1   
 48  24  46  1   
 49  25  47  1   
 50  25  48  1   
@<TRIPOS>SUBSTRUCTURE
  1 ****  14 GROUP 4 **** **** 0

# MOE 2024.06 (io_trps.svl 2023.06)
