@<TRIPOS>MOLECULE
NONAME
47 48 1 0 0 
SMALL
USER_CHARGES


@<TRIPOS>ATOM
  1 O       -0.8910     1.2950     1.7590 O.co2 1 <1>  -0.9000 
  2 C       -0.9720     1.1680     0.5260 C.2   1 <1>   0.9060 
  3 O       -1.0380     0.0800    -0.0470 O.co2 1 <1>  -0.9000 
  4 C       -0.7990     2.4690    -0.2910 C.3   1 <1>   0.3170 
  5 N        0.1730     3.3650     0.4600 N.4   1 <1>  -0.9590 
  6 C       -2.1510     3.1730    -0.5430 C.3   1 <1>  -0.1600 
  7 C        0.0860     4.8460     0.2210 C.3   1 <1>   0.3430 
  8 C        1.5450     2.7870     0.3470 C.3   1 <1>   0.3430 
  9 C       -3.1560     2.2740    -1.2800 C.3   1 <1>  -0.1600 
 10 C        1.0370     5.6890     1.0880 C.3   1 <1>   0.2090 
 11 C        2.3410     3.0500     1.6260 C.3   1 <1>  -0.1600 
 12 C       -4.4460     3.0340    -1.5990 C.3   1 <1>  -0.2400 
 13 N        2.4570     5.3810     0.7560 N.pl3 1 <1>  -0.8380 
 14 C        3.1220     4.3660     1.6060 C.3   1 <1>   0.2090 
 15 C        3.2500     6.4510     0.3480 C.ar  1 <1>   0.1000 
 16 C        3.7430     6.5270    -0.9560 C.ar  1 <1>  -0.1430 
 17 C        3.5610     7.4670     1.2460 C.ar  1 <1>  -0.1500 
 18 C        4.5230     7.6070    -1.3360 C.ar  1 <1>  -0.1500 
 19 C        3.4370     5.4320    -1.9690 C.3   1 <1>  -0.0970 
 20 C        4.3390     8.5420     0.8620 C.ar  1 <1>  -0.1500 
 21 C        4.8210     8.6130    -0.4330 C.ar  1 <1>  -0.1500 
 22 H       -0.3750     2.1920    -1.2400 H     1 <1>   0.0800 
 23 H       -0.1130     3.1320     1.4360 H     1 <1>   0.4500 
 24 H       -1.9970     4.0450    -1.1500 H     1 <1>   0.0800 
 25 H       -2.5790     3.4640     0.4010 H     1 <1>   0.0800 
 26 H       -0.9190     5.1750     0.4170 H     1 <1>   0.0800 
 27 H        0.3050     5.0540    -0.8130 H     1 <1>   0.0800 
 28 H        2.0590     3.1940    -0.5080 H     1 <1>   0.0800 
 29 H        1.4670     1.7180     0.2210 H     1 <1>   0.0800 
 30 H       -3.4000     1.4150    -0.6750 H     1 <1>   0.0800 
 31 H       -2.7210     1.9120    -2.1970 H     1 <1>   0.0800 
 32 H        0.8450     5.5110     2.1320 H     1 <1>   0.0800 
 33 H        0.8450     6.7300     0.8900 H     1 <1>   0.0800 
 34 H        3.0540     2.2550     1.7470 H     1 <1>   0.0800 
 35 H        1.6920     3.0080     2.4820 H     1 <1>   0.0800 
 36 H       -4.9130     3.3800    -0.6930 H     1 <1>   0.0800 
 37 H       -5.1360     2.3820    -2.1060 H     1 <1>   0.0800 
 38 H       -4.2460     3.8780    -2.2340 H     1 <1>   0.0800 
 39 H        4.1070     4.1880     1.2040 H     1 <1>   0.0800 
 40 H        3.2410     4.7450     2.6070 H     1 <1>   0.0800 
 41 H        3.1910     7.4100     2.2520 H     1 <1>   0.1500 
 42 H        4.9070     7.6750    -2.3380 H     1 <1>   0.1500 
 43 H        2.3750     5.3440    -2.0990 H     1 <1>   0.0800 
 44 H        3.8260     4.4950    -1.6150 H     1 <1>   0.0800 
 45 H        3.8840     5.6500    -2.9220 H     1 <1>   0.0800 
 46 H        4.5730     9.3210     1.5660 H     1 <1>   0.1500 
 47 H        5.4270     9.4480    -0.7370 H     1 <1>   0.1500 
@<TRIPOS>BOND
  1   1   2  ar  
  2   2   3  ar  
  3   2   4  1   
  4   4   5  1   
  5   4   6  1   
  6   4  22  1   
  7   5   7  1   
  8   5   8  1   
  9   5  23  1   
 10   6   9  1   
 11   6  24  1   
 12   6  25  1   
 13   7  10  1   
 14   7  26  1   
 15   7  27  1   
 16   8  11  1   
 17   8  28  1   
 18   8  29  1   
 19   9  12  1   
 20   9  30  1   
 21   9  31  1   
 22  10  13  1   
 23  10  32  1   
 24  10  33  1   
 25  11  14  1   
 26  11  34  1   
 27  11  35  1   
 28  12  36  1   
 29  12  37  1   
 30  12  38  1   
 31  13  14  1   
 32  13  15  1   
 33  14  39  1   
 34  14  40  1   
 35  15  16  ar  
 36  15  17  ar  
 37  16  18  ar  
 38  16  19  1   
 39  17  20  ar  
 40  17  41  1   
 41  18  21  ar  
 42  18  42  1   
 43  19  43  1   
 44  19  44  1   
 45  19  45  1   
 46  20  21  ar  
 47  20  46  1   
 48  21  47  1   
@<TRIPOS>SUBSTRUCTURE
  1 ****   7 GROUP 4 **** **** 0

# MOE 2024.06 (io_trps.svl 2023.06)
