@<TRIPOS>MOLECULE
NONAME
51 54 1 0 0 
SMALL
USER_CHARGES


@<TRIPOS>ATOM
  1 O        4.4630    -2.2320     1.3840 O.2   1 <1>  -0.5700 
  2 C        3.3830    -2.2160     0.8240 C.2   1 <1>   0.5440 
  3 N        2.9160    -0.9820     0.4400 N.am  1 <1>  -0.6600 
  4 C        2.6750    -3.4460     0.5050 C.ar  1 <1>   0.0860 
  5 C        3.1070     0.1940     1.3700 C.3   1 <1>   0.2200 
  6 C        2.6830    -0.7280    -1.0100 C.3   1 <1>   0.1400 
  7 C        1.3010    -3.4600     0.2670 C.ar  1 <1>  -0.1500 
  8 C        3.3490    -4.6650     0.4280 C.ar  1 <1>  -0.1500 
  9 C        2.0990     1.3270     1.1160 C.3   1 <1>   0.1200 
 10 C        4.5540     0.7430     1.3130 C.3   1 <1>   0.3430 
 11 C        3.2970     0.5900    -1.5210 C.3   1 <1>  -0.0800 
 12 C        0.6100    -4.6210    -0.0530 C.ar  1 <1>   0.0000 
 13 C        2.6830    -5.8350     0.1130 C.ar  1 <1>  -0.1500 
 14 O        2.5820     2.2030     0.1400 O.3   1 <1>  -0.5600 
 15 N        5.2920     0.2580     0.0990 N.4   1 <1>  -0.9590 
 16 C        2.4140     1.8020    -1.1780 C.3   1 <1>   0.1200 
 17 C        4.7920     0.8270    -1.1970 C.3   1 <1>   0.3430 
 18 C       -0.8120    -4.5900    -0.2960 C.ar  1 <1>   0.0000 
 19 C        1.3230    -5.8110    -0.1290 C.ar  1 <1>  -0.1500 
 20 C        6.7630     0.4240     0.2600 C.3   1 <1>   0.2630 
 21 C       -1.3310    -3.9510    -1.4200 C.ar  1 <1>  -0.1500 
 22 C       -1.7000    -5.1930     0.5910 C.ar  1 <1>  -0.1500 
 23 C       -2.6940    -3.9110    -1.6490 C.ar  1 <1>  -0.1500 
 24 C       -3.0650    -5.1570     0.3700 C.ar  1 <1>  -0.1500 
 25 C       -3.5590    -4.5120    -0.7530 C.ar  1 <1>   0.0820 
 26 O       -4.8770    -4.4660    -0.9830 O.3   1 <1>  -0.5330 
 27 H        2.9290    -0.1560     2.3720 H     1 <1>   0.0800 
 28 H        3.1000    -1.5440    -1.5780 H     1 <1>   0.0800 
 29 H        1.6210    -0.7260    -1.1950 H     1 <1>   0.0800 
 30 H        0.7410    -2.5450     0.3420 H     1 <1>   0.1500 
 31 H        4.4080    -4.6970     0.6190 H     1 <1>   0.1500 
 32 H        1.9880     1.9070     2.0160 H     1 <1>   0.0800 
 33 H        1.1290     0.9510     0.8360 H     1 <1>   0.0800 
 34 H        5.0670     0.3950     2.1940 H     1 <1>   0.0800 
 35 H        4.5440     1.8200     1.3430 H     1 <1>   0.0800 
 36 H        3.2430     0.5280    -2.5940 H     1 <1>   0.0800 
 37 H        3.2230    -6.7650     0.0560 H     1 <1>   0.1500 
 38 H        5.0740    -0.7600     0.1140 H     1 <1>   0.4500 
 39 H        1.3700     1.5980    -1.3500 H     1 <1>   0.0800 
 40 H        2.6920     2.6410    -1.7940 H     1 <1>   0.0800 
 41 H        4.9790     1.8890    -1.2120 H     1 <1>   0.0800 
 42 H        5.3710     0.3910    -1.9940 H     1 <1>   0.0800 
 43 H        0.8050    -6.7210    -0.3770 H     1 <1>   0.1500 
 44 H        7.0180     1.4700     0.3150 H     1 <1>   0.0800 
 45 H        7.2820    -0.0180    -0.5750 H     1 <1>   0.0800 
 46 H        7.0930    -0.0630     1.1630 H     1 <1>   0.0800 
 47 H       -0.6600    -3.4890    -2.1210 H     1 <1>   0.1500 
 48 H       -1.3130    -5.6900     1.4620 H     1 <1>   0.1500 
 49 H       -3.0940    -3.4180    -2.5170 H     1 <1>   0.1500 
 50 H       -3.7340    -5.6270     1.0670 H     1 <1>   0.1500 
 51 H       -5.4050    -4.9190    -0.3030 H     1 <1>   0.4500 
@<TRIPOS>BOND
  1   1   2  2   
  2   2   3  am  
  3   2   4  1   
  4   3   5  1   
  5   3   6  1   
  6   4   7  ar  
  7   4   8  ar  
  8   5   9  1   
  9   5  10  1   
 10   5  27  1   
 11   6  11  1   
 12   6  28  1   
 13   6  29  1   
 14   7  12  ar  
 15   7  30  1   
 16   8  13  ar  
 17   8  31  1   
 18   9  14  1   
 19   9  32  1   
 20   9  33  1   
 21  10  15  1   
 22  10  34  1   
 23  10  35  1   
 24  11  16  1   
 25  11  17  1   
 26  11  36  1   
 27  12  18  1   
 28  12  19  ar  
 29  13  19  ar  
 30  13  37  1   
 31  14  16  1   
 32  15  17  1   
 33  15  20  1   
 34  15  38  1   
 35  16  39  1   
 36  16  40  1   
 37  17  41  1   
 38  17  42  1   
 39  18  21  ar  
 40  18  22  ar  
 41  19  43  1   
 42  20  44  1   
 43  20  45  1   
 44  20  46  1   
 45  21  23  ar  
 46  21  47  1   
 47  22  24  ar  
 48  22  48  1   
 49  23  25  ar  
 50  23  49  1   
 51  24  25  ar  
 52  24  50  1   
 53  25  26  1   
 54  26  51  1   
@<TRIPOS>SUBSTRUCTURE
  1 ****   7 GROUP 4 **** **** 0

# MOE 2024.06 (io_trps.svl 2023.06)
