@<TRIPOS>MOLECULE
NONAME
40 40 1 0 0 
SMALL
USER_CHARGES


@<TRIPOS>ATOM
  1 O        0.2970    -0.0040     0.8550 O.2   1 <1>  -0.5700 
  2 C        0.0860    -1.1050     0.3960 C.2   1 <1>   0.7800 
  3 O        1.0670    -1.9750     0.1660 O.3   1 <1>  -0.4300 
  4 N       -1.1550    -1.5680     0.0880 N.am  1 <1>  -0.5470 
  5 C        2.4480    -1.7790     0.3900 C.3   1 <1>   0.2800 
  6 C       -2.4190    -0.9560     0.1930 C.ar  1 <1>   0.1170 
  7 C        2.7160    -1.5520     1.8830 C.3   1 <1>  -0.2400 
  8 C        3.1140    -3.0840    -0.0480 C.3   1 <1>  -0.2400 
  9 C        2.9690    -0.6290    -0.4790 C.3   1 <1>  -0.2400 
 10 C       -3.5710    -1.7100     0.4490 C.ar  1 <1>   0.1670 
 11 C       -2.5680     0.4100     0.0240 C.ar  1 <1>  -0.1500 
 12 N       -4.7910    -1.2060     0.5350 N.ar  1 <1>  -0.6200 
 13 C       -3.4840    -3.2130     0.6540 C.3   1 <1>  -0.0970 
 14 C       -3.8330     0.9740     0.1130 C.ar  1 <1>   0.0860 
 15 C       -4.8890     0.1020     0.3710 C.ar  1 <1>   0.1600 
 16 C       -4.0540     2.3930    -0.0580 C.2   1 <1>   0.6340 
 17 O       -3.1840     3.1680    -0.3920 O.2   1 <1>  -0.5700 
 18 O       -5.2850     2.8640     0.1590 O.3   1 <1>  -0.4300 
 19 C       -5.5910     4.2330     0.0180 C.3   1 <1>   0.1200 
 20 C       -7.0710     4.4230     0.3360 C.3   1 <1>  -0.2400 
 21 H       -1.1410    -2.5420    -0.2000 H     1 <1>   0.3700 
 22 H        2.2790    -2.3410     2.4670 H     1 <1>   0.0800 
 23 H        2.3200    -0.6080     2.2100 H     1 <1>   0.0800 
 24 H        3.7740    -1.5380     2.0670 H     1 <1>   0.0800 
 25 H        2.7440    -3.9080     0.5350 H     1 <1>   0.0800 
 26 H        4.1790    -3.0240     0.0890 H     1 <1>   0.0800 
 27 H        2.9170    -3.2730    -1.0880 H     1 <1>   0.0800 
 28 H        2.5760     0.3160    -0.1520 H     1 <1>   0.0800 
 29 H        2.7030    -0.7860    -1.5080 H     1 <1>   0.0800 
 30 H        4.0410    -0.5730    -0.4090 H     1 <1>   0.0800 
 31 H       -1.7170     1.0380    -0.1790 H     1 <1>   0.1500 
 32 H       -2.6800    -3.4570     1.3230 H     1 <1>   0.0800 
 33 H       -3.3310    -3.7010    -0.2910 H     1 <1>   0.0800 
 34 H       -4.3980    -3.5840     1.0840 H     1 <1>   0.0800 
 35 H       -5.8820     0.5130     0.4440 H     1 <1>   0.1500 
 36 H       -5.3710     4.5300    -0.9950 H     1 <1>   0.0800 
 37 H       -4.9730     4.7930     0.7000 H     1 <1>   0.0800 
 38 H       -7.6730     3.8500    -0.3470 H     1 <1>   0.0800 
 39 H       -7.3330     5.4600     0.2360 H     1 <1>   0.0800 
 40 H       -7.2750     4.1130     1.3450 H     1 <1>   0.0800 
@<TRIPOS>BOND
  1   1   2  2   
  2   2   3  1   
  3   2   4  am  
  4   3   5  1   
  5   4   6  1   
  6   4  21  1   
  7   5   7  1   
  8   5   8  1   
  9   5   9  1   
 10   6  10  ar  
 11   6  11  ar  
 12   7  22  1   
 13   7  23  1   
 14   7  24  1   
 15   8  25  1   
 16   8  26  1   
 17   8  27  1   
 18   9  28  1   
 19   9  29  1   
 20   9  30  1   
 21  10  12  ar  
 22  10  13  1   
 23  11  14  ar  
 24  11  31  1   
 25  12  15  ar  
 26  13  32  1   
 27  13  33  1   
 28  13  34  1   
 29  14  15  ar  
 30  14  16  1   
 31  15  35  1   
 32  16  17  2   
 33  16  18  1   
 34  18  19  1   
 35  19  20  1   
 36  19  36  1   
 37  19  37  1   
 38  20  38  1   
 39  20  39  1   
 40  20  40  1   
@<TRIPOS>SUBSTRUCTURE
  1 ****  11 GROUP 4 **** **** 0

# MOE 2024.06 (io_trps.svl 2023.06)
