@<TRIPOS>MOLECULE
NONAME
48 50 1 0 0 
SMALL
USER_CHARGES


@<TRIPOS>ATOM
  1 O       -0.7550    -0.4380    -2.0390 O.2   1 <1>  -0.5700 
  2 C       -0.9550    -0.2560    -0.8640 C.2   1 <1>   0.5690 
  3 N       -1.2910    -1.2640    -0.0260 N.am  1 <1>  -0.7300 
  4 C       -0.8760     1.1480    -0.3170 C.3   1 <1>  -0.0990 
  5 C       -1.6220    -2.6440    -0.4500 C.3   1 <1>   0.2200 
  6 C       -1.9170     2.0170    -1.0180 C.3   1 <1>   0.1400 
  7 C       -3.0880    -2.9720    -0.1730 C.3   1 <1>  -0.0800 
  8 C       -0.9210    -3.6310     0.4710 C.3   1 <1>   0.1200 
  9 N       -2.0410     3.3150    -0.3180 N.am  1 <1>  -0.7300 
 10 C       -3.0630    -3.5020     1.2670 C.3   1 <1>   0.1200 
 11 C       -4.0880    -1.8120    -0.3780 C.3   1 <1>  -0.0170 
 12 O       -1.7230    -3.6960     1.6090 O.3   1 <1>  -0.5600 
 13 C       -3.0470     3.6270     0.5350 C.2   1 <1>   0.5690 
 14 C       -5.5650    -2.1450    -0.1260 C.ar  1 <1>  -0.1440 
 15 O       -3.9140     2.8430     0.8270 O.2   1 <1>  -0.5700 
 16 C       -3.0650     5.0070     1.1380 C.3   1 <1>  -0.1790 
 17 C       -6.4900    -1.1160     0.1860 C.ar  1 <1>   0.0000 
 18 C       -6.0590    -3.4180    -0.1950 C.ar  1 <1>  -0.1500 
 19 C       -7.8350    -1.4850     0.4370 C.ar  1 <1>   0.3100 
 20 C       -6.1670     0.2610     0.2610 C.ar  1 <1>  -0.1500 
 21 C       -7.4120    -3.6720     0.0590 C.ar  1 <1>   0.1600 
 22 N       -8.2790    -2.7640     0.3690 N.ar  1 <1>  -0.6200 
 23 C       -8.7680    -0.4890     0.7720 C.ar  1 <1>  -0.1500 
 24 C       -7.0980     1.2070     0.5900 C.ar  1 <1>  -0.1500 
 25 C       -8.4170     0.8310     0.8520 C.ar  1 <1>  -0.1500 
 26 H       -1.4120    -1.1000     0.9760 H     1 <1>   0.3700 
 27 H       -1.0690     1.1330     0.7390 H     1 <1>   0.0800 
 28 H        0.1100     1.5360    -0.4940 H     1 <1>   0.0800 
 29 H       -1.3530    -2.7970    -1.4820 H     1 <1>   0.0800 
 30 H       -2.8700     1.5130    -1.0100 H     1 <1>   0.0800 
 31 H       -1.6380     2.1790    -2.0460 H     1 <1>   0.0800 
 32 H       -3.3510    -3.7840    -0.8260 H     1 <1>   0.0800 
 33 H        0.0720    -3.3180     0.7420 H     1 <1>   0.0800 
 34 H       -0.8920    -4.6120     0.0300 H     1 <1>   0.0800 
 35 H       -1.3250     4.0110    -0.5320 H     1 <1>   0.3700 
 36 H       -3.5810    -4.4420     1.3550 H     1 <1>   0.0800 
 37 H       -3.4800    -2.7950     1.9640 H     1 <1>   0.0800 
 38 H       -3.9880    -1.4280    -1.3790 H     1 <1>   0.0800 
 39 H       -3.8080    -1.0290     0.3010 H     1 <1>   0.0800 
 40 H       -2.1680     5.1670     1.7060 H     1 <1>   0.0800 
 41 H       -3.9130     5.1060     1.7910 H     1 <1>   0.0800 
 42 H       -3.1360     5.7430     0.3600 H     1 <1>   0.0800 
 43 H       -5.4500    -4.2650    -0.4430 H     1 <1>   0.1500 
 44 H       -5.1670     0.5960     0.0590 H     1 <1>   0.1500 
 45 H       -7.7520    -4.6920    -0.0060 H     1 <1>   0.1500 
 46 H       -9.7760    -0.8030     0.9650 H     1 <1>   0.1500 
 47 H       -6.8200     2.2460     0.6500 H     1 <1>   0.1500 
 48 H       -9.1400     1.5850     1.1110 H     1 <1>   0.1500 
@<TRIPOS>BOND
  1   1   2  2   
  2   2   3  am  
  3   2   4  1   
  4   3   5  1   
  5   3  26  1   
  6   4   6  1   
  7   4  27  1   
  8   4  28  1   
  9   5   7  1   
 10   5   8  1   
 11   5  29  1   
 12   6   9  1   
 13   6  30  1   
 14   6  31  1   
 15   7  10  1   
 16   7  11  1   
 17   7  32  1   
 18   8  12  1   
 19   8  33  1   
 20   8  34  1   
 21   9  13  am  
 22   9  35  1   
 23  10  12  1   
 24  10  36  1   
 25  10  37  1   
 26  11  14  1   
 27  11  38  1   
 28  11  39  1   
 29  13  15  2   
 30  13  16  1   
 31  14  17  ar  
 32  14  18  ar  
 33  16  40  1   
 34  16  41  1   
 35  16  42  1   
 36  17  19  ar  
 37  17  20  ar  
 38  18  21  ar  
 39  18  43  1   
 40  19  22  ar  
 41  19  23  ar  
 42  20  24  ar  
 43  20  44  1   
 44  21  22  ar  
 45  21  45  1   
 46  23  25  ar  
 47  23  46  1   
 48  24  25  ar  
 49  24  47  1   
 50  25  48  1   
@<TRIPOS>SUBSTRUCTURE
  1 ****  11 GROUP 4 **** **** 0

# MOE 2024.06 (io_trps.svl 2023.06)
