@<TRIPOS>MOLECULE
NONAME
43 45 1 0 0 
SMALL
USER_CHARGES


@<TRIPOS>ATOM
  1 F        3.4460     0.6390    -2.2150 F     1 <1>  -0.3400 
  2 C        3.0570     1.7570    -1.6060 C.3   1 <1>   0.9600 
  3 F        3.6510     2.7250    -2.2980 F     1 <1>  -0.3400 
  4 O        3.6800     1.7860    -0.3210 O.3   1 <1>  -0.3630 
  5 C        1.5080     1.9390    -1.6700 C.3   1 <1>   0.6000 
  6 C        3.1720     1.1060     0.7350 C.ar  1 <1>   0.0830 
  7 F        1.1010     2.9750    -0.9360 F     1 <1>  -0.3400 
  8 F        0.8420     0.8950    -1.1760 F     1 <1>  -0.3400 
  9 C        2.8170     1.7960     1.9090 C.ar  1 <1>   0.0860 
 10 C        3.0260    -0.2750     0.6470 C.ar  1 <1>  -0.1500 
 11 C        2.9870     3.2290     2.0910 C.2   1 <1>   0.5440 
 12 C        2.2720     1.0360     2.9480 C.ar  1 <1>  -0.1500 
 13 C        2.4910    -0.9920     1.6980 C.ar  1 <1>  -0.1500 
 14 O        2.2810     3.8320     2.8790 O.2   1 <1>  -0.5700 
 15 N        3.9580     3.9110     1.3950 N.am  1 <1>  -0.4940 
 16 C        2.1080    -0.3320     2.8500 C.ar  1 <1>  -0.1500 
 17 C        4.2920     5.2880     1.3850 C.2   1 <1>  -0.0880 
 18 N        5.0910     5.8970     0.4630 N.pl3 1 <1>   0.3140 
 19 C        3.9100     6.2580     2.2500 C.2   1 <1>  -0.1500 
 20 N        5.2280     7.2220     0.7300 N.2   1 <1>  -0.7070 
 21 C        5.7230     5.2500    -0.7240 C.3   1 <1>   0.1760 
 22 C        4.5170     7.4190     1.7950 C.2   1 <1>   0.1390 
 23 C        7.2490     5.3580    -0.7360 C.3   1 <1>  -0.1600 
 24 C        5.3000     5.8780    -2.0510 C.3   1 <1>  -0.1600 
 25 C        7.6550     5.2240    -2.2090 C.3   1 <1>  -0.1600 
 26 C        6.3820     5.4380    -3.0390 C.3   1 <1>  -0.1600 
 27 H        1.1660     2.0950    -2.6750 H     1 <1>   0.0800 
 28 H        3.3290    -0.8080    -0.2360 H     1 <1>   0.1500 
 29 H        1.9710     1.5340     3.8550 H     1 <1>   0.1500 
 30 H        2.3710    -2.0600     1.6240 H     1 <1>   0.1500 
 31 H        4.4840     3.3120     0.7570 H     1 <1>   0.3700 
 32 H        1.6830    -0.8850     3.6720 H     1 <1>   0.1500 
 33 H        3.2720     6.1660     3.1100 H     1 <1>   0.1500 
 34 H        5.4560     4.2110    -0.7430 H     1 <1>   0.0800 
 35 H        4.4140     8.3810     2.2680 H     1 <1>   0.1500 
 36 H        7.7060     4.6010    -0.1250 H     1 <1>   0.0800 
 37 H        7.5460     6.3320    -0.3810 H     1 <1>   0.0800 
 38 H        5.3160     6.9520    -1.9670 H     1 <1>   0.0800 
 39 H        4.3210     5.5540    -2.3560 H     1 <1>   0.0800 
 40 H        8.0580     4.2440    -2.4020 H     1 <1>   0.0800 
 41 H        8.4020     5.9590    -2.4570 H     1 <1>   0.0800 
 42 H        6.5290     6.1760    -3.8090 H     1 <1>   0.0800 
 43 H        6.0930     4.5080    -3.4990 H     1 <1>   0.0800 
@<TRIPOS>BOND
  1   1   2  1   
  2   2   3  1   
  3   2   4  1   
  4   2   5  1   
  5   4   6  1   
  6   5   7  1   
  7   5   8  1   
  8   5  27  1   
  9   6   9  ar  
 10   6  10  ar  
 11   9  11  1   
 12   9  12  ar  
 13  10  13  ar  
 14  10  28  1   
 15  11  14  2   
 16  11  15  am  
 17  12  16  ar  
 18  12  29  1   
 19  13  16  ar  
 20  13  30  1   
 21  15  17  1   
 22  15  31  1   
 23  16  32  1   
 24  17  18  1   
 25  17  19  2   
 26  18  20  1   
 27  18  21  1   
 28  19  22  1   
 29  19  33  1   
 30  20  22  2   
 31  21  23  1   
 32  21  24  1   
 33  21  34  1   
 34  22  35  1   
 35  23  25  1   
 36  23  36  1   
 37  23  37  1   
 38  24  26  1   
 39  24  38  1   
 40  24  39  1   
 41  25  26  1   
 42  25  40  1   
 43  25  41  1   
 44  26  42  1   
 45  26  43  1   
@<TRIPOS>SUBSTRUCTURE
  1 ****  15 GROUP 4 **** **** 0

# MOE 2024.06 (io_trps.svl 2023.06)
