@<TRIPOS>MOLECULE
NONAME
54 56 1 0 0 
SMALL
USER_CHARGES


@<TRIPOS>ATOM
  1 O       -0.2890    -0.2450     0.6470 O.2   1 <1>  -0.5700 
  2 C       -1.2430     0.3350     0.1640 C.2   1 <1>   0.7160 
  3 N       -2.3720    -0.3850    -0.0670 N.am  1 <1>  -0.7300 
  4 C       -1.2020     1.7300    -0.1600 C.2   1 <1>  -0.0860 
  5 C       -2.6410    -1.7590     0.3920 C.3   1 <1>   0.2200 
  6 C       -2.3060     2.5280    -0.4960 C.2   1 <1>   0.3720 
  7 C       -0.1620     2.6110    -0.2020 C.2   1 <1>   0.0870 
  8 C       -2.0780    -2.7480    -0.6490 C.3   1 <1>   0.1200 
  9 C       -4.1570    -1.8700     0.6260 C.3   1 <1>  -0.1600 
 10 N       -1.9570     3.7490    -0.6980 N.2   1 <1>  -0.4100 
 11 N       -3.6360     2.0870    -0.5870 N.pl3 1 <1>  -0.8210 
 12 O       -0.6650     3.7780    -0.5160 O.3   1 <1>  -0.0190 
 13 C        1.2580     2.4930     0.0080 C.ar  1 <1>   0.0530 
 14 O       -1.8610    -4.0000    -0.0850 O.3   1 <1>  -0.6800 
 15 C       -4.5910    -3.1930     1.2750 C.3   1 <1>  -0.1600 
 16 C       -4.3410     2.4900    -1.8390 C.3   1 <1>   0.2090 
 17 C       -4.4700     2.4980     0.5760 C.3   1 <1>   0.2090 
 18 C        1.9900     1.3990    -0.4540 C.ar  1 <1>  -0.1500 
 19 C        1.9620     3.4970     0.6760 C.ar  1 <1>  -0.1500 
 20 C       -6.0870    -3.1840     1.6000 C.3   1 <1>  -0.2400 
 21 C       -5.5380     3.3230    -1.4020 C.3   1 <1>  -0.1600 
 22 C       -5.8400     2.8320     0.0050 C.3   1 <1>  -0.1600 
 23 C        3.3540     1.3000    -0.2520 C.ar  1 <1>  -0.1500 
 24 C        3.3260     3.4070     0.8800 C.ar  1 <1>  -0.1500 
 25 C        4.0350     2.3090     0.4210 C.ar  1 <1>   0.0830 
 26 O        5.3670     2.2920     0.6630 O.3   1 <1>  -0.3620 
 27 C        6.1740     1.2060     0.2660 C.3   1 <1>   0.0400 
 28 H       -3.1800     0.1700    -0.3830 H     1 <1>   0.3700 
 29 H       -2.1210    -1.9040     1.3250 H     1 <1>   0.0800 
 30 H       -1.1310    -2.3980    -1.0210 H     1 <1>   0.0800 
 31 H       -2.7630    -2.8650    -1.4700 H     1 <1>   0.0800 
 32 H       -4.6720    -1.7550    -0.3120 H     1 <1>   0.0800 
 33 H       -4.4570    -1.0660     1.2760 H     1 <1>   0.0800 
 34 H       -1.1440    -3.9500     0.5780 H     1 <1>   0.4000 
 35 H       -4.0310    -3.3540     2.1820 H     1 <1>   0.0800 
 36 H       -4.3860    -4.0140     0.6090 H     1 <1>   0.0800 
 37 H       -4.6770     1.6020    -2.3460 H     1 <1>   0.0800 
 38 H       -3.7020     3.0490    -2.5030 H     1 <1>   0.0800 
 39 H       -4.0460     3.3730     1.0430 H     1 <1>   0.0800 
 40 H       -4.5320     1.7040     1.3000 H     1 <1>   0.0800 
 41 H        1.4810     0.6120    -0.9800 H     1 <1>   0.1500 
 42 H        1.4300     4.3580     1.0400 H     1 <1>   0.1500 
 43 H       -6.3190    -2.3940     2.2930 H     1 <1>   0.0800 
 44 H       -6.3710    -4.1210     2.0450 H     1 <1>   0.0800 
 45 H       -6.6660    -3.0430     0.7040 H     1 <1>   0.0800 
 46 H       -6.3740     3.2070    -2.0690 H     1 <1>   0.0800 
 47 H       -5.2480     4.3590    -1.3750 H     1 <1>   0.0800 
 48 H       -6.3510     3.5700     0.5970 H     1 <1>   0.0800 
 49 H       -6.4340     1.9360    -0.0340 H     1 <1>   0.0800 
 50 H        3.8680     0.4340    -0.6230 H     1 <1>   0.1500 
 51 H        3.8530     4.1880     1.3970 H     1 <1>   0.1500 
 52 H        7.1840     1.4100     0.5750 H     1 <1>   0.0800 
 53 H        6.1310     1.1120    -0.8040 H     1 <1>   0.0800 
 54 H        5.8180     0.3130     0.7480 H     1 <1>   0.0800 
@<TRIPOS>BOND
  1   1   2  2   
  2   2   3  am  
  3   2   4  1   
  4   3   5  1   
  5   3  28  1   
  6   4   6  1   
  7   4   7  2   
  8   5   8  1   
  9   5   9  1   
 10   5  29  1   
 11   6  10  2   
 12   6  11  1   
 13   7  12  1   
 14   7  13  1   
 15   8  14  1   
 16   8  30  1   
 17   8  31  1   
 18   9  15  1   
 19   9  32  1   
 20   9  33  1   
 21  10  12  1   
 22  11  16  1   
 23  11  17  1   
 24  13  18  ar  
 25  13  19  ar  
 26  14  34  1   
 27  15  20  1   
 28  15  35  1   
 29  15  36  1   
 30  16  21  1   
 31  16  37  1   
 32  16  38  1   
 33  17  22  1   
 34  17  39  1   
 35  17  40  1   
 36  18  23  ar  
 37  18  41  1   
 38  19  24  ar  
 39  19  42  1   
 40  20  43  1   
 41  20  44  1   
 42  20  45  1   
 43  21  22  1   
 44  21  46  1   
 45  21  47  1   
 46  22  48  1   
 47  22  49  1   
 48  23  25  ar  
 49  23  50  1   
 50  24  25  ar  
 51  24  51  1   
 52  25  26  1   
 53  26  27  1   
 54  27  52  1   
 55  27  53  1   
 56  27  54  1   
@<TRIPOS>SUBSTRUCTURE
  1 ****   4 GROUP 4 **** **** 0

# MOE 2024.06 (io_trps.svl 2023.06)
