@<TRIPOS>MOLECULE
NONAME
62 65 1 0 0 
SMALL
USER_CHARGES


@<TRIPOS>ATOM
  1 O       -5.2770    -0.0910    -1.4970 O.2   1 <1>  -0.5700 
  2 C       -4.5940     0.5230    -0.6920 C.2   1 <1>   0.5440 
  3 N       -5.1870     0.8720     0.5030 N.am  1 <1>  -0.6600 
  4 C       -3.1940     0.8050    -0.9670 C.ar  1 <1>   0.0860 
  5 C       -6.5700     1.4220     0.5690 C.3   1 <1>   0.1400 
  6 C       -4.5050     0.7100     1.8100 C.3   1 <1>   0.1400 
  7 C       -2.5810     1.9720    -0.5060 C.ar  1 <1>  -0.1500 
  8 C       -2.4100    -0.0820    -1.7050 C.ar  1 <1>  -0.1500 
  9 C       -7.2920     0.9720     1.8520 C.3   1 <1>  -0.1600 
 10 C       -5.2460    -0.3540     2.6360 C.3   1 <1>  -0.1600 
 11 C       -1.2440     2.2300    -0.7510 C.ar  1 <1>  -0.1500 
 12 C       -1.0730     0.1710    -1.9540 C.ar  1 <1>  -0.1500 
 13 C       -6.7840    -0.3410     2.4730 C.3   1 <1>   0.4230 
 14 C       -0.4870     1.3270    -1.4740 C.ar  1 <1>  -0.1500 
 15 N       -7.3030    -1.5290     1.7170 N.4   1 <1>  -0.9590 
 16 C       -6.7160    -1.7070     0.3470 C.3   1 <1>   0.3430 
 17 C       -7.2580    -2.7850     2.5000 C.3   1 <1>   0.3430 
 18 C       -7.1260    -3.0030    -0.4070 C.3   1 <1>   0.4230 
 19 C       -8.0680    -3.8930     1.8030 C.3   1 <1>  -0.1600 
 20 N       -7.2760    -2.8410    -1.9190 N.4   1 <1>  -0.9590 
 21 C       -8.3120    -3.7600     0.2610 C.3   1 <1>   0.0000 
 22 C       -7.9210    -4.0110    -2.6010 C.3   1 <1>   0.3430 
 23 C       -7.9440    -1.5720    -2.3720 C.3   1 <1>   0.2630 
 24 C       -8.3830    -5.1870    -0.3670 C.3   1 <1>  -0.1600 
 25 C       -9.6980    -3.0840     0.0180 C.3   1 <1>   0.1200 
 26 C       -7.7630    -5.2900    -1.7770 C.3   1 <1>  -0.1600 
 27 O       -9.7260    -1.7530     0.4200 O.3   1 <1>  -0.6800 
 28 H       -6.5200     2.4980     0.5430 H     1 <1>   0.0800 
 29 H       -7.1260     1.1110    -0.2990 H     1 <1>   0.0800 
 30 H       -3.4760     0.4180     1.6750 H     1 <1>   0.0800 
 31 H       -4.5150     1.6560     2.3260 H     1 <1>   0.0800 
 32 H       -3.1580     2.6910     0.0480 H     1 <1>   0.1500 
 33 H       -2.8530    -0.9820    -2.0930 H     1 <1>   0.1500 
 34 H       -8.3520     0.9260     1.6810 H     1 <1>   0.0800 
 35 H       -7.1420     1.7470     2.5820 H     1 <1>   0.0800 
 36 H       -5.0190    -0.1580     3.6690 H     1 <1>   0.0800 
 37 H       -4.8370    -1.3210     2.4150 H     1 <1>   0.0800 
 38 H       -0.7910     3.1350    -0.3830 H     1 <1>   0.1500 
 39 H       -0.4850    -0.5290    -2.5250 H     1 <1>   0.1500 
 40 H       -7.2060    -0.3920     3.4650 H     1 <1>   0.0800 
 41 H        0.5540     1.5260    -1.6660 H     1 <1>   0.1500 
 42 H       -8.3140    -1.3560     1.5410 H     1 <1>   0.4500 
 43 H       -7.0210    -0.8690    -0.2460 H     1 <1>   0.0800 
 44 H       -5.6420    -1.6820     0.4110 H     1 <1>   0.0800 
 45 H       -6.2330    -3.1020     2.6060 H     1 <1>   0.0800 
 46 H       -7.6570    -2.6220     3.4890 H     1 <1>   0.0800 
 47 H       -6.2850    -3.6620    -0.2710 H     1 <1>   0.0800 
 48 H       -7.5430    -4.8050     2.0270 H     1 <1>   0.0800 
 49 H       -9.0140    -3.9840     2.3100 H     1 <1>   0.0800 
 50 H       -6.3140    -2.7790    -2.2920 H     1 <1>   0.4500 
 51 H       -8.9740    -3.8200    -2.7330 H     1 <1>   0.0800 
 52 H       -7.4880    -4.1490    -3.5800 H     1 <1>   0.0800 
 53 H       -8.9430    -1.5030    -1.9750 H     1 <1>   0.0800 
 54 H       -8.0010    -1.5460    -3.4490 H     1 <1>   0.0800 
 55 H       -7.3860    -0.7090    -2.0520 H     1 <1>   0.0800 
 56 H       -7.8730    -5.9150     0.2410 H     1 <1>   0.0800 
 57 H       -9.4090    -5.5180    -0.4110 H     1 <1>   0.0800 
 58 H      -10.4640    -3.6060     0.5700 H     1 <1>   0.0800 
 59 H       -9.9730    -3.1160    -1.0210 H     1 <1>   0.0800 
 60 H       -8.2260    -6.1060    -2.3060 H     1 <1>   0.0800 
 61 H       -6.7150    -5.5260    -1.7040 H     1 <1>   0.0800 
 62 H      -10.6500    -1.4120     0.3700 H     1 <1>   0.4000 
@<TRIPOS>BOND
  1   1   2  2   
  2   2   3  am  
  3   2   4  1   
  4   3   5  1   
  5   3   6  1   
  6   4   7  ar  
  7   4   8  ar  
  8   5   9  1   
  9   5  28  1   
 10   5  29  1   
 11   6  10  1   
 12   6  30  1   
 13   6  31  1   
 14   7  11  ar  
 15   7  32  1   
 16   8  12  ar  
 17   8  33  1   
 18   9  13  1   
 19   9  34  1   
 20   9  35  1   
 21  10  13  1   
 22  10  36  1   
 23  10  37  1   
 24  11  14  ar  
 25  11  38  1   
 26  12  14  ar  
 27  12  39  1   
 28  13  15  1   
 29  13  40  1   
 30  14  41  1   
 31  15  16  1   
 32  15  17  1   
 33  15  42  1   
 34  16  18  1   
 35  16  43  1   
 36  16  44  1   
 37  17  19  1   
 38  17  45  1   
 39  17  46  1   
 40  18  20  1   
 41  18  21  1   
 42  18  47  1   
 43  19  21  1   
 44  19  48  1   
 45  19  49  1   
 46  20  22  1   
 47  20  23  1   
 48  20  50  1   
 49  21  24  1   
 50  21  25  1   
 51  22  26  1   
 52  22  51  1   
 53  22  52  1   
 54  23  53  1   
 55  23  54  1   
 56  23  55  1   
 57  24  26  1   
 58  24  56  1   
 59  24  57  1   
 60  25  27  1   
 61  25  58  1   
 62  25  59  1   
 63  26  60  1   
 64  26  61  1   
 65  27  62  1   
@<TRIPOS>SUBSTRUCTURE
  1 ****  16 GROUP 4 **** **** 0

# MOE 2024.06 (io_trps.svl 2023.06)
