@<TRIPOS>MOLECULE
NONAME
50 52 1 0 0 
SMALL
USER_CHARGES


@<TRIPOS>ATOM
  1 S       -0.0170    -0.6330     0.2250 S.o2  1 <1>   1.4470 
  2 O       -0.7400    -0.0770     1.3480 O.2   1 <1>  -0.6500 
  3 O        0.7350    -1.8410     0.4870 O.2   1 <1>  -0.6500 
  4 N       -1.2130    -1.0680    -0.9110 N.am  1 <1>  -0.8490 
  5 C        1.0250     0.5990    -0.6260 C.ar  1 <1>  -0.0090 
  6 C       -1.7470    -2.4170    -0.7090 C.3   1 <1>   0.1960 
  7 C       -2.3160    -0.0950    -1.0550 C.3   1 <1>   0.1960 
  8 C        1.7590     1.5740     0.0640 C.ar  1 <1>  -0.1440 
  9 C        1.1270     0.5610    -2.0180 C.ar  1 <1>  -0.1500 
 10 C       -2.7570    -2.3410     0.4520 C.3   1 <1>   0.4230 
 11 C       -3.5040    -0.3160    -0.0670 C.3   1 <1>  -0.1600 
 12 C        2.5380     2.4890    -0.6310 C.ar  1 <1>  -0.1500 
 13 C        1.7390     1.6700     1.5850 C.3   1 <1>  -0.0960 
 14 C        1.9030     1.4670    -2.7190 C.ar  1 <1>  -0.1500 
 15 N       -2.7340    -3.4620     1.4590 N.4   1 <1>  -0.9590 
 16 C       -4.1510    -1.8040    -0.1060 C.3   1 <1>   0.0000 
 17 C        2.5950     2.4220    -2.0070 C.ar  1 <1>   0.1900 
 18 C       -3.0010    -4.7860     0.8800 C.3   1 <1>   0.3430 
 19 C       -1.4620    -3.4460     2.2530 C.3   1 <1>   0.2630 
 20 C       -4.7880    -3.2850    -0.2220 C.3   1 <1>  -0.1600 
 21 C       -5.5490    -1.1900    -0.5960 C.3   1 <1>   0.1200 
 22 F        3.3280     3.2860    -2.6540 F     1 <1>  -0.1900 
 23 C       -3.9690    -4.6020    -0.2720 C.3   1 <1>  -0.1600 
 24 O       -6.1710    -0.6150     0.5100 O.3   1 <1>  -0.6800 
 25 H       -2.2440    -2.7260    -1.6120 H     1 <1>   0.0800 
 26 H       -0.9590    -3.1210    -0.5110 H     1 <1>   0.0800 
 27 H       -1.9330     0.9080    -0.9440 H     1 <1>   0.0800 
 28 H       -2.6970    -0.1730    -2.0600 H     1 <1>   0.0800 
 29 H        0.5940    -0.1920    -2.5730 H     1 <1>   0.1500 
 30 H       -2.3400    -1.5730     1.0700 H     1 <1>   0.0800 
 31 H       -3.2250    -0.0350     0.9360 H     1 <1>   0.0800 
 32 H       -4.1390     0.5260    -0.2930 H     1 <1>   0.0800 
 33 H        3.1030     3.2500    -0.1220 H     1 <1>   0.1500 
 34 H        2.4990     2.3450     1.9390 H     1 <1>   0.0800 
 35 H        1.9240     0.7080     2.0300 H     1 <1>   0.0800 
 36 H        0.7860     2.0360     1.9230 H     1 <1>   0.0800 
 37 H        1.9760     1.4350    -3.7910 H     1 <1>   0.1500 
 38 H       -3.5130    -3.2480     2.1000 H     1 <1>   0.4500 
 39 H       -2.0900    -5.2370     0.5190 H     1 <1>   0.0800 
 40 H       -3.4310    -5.4310     1.6300 H     1 <1>   0.0800 
 41 H       -0.6160    -3.6540     1.6180 H     1 <1>   0.0800 
 42 H       -1.4970    -4.1850     3.0370 H     1 <1>   0.0800 
 43 H       -1.3150    -2.4760     2.7020 H     1 <1>   0.0800 
 44 H       -5.5180    -3.3980     0.5660 H     1 <1>   0.0800 
 45 H       -5.3040    -3.4120    -1.1610 H     1 <1>   0.0800 
 46 H       -6.3120    -1.8310    -1.0030 H     1 <1>   0.0800 
 47 H       -5.4450    -0.4480    -1.3710 H     1 <1>   0.0800 
 48 H       -3.4170    -4.6530    -1.1940 H     1 <1>   0.0800 
 49 H       -4.6420    -5.4430    -0.2840 H     1 <1>   0.0800 
 50 H       -7.0250    -0.2020     0.2650 H     1 <1>   0.4000 
@<TRIPOS>BOND
  1   1   2  2   
  2   1   3  2   
  3   1   4  am  
  4   1   5  1   
  5   4   6  1   
  6   4   7  1   
  7   5   8  ar  
  8   5   9  ar  
  9   6  10  1   
 10   6  25  1   
 11   6  26  1   
 12   7  11  1   
 13   7  27  1   
 14   7  28  1   
 15   8  12  ar  
 16   8  13  1   
 17   9  14  ar  
 18   9  29  1   
 19  10  15  1   
 20  10  16  1   
 21  10  30  1   
 22  11  16  1   
 23  11  31  1   
 24  11  32  1   
 25  12  17  ar  
 26  12  33  1   
 27  13  34  1   
 28  13  35  1   
 29  13  36  1   
 30  14  17  ar  
 31  14  37  1   
 32  15  18  1   
 33  15  19  1   
 34  15  38  1   
 35  16  20  1   
 36  16  21  1   
 37  17  22  1   
 38  18  23  1   
 39  18  39  1   
 40  18  40  1   
 41  19  41  1   
 42  19  42  1   
 43  19  43  1   
 44  20  23  1   
 45  20  44  1   
 46  20  45  1   
 47  21  24  1   
 48  21  46  1   
 49  21  47  1   
 50  23  48  1   
 51  23  49  1   
 52  24  50  1   
@<TRIPOS>SUBSTRUCTURE
  1 ****   4 GROUP 4 **** **** 0

# MOE 2024.06 (io_trps.svl 2023.06)
