@<TRIPOS>MOLECULE
NONAME
32 33 1 0 0 
SMALL
USER_CHARGES


@<TRIPOS>ATOM
  1 CL      -0.5210    -0.3580    -0.2470 Cl    1 <1>  -0.1770 
  2 C        1.0520    -1.1300    -0.1370 C.ar  1 <1>   0.1770 
  3 C        1.2110    -2.4840    -0.4030 C.ar  1 <1>   0.4100 
  4 C        2.1550    -0.4060     0.2210 C.ar  1 <1>   0.1600 
  5 N        2.4010    -3.0490    -0.3070 N.ar  1 <1>  -0.6200 
  6 N        0.1620    -3.2860    -0.7780 N.pl3 1 <1>  -0.8690 
  7 N        3.3520    -0.9610     0.3180 N.ar  1 <1>  -0.6200 
  8 C        3.3980    -2.2560     0.0460 C.ar  1 <1>   0.4770 
  9 C        0.1480    -4.7680    -0.5610 C.3   1 <1>   0.3530 
 10 C        4.7550    -2.9090     0.1460 C.3   1 <1>  -0.0960 
 11 C       -1.2410    -5.3240    -0.2030 C.ar  1 <1>   0.4770 
 12 N       -2.2280    -4.4480    -0.0260 N.ar  1 <1>  -0.6200 
 13 N       -1.3210    -6.6440    -0.1030 N.ar  1 <1>  -0.6200 
 14 C       -3.4000    -4.9540     0.2790 C.ar  1 <1>   0.1670 
 15 C       -2.5020    -7.1280     0.2030 C.ar  1 <1>   0.1670 
 16 C       -3.5870    -6.3090     0.4060 C.ar  1 <1>  -0.1500 
 17 C       -4.5360    -3.9750     0.4840 C.3   1 <1>  -0.0970 
 18 C       -2.6170    -8.6330     0.3230 C.3   1 <1>  -0.0970 
 19 H        2.0620     0.6440     0.4330 H     1 <1>   0.1500 
 20 H       -0.7880    -2.9090    -0.6480 H     1 <1>   0.4000 
 21 H        0.8230    -5.0250     0.2350 H     1 <1>   0.0800 
 22 H        0.4900    -5.2510    -1.4570 H     1 <1>   0.0800 
 23 H        4.6540    -3.9140     0.5120 H     1 <1>   0.0800 
 24 H        5.3860    -2.3560     0.8170 H     1 <1>   0.0800 
 25 H        5.2090    -2.9320    -0.8260 H     1 <1>   0.0800 
 26 H       -4.5490    -6.7140     0.6560 H     1 <1>   0.1500 
 27 H       -4.2900    -3.3030     1.2860 H     1 <1>   0.0800 
 28 H       -5.4490    -4.4870     0.7250 H     1 <1>   0.0800 
 29 H       -4.6840    -3.4030    -0.4130 H     1 <1>   0.0800 
 30 H       -1.9480    -8.9840     1.0870 H     1 <1>   0.0800 
 31 H       -2.3450    -9.0890    -0.6120 H     1 <1>   0.0800 
 32 H       -3.6190    -8.9260     0.5750 H     1 <1>   0.0800 
@<TRIPOS>BOND
  1   1   2  1   
  2   2   3  ar  
  3   2   4  ar  
  4   3   5  ar  
  5   3   6  1   
  6   4   7  ar  
  7   4  19  1   
  8   5   8  ar  
  9   6   9  1   
 10   6  20  1   
 11   7   8  ar  
 12   8  10  1   
 13   9  11  1   
 14   9  21  1   
 15   9  22  1   
 16  10  23  1   
 17  10  24  1   
 18  10  25  1   
 19  11  12  ar  
 20  11  13  ar  
 21  12  14  ar  
 22  13  15  ar  
 23  14  16  ar  
 24  14  17  1   
 25  15  16  ar  
 26  15  18  1   
 27  16  26  1   
 28  17  27  1   
 29  17  28  1   
 30  17  29  1   
 31  18  30  1   
 32  18  31  1   
 33  18  32  1   
@<TRIPOS>SUBSTRUCTURE
  1 ****   6 GROUP 4 **** **** 0

# MOE 2024.06 (io_trps.svl 2023.06)
