@<TRIPOS>MOLECULE
NONAME
49 50 1 0 0 
SMALL
USER_CHARGES


@<TRIPOS>ATOM
  1 O       -0.7590     0.3580     2.1420 O.2   1 <1>  -0.5700 
  2 C       -1.2130     0.6540     1.0640 C.2   1 <1>   0.5690 
  3 N       -1.7910    -0.2660     0.2470 N.am  1 <1>  -0.7300 
  4 C       -1.1440     2.1100     0.6100 C.3   1 <1>  -0.0190 
  5 C       -1.9730    -1.6950     0.5670 C.3   1 <1>   0.1400 
  6 C       -2.5420     2.6910     0.3200 C.3   1 <1>  -0.1600 
  7 C       -0.1930     2.2960    -0.5980 C.3   1 <1>  -0.1600 
  8 C       -3.4460    -2.0560     0.3900 C.3   1 <1>  -0.1600 
  9 C       -2.4920     4.2030     0.0180 C.3   1 <1>   0.2000 
 10 C       -0.4760     3.5710    -1.4190 C.3   1 <1>  -0.1600 
 11 C       -3.7070    -3.5240     0.7440 C.3   1 <1>  -0.0170 
 12 O       -3.5090     4.4920    -0.9100 O.3   1 <1>  -0.5600 
 13 C       -1.1270     4.6600    -0.5620 C.3   1 <1>   0.2000 
 14 C       -5.1760    -3.8590     0.5450 C.ar  1 <1>  -0.1440 
 15 C       -4.7820     4.6480    -0.3630 C.3   1 <1>   0.0400 
 16 O       -1.3200     5.7700    -1.3580 O.3   1 <1>  -0.6800 
 17 C       -5.6220    -4.3680    -0.6650 C.ar  1 <1>  -0.1500 
 18 C       -6.0840    -3.6530     1.5710 C.ar  1 <1>  -0.1500 
 19 C       -6.9600    -4.6730    -0.8550 C.ar  1 <1>  -0.1440 
 20 C       -7.4220    -3.9530     1.3880 C.ar  1 <1>  -0.1500 
 21 C       -7.8590    -4.4610     0.1780 C.ar  1 <1>  -0.1500 
 22 C       -7.4390    -5.2290    -2.1830 C.3   1 <1>  -0.0970 
 23 H       -2.1580     0.0360    -0.6570 H     1 <1>   0.3700 
 24 H       -0.7350     2.6670     1.4350 H     1 <1>   0.0800 
 25 H       -1.3590    -2.2870    -0.0910 H     1 <1>   0.0800 
 26 H       -1.6650    -1.8850     1.5830 H     1 <1>   0.0800 
 27 H       -3.1800     2.5210     1.1690 H     1 <1>   0.0800 
 28 H       -2.9610     2.1750    -0.5270 H     1 <1>   0.0800 
 29 H        0.8170     2.3290    -0.2260 H     1 <1>   0.0800 
 30 H       -0.2570     1.4500    -1.2600 H     1 <1>   0.0800 
 31 H       -4.0440    -1.4320     1.0320 H     1 <1>   0.0800 
 32 H       -3.7420    -1.8840    -0.6300 H     1 <1>   0.0800 
 33 H       -2.6690     4.7680     0.9170 H     1 <1>   0.0800 
 34 H       -1.1470     3.3270    -2.2250 H     1 <1>   0.0800 
 35 H        0.4420     3.9380    -1.8430 H     1 <1>   0.0800 
 36 H       -3.4340    -3.7080     1.7690 H     1 <1>   0.0800 
 37 H       -3.1050    -4.1650     0.1240 H     1 <1>   0.0800 
 38 H       -0.4560     4.9360     0.2330 H     1 <1>   0.0800 
 39 H       -5.4650     4.8690    -1.1640 H     1 <1>   0.0800 
 40 H       -4.7710     5.4650     0.3380 H     1 <1>   0.0800 
 41 H       -5.0810     3.7350     0.1220 H     1 <1>   0.0800 
 42 H       -2.2270     5.6770    -1.7300 H     1 <1>   0.4000 
 43 H       -4.9230    -4.5280    -1.4670 H     1 <1>   0.1500 
 44 H       -5.7530    -3.2570     2.5150 H     1 <1>   0.1500 
 45 H       -8.1230    -3.7900     2.1880 H     1 <1>   0.1500 
 46 H       -8.9010    -4.6900     0.0440 H     1 <1>   0.1500 
 47 H       -8.2880    -5.8730    -2.0360 H     1 <1>   0.0800 
 48 H       -6.6600    -5.7990    -2.6550 H     1 <1>   0.0800 
 49 H       -7.7240    -4.4210    -2.8330 H     1 <1>   0.0800 
@<TRIPOS>BOND
  1   1   2  2   
  2   2   3  am  
  3   2   4  1   
  4   3   5  1   
  5   3  23  1   
  6   4   6  1   
  7   4   7  1   
  8   4  24  1   
  9   5   8  1   
 10   5  25  1   
 11   5  26  1   
 12   6   9  1   
 13   6  27  1   
 14   6  28  1   
 15   7  10  1   
 16   7  29  1   
 17   7  30  1   
 18   8  11  1   
 19   8  31  1   
 20   8  32  1   
 21   9  12  1   
 22   9  13  1   
 23   9  33  1   
 24  10  13  1   
 25  10  34  1   
 26  10  35  1   
 27  11  14  1   
 28  11  36  1   
 29  11  37  1   
 30  12  15  1   
 31  13  16  1   
 32  13  38  1   
 33  14  17  ar  
 34  14  18  ar  
 35  15  39  1   
 36  15  40  1   
 37  15  41  1   
 38  16  42  1   
 39  17  19  ar  
 40  17  43  1   
 41  18  20  ar  
 42  18  44  1   
 43  19  21  ar  
 44  19  22  1   
 45  20  21  ar  
 46  20  45  1   
 47  21  46  1   
 48  22  47  1   
 49  22  48  1   
 50  22  49  1   
@<TRIPOS>SUBSTRUCTURE
  1 ****   3 GROUP 4 **** **** 0

# MOE 2024.06 (io_trps.svl 2023.06)
