@<TRIPOS>MOLECULE
NONAME
51 54 1 0 0 
SMALL
USER_CHARGES


@<TRIPOS>ATOM
  1 S        0.4560    -0.5730     2.1620 S.3   1 <1>  -0.0800 
  2 C        1.2700    -1.2300     0.7680 C.2   1 <1>  -0.1400 
  3 C        0.8570     1.0340     1.6050 C.2   1 <1>   0.2280 
  4 C        1.7530    -0.2110     0.0360 C.2   1 <1>   0.0460 
  5 C        1.2990    -2.7420     0.6240 C.3   1 <1>   0.0200 
  6 N        1.5120     1.0660     0.5140 N.2   1 <1>  -0.5650 
  7 C        2.5320    -0.2940    -1.2600 C.3   1 <1>  -0.0590 
  8 C       -0.0890    -3.2730     0.2390 C.3   1 <1>  -0.0990 
  9 C       -0.1290    -4.7760     0.0080 C.2   1 <1>   0.5690 
 10 O        0.8810    -5.4140     0.1990 O.2   1 <1>  -0.5700 
 11 N       -1.2900    -5.3760    -0.4070 N.am  1 <1>  -0.6600 
 12 C       -2.6040    -4.6920    -0.6250 C.3   1 <1>   0.1400 
 13 C       -1.3650    -6.8520    -0.6400 C.3   1 <1>   0.1400 
 14 C       -3.7180    -5.3670     0.1990 C.3   1 <1>   0.1900 
 15 C       -2.5150    -7.4800     0.1630 C.3   1 <1>   0.1100 
 16 N       -3.8060    -6.8130    -0.1220 N.3   1 <1>  -0.8100 
 17 C       -5.0710    -4.6740    -0.0560 C.3   1 <1>   0.1200 
 18 C       -4.9240    -7.4300     0.6320 C.3   1 <1>   0.3330 
 19 O       -6.0810    -5.2850     0.6940 O.3   1 <1>  -0.5600 
 20 C       -5.1270    -8.8880     0.2230 C.ar  1 <1>  -0.1440 
 21 C       -6.2360    -6.6490     0.4020 C.3   1 <1>   0.1200 
 22 C       -5.2760    -9.8690     1.1940 C.ar  1 <1>  -0.1500 
 23 C       -5.1700    -9.2530    -1.1160 C.ar  1 <1>  -0.1500 
 24 C       -5.4660   -11.1910     0.8320 C.ar  1 <1>  -0.1500 
 25 C       -5.3600   -10.5750    -1.4790 C.ar  1 <1>  -0.1500 
 26 C       -5.5090   -11.5450    -0.5040 C.ar  1 <1>  -0.1500 
 27 H        0.5280     1.8600     2.2090 H     1 <1>   0.1500 
 28 H        2.0100    -3.0200    -0.1330 H     1 <1>   0.0800 
 29 H        1.6200    -3.1850     1.5510 H     1 <1>   0.0800 
 30 H        2.6570    -1.3130    -1.5730 H     1 <1>   0.0800 
 31 H        3.5010     0.1500    -1.1240 H     1 <1>   0.0800 
 32 H        2.0100     0.2450    -2.0280 H     1 <1>   0.0800 
 33 H       -0.4030    -2.7820    -0.6630 H     1 <1>   0.0800 
 34 H       -0.7830    -3.0330     1.0220 H     1 <1>   0.0800 
 35 H       -2.5500    -3.6540    -0.3550 H     1 <1>   0.0800 
 36 H       -2.8560    -4.7510    -1.6700 H     1 <1>   0.0800 
 37 H       -1.5270    -7.0350    -1.6880 H     1 <1>   0.0800 
 38 H       -0.4420    -7.3290    -0.3630 H     1 <1>   0.0800 
 39 H       -3.4780    -5.2450     1.2420 H     1 <1>   0.0800 
 40 H       -2.2880    -7.4140     1.2140 H     1 <1>   0.0800 
 41 H       -2.5780    -8.5220    -0.0980 H     1 <1>   0.0800 
 42 H       -5.3360    -4.7270    -1.0980 H     1 <1>   0.0800 
 43 H       -5.0260    -3.6420     0.2420 H     1 <1>   0.0800 
 44 H       -4.6990    -7.3900     1.6840 H     1 <1>   0.0800 
 45 H       -7.0100    -7.0370     1.0390 H     1 <1>   0.0800 
 46 H       -6.5540    -6.7470    -0.6210 H     1 <1>   0.0800 
 47 H       -5.2460    -9.6090     2.2380 H     1 <1>   0.1500 
 48 H       -5.0480    -8.5020    -1.8770 H     1 <1>   0.1500 
 49 H       -5.5810   -11.9460     1.5910 H     1 <1>   0.1500 
 50 H       -5.3910   -10.8470    -2.5200 H     1 <1>   0.1500 
 51 H       -5.6570   -12.5730    -0.7860 H     1 <1>   0.1500 
@<TRIPOS>BOND
  1   1   2  1   
  2   1   3  1   
  3   2   4  2   
  4   2   5  1   
  5   3   6  2   
  6   3  27  1   
  7   4   6  1   
  8   4   7  1   
  9   5   8  1   
 10   5  28  1   
 11   5  29  1   
 12   7  30  1   
 13   7  31  1   
 14   7  32  1   
 15   8   9  1   
 16   8  33  1   
 17   8  34  1   
 18   9  10  2   
 19   9  11  am  
 20  11  12  1   
 21  11  13  1   
 22  12  14  1   
 23  12  35  1   
 24  12  36  1   
 25  13  15  1   
 26  13  37  1   
 27  13  38  1   
 28  14  16  1   
 29  14  17  1   
 30  14  39  1   
 31  15  16  1   
 32  15  40  1   
 33  15  41  1   
 34  16  18  1   
 35  17  19  1   
 36  17  42  1   
 37  17  43  1   
 38  18  20  1   
 39  18  21  1   
 40  18  44  1   
 41  19  21  1   
 42  20  22  ar  
 43  20  23  ar  
 44  21  45  1   
 45  21  46  1   
 46  22  24  ar  
 47  22  47  1   
 48  23  25  ar  
 49  23  48  1   
 50  24  26  ar  
 51  24  49  1   
 52  25  26  ar  
 53  25  50  1   
 54  26  51  1   
@<TRIPOS>SUBSTRUCTURE
  1 ****  12 GROUP 4 **** **** 0

# MOE 2024.06 (io_trps.svl 2023.06)
