@<TRIPOS>MOLECULE
NONAME
47 48 1 0 0 
SMALL
USER_CHARGES


@<TRIPOS>ATOM
  1 CL      -2.2060    -1.4420    -3.1560 Cl    1 <1>  -0.1770 
  2 C       -2.4580    -1.6840    -1.4440 C.ar  1 <1>   0.1770 
  3 C       -2.4480    -0.6030    -0.5750 C.ar  1 <1>  -0.1440 
  4 C       -2.6750    -2.9710    -0.9950 C.ar  1 <1>  -0.1500 
  5 C       -2.6600    -0.8430     0.7730 C.ar  1 <1>  -0.1500 
  6 C       -2.1990     0.8120    -1.0770 C.3   1 <1>  -0.0960 
  7 C       -2.9100    -3.2180     0.3540 C.ar  1 <1>   0.0860 
  8 C       -2.8840    -2.1310     1.2270 C.ar  1 <1>  -0.1500 
  9 C       -3.1880    -4.5620     0.8190 C.2   1 <1>   0.5440 
 10 O       -2.3230    -5.4090     0.7440 O.2   1 <1>  -0.5700 
 11 N       -4.4310    -4.9070     1.3020 N.am  1 <1>  -0.6600 
 12 C       -4.6920    -6.2860     1.8300 C.3   1 <1>   0.3210 
 13 C       -5.6380    -4.0460     1.1670 C.3   1 <1>   0.1400 
 14 C       -5.5280    -7.1150     0.8530 C.2   1 <1>   0.0460 
 15 C       -6.1470    -4.0740    -0.2860 C.3   1 <1>   0.3430 
 16 N       -6.8710    -6.9660     0.7530 N.2   1 <1>  -0.5650 
 17 C       -5.0900    -8.0800     0.0110 C.2   1 <1>  -0.3320 
 18 N       -7.5160    -3.4750    -0.4390 N.4   1 <1>  -0.9590 
 19 C       -7.2150    -7.8630    -0.1160 C.2   1 <1>   0.0360 
 20 N       -6.1780    -8.5700    -0.6080 N.pl3 1 <1>   0.0330 
 21 C       -3.6880    -8.6040    -0.2590 C.3   1 <1>  -0.0600 
 22 C       -8.5520    -4.3850     0.1510 C.3   1 <1>   0.2630 
 23 C       -7.8090    -3.2350    -1.8840 C.3   1 <1>   0.2630 
 24 H       -2.6550    -3.7890    -1.6930 H     1 <1>   0.1500 
 25 H       -2.6440    -0.0270     1.4770 H     1 <1>   0.1500 
 26 H       -2.9490     1.0890    -1.7970 H     1 <1>   0.0800 
 27 H       -1.2330     0.8690    -1.5480 H     1 <1>   0.0800 
 28 H       -2.2240     1.5220    -0.2700 H     1 <1>   0.0800 
 29 H       -3.0360    -2.3040     2.2800 H     1 <1>   0.1500 
 30 H       -5.2140    -6.2190     2.7680 H     1 <1>   0.0800 
 31 H       -3.7650    -6.7950     2.0250 H     1 <1>   0.0800 
 32 H       -5.4020    -3.0380     1.4550 H     1 <1>   0.0800 
 33 H       -6.3980    -4.4160     1.8330 H     1 <1>   0.0800 
 34 H       -6.1670    -5.0950    -0.6280 H     1 <1>   0.0800 
 35 H       -5.4460    -3.5320    -0.8980 H     1 <1>   0.0800 
 36 H       -7.5420    -2.5710     0.0560 H     1 <1>   0.4500 
 37 H       -8.2270    -8.0550    -0.4300 H     1 <1>   0.1500 
 38 H       -6.2130    -9.3340    -1.2910 H     1 <1>   0.2700 
 39 H       -2.9550    -8.0470     0.2970 H     1 <1>   0.0800 
 40 H       -3.4510    -8.5120    -1.3040 H     1 <1>   0.0800 
 41 H       -3.6150    -9.6380     0.0250 H     1 <1>   0.0800 
 42 H       -8.5330    -5.3420    -0.3460 H     1 <1>   0.0800 
 43 H       -9.5360    -3.9580     0.0420 H     1 <1>   0.0800 
 44 H       -8.3630    -4.5500     1.1990 H     1 <1>   0.0800 
 45 H       -7.7840    -4.1650    -2.4290 H     1 <1>   0.0800 
 46 H       -7.0770    -2.5670    -2.3090 H     1 <1>   0.0800 
 47 H       -8.7850    -2.7930    -2.0000 H     1 <1>   0.0800 
@<TRIPOS>BOND
  1   1   2  1   
  2   2   3  ar  
  3   2   4  ar  
  4   3   5  ar  
  5   3   6  1   
  6   4   7  ar  
  7   4  24  1   
  8   5   8  ar  
  9   5  25  1   
 10   6  26  1   
 11   6  27  1   
 12   6  28  1   
 13   7   8  ar  
 14   7   9  1   
 15   8  29  1   
 16   9  10  2   
 17   9  11  am  
 18  11  12  1   
 19  11  13  1   
 20  12  14  1   
 21  12  30  1   
 22  12  31  1   
 23  13  15  1   
 24  13  32  1   
 25  13  33  1   
 26  14  16  1   
 27  14  17  2   
 28  15  18  1   
 29  15  34  1   
 30  15  35  1   
 31  16  19  2   
 32  17  20  1   
 33  17  21  1   
 34  18  22  1   
 35  18  23  1   
 36  18  36  1   
 37  19  20  1   
 38  19  37  1   
 39  20  38  1   
 40  21  39  1   
 41  21  40  1   
 42  21  41  1   
 43  22  42  1   
 44  22  43  1   
 45  22  44  1   
 46  23  45  1   
 47  23  46  1   
 48  23  47  1   
@<TRIPOS>SUBSTRUCTURE
  1 ****  11 GROUP 4 **** **** 0

# MOE 2024.06 (io_trps.svl 2023.06)
