@<TRIPOS>MOLECULE
NONAME
43 44 1 0 0 
SMALL
USER_CHARGES


@<TRIPOS>ATOM
  1 O        0.7230     0.4720     1.8010 O.2   1 <1>  -0.5750 
  2 C        0.8540    -0.6860     1.4850 C.2   1 <1>   0.8490 
  3 N        1.4580    -0.9910     0.3010 N.pl3 1 <1>  -0.7340 
  4 C        0.3700    -1.8250     2.4410 C.3   1 <1>   0.3340 
  5 C        1.8650    -0.1610    -0.6530 C.cat 1 <1>   1.0690 
  6 O        0.1570    -3.0720     1.7730 O.3   1 <1>  -0.3690 
  7 C        1.4790    -2.1320     3.4600 C.3   1 <1>  -0.2480 
  8 C       -0.9120    -1.4830     3.2240 C.3   1 <1>  -0.2480 
  9 N        1.9220     1.1530    -0.5620 N.pl3 1 <1>  -0.7040 
 10 N        2.2790    -0.5430    -1.8610 N.pl3 1 <1>  -0.7680 
 11 C       -0.2460    -3.2300     0.4870 C.ar  1 <1>   0.0740 
 12 C        2.3850     1.6580    -1.7530 C.2   1 <1>   0.1920 
 13 C        2.6070     0.6060    -2.5610 C.2   1 <1>   0.1920 
 14 C        2.3600    -1.9110    -2.4390 C.3   1 <1>   0.2660 
 15 C        0.4440    -4.1480    -0.3060 C.ar  1 <1>  -0.1520 
 16 C       -1.2720    -2.4660    -0.0550 C.ar  1 <1>  -0.1580 
 17 C        0.1210    -4.2610    -1.6560 C.ar  1 <1>  -0.1520 
 18 C        1.5370    -5.0300     0.3030 C.3   1 <1>  -0.1050 
 19 C       -1.5860    -2.5850    -1.3940 C.ar  1 <1>  -0.1580 
 20 C       -0.8890    -3.4750    -2.1880 C.ar  1 <1>  -0.1580 
 21 C        0.8290    -5.2440    -2.5800 C.3   1 <1>  -0.1050 
 22 H        1.3790    -1.9720     0.0410 H     1 <1>   0.4440 
 23 H        2.3810    -2.4340     2.9590 H     1 <1>   0.0710 
 24 H        1.1700    -2.9190     4.1260 H     1 <1>   0.0710 
 25 H        1.6960    -1.2590     4.0500 H     1 <1>   0.0710 
 26 H       -1.7090    -1.1770     2.5760 H     1 <1>   0.0710 
 27 H       -0.7230    -0.6690     3.9010 H     1 <1>   0.0710 
 28 H       -1.2360    -2.3310     3.8030 H     1 <1>   0.0710 
 29 H        1.6200     1.6430     0.2880 H     1 <1>   0.4440 
 30 H        2.5200     2.7130    -1.9380 H     1 <1>   0.1420 
 31 H        2.9710     0.5960    -3.5780 H     1 <1>   0.1420 
 32 H        2.4660    -2.6480    -1.6620 H     1 <1>   0.0710 
 33 H        3.2130    -1.9840    -3.0930 H     1 <1>   0.0710 
 34 H        1.4690    -2.1210    -3.0060 H     1 <1>   0.0710 
 35 H       -1.8420    -1.7850     0.5430 H     1 <1>   0.1420 
 36 H        1.4320    -5.1150     1.3700 H     1 <1>   0.0710 
 37 H        2.5090    -4.6270     0.0850 H     1 <1>   0.0710 
 38 H        1.4800    -6.0280    -0.0900 H     1 <1>   0.0710 
 39 H       -2.3830    -1.9980    -1.8180 H     1 <1>   0.1420 
 40 H       -1.1570    -3.5650    -3.2280 H     1 <1>   0.1420 
 41 H        1.8960    -5.1810    -2.4650 H     1 <1>   0.0710 
 42 H        0.5910    -5.0490    -3.6100 H     1 <1>   0.0710 
 43 H        0.5140    -6.2470    -2.3500 H     1 <1>   0.0710 
@<TRIPOS>BOND
  1   1   2  2   
  2   2   3  1   
  3   2   4  1   
  4   3   5  ar  
  5   3  22  1   
  6   4   6  1   
  7   4   7  1   
  8   4   8  1   
  9   5   9  ar  
 10   5  10  ar  
 11   6  11  1   
 12   7  23  1   
 13   7  24  1   
 14   7  25  1   
 15   8  26  1   
 16   8  27  1   
 17   8  28  1   
 18   9  12  1   
 19   9  29  1   
 20  10  13  1   
 21  10  14  1   
 22  11  15  ar  
 23  11  16  ar  
 24  12  13  2   
 25  12  30  1   
 26  13  31  1   
 27  14  32  1   
 28  14  33  1   
 29  14  34  1   
 30  15  17  ar  
 31  15  18  1   
 32  16  19  ar  
 33  16  35  1   
 34  17  20  ar  
 35  17  21  1   
 36  18  36  1   
 37  18  37  1   
 38  18  38  1   
 39  19  20  ar  
 40  19  39  1   
 41  20  40  1   
 42  21  41  1   
 43  21  42  1   
 44  21  43  1   
@<TRIPOS>SUBSTRUCTURE
  1 ****   3 GROUP 4 **** **** 0

# MOE 2024.06 (io_trps.svl 2023.06)
