@<TRIPOS>MOLECULE
NONAME
39 41 1 0 0 
SMALL
USER_CHARGES


@<TRIPOS>ATOM
  1 CL      -0.0810     0.0230    -1.0720 Cl    1 <1>  -0.1240 
  2 C       -1.0730    -1.2330    -0.3890 C.2   1 <1>   0.1640 
  3 S       -0.4730    -2.8670    -0.5100 S.3   1 <1>  -0.0800 
  4 C       -2.2610    -1.1810     0.2370 C.2   1 <1>  -0.1500 
  5 C       -1.9020    -3.5060     0.3220 C.2   1 <1>  -0.0450 
  6 C       -2.7240    -2.4680     0.6410 C.2   1 <1>  -0.1500 
  7 C       -1.9890    -4.9300     0.5360 C.2   1 <1>   0.7150 
  8 O       -0.9800    -5.5920     0.6950 O.2   1 <1>  -0.5700 
  9 N       -3.2080    -5.5720     0.5570 N.am  1 <1>  -0.6600 
 10 C       -4.3970    -5.1130    -0.2100 C.3   1 <1>   0.1400 
 11 C       -3.3540    -7.0150     0.8690 C.3   1 <1>   0.1400 
 12 C       -5.3020    -6.3440    -0.3700 C.3   1 <1>   0.2000 
 13 C       -4.3580    -7.5310    -0.1610 C.3   1 <1>  -0.0800 
 14 O       -6.2660    -6.3520     0.6440 O.3   1 <1>  -0.5600 
 15 C       -5.0500    -8.8410     0.2570 C.3   1 <1>   0.0200 
 16 C       -7.4400    -5.6600     0.3550 C.3   1 <1>   0.0400 
 17 C       -4.1050   -10.0310     0.2870 C.2   1 <1>  -0.0400 
 18 O       -4.5550   -11.1790     0.7210 O.3   1 <1>  -0.0190 
 19 C       -2.8170   -10.2020    -0.0550 C.2   1 <1>  -0.1500 
 20 N       -3.6400   -12.1050     0.6910 N.2   1 <1>  -0.4100 
 21 C       -2.5820   -11.5440     0.2280 C.2   1 <1>   0.1080 
 22 C       -1.2630   -12.2540     0.0220 C.3   1 <1>  -0.0590 
 23 H       -2.8210    -0.2830     0.4290 H     1 <1>   0.1500 
 24 H       -3.6560    -2.5700     1.1690 H     1 <1>   0.1500 
 25 H       -4.9090    -4.3250     0.3120 H     1 <1>   0.0800 
 26 H       -4.0780    -4.7650    -1.1770 H     1 <1>   0.0800 
 27 H       -2.4150    -7.5380     0.8090 H     1 <1>   0.0800 
 28 H       -3.7530    -7.1140     1.8650 H     1 <1>   0.0800 
 29 H       -5.7910    -6.3830    -1.3290 H     1 <1>   0.0800 
 30 H       -3.8290    -7.6960    -1.0830 H     1 <1>   0.0800 
 31 H       -5.8460    -9.0590    -0.4330 H     1 <1>   0.0800 
 32 H       -5.4880    -8.7270     1.2330 H     1 <1>   0.0800 
 33 H       -8.0840    -5.7220     1.2150 H     1 <1>   0.0800 
 34 H       -7.9240    -6.1190    -0.4900 H     1 <1>   0.0800 
 35 H       -7.2120    -4.6290     0.1490 H     1 <1>   0.0800 
 36 H       -2.1020    -9.5080    -0.4550 H     1 <1>   0.1500 
 37 H       -0.4910   -11.7570     0.5800 H     1 <1>   0.0800 
 38 H       -1.0060   -12.2510    -1.0210 H     1 <1>   0.0800 
 39 H       -1.3370   -13.2720     0.3600 H     1 <1>   0.0800 
@<TRIPOS>BOND
  1   1   2  1   
  2   2   3  1   
  3   2   4  2   
  4   3   5  1   
  5   4   6  1   
  6   4  23  1   
  7   5   6  2   
  8   5   7  1   
  9   6  24  1   
 10   7   8  2   
 11   7   9  am  
 12   9  10  1   
 13   9  11  1   
 14  10  12  1   
 15  10  25  1   
 16  10  26  1   
 17  11  13  1   
 18  11  27  1   
 19  11  28  1   
 20  12  13  1   
 21  12  14  1   
 22  12  29  1   
 23  13  15  1   
 24  13  30  1   
 25  14  16  1   
 26  15  17  1   
 27  15  31  1   
 28  15  32  1   
 29  16  33  1   
 30  16  34  1   
 31  16  35  1   
 32  17  18  1   
 33  17  19  2   
 34  18  20  1   
 35  19  21  1   
 36  19  36  1   
 37  20  21  2   
 38  21  22  1   
 39  22  37  1   
 40  22  38  1   
 41  22  39  1   
@<TRIPOS>SUBSTRUCTURE
  1 ****  11 GROUP 4 **** **** 0

# MOE 2024.06 (io_trps.svl 2023.06)
