@<TRIPOS>MOLECULE
NONAME
60 62 1 0 0 
SMALL
USER_CHARGES


@<TRIPOS>ATOM
  1 O       -0.2590     0.8110     1.7680 O.2   1 <1>  -0.5700 
  2 C       -0.2190     1.8030     1.0630 C.2   1 <1>   0.5440 
  3 N       -1.4060     2.3850     0.6660 N.am  1 <1>  -0.6600 
  4 C        1.0670     2.3330     0.6460 C.ar  1 <1>   0.0860 
  5 C       -1.4880     3.3150    -0.4960 C.3   1 <1>   0.1400 
  6 C       -2.6930     1.9660     1.2880 C.3   1 <1>   0.1400 
  7 C        1.3950     3.6780     0.8180 C.ar  1 <1>  -0.1500 
  8 C        2.0240     1.5090     0.0580 C.ar  1 <1>  -0.1500 
  9 C       -2.8450     3.1710    -1.1830 C.3   1 <1>  -0.1600 
 10 C       -3.7280     3.0920     1.1990 C.3   1 <1>  -0.1600 
 11 C        2.6140     4.1810     0.4010 C.ar  1 <1>  -0.1500 
 12 C        3.2440     2.0070    -0.3610 C.ar  1 <1>  -0.1500 
 13 C       -4.0030     3.5950    -0.2460 C.3   1 <1>   0.2800 
 14 C        3.5460     3.3490    -0.1970 C.ar  1 <1>  -0.1430 
 15 O       -3.9530     5.0040    -0.1490 O.3   1 <1>  -0.5600 
 16 C       -5.4190     3.1210    -0.7470 C.3   1 <1>   0.2000 
 17 C        4.8870     3.8990    -0.6580 C.3   1 <1>  -0.0170 
 18 C       -4.6060     5.7640    -1.1170 C.3   1 <1>   0.1200 
 19 O       -5.4130     2.8460    -2.1250 O.3   1 <1>  -0.6800 
 20 C       -6.5260     4.1730    -0.4380 C.3   1 <1>   0.3000 
 21 C        5.9220     3.8110     0.4690 C.3   1 <1>  -0.1600 
 22 C       -6.1230     5.5210    -1.0720 C.3   1 <1>  -0.1600 
 23 N       -6.6190     4.4220     1.0220 N.am  1 <1>  -0.7300 
 24 C       -7.9100     3.7690    -0.9780 C.3   1 <1>  -0.2400 
 25 C        7.2840     4.3600     0.0290 C.3   1 <1>  -0.2400 
 26 C       -7.1430     3.7550     2.0760 C.2   1 <1>   0.5690 
 27 O       -6.9280     4.1620     3.1860 O.2   1 <1>  -0.5700 
 28 C       -7.9570     2.4930     1.9340 C.3   1 <1>  -0.1790 
 29 H       -1.3600     4.3270    -0.1520 H     1 <1>   0.0800 
 30 H       -0.7040     3.0890    -1.2000 H     1 <1>   0.0800 
 31 H       -3.0550     1.0860     0.7840 H     1 <1>   0.0800 
 32 H       -2.5280     1.7130     2.3220 H     1 <1>   0.0800 
 33 H        0.6820     4.3310     1.2900 H     1 <1>   0.1500 
 34 H        1.7980     0.4640    -0.0670 H     1 <1>   0.1500 
 35 H       -2.9630     2.1410    -1.4730 H     1 <1>   0.0800 
 36 H       -2.8500     3.7540    -2.0840 H     1 <1>   0.0800 
 37 H       -3.3710     3.9030     1.8090 H     1 <1>   0.0800 
 38 H       -4.6280     2.7330     1.6580 H     1 <1>   0.0800 
 39 H        2.8380     5.2230     0.5470 H     1 <1>   0.1500 
 40 H        3.9610     1.3440    -0.8140 H     1 <1>   0.1500 
 41 H       -5.6690     2.1880    -0.2750 H     1 <1>   0.0800 
 42 H        5.2310     3.3410    -1.5110 H     1 <1>   0.0800 
 43 H        4.7690     4.9240    -0.9640 H     1 <1>   0.0800 
 44 H       -4.3890     6.8000    -0.9210 H     1 <1>   0.0800 
 45 H       -4.2020     5.5110    -2.0810 H     1 <1>   0.0800 
 46 H       -5.1250     3.6330    -2.6230 H     1 <1>   0.4000 
 47 H        5.5700     4.3690     1.3200 H     1 <1>   0.0800 
 48 H        6.0320     2.7840     0.7720 H     1 <1>   0.0800 
 49 H       -6.6060     6.3310    -0.5530 H     1 <1>   0.0800 
 50 H       -6.4730     5.5700    -2.0870 H     1 <1>   0.0800 
 51 H       -5.9880     5.1750     1.3070 H     1 <1>   0.3700 
 52 H       -7.9220     3.8110    -2.0520 H     1 <1>   0.0800 
 53 H       -8.6700     4.4340    -0.6070 H     1 <1>   0.0800 
 54 H       -8.1500     2.7580    -0.7130 H     1 <1>   0.0800 
 55 H        7.2000     5.3940    -0.2550 H     1 <1>   0.0800 
 56 H        7.6640     3.7990    -0.8070 H     1 <1>   0.0800 
 57 H        7.9890     4.2860     0.8390 H     1 <1>   0.0800 
 58 H       -7.4520     1.7900     1.3000 H     1 <1>   0.0800 
 59 H       -8.9240     2.7290     1.5320 H     1 <1>   0.0800 
 60 H       -8.0920     2.0430     2.9000 H     1 <1>   0.0800 
@<TRIPOS>BOND
  1   1   2  2   
  2   2   3  am  
  3   2   4  1   
  4   3   5  1   
  5   3   6  1   
  6   4   7  ar  
  7   4   8  ar  
  8   5   9  1   
  9   5  29  1   
 10   5  30  1   
 11   6  10  1   
 12   6  31  1   
 13   6  32  1   
 14   7  11  ar  
 15   7  33  1   
 16   8  12  ar  
 17   8  34  1   
 18   9  13  1   
 19   9  35  1   
 20   9  36  1   
 21  10  13  1   
 22  10  37  1   
 23  10  38  1   
 24  11  14  ar  
 25  11  39  1   
 26  12  14  ar  
 27  12  40  1   
 28  13  15  1   
 29  13  16  1   
 30  14  17  1   
 31  15  18  1   
 32  16  19  1   
 33  16  20  1   
 34  16  41  1   
 35  17  21  1   
 36  17  42  1   
 37  17  43  1   
 38  18  22  1   
 39  18  44  1   
 40  18  45  1   
 41  19  46  1   
 42  20  22  1   
 43  20  23  1   
 44  20  24  1   
 45  21  25  1   
 46  21  47  1   
 47  21  48  1   
 48  22  49  1   
 49  22  50  1   
 50  23  26  am  
 51  23  51  1   
 52  24  52  1   
 53  24  53  1   
 54  24  54  1   
 55  25  55  1   
 56  25  56  1   
 57  25  57  1   
 58  26  27  2   
 59  26  28  1   
 60  28  58  1   
 61  28  59  1   
 62  28  60  1   
@<TRIPOS>SUBSTRUCTURE
  1 ****   5 GROUP 4 **** **** 0

# MOE 2024.06 (io_trps.svl 2023.06)
