@<TRIPOS>MOLECULE
NONAME
41 43 1 0 0 
SMALL
USER_CHARGES


@<TRIPOS>ATOM
  1 N       -0.1710     0.0970     0.0880 N.ar  1 <1>  -0.6200 
  2 C        1.0270    -0.4770     0.1040 C.ar  1 <1>   0.7200 
  3 C       -1.2010    -0.7010    -0.0470 C.ar  1 <1>   0.1660 
  4 N        1.2700    -1.7780    -0.0060 N.ar  1 <1>  -0.6200 
  5 N        2.1170     0.3520     0.2500 N.pl3 1 <1>  -0.8380 
  6 C       -1.0600    -2.0710    -0.1640 C.ar  1 <1>  -0.1430 
  7 C       -2.5640    -0.0230    -0.0510 C.3   1 <1>  -0.0170 
  8 C        0.2320    -2.5630    -0.1450 C.ar  1 <1>   0.1670 
  9 C        1.9980     1.8180     0.0250 C.3   1 <1>   0.3900 
 10 C        3.4290    -0.1520     0.7530 C.3   1 <1>   0.1290 
 11 C       -2.2720    -2.9910    -0.3190 C.3   1 <1>  -0.0160 
 12 C       -3.6920    -0.9280    -0.5620 C.3   1 <1>  -0.1600 
 13 C        0.5450    -4.0420    -0.2800 C.3   1 <1>  -0.0970 
 14 C        3.2650     2.3810    -0.6020 C.2   1 <1>  -0.1810 
 15 C       -3.5890    -2.3140     0.0780 C.3   1 <1>  -0.1600 
 16 C        4.1470     3.3030    -0.1520 C.2   1 <1>  -0.3320 
 17 C        3.7530     2.0000    -1.8470 C.2   1 <1>   0.1390 
 18 N        5.0870     3.4320    -1.1140 N.pl3 1 <1>   0.3000 
 19 C        4.1720     4.0900     1.1470 C.3   1 <1>  -0.0600 
 20 N        4.8460     2.6260    -2.1630 N.2   1 <1>  -0.7070 
 21 H       -2.5170     0.8630    -0.6590 H     1 <1>   0.0800 
 22 H       -2.7810     0.2840     0.9570 H     1 <1>   0.0800 
 23 H        1.8030     2.2980     0.9660 H     1 <1>   0.0800 
 24 H        1.1760     2.0300    -0.6360 H     1 <1>   0.0800 
 25 H        3.3000    -1.0670     1.3050 H     1 <1>   0.0800 
 26 H        3.8810     0.5760     1.4040 H     1 <1>   0.0800 
 27 H        4.0860    -0.3370    -0.0790 H     1 <1>   0.0800 
 28 H       -2.1470    -3.8720     0.2850 H     1 <1>   0.0800 
 29 H       -2.3330    -3.2990    -1.3480 H     1 <1>   0.0800 
 30 H       -3.6170    -1.0210    -1.6320 H     1 <1>   0.0800 
 31 H       -4.6440    -0.4830    -0.3310 H     1 <1>   0.0800 
 32 H        1.5730    -4.1770    -0.5650 H     1 <1>   0.0800 
 33 H       -0.0720    -4.4950    -1.0330 H     1 <1>   0.0800 
 34 H        0.3830    -4.5320     0.6610 H     1 <1>   0.0800 
 35 H       -3.6340    -2.2180     1.1500 H     1 <1>   0.0800 
 36 H       -4.4170    -2.9260    -0.2360 H     1 <1>   0.0800 
 37 H        3.2820     1.2630    -2.4770 H     1 <1>   0.1500 
 38 H        5.9020     4.0560    -1.0850 H     1 <1>   0.2700 
 39 H        3.3420     3.8170     1.7730 H     1 <1>   0.0800 
 40 H        4.1120     5.1450     0.9430 H     1 <1>   0.0800 
 41 H        5.0820     3.8890     1.6840 H     1 <1>   0.0800 
@<TRIPOS>BOND
  1   1   2  ar  
  2   1   3  ar  
  3   2   4  ar  
  4   2   5  1   
  5   3   6  ar  
  6   3   7  1   
  7   4   8  ar  
  8   5   9  1   
  9   5  10  1   
 10   6   8  ar  
 11   6  11  1   
 12   7  12  1   
 13   7  21  1   
 14   7  22  1   
 15   8  13  1   
 16   9  14  1   
 17   9  23  1   
 18   9  24  1   
 19  10  25  1   
 20  10  26  1   
 21  10  27  1   
 22  11  15  1   
 23  11  28  1   
 24  11  29  1   
 25  12  15  1   
 26  12  30  1   
 27  12  31  1   
 28  13  32  1   
 29  13  33  1   
 30  13  34  1   
 31  14  16  2   
 32  14  17  1   
 33  15  35  1   
 34  15  36  1   
 35  16  18  1   
 36  16  19  1   
 37  17  20  2   
 38  17  37  1   
 39  18  20  1   
 40  18  38  1   
 41  19  39  1   
 42  19  40  1   
 43  19  41  1   
@<TRIPOS>SUBSTRUCTURE
  1 ****   2 GROUP 4 **** **** 0

# MOE 2024.06 (io_trps.svl 2023.06)
