@<TRIPOS>MOLECULE
NONAME
55 57 1 0 0 
SMALL
USER_CHARGES


@<TRIPOS>ATOM
  1 O        4.3550    -1.7230     0.3950 O.2   1 <1>  -0.5700 
  2 C        3.2890    -1.4850    -0.1410 C.2   1 <1>   0.5440 
  3 N        3.3210    -0.6240    -1.2140 N.am  1 <1>  -0.6600 
  4 C        2.0460    -2.0080     0.3860 C.ar  1 <1>   0.0860 
  5 C        4.5450    -0.5090    -2.0750 C.3   1 <1>   0.1400 
  6 C        2.3390     0.4800    -1.3550 C.3   1 <1>   0.1400 
  7 C        1.6550    -1.8100     1.7060 C.ar  1 <1>   0.1660 
  8 C        1.1530    -2.7260    -0.4030 C.ar  1 <1>   0.1660 
  9 C        5.6750     0.2970    -1.3990 C.3   1 <1>   0.3430 
 10 C        2.7470     1.6600    -0.4590 C.3   1 <1>  -0.1600 
 11 N        0.5000    -2.2280     2.1700 N.ar  1 <1>  -0.6200 
 12 C        2.5300    -1.0970     2.7250 C.3   1 <1>  -0.0960 
 13 N       -0.0090    -3.1430     0.0460 N.ar  1 <1>  -0.6200 
 14 C        1.4460    -3.0920    -1.8500 C.3   1 <1>  -0.0970 
 15 N        5.1700     1.1100    -0.2470 N.4   1 <1>  -0.9590 
 16 C        4.1860     2.1620    -0.6400 C.3   1 <1>   0.3430 
 17 C       -0.2700    -2.8710     1.3110 C.ar  1 <1>   0.4700 
 18 C        6.2640     1.6150     0.6430 C.3   1 <1>   0.3430 
 19 C        7.2210     2.5990    -0.0540 C.3   1 <1>   0.1100 
 20 N        8.0870     3.2470     0.9370 N.3   1 <1>  -0.8100 
 21 C        9.1600     2.3520     1.4370 C.3   1 <1>   0.1100 
 22 C        8.7050     4.4750     0.3830 C.3   1 <1>   0.1100 
 23 C       10.0890     3.0860     2.4220 C.3   1 <1>   0.1200 
 24 C        9.6510     5.1380     1.4010 C.3   1 <1>   0.1200 
 25 O       10.6240     4.2280     1.8220 O.3   1 <1>  -0.5600 
 26 H        4.2870    -0.0480    -3.0130 H     1 <1>   0.0800 
 27 H        4.9130    -1.4960    -2.3010 H     1 <1>   0.0800 
 28 H        1.3550     0.1380    -1.0750 H     1 <1>   0.0800 
 29 H        2.2900     0.7930    -2.3850 H     1 <1>   0.0800 
 30 H        6.1640     0.9240    -2.1260 H     1 <1>   0.0800 
 31 H        6.4030    -0.4100    -1.0330 H     1 <1>   0.0800 
 32 H        2.5820     1.4050     0.5720 H     1 <1>   0.0800 
 33 H        2.0820     2.4770    -0.6770 H     1 <1>   0.0800 
 34 H        3.0320    -0.2550     2.2920 H     1 <1>   0.0800 
 35 H        3.2620    -1.7850     3.1090 H     1 <1>   0.0800 
 36 H        1.9330    -0.7450     3.5480 H     1 <1>   0.0800 
 37 H        2.4960    -3.2550    -2.0080 H     1 <1>   0.0800 
 38 H        1.1030    -2.3100    -2.5010 H     1 <1>   0.0800 
 39 H        0.9310    -4.0000    -2.1090 H     1 <1>   0.0800 
 40 H        4.6420     0.3990     0.2940 H     1 <1>   0.4500 
 41 H        4.3230     3.0300    -0.0150 H     1 <1>   0.0800 
 42 H        4.3490     2.4600    -1.6620 H     1 <1>   0.0800 
 43 H       -1.2200    -3.2150     1.6870 H     1 <1>   0.1500 
 44 H        6.8360     0.7810     1.0140 H     1 <1>   0.0800 
 45 H        5.8260     2.1180     1.4890 H     1 <1>   0.0800 
 46 H        6.6390     3.3590    -0.5440 H     1 <1>   0.0800 
 47 H        7.8230     2.0930    -0.7890 H     1 <1>   0.0800 
 48 H        9.7540     1.9890     0.6160 H     1 <1>   0.0800 
 49 H        8.7280     1.5060     1.9430 H     1 <1>   0.0800 
 50 H        7.9360     5.1800     0.1190 H     1 <1>   0.0800 
 51 H        9.2680     4.2400    -0.5050 H     1 <1>   0.0800 
 52 H       10.9090     2.4510     2.7070 H     1 <1>   0.0800 
 53 H        9.5520     3.3790     3.3070 H     1 <1>   0.0800 
 54 H        9.1030     5.4820     2.2610 H     1 <1>   0.0800 
 55 H       10.1570     5.9750     0.9530 H     1 <1>   0.0800 
@<TRIPOS>BOND
  1   1   2  2   
  2   2   3  am  
  3   2   4  1   
  4   3   5  1   
  5   3   6  1   
  6   4   7  ar  
  7   4   8  ar  
  8   5   9  1   
  9   5  26  1   
 10   5  27  1   
 11   6  10  1   
 12   6  28  1   
 13   6  29  1   
 14   7  11  ar  
 15   7  12  1   
 16   8  13  ar  
 17   8  14  1   
 18   9  15  1   
 19   9  30  1   
 20   9  31  1   
 21  10  16  1   
 22  10  32  1   
 23  10  33  1   
 24  11  17  ar  
 25  12  34  1   
 26  12  35  1   
 27  12  36  1   
 28  13  17  ar  
 29  14  37  1   
 30  14  38  1   
 31  14  39  1   
 32  15  16  1   
 33  15  18  1   
 34  15  40  1   
 35  16  41  1   
 36  16  42  1   
 37  17  43  1   
 38  18  19  1   
 39  18  44  1   
 40  18  45  1   
 41  19  20  1   
 42  19  46  1   
 43  19  47  1   
 44  20  21  1   
 45  20  22  1   
 46  21  23  1   
 47  21  48  1   
 48  21  49  1   
 49  22  24  1   
 50  22  50  1   
 51  22  51  1   
 52  23  25  1   
 53  23  52  1   
 54  23  53  1   
 55  24  25  1   
 56  24  54  1   
 57  24  55  1   
@<TRIPOS>SUBSTRUCTURE
  1 ****  15 GROUP 4 **** **** 0

# MOE 2024.06 (io_trps.svl 2023.06)
