@<TRIPOS>MOLECULE
NONAME
40 42 1 0 0 
SMALL
USER_CHARGES


@<TRIPOS>ATOM
  1 S        0.4870     0.0830    -0.5590 S.o2  1 <1>   1.3330 
  2 O       -0.3260     0.3800    -1.7160 O.2   1 <1>  -0.6500 
  3 O        1.6440    -0.7730    -0.7000 O.2   1 <1>  -0.6500 
  4 N       -0.5410    -0.6190     0.5990 N.am  1 <1>  -0.8490 
  5 C        0.9830     1.6300     0.2130 C.3   1 <1>  -0.0550 
  6 C       -0.5410    -2.0840     0.5300 C.3   1 <1>   0.1160 
  7 C       -1.9210    -0.1220     0.5340 C.3   1 <1>   0.1160 
  8 C        2.1280     1.5740     1.2490 C.3   1 <1>  -0.0800 
  9 C        3.4880     1.2220     0.6420 C.3   1 <1>   0.2890 
 10 C        1.9680     0.5780     2.4030 C.3   1 <1>   0.1200 
 11 N        4.3960     2.3870     0.7730 N.pl3 1 <1>  -0.8690 
 12 C        3.9680     0.0610     1.5120 C.3   1 <1>   0.1200 
 13 O        3.2600     0.1730     2.7070 O.3   1 <1>  -0.5600 
 14 C        4.4460     3.4360    -0.1110 C.ar  1 <1>   0.4100 
 15 N        3.7510     3.3520    -1.2290 N.ar  1 <1>  -0.6200 
 16 C        5.1930     4.5720     0.1450 C.ar  1 <1>   0.0400 
 17 C        3.8460     4.3970    -2.0510 C.ar  1 <1>   0.4700 
 18 S        6.2000     4.9700     1.5480 S.3   1 <1>  -0.0800 
 19 C        5.2160     5.5960    -0.7640 C.ar  1 <1>   0.2560 
 20 N        4.5280     5.5170    -1.8980 N.ar  1 <1>  -0.5660 
 21 C        6.6250     6.5330     0.8490 C.2   1 <1>  -0.1100 
 22 C        6.0320     6.6980    -0.3490 C.2   1 <1>  -0.1500 
 23 H        1.2940     2.3020    -0.5630 H     1 <1>   0.0800 
 24 H        0.1250     2.0740     0.6770 H     1 <1>   0.0800 
 25 H       -1.1930    -2.4950     1.2810 H     1 <1>   0.0800 
 26 H        0.4520    -2.4620     0.7060 H     1 <1>   0.0800 
 27 H       -0.8680    -2.4120    -0.4430 H     1 <1>   0.0800 
 28 H       -2.4980    -0.5270     1.3480 H     1 <1>   0.0800 
 29 H       -2.3810    -0.4090    -0.3980 H     1 <1>   0.0800 
 30 H       -1.9360     0.9510     0.6080 H     1 <1>   0.0800 
 31 H        2.1910     2.5510     1.6950 H     1 <1>   0.0800 
 32 H        3.4370     0.9160    -0.3900 H     1 <1>   0.0800 
 33 H        1.4200    -0.3030     2.1250 H     1 <1>   0.0800 
 34 H        1.5240     1.0240     3.2760 H     1 <1>   0.0800 
 35 H        4.7650     2.5280     1.7180 H     1 <1>   0.4000 
 36 H        5.0250     0.0950     1.7080 H     1 <1>   0.0800 
 37 H        3.7060    -0.8800     1.0590 H     1 <1>   0.0800 
 38 H        3.2840     4.3140    -2.9670 H     1 <1>   0.1500 
 39 H        7.2830     7.1640     1.4200 H     1 <1>   0.1500 
 40 H        6.1230     7.5570    -0.9870 H     1 <1>   0.1500 
@<TRIPOS>BOND
  1   1   2  2   
  2   1   3  2   
  3   1   4  am  
  4   1   5  1   
  5   4   6  1   
  6   4   7  1   
  7   5   8  1   
  8   5  23  1   
  9   5  24  1   
 10   6  25  1   
 11   6  26  1   
 12   6  27  1   
 13   7  28  1   
 14   7  29  1   
 15   7  30  1   
 16   8   9  1   
 17   8  10  1   
 18   8  31  1   
 19   9  11  1   
 20   9  12  1   
 21   9  32  1   
 22  10  13  1   
 23  10  33  1   
 24  10  34  1   
 25  11  14  1   
 26  11  35  1   
 27  12  13  1   
 28  12  36  1   
 29  12  37  1   
 30  14  15  ar  
 31  14  16  ar  
 32  15  17  ar  
 33  16  18  1   
 34  16  19  ar  
 35  17  20  ar  
 36  17  38  1   
 37  18  21  1   
 38  19  20  ar  
 39  19  22  1   
 40  21  22  2   
 41  21  39  1   
 42  22  40  1   
@<TRIPOS>SUBSTRUCTURE
  1 ****   9 GROUP 4 **** **** 0

# MOE 2024.06 (io_trps.svl 2023.06)
