@<TRIPOS>MOLECULE
NONAME
56 58 1 0 0 
SMALL
USER_CHARGES


@<TRIPOS>ATOM
  1 S        0.1250     0.0690     1.5220 S.o2  1 <1>   1.5760 
  2 O        0.8810    -0.9890     2.1510 O.2   1 <1>  -0.6500 
  3 O       -0.9030     0.7780     2.2500 O.2   1 <1>  -0.6500 
  4 N        1.2070     1.2390     0.9590 N.am  1 <1>  -0.8490 
  5 N       -0.4920    -0.4970     0.0590 N.am  1 <1>  -0.8490 
  6 C        2.0650     1.6950     2.0750 C.3   1 <1>   0.1960 
  7 C        0.4880     2.3550     0.3350 C.3   1 <1>   0.1960 
  8 C       -1.7200    -1.2650     0.2740 C.3   1 <1>   0.1960 
  9 C        0.5000    -1.2900    -0.6730 C.3   1 <1>   0.1960 
 10 C        3.3350     2.4680     1.6570 C.3   1 <1>   0.3430 
 11 C        1.2760     2.9180    -0.8490 C.3   1 <1>  -0.1600 
 12 C       -2.3470    -1.6490    -1.0720 C.3   1 <1>  -0.1600 
 13 C       -0.0400    -1.6630    -2.0570 C.3   1 <1>  -0.1600 
 14 N        3.1030     3.5890     0.6860 N.4   1 <1>  -0.9590 
 15 C        2.7850     3.0050    -0.6470 C.3   1 <1>   0.3430 
 16 C       -1.3620    -2.4320    -1.9480 C.3   1 <1>  -0.1600 
 17 C        4.3880     4.3970     0.5890 C.3   1 <1>   0.4610 
 18 C        4.0740     5.6740    -0.2000 C.ar  1 <1>  -0.1440 
 19 C        5.6340     3.5720     0.1590 C.2   1 <1>   0.9060 
 20 C        3.4260     6.7120     0.4630 C.ar  1 <1>  -0.1500 
 21 C        4.4040     5.8240    -1.5440 C.ar  1 <1>  -0.1500 
 22 O        6.4760     3.3340     1.0290 O.co2 1 <1>  -0.9000 
 23 O        5.6590     3.0240    -0.9530 O.co2 1 <1>  -0.9000 
 24 C        3.0920     7.8850    -0.1950 C.ar  1 <1>  -0.1440 
 25 C        4.0800     6.9870    -2.2190 C.ar  1 <1>  -0.1500 
 26 C        3.4280     7.9950    -1.5360 C.ar  1 <1>   0.1900 
 27 C        2.3840     9.0190     0.5330 C.3   1 <1>  -0.0970 
 28 F        3.1250     9.0860    -2.1880 F     1 <1>  -0.1900 
 29 H        2.4100     0.8380     2.6300 H     1 <1>   0.0800 
 30 H        1.4870     2.2920     2.7600 H     1 <1>   0.0800 
 31 H        0.2870     3.1240     1.0630 H     1 <1>   0.0800 
 32 H       -0.4690     2.0320    -0.0430 H     1 <1>   0.0800 
 33 H       -2.4290    -0.6720     0.8280 H     1 <1>   0.0800 
 34 H       -1.5030    -2.1520     0.8470 H     1 <1>   0.0800 
 35 H        0.7390    -2.1850    -0.1210 H     1 <1>   0.0800 
 36 H        1.4060    -0.7190    -0.7940 H     1 <1>   0.0800 
 37 H        4.0310     1.7660     1.2220 H     1 <1>   0.0800 
 38 H        3.8030     2.8550     2.5470 H     1 <1>   0.0800 
 39 H        0.8940     3.8920    -1.0970 H     1 <1>   0.0800 
 40 H        1.0980     2.2890    -1.7020 H     1 <1>   0.0800 
 41 H       -2.6500    -0.7490    -1.5790 H     1 <1>   0.0800 
 42 H       -3.2280    -2.2400    -0.8990 H     1 <1>   0.0800 
 43 H        0.6860    -2.2650    -2.5740 H     1 <1>   0.0800 
 44 H       -0.1880    -0.7620    -2.6260 H     1 <1>   0.0800 
 45 H        2.3550     4.2210     0.9740 H     1 <1>   0.4500 
 46 H        3.2120     3.6050    -1.4340 H     1 <1>   0.0800 
 47 H        3.2240     2.0220    -0.7230 H     1 <1>   0.0800 
 48 H       -1.7820    -2.5870    -2.9270 H     1 <1>   0.0800 
 49 H       -1.1790    -3.3960    -1.5050 H     1 <1>   0.0800 
 50 H        4.6380     4.7220     1.5820 H     1 <1>   0.0800 
 51 H        3.1810     6.6130     1.5070 H     1 <1>   0.1500 
 52 H        4.9180     5.0440    -2.0840 H     1 <1>   0.1500 
 53 H        4.3300     7.1150    -3.2570 H     1 <1>   0.1500 
 54 H        2.2310     8.7820     1.5700 H     1 <1>   0.0800 
 55 H        1.4270     9.2060     0.0780 H     1 <1>   0.0800 
 56 H        2.9740     9.9160     0.4720 H     1 <1>   0.0800 
@<TRIPOS>BOND
  1   1   2  2   
  2   1   3  2   
  3   1   4  am  
  4   1   5  am  
  5   4   6  1   
  6   4   7  1   
  7   5   8  1   
  8   5   9  1   
  9   6  10  1   
 10   6  29  1   
 11   6  30  1   
 12   7  11  1   
 13   7  31  1   
 14   7  32  1   
 15   8  12  1   
 16   8  33  1   
 17   8  34  1   
 18   9  13  1   
 19   9  35  1   
 20   9  36  1   
 21  10  14  1   
 22  10  37  1   
 23  10  38  1   
 24  11  15  1   
 25  11  39  1   
 26  11  40  1   
 27  12  16  1   
 28  12  41  1   
 29  12  42  1   
 30  13  16  1   
 31  13  43  1   
 32  13  44  1   
 33  14  15  1   
 34  14  17  1   
 35  14  45  1   
 36  15  46  1   
 37  15  47  1   
 38  16  48  1   
 39  16  49  1   
 40  17  18  1   
 41  17  19  1   
 42  17  50  1   
 43  18  20  ar  
 44  18  21  ar  
 45  19  22  ar  
 46  19  23  ar  
 47  20  24  ar  
 48  20  51  1   
 49  21  25  ar  
 50  21  52  1   
 51  24  26  ar  
 52  24  27  1   
 53  25  26  ar  
 54  25  53  1   
 55  26  28  1   
 56  27  54  1   
 57  27  55  1   
 58  27  56  1   
@<TRIPOS>SUBSTRUCTURE
  1 ****  15 GROUP 4 **** **** 0

# MOE 2024.06 (io_trps.svl 2023.06)
