@<TRIPOS>MOLECULE
NONAME
48 50 1 0 0 
SMALL
USER_CHARGES


@<TRIPOS>ATOM
  1 O        2.5500    -0.9650     2.5150 O.2   1 <1>  -0.5700 
  2 C        2.3010    -1.4990     1.4640 C.2   1 <1>   0.5690 
  3 N        1.8920    -0.8000     0.3800 N.am  1 <1>  -0.7300 
  4 C        2.4560    -3.0010     1.3430 C.3   1 <1>  -0.0990 
  5 C        1.7620     0.6670     0.3330 C.3   1 <1>   0.3210 
  6 C        1.0960    -3.7180     1.3390 C.3   1 <1>  -0.1600 
  7 C        2.6080     1.1760    -0.8120 C.2   1 <1>  -0.1810 
  8 C        1.2540    -5.2430     1.2370 C.3   1 <1>   0.0200 
  9 C        2.2530     1.6630    -2.0120 C.2   1 <1>  -0.0400 
 10 C        4.0010     1.2380    -0.8400 C.2   1 <1>   0.1080 
 11 C       -0.0970    -5.9280     1.1570 C.2   1 <1>   0.2980 
 12 O        3.3450     1.9690    -2.6600 O.3   1 <1>  -0.0190 
 13 C        0.9120     1.8920    -2.6790 C.3   1 <1>  -0.0600 
 14 N        4.4120     1.7150    -1.9600 N.2   1 <1>  -0.4100 
 15 C        4.9270     0.8100     0.2800 C.3   1 <1>  -0.0590 
 16 O       -0.8460    -5.9760     2.2260 O.3   1 <1>  -0.0190 
 17 N       -0.5860    -6.4680     0.1200 N.2   1 <1>  -0.5650 
 18 N       -1.9120    -6.6000     1.8350 N.2   1 <1>  -0.4100 
 19 C       -1.7620    -6.8970     0.5920 C.2   1 <1>   0.4620 
 20 C       -2.7490    -7.5810    -0.2260 C.ar  1 <1>   0.0540 
 21 C       -2.4500    -8.6500    -1.0840 C.ar  1 <1>  -0.1440 
 22 C       -4.0780    -7.1580    -0.1590 C.ar  1 <1>  -0.1500 
 23 C       -3.4500    -9.2400    -1.8420 C.ar  1 <1>  -0.1500 
 24 C       -1.0350    -9.2030    -1.2070 C.3   1 <1>  -0.0970 
 25 C       -5.0710    -7.7520    -0.9130 C.ar  1 <1>  -0.1500 
 26 C       -4.7560    -8.7950    -1.7610 C.ar  1 <1>  -0.1500 
 27 H        1.7700    -1.2650    -0.5190 H     1 <1>   0.3700 
 28 H        3.0460    -3.3480     2.1730 H     1 <1>   0.0800 
 29 H        2.9960    -3.2210     0.4390 H     1 <1>   0.0800 
 30 H        2.0890     1.1090     1.2590 H     1 <1>   0.0800 
 31 H        0.7300     0.9260     0.1800 H     1 <1>   0.0800 
 32 H        0.5070    -3.3700     0.5070 H     1 <1>   0.0800 
 33 H        0.5640    -3.4740     2.2440 H     1 <1>   0.0800 
 34 H        1.7860    -5.6200     2.0920 H     1 <1>   0.0800 
 35 H        1.8160    -5.4910     0.3540 H     1 <1>   0.0800 
 36 H        0.1090     1.5870    -2.0350 H     1 <1>   0.0800 
 37 H        0.8610     1.3270    -3.5920 H     1 <1>   0.0800 
 38 H        0.7980     2.9360    -2.9100 H     1 <1>   0.0800 
 39 H        4.6180     1.2570     1.2070 H     1 <1>   0.0800 
 40 H        5.9330     1.1190     0.0630 H     1 <1>   0.0800 
 41 H        4.9050    -0.2590     0.3810 H     1 <1>   0.0800 
 42 H       -4.3330    -6.3460     0.4990 H     1 <1>   0.1500 
 43 H       -3.2190   -10.0560    -2.5040 H     1 <1>   0.1500 
 44 H       -0.6080    -9.3520    -0.2310 H     1 <1>   0.0800 
 45 H       -0.4200    -8.5140    -1.7560 H     1 <1>   0.0800 
 46 H       -1.0310   -10.1470    -1.7200 H     1 <1>   0.0800 
 47 H       -6.0870    -7.4020    -0.8410 H     1 <1>   0.1500 
 48 H       -5.5240    -9.2610    -2.3540 H     1 <1>   0.1500 
@<TRIPOS>BOND
  1   1   2  2   
  2   2   3  am  
  3   2   4  1   
  4   3   5  1   
  5   3  27  1   
  6   4   6  1   
  7   4  28  1   
  8   4  29  1   
  9   5   7  1   
 10   5  30  1   
 11   5  31  1   
 12   6   8  1   
 13   6  32  1   
 14   6  33  1   
 15   7   9  2   
 16   7  10  1   
 17   8  11  1   
 18   8  34  1   
 19   8  35  1   
 20   9  12  1   
 21   9  13  1   
 22  10  14  2   
 23  10  15  1   
 24  11  16  1   
 25  11  17  2   
 26  12  14  1   
 27  13  36  1   
 28  13  37  1   
 29  13  38  1   
 30  15  39  1   
 31  15  40  1   
 32  15  41  1   
 33  16  18  1   
 34  17  19  1   
 35  18  19  2   
 36  19  20  1   
 37  20  21  ar  
 38  20  22  ar  
 39  21  23  ar  
 40  21  24  1   
 41  22  25  ar  
 42  22  42  1   
 43  23  26  ar  
 44  23  43  1   
 45  24  44  1   
 46  24  45  1   
 47  24  46  1   
 48  25  26  ar  
 49  25  47  1   
 50  26  48  1   
@<TRIPOS>SUBSTRUCTURE
  1 ****   6 GROUP 4 **** **** 0

# MOE 2024.06 (io_trps.svl 2023.06)
