@<TRIPOS>MOLECULE
NONAME
55 58 1 0 0 
SMALL
USER_CHARGES


@<TRIPOS>ATOM
  1 O       -0.0710     0.4270     0.9990 O.2   1 <1>  -0.5700 
  2 C        0.8040     1.0090     0.3870 C.2   1 <1>   0.6900 
  3 N        0.8760     2.3760     0.3980 N.am  1 <1>  -0.6600 
  4 N        1.7250     0.3300    -0.3580 N.am  1 <1>  -0.5470 
  5 C       -0.3370     3.1900     0.7600 C.3   1 <1>   0.2200 
  6 C        2.2000     3.0690     0.4840 C.3   1 <1>   0.1400 
  7 C        1.9860    -1.0390    -0.5150 C.ar  1 <1>   0.1170 
  8 C       -0.0560     4.7190     0.9080 C.3   1 <1>   0.1380 
  9 C       -1.5490     2.8780    -0.1380 C.3   1 <1>  -0.1600 
 10 C        2.2950     4.0100     1.6980 C.3   1 <1>  -0.1600 
 11 C        2.6880    -1.4560    -1.6390 C.ar  1 <1>  -0.1500 
 12 C        1.5930    -2.0000     0.4120 C.ar  1 <1>  -0.1500 
 13 C        0.4440     5.4630    -0.3700 C.2   1 <1>  -0.2760 
 14 C       -1.3780     5.3920     1.3880 C.3   1 <1>   0.1200 
 15 C        1.0140     4.8090     2.0220 C.3   1 <1>  -0.1600 
 16 C       -2.5410     4.0440    -0.1590 C.3   1 <1>   0.1200 
 17 C        2.9900    -2.7900    -1.8450 C.ar  1 <1>   0.0820 
 18 C        1.8880    -3.3370     0.2160 C.ar  1 <1>  -0.1500 
 19 C        0.5050     4.9680    -1.6160 C.2   1 <1>  -0.2880 
 20 C        0.9330     6.9030    -0.1650 C.3   1 <1>  -0.0220 
 21 O       -2.5330     4.6490     1.0940 O.3   1 <1>  -0.5600 
 22 O        3.6780    -3.0910    -2.9760 O.3   1 <1>  -0.3620 
 23 C        2.5850    -3.7390    -0.9100 C.ar  1 <1>  -0.1500 
 24 C        1.0240     5.7330    -2.8270 C.3   1 <1>   0.2580 
 25 C        1.0260     7.6610    -1.4960 C.3   1 <1>   0.1200 
 26 C        4.0100    -4.4240    -3.2950 C.3   1 <1>   0.0400 
 27 O        1.7100     6.8800    -2.4260 O.3   1 <1>  -0.5600 
 28 H        2.2290     0.9450    -0.9860 H     1 <1>   0.3700 
 29 H       -0.6310     2.8590     1.7420 H     1 <1>   0.0800 
 30 H        2.9970     2.3480     0.5520 H     1 <1>   0.0800 
 31 H        2.3570     3.6320    -0.4180 H     1 <1>   0.0800 
 32 H       -2.0540     2.0170     0.2610 H     1 <1>   0.0800 
 33 H       -1.2570     2.6330    -1.1400 H     1 <1>   0.0800 
 34 H        2.5660     3.4250     2.5600 H     1 <1>   0.0800 
 35 H        3.1040     4.6960     1.5200 H     1 <1>   0.0800 
 36 H        3.0050    -0.7400    -2.3720 H     1 <1>   0.1500 
 37 H        1.0560    -1.7050     1.2940 H     1 <1>   0.1500 
 38 H       -1.5080     6.3590     0.9410 H     1 <1>   0.0800 
 39 H       -1.3690     5.5210     2.4560 H     1 <1>   0.0800 
 40 H        1.2620     5.8290     2.2510 H     1 <1>   0.0800 
 41 H        0.5960     4.3930     2.9230 H     1 <1>   0.0800 
 42 H       -3.5380     3.6910    -0.3570 H     1 <1>   0.0800 
 43 H       -2.2740     4.7800    -0.8990 H     1 <1>   0.0800 
 44 H        1.5720    -4.0650     0.9430 H     1 <1>   0.1500 
 45 H        0.2060     3.9770    -1.8880 H     1 <1>   0.1500 
 46 H        1.9110     6.8900     0.2810 H     1 <1>   0.0800 
 47 H        0.2830     7.4560     0.4850 H     1 <1>   0.0800 
 48 H        2.8010    -4.7820    -1.0380 H     1 <1>   0.1500 
 49 H        0.2130     6.0250    -3.4720 H     1 <1>   0.0800 
 50 H        1.7170     5.1270    -3.3840 H     1 <1>   0.0800 
 51 H        1.5700     8.5800    -1.3710 H     1 <1>   0.0800 
 52 H        0.0460     7.8790    -1.8850 H     1 <1>   0.0800 
 53 H        4.5390    -4.4210    -4.2320 H     1 <1>   0.0800 
 54 H        3.1050    -4.9970    -3.3880 H     1 <1>   0.0800 
 55 H        4.6420    -4.8210    -2.5210 H     1 <1>   0.0800 
@<TRIPOS>BOND
  1   1   2  2   
  2   2   3  am  
  3   2   4  am  
  4   3   5  1   
  5   3   6  1   
  6   4   7  1   
  7   4  28  1   
  8   5   8  1   
  9   5   9  1   
 10   5  29  1   
 11   6  10  1   
 12   6  30  1   
 13   6  31  1   
 14   7  11  ar  
 15   7  12  ar  
 16   8  13  1   
 17   8  14  1   
 18   8  15  1   
 19   9  16  1   
 20   9  32  1   
 21   9  33  1   
 22  10  15  1   
 23  10  34  1   
 24  10  35  1   
 25  11  17  ar  
 26  11  36  1   
 27  12  18  ar  
 28  12  37  1   
 29  13  19  2   
 30  13  20  1   
 31  14  21  1   
 32  14  38  1   
 33  14  39  1   
 34  15  40  1   
 35  15  41  1   
 36  16  21  1   
 37  16  42  1   
 38  16  43  1   
 39  17  22  1   
 40  17  23  ar  
 41  18  23  ar  
 42  18  44  1   
 43  19  24  1   
 44  19  45  1   
 45  20  25  1   
 46  20  46  1   
 47  20  47  1   
 48  22  26  1   
 49  23  48  1   
 50  24  27  1   
 51  24  49  1   
 52  24  50  1   
 53  25  27  1   
 54  25  51  1   
 55  25  52  1   
 56  26  53  1   
 57  26  54  1   
 58  26  55  1   
@<TRIPOS>SUBSTRUCTURE
  1 ****   3 GROUP 4 **** **** 0

# MOE 2024.06 (io_trps.svl 2023.06)
