@<TRIPOS>MOLECULE
NONAME
40 41 1 0 0 
SMALL
USER_CHARGES


@<TRIPOS>ATOM
  1 CL       1.4600     0.8300     2.3710 Cl    1 <1>  -0.1770 
  2 C        0.8150     2.1190     1.3810 C.ar  1 <1>   0.1770 
  3 C       -0.5410     2.4000     1.3770 C.ar  1 <1>   0.1770 
  4 C        1.6860     2.8570     0.5990 C.ar  1 <1>  -0.1500 
  5 CL      -1.6510     1.4750     2.3610 Cl    1 <1>  -0.1770 
  6 C       -1.0380     3.4230     0.5910 C.ar  1 <1>  -0.1500 
  7 C        1.1960     3.8860    -0.1940 C.ar  1 <1>  -0.1440 
  8 C       -0.1660     4.1640    -0.1920 C.ar  1 <1>  -0.1500 
  9 C        2.1360     4.7090    -1.0560 C.3   1 <1>   0.2840 
 10 N        2.4000     5.9810    -0.3630 N.am  1 <1>  -0.7300 
 11 C        2.6870     7.1450    -0.9940 C.2   1 <1>   0.5690 
 12 O        2.7670     7.2000    -2.1970 O.2   1 <1>  -0.5700 
 13 C        2.9130     8.3970    -0.1420 C.3   1 <1>  -0.0190 
 14 C        2.7680     9.7100    -0.9420 C.3   1 <1>  -0.1600 
 15 C        4.2850     8.3420     0.5700 C.3   1 <1>  -0.1600 
 16 C        2.8480    10.9590    -0.0390 C.3   1 <1>   0.2000 
 17 C        4.7980     9.7180     1.0440 C.3   1 <1>  -0.1600 
 18 O        3.4640    11.9970    -0.7630 O.3   1 <1>  -0.5600 
 19 C        3.6500    10.7060     1.2650 C.3   1 <1>   0.2000 
 20 C        2.6520    12.6290    -1.7040 C.3   1 <1>   0.0400 
 21 O        4.1890    11.8960     1.7060 O.3   1 <1>  -0.6800 
 22 H        2.7360     2.6200     0.6180 H     1 <1>   0.1500 
 23 H       -2.0930     3.6350     0.5930 H     1 <1>   0.1500 
 24 H       -0.5510     4.9640    -0.8050 H     1 <1>   0.1500 
 25 H        1.6910     4.9000    -2.0190 H     1 <1>   0.0800 
 26 H        3.0660     4.1880    -1.2100 H     1 <1>   0.0800 
 27 H        2.3380     5.9370     0.6540 H     1 <1>   0.3700 
 28 H        2.1430     8.3990     0.6090 H     1 <1>   0.0800 
 29 H        1.8280     9.7090    -1.4650 H     1 <1>   0.0800 
 30 H        3.5580     9.7450    -1.6740 H     1 <1>   0.0800 
 31 H        4.2090     7.6810     1.4150 H     1 <1>   0.0800 
 32 H        5.0190     7.9240    -0.0990 H     1 <1>   0.0800 
 33 H        1.8580    11.2770     0.2430 H     1 <1>   0.0800 
 34 H        5.4510    10.1230     0.2890 H     1 <1>   0.0800 
 35 H        5.3640     9.6020     1.9520 H     1 <1>   0.0800 
 36 H        3.0010    10.3320     2.0380 H     1 <1>   0.0800 
 37 H        3.2260    13.4130    -2.1650 H     1 <1>   0.0800 
 38 H        1.7960    13.0520    -1.2080 H     1 <1>   0.0800 
 39 H        2.3470    11.9200    -2.4530 H     1 <1>   0.0800 
 40 H        4.3610    12.4260     0.8950 H     1 <1>   0.4000 
@<TRIPOS>BOND
  1   1   2  1   
  2   2   3  ar  
  3   2   4  ar  
  4   3   5  1   
  5   3   6  ar  
  6   4   7  ar  
  7   4  22  1   
  8   6   8  ar  
  9   6  23  1   
 10   7   8  ar  
 11   7   9  1   
 12   8  24  1   
 13   9  10  1   
 14   9  25  1   
 15   9  26  1   
 16  10  11  am  
 17  10  27  1   
 18  11  12  2   
 19  11  13  1   
 20  13  14  1   
 21  13  15  1   
 22  13  28  1   
 23  14  16  1   
 24  14  29  1   
 25  14  30  1   
 26  15  17  1   
 27  15  31  1   
 28  15  32  1   
 29  16  18  1   
 30  16  19  1   
 31  16  33  1   
 32  17  19  1   
 33  17  34  1   
 34  17  35  1   
 35  18  20  1   
 36  19  21  1   
 37  19  36  1   
 38  20  37  1   
 39  20  38  1   
 40  20  39  1   
 41  21  40  1   
@<TRIPOS>SUBSTRUCTURE
  1 ****  10 GROUP 4 **** **** 0

# MOE 2024.06 (io_trps.svl 2023.06)
