@<TRIPOS>MOLECULE
NONAME
46 48 1 0 0 
SMALL
USER_CHARGES


@<TRIPOS>ATOM
  1 S        0.4110     0.5440    -0.5590 S.3   1 <1>  -0.3320 
  2 C        1.7820    -0.6090    -0.7030 C.ar  1 <1>   0.4120 
  3 C       -1.0740    -0.5100    -0.2360 C.3   1 <1>   0.0700 
  4 N        1.4310    -1.8790    -0.5510 N.ar  1 <1>  -0.6200 
  5 C        3.0710    -0.1320    -0.9640 C.ar  1 <1>   0.0860 
  6 C       -2.2900     0.4040    -0.1050 C.3   1 <1>  -0.0160 
  7 C        2.4120    -2.7540    -0.6820 C.ar  1 <1>   0.1600 
  8 C        3.4090     1.2670    -1.0960 C.2   1 <1>   0.5440 
  9 C        4.0660    -1.0920    -1.1020 C.ar  1 <1>  -0.1500 
 10 C       -3.5380    -0.4180     0.1680 C.ar  1 <1>  -0.1440 
 11 C        3.7260    -2.4190    -0.9560 C.ar  1 <1>  -0.1500 
 12 O        4.1060     1.6390    -2.0190 O.2   1 <1>  -0.5700 
 13 N        3.0170     2.1890    -0.1730 N.am  1 <1>  -0.7300 
 14 C       -3.9240    -0.6930     1.4710 C.ar  1 <1>  -0.1500 
 15 C       -4.2990    -0.9040    -0.8840 C.ar  1 <1>  -0.1500 
 16 C        3.4400     3.6150    -0.1370 C.3   1 <1>   0.2810 
 17 C       -5.0580    -1.4460     1.7200 C.ar  1 <1>  -0.1500 
 18 C       -5.4340    -1.6570    -0.6360 C.ar  1 <1>  -0.1500 
 19 C        3.2890     4.2330     1.2700 C.2   1 <1>   0.5690 
 20 C        2.6280     4.3960    -1.1830 C.3   1 <1>  -0.1600 
 21 C       -5.8140    -1.9290     0.6670 C.ar  1 <1>  -0.1500 
 22 O        3.4840     3.5600     2.2550 O.2   1 <1>  -0.5700 
 23 N        2.9160     5.5310     1.4160 N.am  1 <1>  -0.7300 
 24 C        2.8740     5.9060    -1.0370 C.3   1 <1>  -0.1600 
 25 C        2.4420     6.4290     0.3390 C.3   1 <1>   0.1400 
 26 H       -0.8920    -1.0590     0.6710 H     1 <1>   0.0800 
 27 H       -1.1760    -1.1890    -1.0640 H     1 <1>   0.0800 
 28 H       -2.4160     0.9670    -1.0130 H     1 <1>   0.0800 
 29 H       -2.1300     1.1010     0.6980 H     1 <1>   0.0800 
 30 H        2.1560    -3.7950    -0.5660 H     1 <1>   0.1500 
 31 H        5.0790    -0.7940    -1.3200 H     1 <1>   0.1500 
 32 H        4.4710    -3.1890    -1.0540 H     1 <1>   0.1500 
 33 H        2.5170     1.8920     0.6700 H     1 <1>   0.3700 
 34 H       -3.3420    -0.3230     2.2970 H     1 <1>   0.1500 
 35 H       -4.0110    -0.7000    -1.9000 H     1 <1>   0.1500 
 36 H        4.4830     3.6680    -0.3980 H     1 <1>   0.0800 
 37 H       -5.3530    -1.6560     2.7340 H     1 <1>   0.1500 
 38 H       -6.0200    -2.0320    -1.4560 H     1 <1>   0.1500 
 39 H        1.5800     4.1910    -1.0490 H     1 <1>   0.0800 
 40 H        2.9170     4.0760    -2.1690 H     1 <1>   0.0800 
 41 H       -6.6950    -2.5150     0.8600 H     1 <1>   0.1500 
 42 H        2.8190     5.8620     2.3780 H     1 <1>   0.3700 
 43 H        2.3320     6.4360    -1.8010 H     1 <1>   0.0800 
 44 H        3.9200     6.1170    -1.1810 H     1 <1>   0.0800 
 45 H        2.8370     7.4190     0.4940 H     1 <1>   0.0800 
 46 H        1.3660     6.4810     0.3840 H     1 <1>   0.0800 
@<TRIPOS>BOND
  1   1   2  1   
  2   1   3  1   
  3   2   4  ar  
  4   2   5  ar  
  5   3   6  1   
  6   3  26  1   
  7   3  27  1   
  8   4   7  ar  
  9   5   8  1   
 10   5   9  ar  
 11   6  10  1   
 12   6  28  1   
 13   6  29  1   
 14   7  11  ar  
 15   7  30  1   
 16   8  12  2   
 17   8  13  am  
 18   9  11  ar  
 19   9  31  1   
 20  10  14  ar  
 21  10  15  ar  
 22  11  32  1   
 23  13  16  1   
 24  13  33  1   
 25  14  17  ar  
 26  14  34  1   
 27  15  18  ar  
 28  15  35  1   
 29  16  19  1   
 30  16  20  1   
 31  16  36  1   
 32  17  21  ar  
 33  17  37  1   
 34  18  21  ar  
 35  18  38  1   
 36  19  22  2   
 37  19  23  am  
 38  20  24  1   
 39  20  39  1   
 40  20  40  1   
 41  21  41  1   
 42  23  25  1   
 43  23  42  1   
 44  24  25  1   
 45  24  43  1   
 46  24  44  1   
 47  25  45  1   
 48  25  46  1   
@<TRIPOS>SUBSTRUCTURE
  1 ****   1 GROUP 4 **** **** 0

# MOE 2024.06 (io_trps.svl 2023.06)
