@<TRIPOS>MOLECULE
NONAME
39 41 1 0 0 
SMALL
USER_CHARGES


@<TRIPOS>ATOM
  1 O       -0.6770     0.2200     1.0060 O.2   1 <1>  -0.5700 
  2 C       -1.6650     0.8770     0.7220 C.2   1 <1>   0.5440 
  3 N       -2.8600     0.2380     0.5210 N.am  1 <1>  -0.6600 
  4 C       -1.5780     2.3210     0.6670 C.ar  1 <1>   0.0860 
  5 C       -4.1350     0.9010     0.1330 C.3   1 <1>   0.2350 
  6 C       -3.0750    -1.2140     0.7640 C.3   1 <1>   0.2350 
  7 C       -0.8440     2.9930    -0.3160 C.ar  1 <1>   0.0820 
  8 C       -2.2330     3.0890     1.6300 C.ar  1 <1>  -0.1500 
  9 C       -5.0910    -0.2220    -0.2270 C.3   1 <1>  -0.2420 
 10 C       -4.4370    -1.5280     0.1640 C.3   1 <1>  -0.2420 
 11 O       -0.2350     2.2790    -1.2900 O.3   1 <1>  -0.3620 
 12 C       -0.7590     4.3890    -0.3240 C.ar  1 <1>   0.0820 
 13 C       -2.1610     4.4670     1.6270 C.ar  1 <1>  -0.1500 
 14 C       -6.5460     0.2540    -0.1390 C.2   1 <1>   0.9470 
 15 C       -4.7140    -1.2270    -1.2860 C.3   1 <1>  -0.2000 
 16 C       -5.0210    -2.8000     0.7830 C.2   1 <1>   0.9470 
 17 C        1.1310     1.9930    -1.0980 C.3   1 <1>   0.0400 
 18 O       -0.0180     4.9840    -1.3040 O.3   1 <1>  -0.3630 
 19 C       -1.4240     5.1200     0.6550 C.ar  1 <1>  -0.1500 
 20 O       -7.3040     0.1020    -1.1060 O.co2 1 <1>  -0.9000 
 21 O       -6.8920     0.9350     0.8380 O.co2 1 <1>  -0.9000 
 22 O       -5.2150    -3.7910     0.0650 O.co2 1 <1>  -0.9000 
 23 O       -5.1390    -2.8710     2.0140 O.co2 1 <1>  -0.9000 
 24 C        0.0110     6.3850    -1.4650 C.3   1 <1>   0.0400 
 25 H       -4.5160     1.4560     0.9730 H     1 <1>   0.0800 
 26 H       -3.9920     1.5590    -0.7060 H     1 <1>   0.0800 
 27 H       -2.3050    -1.8010     0.2970 H     1 <1>   0.0800 
 28 H       -3.0810    -1.3990     1.8240 H     1 <1>   0.0800 
 29 H       -2.8070     2.5810     2.3880 H     1 <1>   0.1500 
 30 H       -2.6810     5.0330     2.3810 H     1 <1>   0.1500 
 31 H       -3.8930    -1.0190    -1.9470 H     1 <1>   0.1000 
 32 H       -5.5060    -1.7750    -1.7670 H     1 <1>   0.1000 
 33 H        1.4640     1.3860    -1.9200 H     1 <1>   0.0800 
 34 H        1.2470     1.4550    -0.1730 H     1 <1>   0.0800 
 35 H        1.6810     2.9160    -1.0700 H     1 <1>   0.0800 
 36 H       -1.3840     6.1920     0.6800 H     1 <1>   0.1500 
 37 H        0.6110     6.6080    -2.3290 H     1 <1>   0.0800 
 38 H        0.4520     6.8290    -0.5900 H     1 <1>   0.0800 
 39 H       -0.9930     6.7390    -1.6170 H     1 <1>   0.0800 
@<TRIPOS>BOND
  1   1   2  2   
  2   2   3  am  
  3   2   4  1   
  4   3   5  1   
  5   3   6  1   
  6   4   7  ar  
  7   4   8  ar  
  8   5   9  1   
  9   5  25  1   
 10   5  26  1   
 11   6  10  1   
 12   6  27  1   
 13   6  28  1   
 14   7  11  1   
 15   7  12  ar  
 16   8  13  ar  
 17   8  29  1   
 18   9  10  1   
 19   9  14  1   
 20   9  15  1   
 21  10  15  1   
 22  10  16  1   
 23  11  17  1   
 24  12  18  1   
 25  12  19  ar  
 26  13  19  ar  
 27  13  30  1   
 28  14  20  ar  
 29  14  21  ar  
 30  15  31  1   
 31  15  32  1   
 32  16  22  ar  
 33  16  23  ar  
 34  17  33  1   
 35  17  34  1   
 36  17  35  1   
 37  18  24  1   
 38  19  36  1   
 39  24  37  1   
 40  24  38  1   
 41  24  39  1   
@<TRIPOS>SUBSTRUCTURE
  1 ****   3 GROUP 4 **** **** 0

# MOE 2024.06 (io_trps.svl 2023.06)
