@<TRIPOS>MOLECULE
NONAME
56 59 1 0 0 
SMALL
USER_CHARGES


@<TRIPOS>ATOM
  1 O       -0.6090     0.8150    -1.0960 O.2   1 <1>  -0.5700 
  2 C       -0.4640     2.0100    -0.9900 C.2   1 <1>   0.5690 
  3 N       -1.3630     2.8170    -0.3390 N.am  1 <1>  -0.5090 
  4 C        0.7720     2.6340    -1.6390 C.3   1 <1>   0.1810 
  5 C       -1.2370     4.3080    -0.3680 C.3   1 <1>   0.3640 
  6 C       -2.5270     2.2780     0.4070 C.3   1 <1>   0.0490 
  7 O        1.0610     3.9140    -1.1350 O.3   1 <1>  -0.5600 
  8 C       -2.5320     4.9410    -0.8700 C.ar  1 <1>  -0.1440 
  9 C       -0.0360     4.8050    -1.2040 C.3   1 <1>   0.2610 
 10 C       -2.6710     2.6170     1.8590 C.3   1 <1>  -0.2000 
 11 C       -2.3140     1.2250     1.4480 C.3   1 <1>  -0.2000 
 12 C       -3.1110     5.9820    -0.1560 C.ar  1 <1>   0.1600 
 13 C       -3.1550     4.5090    -2.0270 C.ar  1 <1>  -0.1500 
 14 C        0.3170     6.2350    -0.7710 C.2   1 <1>   0.5690 
 15 N       -4.2320     6.6000    -0.4860 N.ar  1 <1>  -0.6200 
 16 C       -4.3200     5.1480    -2.3900 C.ar  1 <1>  -0.1500 
 17 O       -0.0180     7.0970    -1.5490 O.2   1 <1>  -0.5700 
 18 N        0.9160     6.5360     0.4430 N.am  1 <1>  -0.6600 
 19 C       -4.8080     6.1710    -1.5970 C.ar  1 <1>   0.1600 
 20 C        1.0850     7.9410     0.9370 C.3   1 <1>   0.2200 
 21 C        1.4980     5.5140     1.3620 C.3   1 <1>   0.1400 
 22 C       -0.2720     8.6260     1.1590 C.3   1 <1>  -0.1600 
 23 C        2.0050     8.7760     0.0330 C.3   1 <1>  -0.1600 
 24 C        3.0050     5.4190     1.1400 C.3   1 <1>  -0.2400 
 25 C       -0.0820    10.0410     1.7260 C.3   1 <1>  -0.1600 
 26 C        2.1950    10.1880     0.6080 C.3   1 <1>  -0.1600 
 27 C        0.8420    10.8790     0.8300 C.3   1 <1>  -0.1600 
 28 H        0.6270     2.7080    -2.7020 H     1 <1>   0.0800 
 29 H        1.6260     2.0090    -1.4500 H     1 <1>   0.0800 
 30 H       -1.0860     4.6290     0.6470 H     1 <1>   0.0800 
 31 H       -3.4160     2.2160    -0.2000 H     1 <1>   0.1000 
 32 H       -0.3310     4.8540    -2.2370 H     1 <1>   0.0800 
 33 H       -1.9160     3.1940     2.3620 H     1 <1>   0.1000 
 34 H       -3.6570     2.7910     2.2520 H     1 <1>   0.1000 
 35 H       -3.0530     0.4510     1.5500 H     1 <1>   0.1000 
 36 H       -1.3140     0.8630     1.6110 H     1 <1>   0.1000 
 37 H       -2.6280     6.3320     0.7410 H     1 <1>   0.1500 
 38 H       -2.7570     3.7050    -2.6220 H     1 <1>   0.1500 
 39 H       -4.8490     4.8580    -3.2800 H     1 <1>   0.1500 
 40 H       -5.7200     6.6630    -1.8910 H     1 <1>   0.1500 
 41 H        1.5650     7.9010     1.9000 H     1 <1>   0.0800 
 42 H        1.2950     5.7870     2.3840 H     1 <1>   0.0800 
 43 H        1.0570     4.5480     1.2020 H     1 <1>   0.0800 
 44 H       -0.8040     8.7020     0.2270 H     1 <1>   0.0800 
 45 H       -0.8630     8.0450     1.8430 H     1 <1>   0.0800 
 46 H        2.9610     8.2930    -0.0570 H     1 <1>   0.0800 
 47 H        1.5800     8.8680    -0.9490 H     1 <1>   0.0800 
 48 H        3.4870     6.3460     1.3880 H     1 <1>   0.0800 
 49 H        3.2130     5.1710     0.1140 H     1 <1>   0.0800 
 50 H        3.4140     4.6460     1.7650 H     1 <1>   0.0800 
 51 H       -1.0400    10.5260     1.8070 H     1 <1>   0.0800 
 52 H        0.3400     9.9790     2.7140 H     1 <1>   0.0800 
 53 H        2.7240    10.1270     1.5440 H     1 <1>   0.0800 
 54 H        2.7910    10.7740    -0.0700 H     1 <1>   0.0800 
 55 H        0.9990    11.8450     1.2770 H     1 <1>   0.0800 
 56 H        0.3640    11.0320    -0.1230 H     1 <1>   0.0800 
@<TRIPOS>BOND
  1   1   2  2   
  2   2   3  am  
  3   2   4  1   
  4   3   5  1   
  5   3   6  1   
  6   4   7  1   
  7   4  28  1   
  8   4  29  1   
  9   5   8  1   
 10   5   9  1   
 11   5  30  1   
 12   6  10  1   
 13   6  11  1   
 14   6  31  1   
 15   7   9  1   
 16   8  12  ar  
 17   8  13  ar  
 18   9  14  1   
 19   9  32  1   
 20  10  11  1   
 21  10  33  1   
 22  10  34  1   
 23  11  35  1   
 24  11  36  1   
 25  12  15  ar  
 26  12  37  1   
 27  13  16  ar  
 28  13  38  1   
 29  14  17  2   
 30  14  18  am  
 31  15  19  ar  
 32  16  19  ar  
 33  16  39  1   
 34  18  20  1   
 35  18  21  1   
 36  19  40  1   
 37  20  22  1   
 38  20  23  1   
 39  20  41  1   
 40  21  24  1   
 41  21  42  1   
 42  21  43  1   
 43  22  25  1   
 44  22  44  1   
 45  22  45  1   
 46  23  26  1   
 47  23  46  1   
 48  23  47  1   
 49  24  48  1   
 50  24  49  1   
 51  24  50  1   
 52  25  27  1   
 53  25  51  1   
 54  25  52  1   
 55  26  27  1   
 56  26  53  1   
 57  26  54  1   
 58  27  55  1   
 59  27  56  1   
@<TRIPOS>SUBSTRUCTURE
  1 ****   5 GROUP 4 **** **** 0

# MOE 2024.06 (io_trps.svl 2023.06)
