@<TRIPOS>MOLECULE
NONAME
35 36 1 0 0 
SMALL
USER_CHARGES


@<TRIPOS>ATOM
  1 CL      -0.4140    -0.3100     0.8910 Cl    1 <1>  -0.1770 
  2 C        1.0760    -1.1270     0.4520 C.ar  1 <1>   0.1770 
  3 C        1.0670    -2.4290    -0.0310 C.ar  1 <1>   0.4100 
  4 C        2.2800    -0.4920     0.5830 C.ar  1 <1>   0.1600 
  5 N        2.1980    -3.0320    -0.3510 N.ar  1 <1>  -0.6200 
  6 N       -0.0950    -3.1410    -0.2030 N.pl3 1 <1>  -0.8690 
  7 N        3.4180    -1.0860     0.2640 N.ar  1 <1>  -0.6200 
  8 C        3.3030    -2.3250    -0.1870 C.ar  1 <1>   0.4770 
  9 C       -0.1340    -4.6280    -0.3190 C.3   1 <1>   0.3900 
 10 C        4.5960    -3.0140    -0.5540 C.3   1 <1>  -0.0960 
 11 C       -1.4410    -5.2210     0.2140 C.2   1 <1>   0.3350 
 12 N       -2.4040    -4.5600     0.7310 N.2   1 <1>  -0.4100 
 13 N       -1.6680    -6.5300     0.1740 N.2   1 <1>  -0.5650 
 14 O       -3.3240    -5.4130     1.0600 O.3   1 <1>  -0.0190 
 15 C       -2.8270    -6.5710     0.6990 C.2   1 <1>   0.2980 
 16 C       -3.6410    -7.8300     0.9380 C.3   1 <1>   0.0200 
 17 C       -4.6150    -8.1510    -0.2130 C.3   1 <1>  -0.0800 
 18 C       -5.6880    -7.0660    -0.3890 C.3   1 <1>  -0.2400 
 19 C       -5.2930    -9.5060     0.0280 C.3   1 <1>  -0.2400 
 20 H        2.3170     0.5170     0.9550 H     1 <1>   0.1500 
 21 H       -0.9580    -2.7600     0.2050 H     1 <1>   0.4000 
 22 H        0.6840    -5.0590     0.2310 H     1 <1>   0.0800 
 23 H       -0.0250    -4.9000    -1.3530 H     1 <1>   0.0800 
 24 H        4.4060    -3.8390    -1.2150 H     1 <1>   0.0800 
 25 H        5.0690    -3.3770     0.3380 H     1 <1>   0.0800 
 26 H        5.2520    -2.3200    -1.0450 H     1 <1>   0.0800 
 27 H       -4.1800    -7.7280     1.8630 H     1 <1>   0.0800 
 28 H       -2.9520    -8.6480     1.0510 H     1 <1>   0.0800 
 29 H       -4.0460    -8.2170    -1.1260 H     1 <1>   0.0800 
 30 H       -6.2460    -6.9300     0.5200 H     1 <1>   0.0800 
 31 H       -6.3730    -7.3440    -1.1720 H     1 <1>   0.0800 
 32 H       -5.2410    -6.1270    -0.6640 H     1 <1>   0.0800 
 33 H       -5.8780    -9.4850     0.9310 H     1 <1>   0.0800 
 34 H       -4.5560   -10.2850     0.1130 H     1 <1>   0.0800 
 35 H       -5.9420    -9.7490    -0.7940 H     1 <1>   0.0800 
@<TRIPOS>BOND
  1   1   2  1   
  2   2   3  ar  
  3   2   4  ar  
  4   3   5  ar  
  5   3   6  1   
  6   4   7  ar  
  7   4  20  1   
  8   5   8  ar  
  9   6   9  1   
 10   6  21  1   
 11   7   8  ar  
 12   8  10  1   
 13   9  11  1   
 14   9  22  1   
 15   9  23  1   
 16  10  24  1   
 17  10  25  1   
 18  10  26  1   
 19  11  12  2   
 20  11  13  1   
 21  12  14  1   
 22  13  15  2   
 23  14  15  1   
 24  15  16  1   
 25  16  17  1   
 26  16  27  1   
 27  16  28  1   
 28  17  18  1   
 29  17  19  1   
 30  17  29  1   
 31  18  30  1   
 32  18  31  1   
 33  18  32  1   
 34  19  33  1   
 35  19  34  1   
 36  19  35  1   
@<TRIPOS>SUBSTRUCTURE
  1 ****   9 GROUP 4 **** **** 0

# MOE 2024.06 (io_trps.svl 2023.06)
