@<TRIPOS>MOLECULE
NONAME
40 42 1 0 0 
SMALL
USER_CHARGES


@<TRIPOS>ATOM
  1 O        0.6450     0.4900     0.1680 O.co2 1 <1>  -0.9000 
  2 C        1.7440     0.1150     0.6230 C.2   1 <1>   0.9790 
  3 O        1.7170    -0.7260     1.5480 O.co2 1 <1>  -0.9000 
  4 C        3.0300     0.6330     0.1410 C.ar  1 <1>   0.1310 
  5 N        3.1670     1.3260    -1.0150 N.ar  1 <1>  -0.6200 
  6 C        4.1480     0.3810     0.9440 C.ar  1 <1>   0.1600 
  7 C        4.3990     1.7120    -1.2490 C.ar  1 <1>   0.1600 
  8 N        5.3890     0.7750     0.7070 N.ar  1 <1>  -0.6200 
  9 C        5.5000     1.4710    -0.4140 C.ar  1 <1>   0.4100 
 10 N        6.7550     1.9730    -0.7260 N.pl3 1 <1>  -0.8380 
 11 C        7.9630     1.3500    -0.0970 C.3   1 <1>   0.2090 
 12 C        6.8990     3.4580    -0.8230 C.3   1 <1>   0.2090 
 13 C        9.2550     1.7250    -0.8480 C.3   1 <1>   0.2090 
 14 C        8.1850     3.8600    -1.5740 C.3   1 <1>   0.2090 
 15 N        9.4070     3.2050    -1.0060 N.pl3 1 <1>  -0.8380 
 16 C       10.1420     3.8730    -0.0500 C.ar  1 <1>   0.4100 
 17 N        9.4530     4.4860     0.8910 N.ar  1 <1>  -0.6200 
 18 C       11.5350     3.8820    -0.0570 C.ar  1 <1>  -0.1430 
 19 C       10.1680     5.0800     1.8210 C.ar  1 <1>   0.4700 
 20 C       12.1600     4.5320     0.9850 C.ar  1 <1>   0.1670 
 21 C       12.3200     3.2060    -1.1840 C.3   1 <1>  -0.0960 
 22 N       11.4800     5.1410     1.9340 N.ar  1 <1>  -0.6200 
 23 C       13.6700     4.6060     1.1300 C.3   1 <1>  -0.0970 
 24 H        3.9930    -0.1860     1.8460 H     1 <1>   0.1500 
 25 H        4.5790     2.2570    -2.1530 H     1 <1>   0.1500 
 26 H        7.8530     0.2800    -0.0920 H     1 <1>   0.0800 
 27 H        8.0400     1.6810     0.9240 H     1 <1>   0.0800 
 28 H        6.9300     3.8720     0.1700 H     1 <1>   0.0800 
 29 H        6.0500     3.8820    -1.3280 H     1 <1>   0.0800 
 30 H        9.2380     1.2670    -1.8200 H     1 <1>   0.0800 
 31 H       10.0980     1.3310    -0.3090 H     1 <1>   0.0800 
 32 H        8.2990     4.9290    -1.5310 H     1 <1>   0.0800 
 33 H        8.0870     3.5810    -2.6070 H     1 <1>   0.0800 
 34 H        9.6080     5.5800     2.5930 H     1 <1>   0.1500 
 35 H       11.7390     3.1720    -2.0890 H     1 <1>   0.0800 
 36 H       12.5730     2.2010    -0.9010 H     1 <1>   0.0800 
 37 H       13.2200     3.7470    -1.4070 H     1 <1>   0.0800 
 38 H       14.1360     3.7000     0.7930 H     1 <1>   0.0800 
 39 H       13.9340     4.7500     2.1620 H     1 <1>   0.0800 
 40 H       14.0450     5.4360     0.5610 H     1 <1>   0.0800 
@<TRIPOS>BOND
  1   1   2  ar  
  2   2   3  ar  
  3   2   4  1   
  4   4   5  ar  
  5   4   6  ar  
  6   5   7  ar  
  7   6   8  ar  
  8   6  24  1   
  9   7   9  ar  
 10   7  25  1   
 11   8   9  ar  
 12   9  10  1   
 13  10  11  1   
 14  10  12  1   
 15  11  13  1   
 16  11  26  1   
 17  11  27  1   
 18  12  14  1   
 19  12  28  1   
 20  12  29  1   
 21  13  15  1   
 22  13  30  1   
 23  13  31  1   
 24  14  15  1   
 25  14  32  1   
 26  14  33  1   
 27  15  16  1   
 28  16  17  ar  
 29  16  18  ar  
 30  17  19  ar  
 31  18  20  ar  
 32  18  21  1   
 33  19  22  ar  
 34  19  34  1   
 35  20  22  ar  
 36  20  23  1   
 37  21  35  1   
 38  21  36  1   
 39  21  37  1   
 40  23  38  1   
 41  23  39  1   
 42  23  40  1   
@<TRIPOS>SUBSTRUCTURE
  1 ****  10 GROUP 4 **** **** 0

# MOE 2024.06 (io_trps.svl 2023.06)
