@<TRIPOS>MOLECULE
NONAME
46 48 1 0 0 
SMALL
USER_CHARGES


@<TRIPOS>ATOM
  1 O       -0.1130     0.7250    -0.9060 O.2   1 <1>  -0.5700 
  2 C       -0.1510     1.8520    -0.4640 C.2   1 <1>   0.6300 
  3 N       -1.3350     2.5330    -0.3330 N.am  1 <1>  -0.6600 
  4 C        1.1690     2.4760    -0.0480 C.3   1 <1>   0.0000 
  5 C       -2.5990     1.9340    -0.8530 C.3   1 <1>   0.1400 
  6 C       -1.4530     3.8500     0.3650 C.3   1 <1>   0.1400 
  7 C        1.4550     2.1160     1.3950 C.2   1 <1>   0.6300 
  8 C        2.3180     2.4890    -1.0250 C.3   1 <1>  -0.2000 
  9 C        1.6500     3.7730    -0.6520 C.3   1 <1>  -0.2000 
 10 C       -3.6200     3.0240    -1.1880 C.3   1 <1>  -0.1600 
 11 C       -2.8160     3.9450     1.0470 C.3   1 <1>  -0.1600 
 12 O        1.4040     2.9590     2.2560 O.2   1 <1>  -0.5700 
 13 N        1.7620     0.8440     1.7070 N.am  1 <1>  -0.8000 
 14 C       -3.9650     3.9330     0.0170 C.3   1 <1>   0.2800 
 15 O       -4.0560     5.2220    -0.5260 O.3   1 <1>  -0.5600 
 16 C       -5.2950     3.5040     0.6910 C.3   1 <1>  -0.1600 
 17 C       -4.8300     6.1880     0.1280 C.3   1 <1>   0.1200 
 18 C       -6.5330     4.2380     0.1560 C.3   1 <1>   0.2800 
 19 C       -6.3120     5.7760     0.2510 C.3   1 <1>   0.2000 
 20 O       -6.7050     3.8980    -1.1720 O.3   1 <1>  -0.6800 
 21 C       -7.8110     3.7450     0.8490 C.3   1 <1>  -0.2400 
 22 O       -6.7750     6.2840     1.4700 O.3   1 <1>  -0.6800 
 23 H       -2.3880     1.3590    -1.7400 H     1 <1>   0.0800 
 24 H       -3.0010     1.2670    -0.1110 H     1 <1>   0.0800 
 25 H       -0.6820     3.9560     1.1070 H     1 <1>   0.0800 
 26 H       -1.3500     4.6470    -0.3530 H     1 <1>   0.0800 
 27 H        3.3120     2.2990    -0.6590 H     1 <1>   0.1000 
 28 H        2.1550     2.0810    -2.0080 H     1 <1>   0.1000 
 29 H        1.0360     4.2640    -1.3860 H     1 <1>   0.1000 
 30 H        2.1700     4.4680    -0.0150 H     1 <1>   0.1000 
 31 H       -4.5050     2.5590    -1.5780 H     1 <1>   0.0800 
 32 H       -3.2040     3.6180    -1.9830 H     1 <1>   0.0800 
 33 H       -2.8580     4.8330     1.6480 H     1 <1>   0.0800 
 34 H       -2.9050     3.1060     1.7140 H     1 <1>   0.0800 
 35 H        1.9280     0.5830     2.6780 H     1 <1>   0.3700 
 36 H        1.7040     0.0890     1.0200 H     1 <1>   0.3700 
 37 H       -5.4240     2.4400     0.6170 H     1 <1>   0.0800 
 38 H       -5.2280     3.7190     1.7420 H     1 <1>   0.0800 
 39 H       -4.3960     6.3600     1.0960 H     1 <1>   0.0800 
 40 H       -4.7590     7.0940    -0.4460 H     1 <1>   0.0800 
 41 H       -6.8870     6.2620    -0.5180 H     1 <1>   0.0800 
 42 H       -6.9730     2.9660    -1.2440 H     1 <1>   0.4000 
 43 H       -7.7530     3.9070     1.9100 H     1 <1>   0.0800 
 44 H       -7.9610     2.6940     0.6830 H     1 <1>   0.0800 
 45 H       -8.6620     4.2890     0.4770 H     1 <1>   0.0800 
 46 H       -6.3320     5.8390     2.2150 H     1 <1>   0.4000 
@<TRIPOS>BOND
  1   1   2  2   
  2   2   3  am  
  3   2   4  1   
  4   3   5  1   
  5   3   6  1   
  6   4   7  1   
  7   4   8  1   
  8   4   9  1   
  9   5  10  1   
 10   5  23  1   
 11   5  24  1   
 12   6  11  1   
 13   6  25  1   
 14   6  26  1   
 15   7  12  2   
 16   7  13  am  
 17   8   9  1   
 18   8  27  1   
 19   8  28  1   
 20   9  29  1   
 21   9  30  1   
 22  10  14  1   
 23  10  31  1   
 24  10  32  1   
 25  11  14  1   
 26  11  33  1   
 27  11  34  1   
 28  13  35  1   
 29  13  36  1   
 30  14  15  1   
 31  14  16  1   
 32  15  17  1   
 33  16  18  1   
 34  16  37  1   
 35  16  38  1   
 36  17  19  1   
 37  17  39  1   
 38  17  40  1   
 39  18  19  1   
 40  18  20  1   
 41  18  21  1   
 42  19  22  1   
 43  19  41  1   
 44  20  42  1   
 45  21  43  1   
 46  21  44  1   
 47  21  45  1   
 48  22  46  1   
@<TRIPOS>SUBSTRUCTURE
  1 ****  11 GROUP 4 **** **** 0

# MOE 2024.06 (io_trps.svl 2023.06)
