@<TRIPOS>MOLECULE
NONAME
34 35 1 0 0 
SMALL
USER_CHARGES


@<TRIPOS>ATOM
  1 CL      -0.4100     0.6700     0.5260 Cl    1 <1>  -0.1230 
  2 C        0.6320     2.0490     0.2250 C.2   1 <1>   0.1230 
  3 C        0.3990     3.0580    -0.6970 C.2   1 <1>   0.1390 
  4 C        1.7980     2.3440     0.8270 C.2   1 <1>  -0.3020 
  5 N        1.3610     3.9380    -0.6800 N.2   1 <1>  -0.7070 
  6 N        2.2240     3.4930     0.2630 N.pl3 1 <1>   0.3140 
  7 C        3.4640     4.2200     0.5890 C.3   1 <1>   0.0960 
  8 C        3.5140     5.5220    -0.2240 C.3   1 <1>   0.3430 
  9 N        4.7050     6.3930     0.0880 N.4   1 <1>  -0.9590 
 10 C        4.5980     7.7320    -0.5710 C.3   1 <1>   0.6030 
 11 C        5.9940     5.7130    -0.2810 C.3   1 <1>   0.2630 
 12 C        5.8400     8.5470    -0.2490 C.2   1 <1>  -0.1400 
 13 C        3.3600     8.4740    -0.0690 C.3   1 <1>  -0.2400 
 14 S        7.0700     8.6220    -1.5040 S.3   1 <1>  -0.0800 
 15 C        6.2260     9.2640     0.8270 C.2   1 <1>  -0.1500 
 16 C        8.0940     9.6380    -0.5070 C.2   1 <1>  -0.1100 
 17 C        7.5090     9.8810     0.6790 C.2   1 <1>  -0.1500 
 18 H       -0.4630     3.1050    -1.3420 H     1 <1>   0.1500 
 19 H        2.3200     1.8080     1.5980 H     1 <1>   0.1500 
 20 H        4.2920     3.5820     0.3450 H     1 <1>   0.0800 
 21 H        3.4590     4.4320     1.6410 H     1 <1>   0.0800 
 22 H        2.6060     6.0620    -0.0150 H     1 <1>   0.0800 
 23 H        3.5120     5.2750    -1.2740 H     1 <1>   0.0800 
 24 H        4.7280     6.6020     1.0940 H     1 <1>   0.4500 
 25 H        4.5300     7.6150    -1.6420 H     1 <1>   0.0800 
 26 H        6.0420     5.5520    -1.3460 H     1 <1>   0.0800 
 27 H        6.0810     4.7610     0.2170 H     1 <1>   0.0800 
 28 H        6.8380     6.3180     0.0100 H     1 <1>   0.0800 
 29 H        3.3310     8.5060     1.0050 H     1 <1>   0.0800 
 30 H        2.4560     8.0350    -0.4480 H     1 <1>   0.0800 
 31 H        3.3900     9.4880    -0.4300 H     1 <1>   0.0800 
 32 H        5.6690     9.4040     1.7380 H     1 <1>   0.1500 
 33 H        9.0370     9.9530    -0.9200 H     1 <1>   0.1500 
 34 H        7.9310    10.4810     1.4680 H     1 <1>   0.1500 
@<TRIPOS>BOND
  1   1   2  1   
  2   2   3  1   
  3   2   4  2   
  4   3   5  2   
  5   3  18  1   
  6   4   6  1   
  7   4  19  1   
  8   5   6  1   
  9   6   7  1   
 10   7   8  1   
 11   7  20  1   
 12   7  21  1   
 13   8   9  1   
 14   8  22  1   
 15   8  23  1   
 16   9  10  1   
 17   9  11  1   
 18   9  24  1   
 19  10  12  1   
 20  10  13  1   
 21  10  25  1   
 22  11  26  1   
 23  11  27  1   
 24  11  28  1   
 25  12  14  1   
 26  12  15  2   
 27  13  29  1   
 28  13  30  1   
 29  13  31  1   
 30  14  16  1   
 31  15  17  1   
 32  15  32  1   
 33  16  17  2   
 34  16  33  1   
 35  17  34  1   
@<TRIPOS>SUBSTRUCTURE
  1 ****   8 GROUP 4 **** **** 0

# MOE 2024.06 (io_trps.svl 2023.06)
