@<TRIPOS>MOLECULE
NONAME
51 54 1 0 0 
SMALL
USER_CHARGES


@<TRIPOS>ATOM
  1 O       -0.4100    -0.0360     0.6460 O.2   1 <1>  -0.5700 
  2 C       -1.4620     0.5770     0.6780 C.2   1 <1>   0.7160 
  3 N       -2.6310    -0.1120     0.4430 N.am  1 <1>  -0.6600 
  4 C       -1.4770     1.9970     0.9380 C.2   1 <1>  -0.0860 
  5 C       -3.8720     0.5190    -0.0750 C.3   1 <1>   0.1400 
  6 C       -2.6430    -1.5730     0.1920 C.3   1 <1>   0.1400 
  7 C       -0.6940     3.0180     0.4840 C.2   1 <1>  -0.3320 
  8 C       -2.3780     2.6420     1.7860 C.2   1 <1>   0.1390 
  9 C       -4.5690    -0.5840    -0.8710 C.3   1 <1>   0.2000 
 10 C       -4.0630    -1.8960    -0.2760 C.3   1 <1>  -0.0800 
 11 N       -1.1490     4.1580     1.0410 N.pl3 1 <1>   0.3140 
 12 C        0.4880     2.9350    -0.4720 C.3   1 <1>  -0.0600 
 13 N       -2.1990     3.9210     1.8450 N.2   1 <1>  -0.7070 
 14 O       -5.9470    -0.5080    -0.7510 O.3   1 <1>  -0.6800 
 15 C       -4.1280    -3.0680    -1.2700 C.3   1 <1>  -0.0170 
 16 C       -0.6250     5.5300     0.8640 C.3   1 <1>   0.0960 
 17 C       -3.6380    -4.3590    -0.6240 C.ar  1 <1>  -0.1440 
 18 C       -1.2960     6.2320    -0.3240 C.3   1 <1>  -0.2400 
 19 C       -4.4410    -5.1140     0.2640 C.ar  1 <1>   0.0000 
 20 C       -2.3810    -4.8220    -0.8850 C.ar  1 <1>  -0.1500 
 21 C       -3.8750    -6.2830     0.8300 C.ar  1 <1>   0.3100 
 22 C       -5.7690    -4.7810     0.6220 C.ar  1 <1>  -0.1500 
 23 C       -1.9210    -5.9960    -0.2770 C.ar  1 <1>   0.1600 
 24 N       -2.6180    -6.7090     0.5490 N.ar  1 <1>  -0.6200 
 25 C       -4.6430    -7.0440     1.7250 C.ar  1 <1>  -0.1500 
 26 C       -6.4910    -5.5460     1.4960 C.ar  1 <1>  -0.1500 
 27 C       -5.9230    -6.6920     2.0580 C.ar  1 <1>  -0.1500 
 28 H       -4.4810     0.8340     0.7540 H     1 <1>   0.0800 
 29 H       -3.6400     1.3590    -0.7070 H     1 <1>   0.0800 
 30 H       -1.9220    -1.8030    -0.5740 H     1 <1>   0.0800 
 31 H       -2.3910    -2.1150     1.0880 H     1 <1>   0.0800 
 32 H       -3.1450     2.1310     2.3430 H     1 <1>   0.1500 
 33 H       -4.3120    -0.4990    -1.9130 H     1 <1>   0.0800 
 34 H       -4.6360    -2.1310     0.6030 H     1 <1>   0.0800 
 35 H        0.6360     1.9240    -0.8060 H     1 <1>   0.0800 
 36 H        1.3870     3.2590     0.0220 H     1 <1>   0.0800 
 37 H        0.3170     3.5540    -1.3340 H     1 <1>   0.0800 
 38 H       -6.2140    -0.5680     0.1870 H     1 <1>   0.4000 
 39 H       -3.5210    -2.8400    -2.1290 H     1 <1>   0.0800 
 40 H       -5.1350    -3.1950    -1.6270 H     1 <1>   0.0800 
 41 H       -0.8190     6.0780     1.7690 H     1 <1>   0.0800 
 42 H        0.4380     5.4800     0.7190 H     1 <1>   0.0800 
 43 H       -2.3580     6.2890    -0.1620 H     1 <1>   0.0800 
 44 H       -1.1030     5.6960    -1.2360 H     1 <1>   0.0800 
 45 H       -0.9100     7.2310    -0.4230 H     1 <1>   0.0800 
 46 H       -1.7150    -4.3060    -1.5520 H     1 <1>   0.1500 
 47 H       -6.2280    -3.9080     0.1970 H     1 <1>   0.1500 
 48 H       -0.9230    -6.3250    -0.5110 H     1 <1>   0.1500 
 49 H       -4.1870    -7.9220     2.1430 H     1 <1>   0.1500 
 50 H       -7.5010    -5.2820     1.7600 H     1 <1>   0.1500 
 51 H       -6.5000    -7.2860     2.7460 H     1 <1>   0.1500 
@<TRIPOS>BOND
  1   1   2  2   
  2   2   3  am  
  3   2   4  1   
  4   3   5  1   
  5   3   6  1   
  6   4   7  2   
  7   4   8  1   
  8   5   9  1   
  9   5  28  1   
 10   5  29  1   
 11   6  10  1   
 12   6  30  1   
 13   6  31  1   
 14   7  11  1   
 15   7  12  1   
 16   8  13  2   
 17   8  32  1   
 18   9  10  1   
 19   9  14  1   
 20   9  33  1   
 21  10  15  1   
 22  10  34  1   
 23  11  13  1   
 24  11  16  1   
 25  12  35  1   
 26  12  36  1   
 27  12  37  1   
 28  14  38  1   
 29  15  17  1   
 30  15  39  1   
 31  15  40  1   
 32  16  18  1   
 33  16  41  1   
 34  16  42  1   
 35  17  19  ar  
 36  17  20  ar  
 37  18  43  1   
 38  18  44  1   
 39  18  45  1   
 40  19  21  ar  
 41  19  22  ar  
 42  20  23  ar  
 43  20  46  1   
 44  21  24  ar  
 45  21  25  ar  
 46  22  26  ar  
 47  22  47  1   
 48  23  24  ar  
 49  23  48  1   
 50  25  27  ar  
 51  25  49  1   
 52  26  27  ar  
 53  26  50  1   
 54  27  51  1   
@<TRIPOS>SUBSTRUCTURE
  1 ****   6 GROUP 4 **** **** 0

# MOE 2024.06 (io_trps.svl 2023.06)
