@<TRIPOS>MOLECULE
NONAME
49 51 1 0 0 
SMALL
USER_CHARGES


@<TRIPOS>ATOM
  1 S       -0.6220     0.1460    -0.1920 S.o2  1 <1>   1.3330 
  2 O        0.5410     0.5390     0.5600 O.2   1 <1>  -0.6500 
  3 O       -1.9140     0.7350     0.0640 O.2   1 <1>  -0.6500 
  4 N       -0.7570    -1.4970     0.0740 N.am  1 <1>  -0.9140 
  5 C       -0.2730     0.2320    -1.9340 C.3   1 <1>  -0.1350 
  6 C       -1.5420    -1.7890     1.2900 C.3   1 <1>   0.2570 
  7 C       -1.5290    -3.2720     1.6890 C.2   1 <1>   0.5690 
  8 O       -0.7460    -3.6040     2.5500 O.2   1 <1>  -0.5700 
  9 N       -2.3660    -4.1770     1.0800 N.am  1 <1>  -0.6600 
 10 C       -3.2320    -3.8080    -0.0810 C.3   1 <1>   0.1400 
 11 C       -2.3930    -5.6030     1.5200 C.3   1 <1>   0.1400 
 12 C       -3.7900    -5.0480    -0.7820 C.3   1 <1>  -0.1600 
 13 C       -3.8260    -6.1450     1.5310 C.3   1 <1>  -0.1600 
 14 C       -4.5830    -5.9290     0.1980 C.3   1 <1>   0.4240 
 15 O       -5.7050    -5.1320     0.5040 O.3   1 <1>  -0.5600 
 16 C       -4.9940    -7.2680    -0.4750 C.ar  1 <1>  -0.1430 
 17 C       -6.8470    -5.7800     0.9620 C.3   1 <1>   0.1200 
 18 C       -4.0410    -8.2060    -0.8920 C.ar  1 <1>   0.0830 
 19 C       -6.3420    -7.5650    -0.6720 C.ar  1 <1>  -0.1430 
 20 C       -7.4080    -6.6060    -0.1860 C.3   1 <1>  -0.0170 
 21 O       -2.7270    -7.9480    -0.6580 O.3   1 <1>  -0.3620 
 22 C       -4.4450    -9.3830    -1.5190 C.ar  1 <1>  -0.1500 
 23 C       -6.7320    -8.7380    -1.2970 C.ar  1 <1>  -0.1500 
 24 C       -1.6980    -8.8310    -1.0470 C.3   1 <1>   0.0400 
 25 C       -5.7840    -9.6450    -1.7250 C.ar  1 <1>  -0.1500 
 26 H        0.1950    -1.7910     0.2970 H     1 <1>   0.4200 
 27 H       -0.1460     1.2540    -2.2320 H     1 <1>   0.0800 
 28 H       -1.0850    -0.1910    -2.4930 H     1 <1>   0.0800 
 29 H        0.6240    -0.3080    -2.1610 H     1 <1>   0.0800 
 30 H       -2.5610    -1.4760     1.1490 H     1 <1>   0.0800 
 31 H       -1.1420    -1.2240     2.1150 H     1 <1>   0.0800 
 32 H       -2.6620    -3.2310    -0.7890 H     1 <1>   0.0800 
 33 H       -4.0490    -3.2000     0.2720 H     1 <1>   0.0800 
 34 H       -1.9740    -5.6960     2.5080 H     1 <1>   0.0800 
 35 H       -1.7810    -6.1810     0.8510 H     1 <1>   0.0800 
 36 H       -2.9720    -5.5840    -1.2200 H     1 <1>   0.0800 
 37 H       -4.4370    -4.7540    -1.5880 H     1 <1>   0.0800 
 38 H       -4.3490    -5.6670     2.3390 H     1 <1>   0.0800 
 39 H       -3.7850    -7.1940     1.7550 H     1 <1>   0.0800 
 40 H       -7.5530    -5.0300     1.2730 H     1 <1>   0.0800 
 41 H       -6.5890    -6.4010     1.8030 H     1 <1>   0.0800 
 42 H       -7.7090    -5.9550    -0.9860 H     1 <1>   0.0800 
 43 H       -8.2700    -7.1480     0.1580 H     1 <1>   0.0800 
 44 H       -3.7350   -10.1130    -1.8560 H     1 <1>   0.1500 
 45 H       -7.7750    -8.9500    -1.4520 H     1 <1>   0.1500 
 46 H       -0.7580    -8.3990    -0.7540 H     1 <1>   0.0800 
 47 H       -1.7260    -8.9510    -2.1160 H     1 <1>   0.0800 
 48 H       -1.8370    -9.7730    -0.5470 H     1 <1>   0.0800 
 49 H       -6.0900   -10.5540    -2.2120 H     1 <1>   0.1500 
@<TRIPOS>BOND
  1   1   2  2   
  2   1   3  2   
  3   1   4  am  
  4   1   5  1   
  5   4   6  1   
  6   4  26  1   
  7   5  27  1   
  8   5  28  1   
  9   5  29  1   
 10   6   7  1   
 11   6  30  1   
 12   6  31  1   
 13   7   8  2   
 14   7   9  am  
 15   9  10  1   
 16   9  11  1   
 17  10  12  1   
 18  10  32  1   
 19  10  33  1   
 20  11  13  1   
 21  11  34  1   
 22  11  35  1   
 23  12  14  1   
 24  12  36  1   
 25  12  37  1   
 26  13  14  1   
 27  13  38  1   
 28  13  39  1   
 29  14  15  1   
 30  14  16  1   
 31  15  17  1   
 32  16  18  ar  
 33  16  19  ar  
 34  17  20  1   
 35  17  40  1   
 36  17  41  1   
 37  18  21  1   
 38  18  22  ar  
 39  19  20  1   
 40  19  23  ar  
 41  20  42  1   
 42  20  43  1   
 43  21  24  1   
 44  22  25  ar  
 45  22  44  1   
 46  23  25  ar  
 47  23  45  1   
 48  24  46  1   
 49  24  47  1   
 50  24  48  1   
 51  25  49  1   
@<TRIPOS>SUBSTRUCTURE
  1 ****  12 GROUP 4 **** **** 0

# MOE 2024.06 (io_trps.svl 2023.06)
