@<TRIPOS>MOLECULE
F2147-9365
28 29 1 0 0 
SMALL
USER_CHARGES


@<TRIPOS>ATOM
  1 N       -7.5480     1.2080     0.2160 N.ar  1 <1>  -0.6200 
  2 C       -6.4690     1.9300    -0.0850 C.ar  1 <1>   0.3380 
  3 C       -8.7060     1.8400     0.2580 C.ar  1 <1>   0.1660 
  4 C       -5.1950     1.2330    -0.1180 C.2   1 <1>  -0.1670 
  5 C       -6.5460     3.2950    -0.3550 C.ar  1 <1>  -0.1500 
  6 C       -8.8600     3.1930     0.0060 C.ar  1 <1>  -0.1500 
  7 C       -9.9110     0.9920     0.6070 C.3   1 <1>  -0.0960 
  8 C       -3.9950     1.7720     0.1810 C.2   1 <1>  -0.2880 
  9 C       -5.2750    -0.2400    -0.5250 C.3   1 <1>  -0.0220 
 10 C       -7.7550     3.9510    -0.3110 C.ar  1 <1>  -0.1500 
 11 C       -2.6680     1.0410     0.1830 C.3   1 <1>   0.4810 
 12 C       -3.9000    -0.8410    -0.8210 C.3   1 <1>   0.3430 
 13 N       -2.9320    -0.4160     0.2280 N.4   1 <1>  -0.9060 
 14 H       -5.6600     3.8450    -0.6060 H     1 <1>   0.1500 
 15 H       -9.8310     3.6520     0.0560 H     1 <1>   0.1500 
 16 H       -9.7690     0.5480     1.5750 H     1 <1>   0.0800 
 17 H      -10.0220     0.2080    -0.1200 H     1 <1>   0.0800 
 18 H      -10.8090     1.5800     0.6230 H     1 <1>   0.0800 
 19 H       -3.8820     2.8050     0.4620 H     1 <1>   0.1500 
 20 H       -5.8890    -0.3390    -1.4040 H     1 <1>   0.0800 
 21 H       -5.7510    -0.8030     0.2600 H     1 <1>   0.0800 
 22 H       -7.8380     5.0050    -0.5160 H     1 <1>   0.1500 
 23 H       -2.0950     1.3330     1.0490 H     1 <1>   0.0800 
 24 H       -2.1090     1.3000    -0.7030 H     1 <1>   0.0800 
 25 H       -3.5630    -0.4960    -1.7860 H     1 <1>   0.0800 
 26 H       -3.9780    -1.9160    -0.8520 H     1 <1>   0.0800 
 27 H       -3.3540    -0.6170     1.1430 H     1 <1>   0.4500 
 28 H       -2.0540    -0.9420     0.1570 H     1 <1>   0.4500 
@<TRIPOS>BOND
  1   1   2  ar  
  2   1   3  ar  
  3   2   4  1   
  4   2   5  ar  
  5   3   6  ar  
  6   3   7  1   
  7   4   8  2   
  8   4   9  1   
  9   5  10  ar  
 10   5  14  1   
 11   6  10  ar  
 12   6  15  1   
 13   7  16  1   
 14   7  17  1   
 15   7  18  1   
 16   8  11  1   
 17   8  19  1   
 18   9  12  1   
 19   9  20  1   
 20   9  21  1   
 21  10  22  1   
 22  11  13  1   
 23  11  23  1   
 24  11  24  1   
 25  12  13  1   
 26  12  25  1   
 27  12  26  1   
 28  13  27  1   
 29  13  28  1   
@<TRIPOS>SUBSTRUCTURE
  1 ****   2 GROUP 4 **** **** 0

# MOE 2024.06 (io_trps.svl 2023.06)
