@<TRIPOS>MOLECULE
NONAME
44 47 1 0 0 
SMALL
USER_CHARGES


@<TRIPOS>ATOM
  1 S       -0.9200    -1.8210     1.3770 S.3   1 <1>  -0.0800 
  2 C       -1.6470    -0.7100     0.2480 C.2   1 <1>  -0.1400 
  3 C        0.0260    -2.4910     0.0700 C.2   1 <1>   0.2280 
  4 C       -1.1330    -0.9470    -0.9740 C.2   1 <1>   0.0460 
  5 C       -2.6680     0.2600     0.8190 C.3   1 <1>   0.2900 
  6 N       -0.1830    -1.9520    -1.0630 N.2   1 <1>  -0.5650 
  7 C       -1.4740    -0.2440    -2.2720 C.3   1 <1>  -0.0590 
  8 N       -2.5820     1.5940     0.1910 N.3   1 <1>  -0.8100 
  9 C       -3.6610     2.4880     0.6590 C.3   1 <1>   0.2530 
 10 C       -1.2400     2.2070     0.4050 C.3   1 <1>   0.2910 
 11 C       -5.0370     1.9000     0.3820 C.ar  1 <1>  -0.1430 
 12 C       -1.0300     3.5350    -0.3260 C.2   1 <1>   0.3350 
 13 C       -5.4000     1.5660    -0.9140 C.ar  1 <1>  -0.1500 
 14 C       -5.9400     1.6910     1.4150 C.ar  1 <1>  -0.1500 
 15 N       -0.5840     3.6560    -1.5140 N.2   1 <1>  -0.4100 
 16 N       -1.2970     4.6990     0.2580 N.2   1 <1>  -0.5650 
 17 C       -6.6480     1.0270    -1.1770 C.ar  1 <1>  -0.1500 
 18 C       -7.1880     1.1520     1.1540 C.ar  1 <1>  -0.1500 
 19 O       -0.5430     4.9260    -1.7800 O.3   1 <1>  -0.0190 
 20 C       -0.9800     5.4950    -0.6840 C.2   1 <1>   0.3930 
 21 C       -7.5420     0.8200    -0.1420 C.ar  1 <1>  -0.1500 
 22 C       -1.0670     7.0130    -0.6440 C.3   1 <1>  -0.0150 
 23 C        0.1560     7.8350    -0.3740 C.3   1 <1>  -0.2000 
 24 C       -0.9450     7.7740     0.6420 C.3   1 <1>  -0.2000 
 25 H        0.7000    -3.2930     0.3120 H     1 <1>   0.1500 
 26 H       -2.5180     0.3580     1.8810 H     1 <1>   0.0800 
 27 H       -3.6430    -0.1670     0.6610 H     1 <1>   0.0800 
 28 H       -2.2910     0.4390    -2.1410 H     1 <1>   0.0800 
 29 H       -1.7510    -0.9710    -3.0130 H     1 <1>   0.0800 
 30 H       -0.6180     0.3020    -2.6220 H     1 <1>   0.0800 
 31 H       -3.6030     3.4290     0.1400 H     1 <1>   0.0800 
 32 H       -3.5440     2.6830     1.7120 H     1 <1>   0.0800 
 33 H       -0.4770     1.5370     0.0520 H     1 <1>   0.0800 
 34 H       -1.0750     2.3630     1.4570 H     1 <1>   0.0800 
 35 H       -4.7020     1.7230    -1.7180 H     1 <1>   0.1500 
 36 H       -5.6770     1.9470     2.4260 H     1 <1>   0.1500 
 37 H       -6.9190     0.7690    -2.1850 H     1 <1>   0.1500 
 38 H       -7.8840     0.9920     1.9590 H     1 <1>   0.1500 
 39 H       -8.5120     0.4010    -0.3450 H     1 <1>   0.1500 
 40 H       -1.7650     7.3880    -1.3710 H     1 <1>   0.1000 
 41 H        0.3010     8.7440    -0.9320 H     1 <1>   0.1000 
 42 H        1.0830     7.3310    -0.1580 H     1 <1>   0.1000 
 43 H       -0.7820     7.2240     1.5530 H     1 <1>   0.1000 
 44 H       -1.5680     8.6390     0.7880 H     1 <1>   0.1000 
@<TRIPOS>BOND
  1   1   2  1   
  2   1   3  1   
  3   2   4  2   
  4   2   5  1   
  5   3   6  2   
  6   3  25  1   
  7   4   6  1   
  8   4   7  1   
  9   5   8  1   
 10   5  26  1   
 11   5  27  1   
 12   7  28  1   
 13   7  29  1   
 14   7  30  1   
 15   8   9  1   
 16   8  10  1   
 17   9  11  1   
 18   9  31  1   
 19   9  32  1   
 20  10  12  1   
 21  10  33  1   
 22  10  34  1   
 23  11  13  ar  
 24  11  14  ar  
 25  12  15  2   
 26  12  16  1   
 27  13  17  ar  
 28  13  35  1   
 29  14  18  ar  
 30  14  36  1   
 31  15  19  1   
 32  16  20  2   
 33  17  21  ar  
 34  17  37  1   
 35  18  21  ar  
 36  18  38  1   
 37  19  20  1   
 38  20  22  1   
 39  21  39  1   
 40  22  23  1   
 41  22  24  1   
 42  22  40  1   
 43  23  24  1   
 44  23  41  1   
 45  23  42  1   
 46  24  43  1   
 47  24  44  1   
@<TRIPOS>SUBSTRUCTURE
  1 ****   8 GROUP 4 **** **** 0

# MOE 2024.06 (io_trps.svl 2023.06)
