@<TRIPOS>MOLECULE
NONAME
37 38 1 0 0 
SMALL
USER_CHARGES


@<TRIPOS>ATOM
  1 S       -0.2980     0.2220     0.4000 S.3   1 <1>  -0.0800 
  2 C       -1.4250    -0.7410    -0.4970 C.2   1 <1>   0.4420 
  3 C       -0.6860     1.5330    -0.6610 C.2   1 <1>   0.1980 
  4 N       -1.9830    -0.0780    -1.4430 N.2   1 <1>  -0.3380 
  5 N       -1.5710    -2.0510    -0.0900 N.am  1 <1>  -0.4940 
  6 N       -1.5560     1.2180    -1.5320 N.2   1 <1>  -0.3380 
  7 C        0.0180     2.8600    -0.4550 C.3   1 <1>   0.1640 
  8 C       -2.3730    -3.0310    -0.5990 C.2   1 <1>   0.5690 
  9 C        1.5300     2.7030    -0.5460 C.ar  1 <1>  -0.1440 
 10 O       -3.1130    -2.8730    -1.5340 O.2   1 <1>  -0.5700 
 11 C       -2.3220    -4.3920     0.0600 C.3   1 <1>  -0.0990 
 12 C        2.3370     2.9310     0.5590 C.ar  1 <1>  -0.1500 
 13 C        2.1130     2.3220    -1.7450 C.ar  1 <1>  -0.1500 
 14 C       -3.7270    -4.8750     0.4060 C.3   1 <1>   0.1200 
 15 C        3.7120     2.7800     0.4740 C.ar  1 <1>  -0.1430 
 16 C        3.4840     2.1710    -1.8370 C.ar  1 <1>  -0.1500 
 17 O       -3.6000    -6.0450     1.1440 O.3   1 <1>  -0.5600 
 18 C        4.2820     2.4000    -0.7300 C.ar  1 <1>  -0.1500 
 19 C        4.5910     3.0310     1.6850 C.3   1 <1>  -0.0970 
 20 C       -4.8160    -6.6320     1.4790 C.3   1 <1>   0.0400 
 21 H       -0.9840    -2.3190     0.6930 H     1 <1>   0.3700 
 22 H       -0.2620     3.2590     0.5020 H     1 <1>   0.0800 
 23 H       -0.3110     3.5520    -1.2090 H     1 <1>   0.0800 
 24 H       -1.7340    -4.3470     0.9570 H     1 <1>   0.0800 
 25 H       -1.8690    -5.0860    -0.6230 H     1 <1>   0.0800 
 26 H        1.8970     3.2280     1.4950 H     1 <1>   0.1500 
 27 H        1.5000     2.1370    -2.6120 H     1 <1>   0.1500 
 28 H       -4.2880    -5.0800    -0.4920 H     1 <1>   0.0800 
 29 H       -4.2470    -4.1440     1.0030 H     1 <1>   0.0800 
 30 H        3.9310     1.8750    -2.7700 H     1 <1>   0.1500 
 31 H        5.3480     2.2820    -0.8100 H     1 <1>   0.1500 
 32 H        4.0330     2.9010     2.5940 H     1 <1>   0.0800 
 33 H        4.9740     4.0350     1.6540 H     1 <1>   0.0800 
 34 H        5.4180     2.3440     1.6940 H     1 <1>   0.0800 
 35 H       -4.6120    -7.5210     2.0490 H     1 <1>   0.0800 
 36 H       -5.3450    -6.8920     0.5780 H     1 <1>   0.0800 
 37 H       -5.3920    -5.9440     2.0730 H     1 <1>   0.0800 
@<TRIPOS>BOND
  1   1   2  1   
  2   1   3  1   
  3   2   4  2   
  4   2   5  1   
  5   3   6  2   
  6   3   7  1   
  7   4   6  1   
  8   5   8  am  
  9   5  21  1   
 10   7   9  1   
 11   7  22  1   
 12   7  23  1   
 13   8  10  2   
 14   8  11  1   
 15   9  12  ar  
 16   9  13  ar  
 17  11  14  1   
 18  11  24  1   
 19  11  25  1   
 20  12  15  ar  
 21  12  26  1   
 22  13  16  ar  
 23  13  27  1   
 24  14  17  1   
 25  14  28  1   
 26  14  29  1   
 27  15  18  ar  
 28  15  19  1   
 29  16  18  ar  
 30  16  30  1   
 31  17  20  1   
 32  18  31  1   
 33  19  32  1   
 34  19  33  1   
 35  19  34  1   
 36  20  35  1   
 37  20  36  1   
 38  20  37  1   
@<TRIPOS>SUBSTRUCTURE
  1 ****   1 GROUP 4 **** **** 0

# MOE 2024.06 (io_trps.svl 2023.06)
