@<TRIPOS>MOLECULE
NONAME
51 53 1 0 0 
SMALL
USER_CHARGES


@<TRIPOS>ATOM
  1 O        2.4530    -2.1010     2.8680 O.2   1 <1>  -0.5700 
  2 C        1.9620    -2.2080     1.7550 C.2   1 <1>   0.5440 
  3 N        1.9800    -1.0790     0.9540 N.am  1 <1>  -0.6600 
  4 C        1.4230    -3.5070     1.3400 C.ar  1 <1>   0.3960 
  5 C        2.5050     0.2240     1.4180 C.3   1 <1>   0.1400 
  6 C        1.5660    -1.0070    -0.4650 C.3   1 <1>   0.1400 
  7 N        0.4330    -3.5950     0.4360 N.ar  1 <1>  -0.6200 
  8 C        1.9720    -4.6540     1.9220 C.ar  1 <1>   0.1600 
  9 C        2.1920     1.1980     0.2890 C.3   1 <1>  -0.1600 
 10 C        2.1110     0.3270    -0.9610 C.3   1 <1>  -0.1600 
 11 C        0.0500    -4.8310     0.1620 C.ar  1 <1>   0.4100 
 12 N        1.6120    -5.9030     1.6650 N.ar  1 <1>  -0.6200 
 13 N       -0.9670    -4.9600    -0.7750 N.pl3 1 <1>  -0.8380 
 14 C        0.6380    -5.9490     0.7790 C.ar  1 <1>   0.1600 
 15 C       -0.9540    -6.0780    -1.7720 C.3   1 <1>   0.3900 
 16 C       -1.9330    -3.8570    -1.0460 C.3   1 <1>   0.1290 
 17 C       -1.7660    -7.2860    -1.3110 C.2   1 <1>   0.1080 
 18 N       -1.7580    -8.4200    -1.9470 N.2   1 <1>  -0.7070 
 19 C       -2.5810    -7.3340    -0.1830 C.2   1 <1>  -0.1500 
 20 N       -2.5730    -9.2190    -1.2320 N.pl3 1 <1>   0.3000 
 21 C       -3.0850    -8.5880    -0.1540 C.2   1 <1>  -0.3320 
 22 C       -4.0320    -9.2570     0.8350 C.3   1 <1>   0.1800 
 23 C       -5.2910    -9.7260     0.0980 C.3   1 <1>  -0.2400 
 24 C       -3.3280   -10.4560     1.4780 C.3   1 <1>  -0.2400 
 25 C       -4.4370    -8.2690     1.9350 C.3   1 <1>  -0.2400 
 26 H        3.5690     0.1390     1.5650 H     1 <1>   0.0800 
 27 H        2.0360     0.5180     2.3420 H     1 <1>   0.0800 
 28 H        0.4900    -1.0160    -0.5160 H     1 <1>   0.0800 
 29 H        1.9630    -1.8330    -1.0300 H     1 <1>   0.0800 
 30 H        2.7600    -4.5230     2.6440 H     1 <1>   0.1500 
 31 H        2.9390     1.9680     0.2070 H     1 <1>   0.0800 
 32 H        1.2370     1.6550     0.4790 H     1 <1>   0.0800 
 33 H        1.4850     0.7570    -1.7230 H     1 <1>   0.0800 
 34 H        3.0970     0.1730    -1.3640 H     1 <1>   0.0800 
 35 H        0.2650    -6.9220     0.5170 H     1 <1>   0.1500 
 36 H        0.0600    -6.3930    -1.9450 H     1 <1>   0.0800 
 37 H       -1.3500    -5.7340    -2.7110 H     1 <1>   0.0800 
 38 H       -2.0530    -3.2430    -0.1700 H     1 <1>   0.0800 
 39 H       -2.8930    -4.2650    -1.3110 H     1 <1>   0.0800 
 40 H       -1.5690    -3.2450    -1.8530 H     1 <1>   0.0800 
 41 H       -2.7440    -6.5200     0.5010 H     1 <1>   0.1500 
 42 H       -2.7610   -10.1920    -1.5000 H     1 <1>   0.2700 
 43 H       -5.0490   -10.4570    -0.6510 H     1 <1>   0.0800 
 44 H       -5.7670    -8.8910    -0.3830 H     1 <1>   0.0800 
 45 H       -5.9890   -10.1670     0.7880 H     1 <1>   0.0800 
 46 H       -3.0690   -11.1930     0.7400 H     1 <1>   0.0800 
 47 H       -3.9660   -10.9200     2.2100 H     1 <1>   0.0800 
 48 H       -2.4260   -10.1340     1.9670 H     1 <1>   0.0800 
 49 H       -4.9360    -7.4180     1.5070 H     1 <1>   0.0800 
 50 H       -3.5680    -7.9250     2.4670 H     1 <1>   0.0800 
 51 H       -5.1030    -8.7350     2.6380 H     1 <1>   0.0800 
@<TRIPOS>BOND
  1   1   2  2   
  2   2   3  am  
  3   2   4  1   
  4   3   5  1   
  5   3   6  1   
  6   4   7  ar  
  7   4   8  ar  
  8   5   9  1   
  9   5  26  1   
 10   5  27  1   
 11   6  10  1   
 12   6  28  1   
 13   6  29  1   
 14   7  11  ar  
 15   8  12  ar  
 16   8  30  1   
 17   9  10  1   
 18   9  31  1   
 19   9  32  1   
 20  10  33  1   
 21  10  34  1   
 22  11  13  1   
 23  11  14  ar  
 24  12  14  ar  
 25  13  15  1   
 26  13  16  1   
 27  14  35  1   
 28  15  17  1   
 29  15  36  1   
 30  15  37  1   
 31  16  38  1   
 32  16  39  1   
 33  16  40  1   
 34  17  18  2   
 35  17  19  1   
 36  18  20  1   
 37  19  21  2   
 38  19  41  1   
 39  20  21  1   
 40  20  42  1   
 41  21  22  1   
 42  22  23  1   
 43  22  24  1   
 44  22  25  1   
 45  23  43  1   
 46  23  44  1   
 47  23  45  1   
 48  24  46  1   
 49  24  47  1   
 50  24  48  1   
 51  25  49  1   
 52  25  50  1   
 53  25  51  1   
@<TRIPOS>SUBSTRUCTURE
  1 ****  11 GROUP 4 **** **** 0

# MOE 2024.06 (io_trps.svl 2023.06)
