@<TRIPOS>MOLECULE
NONAME
46 48 1 0 0 
SMALL
USER_CHARGES


@<TRIPOS>ATOM
  1 S       -0.7750    -0.6290     1.5340 S.3   1 <1>  -0.0800 
  2 C       -1.1920     0.6850     0.5000 C.2   1 <1>   0.4340 
  3 C       -1.4270    -1.6650     0.3020 C.2   1 <1>   0.4420 
  4 S       -0.8070     2.3270     1.0870 S.3   1 <1>  -0.2860 
  5 N       -1.7430     0.3470    -0.5940 N.2   1 <1>  -0.3380 
  6 N       -1.8790    -1.0110    -0.7090 N.2   1 <1>  -0.3380 
  7 N       -1.3960    -3.0210     0.5580 N.am  1 <1>  -0.4940 
  8 C       -1.3900     3.4100    -0.2870 C.3   1 <1>   0.0700 
  9 C       -1.7290    -4.0550    -0.2730 C.2   1 <1>   0.5690 
 10 C       -1.1110     4.8600     0.1030 C.3   1 <1>  -0.2400 
 11 O       -2.0070    -3.9070    -1.4370 O.2   1 <1>  -0.5700 
 12 C       -1.7660    -5.4790     0.3040 C.3   1 <1>   0.1710 
 13 N       -3.1270    -6.0210     0.5960 N.3   1 <1>  -0.8100 
 14 C       -3.9300    -6.1200    -0.6510 C.3   1 <1>   0.2780 
 15 C       -3.8150    -5.2430     1.6400 C.3   1 <1>   0.0300 
 16 C       -5.2460    -6.8780    -0.4560 C.2   1 <1>   0.1820 
 17 N       -5.3210    -8.1450     0.1000 N.pl3 1 <1>  -0.6290 
 18 C       -6.5030    -6.4920    -0.7720 C.2   1 <1>   0.1820 
 19 C       -6.6240    -8.5030     0.1080 C.cat 1 <1>   0.7910 
 20 C       -4.3610    -8.9820     0.6230 C.2   1 <1>   0.2290 
 21 N       -7.3510    -7.5060    -0.4210 N.pl3 1 <1>  -0.7000 
 22 C       -7.0330    -5.2170    -1.4010 C.3   1 <1>  -0.0720 
 23 C       -7.0190    -9.7490     0.6230 C.2   1 <1>  -0.1410 
 24 C       -4.7240   -10.1960     1.1320 C.2   1 <1>  -0.1500 
 25 C       -6.0760   -10.5990     1.1350 C.2   1 <1>  -0.1500 
 26 H       -1.0880    -3.2690     1.4950 H     1 <1>   0.3700 
 27 H       -2.4420     3.2260    -0.4180 H     1 <1>   0.0800 
 28 H       -0.8520     3.1230    -1.1740 H     1 <1>   0.0800 
 29 H       -1.6360     5.1090     1.0080 H     1 <1>   0.0800 
 30 H       -1.4400     5.5190    -0.6800 H     1 <1>   0.0800 
 31 H       -0.0560     5.0060     0.2570 H     1 <1>   0.0800 
 32 H       -1.1800    -5.5090     1.2050 H     1 <1>   0.0800 
 33 H       -1.2800    -6.1280    -0.4030 H     1 <1>   0.0800 
 34 H       -3.3550    -6.6390    -1.3980 H     1 <1>   0.0800 
 35 H       -4.1390    -5.1350    -1.0290 H     1 <1>   0.0800 
 36 H       -3.1970    -5.1800     2.5190 H     1 <1>   0.0800 
 37 H       -4.7350    -5.7270     1.9190 H     1 <1>   0.0800 
 38 H       -4.0370    -4.2460     1.2930 H     1 <1>   0.0800 
 39 H       -3.3350    -8.6480     0.6180 H     1 <1>   0.1500 
 40 H       -8.3660    -7.5200    -0.5330 H     1 <1>   0.4500 
 41 H       -6.2350    -4.5280    -1.6120 H     1 <1>   0.0800 
 42 H       -7.7260    -4.7380    -0.7330 H     1 <1>   0.0800 
 43 H       -7.5380    -5.4440    -2.3230 H     1 <1>   0.0800 
 44 H       -8.0610   -10.0080     0.6060 H     1 <1>   0.1500 
 45 H       -3.9840   -10.8630     1.5420 H     1 <1>   0.1500 
 46 H       -6.3390   -11.5640     1.5400 H     1 <1>   0.1500 
@<TRIPOS>BOND
  1   1   2  1   
  2   1   3  1   
  3   2   4  1   
  4   2   5  2   
  5   3   6  2   
  6   3   7  1   
  7   4   8  1   
  8   5   6  1   
  9   7   9  am  
 10   7  26  1   
 11   8  10  1   
 12   8  27  1   
 13   8  28  1   
 14   9  11  2   
 15   9  12  1   
 16  10  29  1   
 17  10  30  1   
 18  10  31  1   
 19  12  13  1   
 20  12  32  1   
 21  12  33  1   
 22  13  14  1   
 23  13  15  1   
 24  14  16  1   
 25  14  34  1   
 26  14  35  1   
 27  15  36  1   
 28  15  37  1   
 29  15  38  1   
 30  16  17  1   
 31  16  18  2   
 32  17  19  ar  
 33  17  20  1   
 34  18  21  1   
 35  18  22  1   
 36  19  21  ar  
 37  19  23  1   
 38  20  24  2   
 39  20  39  1   
 40  21  40  1   
 41  22  41  1   
 42  22  42  1   
 43  22  43  1   
 44  23  25  2   
 45  23  44  1   
 46  24  25  1   
 47  24  45  1   
 48  25  46  1   
@<TRIPOS>SUBSTRUCTURE
  1 ****  15 GROUP 4 **** **** 0

# MOE 2024.06 (io_trps.svl 2023.06)
