@<TRIPOS>MOLECULE
NONAME
42 43 1 0 0 
SMALL
USER_CHARGES


@<TRIPOS>ATOM
  1 N       -0.6370    -0.8810     0.0310 N.ar  1 <1>  -0.6200 
  2 C       -1.4310    -0.1750     0.8060 C.ar  1 <1>   0.4100 
  3 C        0.0540    -0.1870    -0.8530 C.ar  1 <1>   0.4700 
  4 N       -2.1820    -0.8370     1.7380 N.pl3 1 <1>  -0.8690 
  5 C       -1.5220     1.1960     0.6790 C.ar  1 <1>  -0.1500 
  6 N        0.0410     1.1170    -1.0640 N.ar  1 <1>  -0.6200 
  7 C       -2.0510    -2.2610     2.1000 C.3   1 <1>   0.4690 
  8 C       -0.7630     1.8150    -0.2790 C.ar  1 <1>   0.1670 
  9 C       -3.4070    -2.9500     1.9440 C.2   1 <1>   0.0070 
 10 C       -1.5120    -2.3120     3.5280 C.3   1 <1>  -0.2400 
 11 C       -0.8270     3.3330    -0.4640 C.3   1 <1>   0.0630 
 12 N       -4.1220    -3.4320     2.9080 N.2   1 <1>  -0.3380 
 13 N       -4.0080    -3.1340     0.7600 N.pl3 1 <1>   0.0480 
 14 C       -1.3380     3.7010    -1.8640 C.3   1 <1>  -0.2400 
 15 C        0.5390     3.9830    -0.2070 C.3   1 <1>  -0.2400 
 16 N       -5.2230    -3.9510     2.3660 N.2   1 <1>  -0.3380 
 17 C       -5.1340    -3.7640     1.0960 C.2   1 <1>   0.0360 
 18 C       -3.5890    -2.7460    -0.6060 C.3   1 <1>   0.0960 
 19 C       -2.6110    -3.7710    -1.1950 C.3   1 <1>  -0.1600 
 20 C       -2.1780    -3.3670    -2.6080 C.3   1 <1>  -0.2400 
 21 H        0.7130    -0.7560    -1.4880 H     1 <1>   0.1500 
 22 H       -2.8100    -0.3200     2.3540 H     1 <1>   0.4000 
 23 H       -2.1770     1.7480     1.3210 H     1 <1>   0.1500 
 24 H       -1.3420    -2.7530     1.4570 H     1 <1>   0.0800 
 25 H       -2.1970    -1.8360     4.2060 H     1 <1>   0.0800 
 26 H       -0.5550    -1.8270     3.5770 H     1 <1>   0.0800 
 27 H       -1.3940    -3.3370     3.8290 H     1 <1>   0.0800 
 28 H       -1.5210     3.7370     0.2530 H     1 <1>   0.0800 
 29 H       -0.6560     3.3420    -2.6160 H     1 <1>   0.0800 
 30 H       -1.4310     4.7670    -1.9630 H     1 <1>   0.0800 
 31 H       -2.3000     3.2520    -2.0350 H     1 <1>   0.0800 
 32 H        1.2610     3.6320    -0.9250 H     1 <1>   0.0800 
 33 H        0.8890     3.7290     0.7770 H     1 <1>   0.0800 
 34 H        0.4690     5.0530    -0.2830 H     1 <1>   0.0800 
 35 H       -5.8730    -4.0720     0.3800 H     1 <1>   0.1500 
 36 H       -3.1340    -1.7740    -0.5710 H     1 <1>   0.0800 
 37 H       -4.4640    -2.6780    -1.2260 H     1 <1>   0.0800 
 38 H       -3.0800    -4.7390    -1.2310 H     1 <1>   0.0800 
 39 H       -1.7360    -3.8360    -0.5720 H     1 <1>   0.0800 
 40 H       -3.0280    -3.3130    -3.2650 H     1 <1>   0.0800 
 41 H       -1.4870    -4.0910    -3.0020 H     1 <1>   0.0800 
 42 H       -1.6910    -2.4060    -2.5900 H     1 <1>   0.0800 
@<TRIPOS>BOND
  1   1   2  ar  
  2   1   3  ar  
  3   2   4  1   
  4   2   5  ar  
  5   3   6  ar  
  6   3  21  1   
  7   4   7  1   
  8   4  22  1   
  9   5   8  ar  
 10   5  23  1   
 11   6   8  ar  
 12   7   9  1   
 13   7  10  1   
 14   7  24  1   
 15   8  11  1   
 16   9  12  2   
 17   9  13  1   
 18  10  25  1   
 19  10  26  1   
 20  10  27  1   
 21  11  14  1   
 22  11  15  1   
 23  11  28  1   
 24  12  16  1   
 25  13  17  1   
 26  13  18  1   
 27  14  29  1   
 28  14  30  1   
 29  14  31  1   
 30  15  32  1   
 31  15  33  1   
 32  15  34  1   
 33  16  17  2   
 34  17  35  1   
 35  18  19  1   
 36  18  36  1   
 37  18  37  1   
 38  19  20  1   
 39  19  38  1   
 40  19  39  1   
 41  20  40  1   
 42  20  41  1   
 43  20  42  1   
@<TRIPOS>SUBSTRUCTURE
  1 ****   2 GROUP 4 **** **** 0

# MOE 2024.06 (io_trps.svl 2023.06)
