@<TRIPOS>MOLECULE
NONAME
52 54 1 0 0 
SMALL
USER_CHARGES


@<TRIPOS>ATOM
  1 O       -0.4470     1.2000    -1.1030 O.2   1 <1>  -0.5700 
  2 C       -0.2390     2.3510    -0.8240 C.2   1 <1>   0.5690 
  3 N       -0.2220     3.3000    -1.7880 N.am  1 <1>  -0.7300 
  4 C        0.0250     2.7330     0.6240 C.3   1 <1>  -0.0990 
  5 C       -0.1360     4.7640    -1.5650 C.3   1 <1>   0.1400 
  6 C       -0.1260     4.2410     0.9010 C.3   1 <1>  -0.1600 
  7 C        0.5390     5.0670    -0.2170 C.3   1 <1>  -0.0190 
  8 C        0.4960     6.5660     0.0880 C.2   1 <1>   0.5690 
  9 O       -0.4940     7.1730    -0.2500 O.2   1 <1>  -0.5700 
 10 N        1.5410     7.2010     0.7210 N.am  1 <1>  -0.6600 
 11 C        2.7450     6.5100     1.2740 C.3   1 <1>   0.1400 
 12 C        1.4970     8.6790     0.9320 C.3   1 <1>   0.1400 
 13 C        3.8790     6.4460     0.2370 C.3   1 <1>   0.1100 
 14 C        2.8450     9.3730     0.6940 C.3   1 <1>  -0.1600 
 15 N        4.5630     7.7370     0.0160 N.3   1 <1>  -0.8100 
 16 C        3.6550     8.7970    -0.4710 C.3   1 <1>   0.1100 
 17 C        5.7070     7.5520    -0.9340 C.3   1 <1>   0.1710 
 18 C        6.7550     8.6650    -0.8660 C.2   1 <1>   0.5690 
 19 O        7.5140     8.8130    -1.7920 O.2   1 <1>  -0.5700 
 20 N        6.7470     9.4260     0.2680 N.am  1 <1>  -0.5470 
 21 C        7.5030    10.5220     0.7050 C.ar  1 <1>   0.1170 
 22 C        7.1280    11.1550     1.8850 C.ar  1 <1>  -0.1500 
 23 C        8.6120    11.0090     0.0200 C.ar  1 <1>  -0.1500 
 24 C        7.8340    12.2420     2.3680 C.ar  1 <1>  -0.1500 
 25 C        9.3210    12.0960     0.4980 C.ar  1 <1>  -0.1500 
 26 C        8.9330    12.7150     1.6730 C.ar  1 <1>  -0.1500 
 27 H       -0.4560     2.9820    -2.7320 H     1 <1>   0.3700 
 28 H        1.0260     2.4220     0.8600 H     1 <1>   0.0800 
 29 H       -0.6470     2.1790     1.2550 H     1 <1>   0.0800 
 30 H       -1.1340     5.1700    -1.5810 H     1 <1>   0.0800 
 31 H        0.4260     5.2190    -2.3630 H     1 <1>   0.0800 
 32 H        0.3070     4.4790     1.8570 H     1 <1>   0.0800 
 33 H       -1.1730     4.4910     0.9430 H     1 <1>   0.0800 
 34 H        1.5610     4.7620    -0.3170 H     1 <1>   0.0800 
 35 H        2.4820     5.5110     1.5710 H     1 <1>   0.0800 
 36 H        3.0920     7.0170     2.1580 H     1 <1>   0.0800 
 37 H        1.1580     8.8810     1.9330 H     1 <1>   0.0800 
 38 H        0.7790     9.1130     0.2570 H     1 <1>   0.0800 
 39 H        3.4940     6.0710    -0.6960 H     1 <1>   0.0800 
 40 H        4.6060     5.7390     0.5990 H     1 <1>   0.0800 
 41 H        3.4340     9.3590     1.5930 H     1 <1>   0.0800 
 42 H        2.6350    10.4060     0.4820 H     1 <1>   0.0800 
 43 H        4.2350     9.6010    -0.8920 H     1 <1>   0.0800 
 44 H        3.0060     8.4230    -1.2470 H     1 <1>   0.0800 
 45 H        5.3400     7.4800    -1.9430 H     1 <1>   0.0800 
 46 H        6.2190     6.6350    -0.7050 H     1 <1>   0.0800 
 47 H        5.9750     9.1410     0.8790 H     1 <1>   0.3700 
 48 H        6.2760    10.7950     2.4320 H     1 <1>   0.1500 
 49 H        8.9310    10.5410    -0.8930 H     1 <1>   0.1500 
 50 H        7.5300    12.7210     3.2820 H     1 <1>   0.1500 
 51 H       10.1760    12.4590    -0.0460 H     1 <1>   0.1500 
 52 H        9.4850    13.5610     2.0450 H     1 <1>   0.1500 
@<TRIPOS>BOND
  1   1   2  2   
  2   2   3  am  
  3   2   4  1   
  4   3   5  1   
  5   3  27  1   
  6   4   6  1   
  7   4  28  1   
  8   4  29  1   
  9   5   7  1   
 10   5  30  1   
 11   5  31  1   
 12   6   7  1   
 13   6  32  1   
 14   6  33  1   
 15   7   8  1   
 16   7  34  1   
 17   8   9  2   
 18   8  10  am  
 19  10  11  1   
 20  10  12  1   
 21  11  13  1   
 22  11  35  1   
 23  11  36  1   
 24  12  14  1   
 25  12  37  1   
 26  12  38  1   
 27  13  15  1   
 28  13  39  1   
 29  13  40  1   
 30  14  16  1   
 31  14  41  1   
 32  14  42  1   
 33  15  16  1   
 34  15  17  1   
 35  16  43  1   
 36  16  44  1   
 37  17  18  1   
 38  17  45  1   
 39  17  46  1   
 40  18  19  2   
 41  18  20  am  
 42  20  21  1   
 43  20  47  1   
 44  21  22  ar  
 45  21  23  ar  
 46  22  24  ar  
 47  22  48  1   
 48  23  25  ar  
 49  23  49  1   
 50  24  26  ar  
 51  24  50  1   
 52  25  26  ar  
 53  25  51  1   
 54  26  52  1   
@<TRIPOS>SUBSTRUCTURE
  1 ****  15 GROUP 4 **** **** 0

# MOE 2024.06 (io_trps.svl 2023.06)
