@<TRIPOS>MOLECULE
NONAME
54 55 1 0 0 
SMALL
USER_CHARGES


@<TRIPOS>ATOM
  1 S        1.8900     1.4100     0.0170 S.o2  1 <1>   1.3330 
  2 O        1.4520     0.5950     1.1230 O.2   1 <1>  -0.6500 
  3 O        2.7990     2.5080     0.2660 O.2   1 <1>  -0.6500 
  4 N        2.5010     0.4360    -1.2250 N.am  1 <1>  -0.8490 
  5 C        0.4370     2.1710    -0.7060 C.3   1 <1>  -0.0550 
  6 C        1.8650    -0.8870    -1.2940 C.3   1 <1>   0.1160 
  7 C        3.9580     0.2720    -1.1450 C.3   1 <1>   0.1160 
  8 C       -0.5050     2.8430     0.3260 C.3   1 <1>  -0.0800 
  9 C       -1.3490     3.9190    -0.3500 C.3   1 <1>   0.2000 
 10 C        0.2200     3.6250     1.4320 C.3   1 <1>   0.3430 
 11 O       -2.5120     4.1130     0.3830 O.3   1 <1>  -0.6800 
 12 C       -0.4740     5.1780    -0.2820 C.3   1 <1>   0.3430 
 13 N        0.4140     5.0170     0.9220 N.4   1 <1>  -0.9590 
 14 C        1.8540     5.2870     0.6340 C.3   1 <1>   0.3430 
 15 C        2.0760     6.7760     0.3900 C.3   1 <1>  -0.1600 
 16 C        3.5590     7.0570     0.1500 C.3   1 <1>   0.1200 
 17 O        3.6870     8.4340    -0.0950 O.3   1 <1>  -0.3630 
 18 C        4.9000     8.9870    -0.3560 C.ar  1 <1>   0.0820 
 19 C        4.9220    10.3510    -0.6010 C.ar  1 <1>  -0.1500 
 20 C        6.0910     8.2660    -0.3900 C.ar  1 <1>  -0.1500 
 21 C        6.1130    10.9990    -0.8780 C.ar  1 <1>  -0.1500 
 22 C        7.2810     8.9150    -0.6670 C.ar  1 <1>  -0.1500 
 23 C        7.3030    10.2780    -0.9120 C.ar  1 <1>   0.0820 
 24 O        8.5160    10.8310    -1.1750 O.3   1 <1>  -0.3620 
 25 C        8.6450    12.2100    -1.4370 C.3   1 <1>   0.0400 
 26 H        0.7690     2.8870    -1.4320 H     1 <1>   0.0800 
 27 H       -0.1240     1.4240    -1.2340 H     1 <1>   0.0800 
 28 H        2.2350    -1.4310    -2.1470 H     1 <1>   0.0800 
 29 H        0.7990    -0.7860    -1.3950 H     1 <1>   0.0800 
 30 H        2.0750    -1.4540    -0.4010 H     1 <1>   0.0800 
 31 H        4.3110    -0.3290    -1.9660 H     1 <1>   0.0800 
 32 H        4.2330    -0.2010    -0.2170 H     1 <1>   0.0800 
 33 H        4.4430     1.2320    -1.2020 H     1 <1>   0.0800 
 34 H       -1.1180     2.0720     0.7640 H     1 <1>   0.0800 
 35 H       -1.6370     3.6750    -1.3600 H     1 <1>   0.0800 
 36 H        1.1510     3.1710     1.7300 H     1 <1>   0.0800 
 37 H       -0.4170     3.6570     2.3010 H     1 <1>   0.0800 
 38 H       -2.3660     4.1860     1.3450 H     1 <1>   0.4000 
 39 H       -1.0830     6.0660    -0.2210 H     1 <1>   0.0800 
 40 H        0.1320     5.2290    -1.1710 H     1 <1>   0.0800 
 41 H        0.1110     5.6780     1.6510 H     1 <1>   0.4500 
 42 H        2.4560     4.9720     1.4720 H     1 <1>   0.0800 
 43 H        2.1730     4.7240    -0.2290 H     1 <1>   0.0800 
 44 H        1.7580     7.3370     1.2510 H     1 <1>   0.0800 
 45 H        1.5280     7.0990    -0.4760 H     1 <1>   0.0800 
 46 H        3.9220     6.5260    -0.7130 H     1 <1>   0.0800 
 47 H        4.1490     6.8110     1.0180 H     1 <1>   0.0800 
 48 H        4.0000    10.9020    -0.5730 H     1 <1>   0.1500 
 49 H        6.1190     7.2090    -0.2060 H     1 <1>   0.1500 
 50 H        6.0930    12.0560    -1.0620 H     1 <1>   0.1500 
 51 H        8.2060     8.3670    -0.6960 H     1 <1>   0.1500 
 52 H        9.6840    12.4210    -1.6160 H     1 <1>   0.0800 
 53 H        8.3020    12.7620    -0.5800 H     1 <1>   0.0800 
 54 H        8.0660    12.4550    -2.3110 H     1 <1>   0.0800 
@<TRIPOS>BOND
  1   1   2  2   
  2   1   3  2   
  3   1   4  am  
  4   1   5  1   
  5   4   6  1   
  6   4   7  1   
  7   5   8  1   
  8   5  26  1   
  9   5  27  1   
 10   6  28  1   
 11   6  29  1   
 12   6  30  1   
 13   7  31  1   
 14   7  32  1   
 15   7  33  1   
 16   8   9  1   
 17   8  10  1   
 18   8  34  1   
 19   9  11  1   
 20   9  12  1   
 21   9  35  1   
 22  10  13  1   
 23  10  36  1   
 24  10  37  1   
 25  11  38  1   
 26  12  13  1   
 27  12  39  1   
 28  12  40  1   
 29  13  14  1   
 30  13  41  1   
 31  14  15  1   
 32  14  42  1   
 33  14  43  1   
 34  15  16  1   
 35  15  44  1   
 36  15  45  1   
 37  16  17  1   
 38  16  46  1   
 39  16  47  1   
 40  17  18  1   
 41  18  19  ar  
 42  18  20  ar  
 43  19  21  ar  
 44  19  48  1   
 45  20  22  ar  
 46  20  49  1   
 47  21  23  ar  
 48  21  50  1   
 49  22  23  ar  
 50  22  51  1   
 51  23  24  1   
 52  24  25  1   
 53  25  52  1   
 54  25  53  1   
 55  25  54  1   
@<TRIPOS>SUBSTRUCTURE
  1 ****  14 GROUP 4 **** **** 0

# MOE 2024.06 (io_trps.svl 2023.06)
