@<TRIPOS>MOLECULE
NONAME
49 51 1 0 0 
SMALL
USER_CHARGES


@<TRIPOS>ATOM
  1 S       -1.0170    -0.3050     1.7470 S.3   1 <1>  -0.0800 
  2 C       -1.2050     0.9020     0.4920 C.2   1 <1>   0.1980 
  3 C       -2.2110    -1.2820     0.9450 C.2   1 <1>  -0.1100 
  4 N       -2.0560     0.5960    -0.4040 N.2   1 <1>  -0.5650 
  5 C       -0.3660     2.1610     0.5950 C.3   1 <1>   0.0200 
  6 C       -2.6330    -0.6430    -0.1580 C.2   1 <1>   0.0460 
  7 C        1.1060     1.8920     0.2500 C.3   1 <1>  -0.1600 
  8 C       -3.6730    -1.1360    -1.1560 C.3   1 <1>   0.3210 
  9 C        1.9470     3.1710     0.3270 C.3   1 <1>  -0.2400 
 10 N       -3.8120    -2.6130    -1.0930 N.am  1 <1>  -0.7300 
 11 C       -4.9950    -3.2880    -1.0280 C.2   1 <1>   0.5440 
 12 O       -6.0270    -2.6490    -1.0490 O.2   1 <1>  -0.5700 
 13 C       -5.0230    -4.7380    -0.9510 C.ar  1 <1>   0.0860 
 14 C       -3.9840    -5.4740    -0.3780 C.ar  1 <1>  -0.1500 
 15 C       -6.1060    -5.4620    -1.4510 C.ar  1 <1>  -0.1500 
 16 C       -4.0280    -6.8540    -0.3120 C.ar  1 <1>  -0.1500 
 17 C       -6.1490    -6.8420    -1.3860 C.ar  1 <1>  -0.1500 
 18 C       -5.1140    -7.5740    -0.8050 C.ar  1 <1>   0.0860 
 19 C       -5.1510    -9.0210    -0.7170 C.2   1 <1>   0.5440 
 20 O       -4.1730    -9.6590    -1.0570 O.2   1 <1>  -0.5700 
 21 N       -6.2570    -9.6970    -0.2450 N.am  1 <1>  -0.6600 
 22 C       -6.3900   -11.1820    -0.3600 C.3   1 <1>   0.1400 
 23 C       -7.3020    -9.0830     0.6300 C.3   1 <1>   0.1400 
 24 C       -6.5530   -11.8210     1.0280 C.3   1 <1>   0.1200 
 25 C       -7.4160    -9.8490     1.9590 C.3   1 <1>   0.1200 
 26 O       -7.6040   -11.2160     1.7290 O.3   1 <1>  -0.5600 
 27 H       -2.4730    -2.2250     1.3870 H     1 <1>   0.1500 
 28 H       -0.4480     2.5540     1.5920 H     1 <1>   0.0800 
 29 H       -0.7660     2.8920    -0.0850 H     1 <1>   0.0800 
 30 H        1.1650     1.4850    -0.7460 H     1 <1>   0.0800 
 31 H        1.5080     1.1620     0.9310 H     1 <1>   0.0800 
 32 H       -3.3640    -0.8600    -2.1480 H     1 <1>   0.0800 
 33 H       -4.6140    -0.6530    -0.9520 H     1 <1>   0.0800 
 34 H        1.5780     3.9070    -0.3670 H     1 <1>   0.0800 
 35 H        2.9710     2.9520     0.0780 H     1 <1>   0.0800 
 36 H        1.9180     3.5830     1.3200 H     1 <1>   0.0800 
 37 H       -2.9380    -3.1240    -1.2160 H     1 <1>   0.3700 
 38 H       -3.1300    -4.9610     0.0280 H     1 <1>   0.1500 
 39 H       -6.9250    -4.9230    -1.9000 H     1 <1>   0.1500 
 40 H       -3.2090    -7.3990     0.1280 H     1 <1>   0.1500 
 41 H       -6.9950    -7.3690    -1.7930 H     1 <1>   0.1500 
 42 H       -5.5310   -11.6070    -0.8480 H     1 <1>   0.0800 
 43 H       -7.2530   -11.4130    -0.9580 H     1 <1>   0.0800 
 44 H       -8.2510    -9.1130     0.1230 H     1 <1>   0.0800 
 45 H       -7.0680    -8.0560     0.8450 H     1 <1>   0.0800 
 46 H       -5.6470   -11.7160     1.6000 H     1 <1>   0.0800 
 47 H       -6.7810   -12.8670     0.9300 H     1 <1>   0.0800 
 48 H       -8.2590    -9.4930     2.5230 H     1 <1>   0.0800 
 49 H       -6.5250    -9.7180     2.5490 H     1 <1>   0.0800 
@<TRIPOS>BOND
  1   1   2  1   
  2   1   3  1   
  3   2   4  2   
  4   2   5  1   
  5   3   6  2   
  6   3  27  1   
  7   4   6  1   
  8   5   7  1   
  9   5  28  1   
 10   5  29  1   
 11   6   8  1   
 12   7   9  1   
 13   7  30  1   
 14   7  31  1   
 15   8  10  1   
 16   8  32  1   
 17   8  33  1   
 18   9  34  1   
 19   9  35  1   
 20   9  36  1   
 21  10  11  am  
 22  10  37  1   
 23  11  12  2   
 24  11  13  1   
 25  13  14  ar  
 26  13  15  ar  
 27  14  16  ar  
 28  14  38  1   
 29  15  17  ar  
 30  15  39  1   
 31  16  18  ar  
 32  16  40  1   
 33  17  18  ar  
 34  17  41  1   
 35  18  19  1   
 36  19  20  2   
 37  19  21  am  
 38  21  22  1   
 39  21  23  1   
 40  22  24  1   
 41  22  42  1   
 42  22  43  1   
 43  23  25  1   
 44  23  44  1   
 45  23  45  1   
 46  24  26  1   
 47  24  46  1   
 48  24  47  1   
 49  25  26  1   
 50  25  48  1   
 51  25  49  1   
@<TRIPOS>SUBSTRUCTURE
  1 ****  14 GROUP 4 **** **** 0

# MOE 2024.06 (io_trps.svl 2023.06)
