@<TRIPOS>MOLECULE
NONAME
51 53 1 0 0 
SMALL
USER_CHARGES


@<TRIPOS>ATOM
  1 O       -1.1710    -3.9640    -0.5450 O.co2 1 <1>  -0.9000 
  2 C       -0.0880    -4.5250    -0.7670 C.2   1 <1>   1.0330 
  3 O       -0.1390    -5.5850    -1.4240 O.co2 1 <1>  -0.9000 
  4 C        1.1160    -4.1350    -0.1050 C.2   1 <1>  -0.2330 
  5 C        1.9790    -5.0660     0.4630 C.2   1 <1>   0.3720 
  6 C        1.7000    -2.9440     0.1960 C.2   1 <1>   0.0870 
  7 N        2.9560    -4.5060     1.0750 N.2   1 <1>  -0.4100 
  8 N        1.7890    -6.4380     0.3740 N.pl3 1 <1>  -0.8520 
  9 O        2.7770    -3.2220     0.8970 O.3   1 <1>  -0.0190 
 10 C        1.3920    -1.5650    -0.0990 C.ar  1 <1>   0.0530 
 11 C        1.2620    -7.0720     1.5970 C.3   1 <1>   0.2090 
 12 C        2.4190    -0.6630    -0.3800 C.ar  1 <1>  -0.1500 
 13 C        0.0890    -1.0690    -0.1100 C.ar  1 <1>  -0.1500 
 14 C       -0.2710    -7.0560     1.5960 C.3   1 <1>  -0.1600 
 15 C        2.1610     0.6650    -0.6640 C.ar  1 <1>  -0.1500 
 16 C       -0.1780     0.2570    -0.3960 C.ar  1 <1>  -0.1500 
 17 C       -0.8410    -7.8420     0.4100 C.3   1 <1>   0.3430 
 18 C        0.8580     1.1290    -0.6750 C.ar  1 <1>  -0.1500 
 19 N       -2.3350    -7.7430     0.3430 N.4   1 <1>  -0.9590 
 20 C       -2.9330    -8.7730    -0.5760 C.3   1 <1>   0.4230 
 21 C       -2.6890    -6.3620    -0.1300 C.3   1 <1>   0.3430 
 22 C       -4.4670    -8.6080    -0.5920 C.3   1 <1>  -0.1600 
 23 C       -2.5420   -10.2170    -0.1660 C.3   1 <1>   0.1200 
 24 C       -4.2010    -6.1590    -0.1170 C.3   1 <1>  -0.1600 
 25 C       -4.9030    -7.1960    -0.9950 C.3   1 <1>  -0.1600 
 26 O       -3.1300   -11.1680    -0.9950 O.3   1 <1>  -0.6800 
 27 H        1.1540    -6.5610    -0.4390 H     1 <1>   0.4000 
 28 H        1.6330    -6.5430     2.4610 H     1 <1>   0.0800 
 29 H        1.6300    -8.0830     1.6490 H     1 <1>   0.0800 
 30 H        3.4360    -1.0160    -0.3770 H     1 <1>   0.1500 
 31 H       -0.7300    -1.7270     0.1130 H     1 <1>   0.1500 
 32 H       -0.5890    -6.0300     1.5790 H     1 <1>   0.0800 
 33 H       -0.6130    -7.4980     2.5130 H     1 <1>   0.0800 
 34 H        2.9740     1.3370    -0.8790 H     1 <1>   0.1500 
 35 H       -1.1960     0.6060    -0.4010 H     1 <1>   0.1500 
 36 H       -0.5390    -8.8670     0.5250 H     1 <1>   0.0800 
 37 H       -0.4180    -7.4890    -0.5140 H     1 <1>   0.0800 
 38 H        0.6510     2.1610    -0.8980 H     1 <1>   0.1500 
 39 H       -2.7320    -7.8520     1.2780 H     1 <1>   0.4500 
 40 H       -2.5560    -8.5960    -1.5720 H     1 <1>   0.0800 
 41 H       -2.3110    -6.2020    -1.1280 H     1 <1>   0.0800 
 42 H       -2.2390    -5.6190     0.5060 H     1 <1>   0.0800 
 43 H       -4.8660    -8.8480     0.3780 H     1 <1>   0.0800 
 44 H       -4.8940    -9.2980    -1.2990 H     1 <1>   0.0800 
 45 H       -2.8430   -10.4290     0.8450 H     1 <1>   0.0800 
 46 H       -1.4810   -10.3590    -0.2620 H     1 <1>   0.0800 
 47 H       -4.4110    -5.1710    -0.4900 H     1 <1>   0.0800 
 48 H       -4.5630    -6.2080     0.8940 H     1 <1>   0.0800 
 49 H       -5.9710    -7.0950    -0.9030 H     1 <1>   0.0800 
 50 H       -4.6420    -7.0200    -2.0260 H     1 <1>   0.0800 
 51 H       -4.0610   -11.3500    -0.7530 H     1 <1>   0.4000 
@<TRIPOS>BOND
  1   1   2  ar  
  2   2   3  ar  
  3   2   4  1   
  4   4   5  1   
  5   4   6  2   
  6   5   7  2   
  7   5   8  1   
  8   6   9  1   
  9   6  10  1   
 10   7   9  1   
 11   8  11  1   
 12   8  27  1   
 13  10  12  ar  
 14  10  13  ar  
 15  11  14  1   
 16  11  28  1   
 17  11  29  1   
 18  12  15  ar  
 19  12  30  1   
 20  13  16  ar  
 21  13  31  1   
 22  14  17  1   
 23  14  32  1   
 24  14  33  1   
 25  15  18  ar  
 26  15  34  1   
 27  16  18  ar  
 28  16  35  1   
 29  17  19  1   
 30  17  36  1   
 31  17  37  1   
 32  18  38  1   
 33  19  20  1   
 34  19  21  1   
 35  19  39  1   
 36  20  22  1   
 37  20  23  1   
 38  20  40  1   
 39  21  24  1   
 40  21  41  1   
 41  21  42  1   
 42  22  25  1   
 43  22  43  1   
 44  22  44  1   
 45  23  26  1   
 46  23  45  1   
 47  23  46  1   
 48  24  25  1   
 49  24  47  1   
 50  24  48  1   
 51  25  49  1   
 52  25  50  1   
 53  26  51  1   
@<TRIPOS>SUBSTRUCTURE
  1 ****   2 GROUP 4 **** **** 0

# MOE 2024.06 (io_trps.svl 2023.06)
