@<TRIPOS>MOLECULE
NONAME
46 48 1 0 0 
SMALL
USER_CHARGES


@<TRIPOS>ATOM
  1 F       -4.8370    -0.0130    -1.1840 F     1 <1>  -0.1900 
  2 C       -3.7910     0.6120    -0.7080 C.ar  1 <1>   0.1900 
  3 C       -2.7540    -0.1250    -0.1430 C.ar  1 <1>  -0.1440 
  4 C       -3.7710     1.9910    -0.7890 C.ar  1 <1>  -0.1500 
  5 C       -1.6570     0.5610     0.3640 C.ar  1 <1>  -0.1500 
  6 C       -2.8060    -1.6450    -0.0690 C.3   1 <1>  -0.0160 
  7 C       -2.6620     2.6330    -0.2760 C.ar  1 <1>   0.1900 
  8 C       -1.6070     1.9460     0.2990 C.ar  1 <1>  -0.1500 
  9 C       -3.6050    -2.0990     1.1570 C.3   1 <1>  -0.0990 
 10 F       -2.6080     3.9360    -0.3340 F     1 <1>  -0.1900 
 11 C       -3.7810    -3.6050     1.1640 C.2   1 <1>   0.5690 
 12 O       -3.0260    -4.2560     1.8440 O.2   1 <1>  -0.5700 
 13 N       -4.7560    -4.1950     0.4100 N.am  1 <1>  -0.6600 
 14 C       -5.7940    -3.5280    -0.4220 C.3   1 <1>   0.1400 
 15 C       -4.9280    -5.6700     0.3480 C.3   1 <1>   0.1400 
 16 C       -6.8950    -4.5770    -0.5560 C.3   1 <1>   0.2000 
 17 C       -6.1230    -5.8990    -0.5850 C.3   1 <1>  -0.0800 
 18 O       -7.6770    -4.5210     0.5890 O.3   1 <1>  -0.6800 
 19 C       -6.9420    -7.1570    -0.2460 C.3   1 <1>   0.0210 
 20 C       -6.0710    -8.3970    -0.3040 C.2   1 <1>   0.1080 
 21 N       -5.4960    -8.8030    -1.3930 N.2   1 <1>  -0.7070 
 22 C       -5.7830    -9.2180     0.7810 C.2   1 <1>  -0.1500 
 23 N       -4.8190    -9.9080    -1.0280 N.pl3 1 <1>   0.3000 
 24 C       -4.9760   -10.1790     0.2850 C.2   1 <1>  -0.3320 
 25 C       -4.3350   -11.3560     0.9950 C.3   1 <1>  -0.0600 
 26 H       -4.5810     2.5400    -1.2300 H     1 <1>   0.1500 
 27 H       -0.8390     0.0220     0.8110 H     1 <1>   0.1500 
 28 H       -3.2540    -2.0340    -0.9670 H     1 <1>   0.0800 
 29 H       -1.8090    -2.0480    -0.0120 H     1 <1>   0.0800 
 30 H       -0.7630     2.4890     0.6870 H     1 <1>   0.1500 
 31 H       -4.5640    -1.6200     1.1820 H     1 <1>   0.0800 
 32 H       -3.0780    -1.8100     2.0490 H     1 <1>   0.0800 
 33 H       -6.1670    -2.6240     0.0250 H     1 <1>   0.0800 
 34 H       -5.3790    -3.3100    -1.3910 H     1 <1>   0.0800 
 35 H       -4.0380    -6.1430    -0.0330 H     1 <1>   0.0800 
 36 H       -5.1290    -6.0430     1.3380 H     1 <1>   0.0800 
 37 H       -7.5270    -4.4280    -1.4140 H     1 <1>   0.0800 
 38 H       -5.7270    -6.0220    -1.5780 H     1 <1>   0.0800 
 39 H       -7.0830    -4.5270     1.3680 H     1 <1>   0.4000 
 40 H       -7.7430    -7.2660    -0.9550 H     1 <1>   0.0800 
 41 H       -7.3740    -7.0780     0.7340 H     1 <1>   0.0800 
 42 H       -6.1390    -9.0900     1.7870 H     1 <1>   0.1500 
 43 H       -4.2610   -10.4530    -1.6970 H     1 <1>   0.2700 
 44 H       -4.6100   -11.3550     2.0350 H     1 <1>   0.0800 
 45 H       -3.2630   -11.2940     0.9250 H     1 <1>   0.0800 
 46 H       -4.6630   -12.2810     0.5550 H     1 <1>   0.0800 
@<TRIPOS>BOND
  1   1   2  1   
  2   2   3  ar  
  3   2   4  ar  
  4   3   5  ar  
  5   3   6  1   
  6   4   7  ar  
  7   4  26  1   
  8   5   8  ar  
  9   5  27  1   
 10   6   9  1   
 11   6  28  1   
 12   6  29  1   
 13   7   8  ar  
 14   7  10  1   
 15   8  30  1   
 16   9  11  1   
 17   9  31  1   
 18   9  32  1   
 19  11  12  2   
 20  11  13  am  
 21  13  14  1   
 22  13  15  1   
 23  14  16  1   
 24  14  33  1   
 25  14  34  1   
 26  15  17  1   
 27  15  35  1   
 28  15  36  1   
 29  16  17  1   
 30  16  18  1   
 31  16  37  1   
 32  17  19  1   
 33  17  38  1   
 34  18  39  1   
 35  19  20  1   
 36  19  40  1   
 37  19  41  1   
 38  20  21  2   
 39  20  22  1   
 40  21  23  1   
 41  22  24  2   
 42  22  42  1   
 43  23  24  1   
 44  23  43  1   
 45  24  25  1   
 46  25  44  1   
 47  25  45  1   
 48  25  46  1   
@<TRIPOS>SUBSTRUCTURE
  1 ****  13 GROUP 4 **** **** 0

# MOE 2024.06 (io_trps.svl 2023.06)
