@<TRIPOS>MOLECULE
NONAME
58 61 1 0 0 
SMALL
USER_CHARGES


@<TRIPOS>ATOM
  1 O       -1.1980     0.2760    -0.3490 O.2   1 <1>  -0.5700 
  2 C       -0.3460     1.1360    -0.5020 C.2   1 <1>   0.5440 
  3 N       -0.5090     2.4540    -0.1600 N.am  1 <1>  -0.6600 
  4 C        0.9620     0.9210    -1.0490 C.ar  1 <1>   0.0860 
  5 C       -1.7700     3.1150     0.3300 C.3   1 <1>   0.3000 
  6 C        0.7340     3.2120    -0.5120 C.3   1 <1>   0.2840 
  7 C        1.6350     2.1260    -1.0690 C.ar  1 <1>  -0.1440 
  8 C        1.5920    -0.2260    -1.5190 C.ar  1 <1>  -0.1500 
  9 C       -1.6430     4.6610     0.4210 C.3   1 <1>  -0.1600 
 10 C       -2.8820     2.8560    -0.7130 C.3   1 <1>  -0.1600 
 11 C       -2.0510     2.5570     1.7520 C.3   1 <1>  -0.0990 
 12 C        2.9280     2.2210    -1.5470 C.ar  1 <1>  -0.1500 
 13 C        2.8880    -0.1430    -1.9990 C.ar  1 <1>  -0.1500 
 14 C       -1.9420     5.4090    -0.8920 C.3   1 <1>   0.1200 
 15 C       -2.5280     3.4530    -2.0890 C.3   1 <1>   0.1200 
 16 C       -3.5180     2.2790     2.0250 C.2   1 <1>   0.5690 
 17 C        3.5540     1.0750    -2.0140 C.ar  1 <1>  -0.1500 
 18 O       -1.7000     4.5770    -1.9790 O.3   1 <1>  -0.5600 
 19 O       -4.2230     3.2440     2.1980 O.2   1 <1>  -0.5700 
 20 N       -4.0530     1.0100     2.0390 N.am  1 <1>  -0.6600 
 21 C       -5.5340     0.8120     2.0630 C.3   1 <1>   0.1400 
 22 C       -3.3140    -0.2760     1.8360 C.3   1 <1>   0.1400 
 23 C       -5.9950     0.1430     0.7530 C.3   1 <1>   0.3430 
 24 C       -3.7600    -0.9400     0.5190 C.3   1 <1>   0.3430 
 25 N       -5.2580    -1.1440     0.4650 N.4   1 <1>  -0.9590 
 26 C       -5.6970    -1.6980    -0.8580 C.3   1 <1>   0.3430 
 27 C       -5.1630    -3.1140    -1.1260 C.3   1 <1>   0.1200 
 28 O       -5.7720    -3.5810    -2.2760 O.3   1 <1>  -0.6800 
 29 H        1.1690     3.6570     0.3650 H     1 <1>   0.0800 
 30 H        0.5400     3.9580    -1.2620 H     1 <1>   0.0800 
 31 H        1.0670    -1.1640    -1.5040 H     1 <1>   0.1500 
 32 H       -0.6910     4.9570     0.8160 H     1 <1>   0.0800 
 33 H       -2.3700     5.0270     1.1250 H     1 <1>   0.0800 
 34 H       -3.7930     3.3280    -0.3920 H     1 <1>   0.0800 
 35 H       -3.0990     1.8120    -0.8180 H     1 <1>   0.0800 
 36 H       -1.7290     3.2740     2.4850 H     1 <1>   0.0800 
 37 H       -1.4560     1.6920     1.9450 H     1 <1>   0.0800 
 38 H        3.4440     3.1660    -1.5600 H     1 <1>   0.1500 
 39 H        3.3830    -1.0270    -2.3650 H     1 <1>   0.1500 
 40 H       -1.3140     6.2770    -0.9890 H     1 <1>   0.0800 
 41 H       -2.9720     5.7200    -0.9350 H     1 <1>   0.0800 
 42 H       -3.4180     3.7410    -2.6210 H     1 <1>   0.0800 
 43 H       -1.9910     2.7300    -2.6780 H     1 <1>   0.0800 
 44 H        4.5620     1.1300    -2.3900 H     1 <1>   0.1500 
 45 H       -6.0470     1.7520     2.1750 H     1 <1>   0.0800 
 46 H       -5.8010     0.1990     2.9070 H     1 <1>   0.0800 
 47 H       -3.5250    -0.9360     2.6590 H     1 <1>   0.0800 
 48 H       -2.2530    -0.1390     1.8180 H     1 <1>   0.0800 
 49 H       -5.8300     0.8410    -0.0520 H     1 <1>   0.0800 
 50 H       -7.0550    -0.0460     0.8100 H     1 <1>   0.0800 
 51 H       -3.2500    -1.8830     0.4150 H     1 <1>   0.0800 
 52 H       -3.4480    -0.3110    -0.2990 H     1 <1>   0.0800 
 53 H       -5.5140    -1.8140     1.2030 H     1 <1>   0.4500 
 54 H       -5.3670    -1.0480    -1.6510 H     1 <1>   0.0800 
 55 H       -6.7730    -1.7420    -0.8840 H     1 <1>   0.0800 
 56 H       -5.4170    -3.7840    -0.3230 H     1 <1>   0.0800 
 57 H       -4.0990    -3.1070    -1.2920 H     1 <1>   0.0800 
 58 H       -5.4730    -4.4870    -2.5080 H     1 <1>   0.4000 
@<TRIPOS>BOND
  1   1   2  2   
  2   2   3  am  
  3   2   4  1   
  4   3   5  1   
  5   3   6  1   
  6   4   7  ar  
  7   4   8  ar  
  8   5   9  1   
  9   5  10  1   
 10   5  11  1   
 11   6   7  1   
 12   6  29  1   
 13   6  30  1   
 14   7  12  ar  
 15   8  13  ar  
 16   8  31  1   
 17   9  14  1   
 18   9  32  1   
 19   9  33  1   
 20  10  15  1   
 21  10  34  1   
 22  10  35  1   
 23  11  16  1   
 24  11  36  1   
 25  11  37  1   
 26  12  17  ar  
 27  12  38  1   
 28  13  17  ar  
 29  13  39  1   
 30  14  18  1   
 31  14  40  1   
 32  14  41  1   
 33  15  18  1   
 34  15  42  1   
 35  15  43  1   
 36  16  19  2   
 37  16  20  am  
 38  17  44  1   
 39  20  21  1   
 40  20  22  1   
 41  21  23  1   
 42  21  45  1   
 43  21  46  1   
 44  22  24  1   
 45  22  47  1   
 46  22  48  1   
 47  23  25  1   
 48  23  49  1   
 49  23  50  1   
 50  24  25  1   
 51  24  51  1   
 52  24  52  1   
 53  25  26  1   
 54  25  53  1   
 55  26  27  1   
 56  26  54  1   
 57  26  55  1   
 58  27  28  1   
 59  27  56  1   
 60  27  57  1   
 61  28  58  1   
@<TRIPOS>SUBSTRUCTURE
  1 ****   1 GROUP 4 **** **** 0

# MOE 2024.06 (io_trps.svl 2023.06)
