@<TRIPOS>MOLECULE
NONAME
37 38 1 0 0 
SMALL
USER_CHARGES


@<TRIPOS>ATOM
  1 F       -1.1640    -0.4610     0.3870 F     1 <1>  -0.1900 
  2 C       -2.0980     0.4360     0.5630 C.ar  1 <1>   0.1900 
  3 C       -1.7900     1.7800     0.4120 C.ar  1 <1>  -0.1440 
  4 C       -3.3670    -0.0190     0.8870 C.ar  1 <1>  -0.1440 
  5 C       -2.8220     2.6960     0.5980 C.ar  1 <1>  -0.1500 
  6 C       -0.3640     2.2080     0.0520 C.3   1 <1>   1.1640 
  7 C       -4.3740     0.9170     1.0660 C.ar  1 <1>  -0.1500 
  8 C       -3.6500    -1.5020     1.0530 C.3   1 <1>   0.4860 
  9 C       -4.1000     2.2660     0.9210 C.ar  1 <1>  -0.1500 
 10 F       -0.2310     3.5240    -0.0580 F     1 <1>  -0.3400 
 11 F        0.5230     1.8210     0.9590 F     1 <1>  -0.3400 
 12 F        0.0290     1.7000    -1.1080 F     1 <1>  -0.3400 
 13 N       -3.5800    -2.1870    -0.2670 N.4   1 <1>  -0.9590 
 14 C       -3.6410    -3.6720    -0.0850 C.3   1 <1>   0.3430 
 15 C       -4.6380    -1.6750    -1.2100 C.3   1 <1>   0.3430 
 16 C       -4.9930    -4.1130     0.4640 C.3   1 <1>  -0.1860 
 17 C       -5.7810    -2.6670    -1.4500 C.3   1 <1>  -0.1600 
 18 C       -5.0710    -5.5620     0.1150 C.2   1 <1>   0.9060 
 19 C       -6.1850    -3.3890    -0.1680 C.3   1 <1>   0.2000 
 20 O       -4.9480    -5.8690    -1.0710 O.co2 1 <1>  -0.9000 
 21 O       -5.2040    -6.3720     1.0280 O.co2 1 <1>  -0.9000 
 22 O       -6.6400    -2.4320     0.7270 O.3   1 <1>  -0.6800 
 23 H       -2.6450     3.7560     0.4950 H     1 <1>   0.1500 
 24 H       -5.3760     0.6050     1.3210 H     1 <1>   0.1500 
 25 H       -4.6250    -1.6400     1.4890 H     1 <1>   0.0800 
 26 H       -2.9210    -1.9280     1.7220 H     1 <1>   0.0800 
 27 H       -4.8850     2.9920     1.0620 H     1 <1>   0.1500 
 28 H       -2.6610    -1.9570    -0.6630 H     1 <1>   0.4500 
 29 H       -3.4900    -4.1440    -1.0440 H     1 <1>   0.0800 
 30 H       -2.8570    -4.0140     0.5710 H     1 <1>   0.0800 
 31 H       -5.0620    -0.7680    -0.8110 H     1 <1>   0.0800 
 32 H       -4.1890    -1.4330    -2.1590 H     1 <1>   0.0800 
 33 H       -5.0140    -4.0450     1.5350 H     1 <1>   0.0800 
 34 H       -5.4720    -3.3970    -2.1780 H     1 <1>   0.0800 
 35 H       -6.6310    -2.1550    -1.8630 H     1 <1>   0.0800 
 36 H       -6.9970    -4.0740    -0.3610 H     1 <1>   0.0800 
 37 H       -7.1770    -2.8800     1.4150 H     1 <1>   0.4000 
@<TRIPOS>BOND
  1   1   2  1   
  2   2   3  ar  
  3   2   4  ar  
  4   3   5  ar  
  5   3   6  1   
  6   4   7  ar  
  7   4   8  1   
  8   5   9  ar  
  9   5  23  1   
 10   6  10  1   
 11   6  11  1   
 12   6  12  1   
 13   7   9  ar  
 14   7  24  1   
 15   8  13  1   
 16   8  25  1   
 17   8  26  1   
 18   9  27  1   
 19  13  14  1   
 20  13  15  1   
 21  13  28  1   
 22  14  16  1   
 23  14  29  1   
 24  14  30  1   
 25  15  17  1   
 26  15  31  1   
 27  15  32  1   
 28  16  18  1   
 29  16  19  1   
 30  16  33  1   
 31  17  19  1   
 32  17  34  1   
 33  17  35  1   
 34  18  20  ar  
 35  18  21  ar  
 36  19  22  1   
 37  19  36  1   
 38  22  37  1   
@<TRIPOS>SUBSTRUCTURE
  1 ****   8 GROUP 4 **** **** 0

# MOE 2024.06 (io_trps.svl 2023.06)
