@<TRIPOS>MOLECULE
NONAME
47 51 1 0 0 
SMALL
USER_CHARGES


@<TRIPOS>ATOM
  1 S        2.3440    -0.4240    -0.5290 S.3   1 <1>  -0.0800 
  2 C        0.6160    -0.4880    -0.7600 C.2   1 <1>   0.1980 
  3 C        2.2710    -1.9930     0.2030 C.2   1 <1>  -0.1100 
  4 N        0.0710    -1.5560    -0.3430 N.2   1 <1>  -0.5650 
  5 C       -0.0420     0.7040    -1.4150 C.3   1 <1>  -0.0600 
  6 C        1.0000    -2.4550     0.2210 C.2   1 <1>   0.1410 
  7 C        0.6150    -3.7480     0.7920 C.2   1 <1>   0.7160 
  8 O        1.3890    -4.2920     1.5650 O.2   1 <1>  -0.5700 
  9 N       -0.5640    -4.4160     0.5050 N.am  1 <1>  -0.6600 
 10 C       -1.3960    -4.1140    -0.6990 C.3   1 <1>   0.1400 
 11 C       -1.0200    -5.5340     1.3830 C.3   1 <1>   0.1400 
 12 C       -2.0540    -5.3930    -1.2090 C.3   1 <1>  -0.1600 
 13 C       -2.5330    -5.7260     1.2820 C.3   1 <1>  -0.1600 
 14 C       -3.0030    -5.9930    -0.1580 C.3   1 <1>   0.4600 
 15 O       -4.2530    -5.3490    -0.2630 O.3   1 <1>  -0.5600 
 16 C       -3.1830    -7.4920    -0.3870 C.2   1 <1>  -0.3320 
 17 C       -5.1700    -5.8040    -1.2320 C.3   1 <1>   0.1200 
 18 N       -2.2180    -8.4550    -0.2650 N.pl3 1 <1>   0.0330 
 19 C       -4.3460    -8.0730    -0.7400 C.2   1 <1>  -0.1810 
 20 C       -5.5940    -7.2560    -0.9600 C.3   1 <1>   0.0210 
 21 C       -2.7940    -9.6710    -0.5430 C.ar  1 <1>  -0.1520 
 22 C       -4.1380    -9.4640    -0.8440 C.ar  1 <1>   0.0000 
 23 C       -2.2460   -10.9560    -0.5580 C.ar  1 <1>  -0.1500 
 24 C       -4.9520   -10.5560    -1.1620 C.ar  1 <1>  -0.1500 
 25 C       -3.0580   -12.0210    -0.8730 C.ar  1 <1>  -0.1500 
 26 C       -4.4110   -11.8210    -1.1750 C.ar  1 <1>  -0.1500 
 27 H        3.1840    -2.4330     0.5610 H     1 <1>   0.1500 
 28 H        0.1290     1.5840    -0.8230 H     1 <1>   0.0800 
 29 H       -1.1000     0.5360    -1.4950 H     1 <1>   0.0800 
 30 H        0.3660     0.8510    -2.3970 H     1 <1>   0.0800 
 31 H       -0.7780    -3.7030    -1.4790 H     1 <1>   0.0800 
 32 H       -2.1490    -3.3870    -0.4400 H     1 <1>   0.0800 
 33 H       -0.7570    -5.3170     2.4060 H     1 <1>   0.0800 
 34 H       -0.5090    -6.4360     1.0930 H     1 <1>   0.0800 
 35 H       -1.2740    -6.0940    -1.4400 H     1 <1>   0.0800 
 36 H       -2.5800    -5.1960    -2.1230 H     1 <1>   0.0800 
 37 H       -2.9990    -4.8310     1.6540 H     1 <1>   0.0800 
 38 H       -2.8370    -6.5360     1.9180 H     1 <1>   0.0800 
 39 H       -4.7110    -5.7280    -2.2020 H     1 <1>   0.0800 
 40 H       -6.0270    -5.1550    -1.2020 H     1 <1>   0.0800 
 41 H       -1.2360    -8.3130    -0.0150 H     1 <1>   0.2700 
 42 H       -6.1440    -7.6370    -1.8000 H     1 <1>   0.0800 
 43 H       -6.2180    -7.3000    -0.0860 H     1 <1>   0.0800 
 44 H       -1.2070   -11.1020    -0.3240 H     1 <1>   0.1500 
 45 H       -5.9870   -10.3870    -1.3900 H     1 <1>   0.1500 
 46 H       -2.6610   -13.0210    -0.8920 H     1 <1>   0.1500 
 47 H       -5.0240   -12.6710    -1.4180 H     1 <1>   0.1500 
@<TRIPOS>BOND
  1   1   2  1   
  2   1   3  1   
  3   2   4  2   
  4   2   5  1   
  5   3   6  2   
  6   3  27  1   
  7   4   6  1   
  8   5  28  1   
  9   5  29  1   
 10   5  30  1   
 11   6   7  1   
 12   7   8  2   
 13   7   9  am  
 14   9  10  1   
 15   9  11  1   
 16  10  12  1   
 17  10  31  1   
 18  10  32  1   
 19  11  13  1   
 20  11  33  1   
 21  11  34  1   
 22  12  14  1   
 23  12  35  1   
 24  12  36  1   
 25  13  14  1   
 26  13  37  1   
 27  13  38  1   
 28  14  15  1   
 29  14  16  1   
 30  15  17  1   
 31  16  18  1   
 32  16  19  2   
 33  17  20  1   
 34  17  39  1   
 35  17  40  1   
 36  18  21  1   
 37  18  41  1   
 38  19  20  1   
 39  19  22  1   
 40  20  42  1   
 41  20  43  1   
 42  21  22  ar  
 43  21  23  ar  
 44  22  24  ar  
 45  23  25  ar  
 46  23  44  1   
 47  24  26  ar  
 48  24  45  1   
 49  25  26  ar  
 50  25  46  1   
 51  26  47  1   
@<TRIPOS>SUBSTRUCTURE
  1 ****  12 GROUP 4 **** **** 0

# MOE 2024.06 (io_trps.svl 2023.06)
