@<TRIPOS>MOLECULE
NONAME
48 50 1 0 0 
SMALL
USER_CHARGES


@<TRIPOS>ATOM
  1 O       -0.9630     0.2560    -0.9790 O.2   1 <1>  -0.5700 
  2 C       -1.7160     0.8340    -0.2190 C.2   1 <1>   0.5440 
  3 N       -2.7610     0.1310     0.3380 N.am  1 <1>  -0.6600 
  4 C       -1.5090     2.2430     0.0580 C.ar  1 <1>   0.0860 
  5 C       -2.8100    -1.3660     0.2950 C.3   1 <1>   0.1400 
  6 C       -4.1000     0.7380     0.6020 C.3   1 <1>   0.1400 
  7 C       -1.1230     3.1390    -0.9280 C.ar  1 <1>  -0.1500 
  8 C       -1.6720     2.7980     1.3200 C.ar  1 <1>  -0.1500 
  9 C       -3.9340    -1.8530    -0.6350 C.3   1 <1>   0.3440 
 10 C       -5.1670     0.1480    -0.3530 C.3   1 <1>   0.2000 
 11 C       -0.9510     4.4760    -0.6280 C.ar  1 <1>   0.1600 
 12 C       -1.4750     4.1510     1.5190 C.ar  1 <1>   0.1600 
 13 O       -5.1500    -1.2540    -0.2660 O.3   1 <1>  -0.5600 
 14 C       -4.0680    -3.3710    -0.5670 C.ar  1 <1>  -0.1440 
 15 C       -6.6180     0.6600    -0.1030 C.3   1 <1>   0.0000 
 16 N       -1.1260     5.0050     0.5720 N.ar  1 <1>  -0.6200 
 17 C       -4.9030    -3.9870     0.3560 C.ar  1 <1>  -0.1500 
 18 C       -3.3300    -4.1610    -1.4370 C.ar  1 <1>  -0.1500 
 19 C       -7.1420     0.2660     1.2910 C.3   1 <1>  -0.2400 
 20 C       -7.5630     0.0570    -1.1600 C.3   1 <1>  -0.2400 
 21 C       -6.6910     2.1930    -0.2350 C.3   1 <1>  -0.2400 
 22 C       -4.9980    -5.3670     0.4090 C.ar  1 <1>  -0.1500 
 23 C       -3.4230    -5.5420    -1.3860 C.ar  1 <1>  -0.1500 
 24 C       -4.2570    -6.1460    -0.4620 C.ar  1 <1>  -0.1500 
 25 H       -1.8710    -1.7680    -0.0430 H     1 <1>   0.0800 
 26 H       -2.9880    -1.7440     1.2860 H     1 <1>   0.0800 
 27 H       -4.3760     0.5420     1.6230 H     1 <1>   0.0800 
 28 H       -4.0570     1.8020     0.4650 H     1 <1>   0.0800 
 29 H       -0.9560     2.7840    -1.9290 H     1 <1>   0.1500 
 30 H       -1.9490     2.1690     2.1470 H     1 <1>   0.1500 
 31 H       -3.7150    -1.5610    -1.6470 H     1 <1>   0.0800 
 32 H       -4.8950     0.4100    -1.3610 H     1 <1>   0.0800 
 33 H       -0.6530     5.1490    -1.4150 H     1 <1>   0.1500 
 34 H       -1.6090     4.5560     2.5080 H     1 <1>   0.1500 
 35 H       -5.4870    -3.3900     1.0360 H     1 <1>   0.1500 
 36 H       -2.6750    -3.7060    -2.1600 H     1 <1>   0.1500 
 37 H       -8.1660     0.5740     1.4090 H     1 <1>   0.0800 
 38 H       -6.5660     0.7270     2.0720 H     1 <1>   0.0800 
 39 H       -7.0970    -0.8010     1.4200 H     1 <1>   0.0800 
 40 H       -8.5670     0.4200    -1.0290 H     1 <1>   0.0800 
 41 H       -7.5840    -1.0160    -1.0800 H     1 <1>   0.0800 
 42 H       -7.2350     0.3130    -2.1510 H     1 <1>   0.0800 
 43 H       -7.7120     2.5270    -0.1640 H     1 <1>   0.0800 
 44 H       -6.3030     2.5090    -1.1880 H     1 <1>   0.0800 
 45 H       -6.1350     2.6810     0.5430 H     1 <1>   0.0800 
 46 H       -5.6500    -5.8330     1.1270 H     1 <1>   0.1500 
 47 H       -2.8470    -6.1450    -2.0640 H     1 <1>   0.1500 
 48 H       -4.3310    -7.2180    -0.4220 H     1 <1>   0.1500 
@<TRIPOS>BOND
  1   1   2  2   
  2   2   3  am  
  3   2   4  1   
  4   3   5  1   
  5   3   6  1   
  6   4   7  ar  
  7   4   8  ar  
  8   5   9  1   
  9   5  25  1   
 10   5  26  1   
 11   6  10  1   
 12   6  27  1   
 13   6  28  1   
 14   7  11  ar  
 15   7  29  1   
 16   8  12  ar  
 17   8  30  1   
 18   9  13  1   
 19   9  14  1   
 20   9  31  1   
 21  10  13  1   
 22  10  15  1   
 23  10  32  1   
 24  11  16  ar  
 25  11  33  1   
 26  12  16  ar  
 27  12  34  1   
 28  14  17  ar  
 29  14  18  ar  
 30  15  19  1   
 31  15  20  1   
 32  15  21  1   
 33  17  22  ar  
 34  17  35  1   
 35  18  23  ar  
 36  18  36  1   
 37  19  37  1   
 38  19  38  1   
 39  19  39  1   
 40  20  40  1   
 41  20  41  1   
 42  20  42  1   
 43  21  43  1   
 44  21  44  1   
 45  21  45  1   
 46  22  24  ar  
 47  22  46  1   
 48  23  24  ar  
 49  23  47  1   
 50  24  48  1   
@<TRIPOS>SUBSTRUCTURE
  1 ****   3 GROUP 4 **** **** 0

# MOE 2024.06 (io_trps.svl 2023.06)
