@<TRIPOS>MOLECULE
NONAME
54 57 1 0 0 
SMALL
USER_CHARGES


@<TRIPOS>ATOM
  1 O       -2.9880     0.0930    -0.8660 O.2   1 <1>  -0.5700 
  2 C       -2.8770     1.2820    -0.6290 C.2   1 <1>   0.7670 
  3 N       -3.6070     1.8360     0.3840 N.2   1 <1>  -0.6610 
  4 C       -1.9860     2.0830    -1.3880 C.2   1 <1>  -0.1360 
  5 C       -3.4710     3.0860     0.6140 C.2   1 <1>   0.4390 
  6 C       -1.8480     3.4010    -1.1120 C.2   1 <1>  -0.0380 
  7 N       -2.6230     3.8990    -0.0860 N.pl3 1 <1>  -0.5500 
  8 C       -4.2770     3.7350     1.7120 C.3   1 <1>  -0.1790 
  9 C       -0.8880     4.3150    -1.8640 C.3   1 <1>   0.4810 
 10 N        0.2540     4.6430    -0.9620 N.4   1 <1>  -0.9590 
 11 C        0.9620     5.8890    -1.3950 C.3   1 <1>   0.3430 
 12 C        1.1850     3.4690    -0.8490 C.3   1 <1>   0.3430 
 13 C        0.5210     7.1280    -0.5860 C.3   1 <1>   0.0000 
 14 C        2.1710     3.5980     0.3210 C.3   1 <1>   0.1200 
 15 C       -0.9810     7.4550    -0.7820 C.3   1 <1>  -0.1600 
 16 C        1.3470     8.3390    -1.0820 C.3   1 <1>  -0.1600 
 17 C        0.7990     6.9410     0.9290 C.3   1 <1>  -0.1600 
 18 O        3.0090     2.5010     0.2770 O.3   1 <1>  -0.6800 
 19 C       -1.3670     8.7250    -0.0020 C.3   1 <1>  -0.0800 
 20 C        0.9720     9.6150    -0.3080 C.3   1 <1>  -0.0800 
 21 C        0.4150     8.2100     1.7110 C.3   1 <1>  -0.0800 
 22 C       -0.5250     9.9080    -0.5120 C.3   1 <1>  -0.1600 
 23 C       -1.0810     8.5090     1.4960 C.3   1 <1>  -0.1600 
 24 C        1.2460     9.3960     1.1910 C.3   1 <1>  -0.1600 
 25 H       -1.4510     1.5710    -2.1650 H     1 <1>   0.1500 
 26 H       -2.6690     4.8940     0.1540 H     1 <1>   0.4000 
 27 H       -3.6240     4.1620     2.4510 H     1 <1>   0.0800 
 28 H       -4.9000     3.0010     2.1920 H     1 <1>   0.0800 
 29 H       -4.9100     4.5010     1.3040 H     1 <1>   0.0800 
 30 H       -1.4100     5.2110    -2.1560 H     1 <1>   0.0800 
 31 H       -0.5280     3.8260    -2.7550 H     1 <1>   0.0800 
 32 H       -0.1450     4.8120    -0.0310 H     1 <1>   0.4500 
 33 H        0.7920     6.0670    -2.4450 H     1 <1>   0.0800 
 34 H        2.0250     5.7670    -1.2600 H     1 <1>   0.0800 
 35 H        1.7450     3.3610    -1.7640 H     1 <1>   0.0800 
 36 H        0.6140     2.5680    -0.6950 H     1 <1>   0.0800 
 37 H        1.6550     3.5870     1.2660 H     1 <1>   0.0800 
 38 H        2.7820     4.4800     0.2350 H     1 <1>   0.0800 
 39 H       -1.5980     6.6510    -0.4310 H     1 <1>   0.0800 
 40 H       -1.1940     7.6100    -1.8260 H     1 <1>   0.0800 
 41 H        1.1740     8.5050    -2.1320 H     1 <1>   0.0800 
 42 H        2.4000     8.1520    -0.9530 H     1 <1>   0.0800 
 43 H        1.8430     6.7380     1.0910 H     1 <1>   0.0800 
 44 H        0.2370     6.1170     1.3290 H     1 <1>   0.0800 
 45 H        3.6460     2.4940     1.0230 H     1 <1>   0.4000 
 46 H       -2.4130     8.9430    -0.1430 H     1 <1>   0.0800 
 47 H        1.5560    10.4470    -0.6650 H     1 <1>   0.0800 
 48 H        0.6090     8.0700     2.7610 H     1 <1>   0.0800 
 49 H       -0.7940    10.8040     0.0220 H     1 <1>   0.0800 
 50 H       -0.7260    10.0830    -1.5550 H     1 <1>   0.0800 
 51 H       -1.6780     7.7000     1.8760 H     1 <1>   0.0800 
 52 H       -1.3530     9.3950     2.0460 H     1 <1>   0.0800 
 53 H        0.9920    10.2870     1.7390 H     1 <1>   0.0800 
 54 H        2.2940     9.2100     1.3490 H     1 <1>   0.0800 
@<TRIPOS>BOND
  1   1   2  2   
  2   2   3  1   
  3   2   4  1   
  4   3   5  2   
  5   4   6  2   
  6   4  25  1   
  7   5   7  1   
  8   5   8  1   
  9   6   7  1   
 10   6   9  1   
 11   7  26  1   
 12   8  27  1   
 13   8  28  1   
 14   8  29  1   
 15   9  10  1   
 16   9  30  1   
 17   9  31  1   
 18  10  11  1   
 19  10  12  1   
 20  10  32  1   
 21  11  13  1   
 22  11  33  1   
 23  11  34  1   
 24  12  14  1   
 25  12  35  1   
 26  12  36  1   
 27  13  15  1   
 28  13  16  1   
 29  13  17  1   
 30  14  18  1   
 31  14  37  1   
 32  14  38  1   
 33  15  19  1   
 34  15  39  1   
 35  15  40  1   
 36  16  20  1   
 37  16  41  1   
 38  16  42  1   
 39  17  21  1   
 40  17  43  1   
 41  17  44  1   
 42  18  45  1   
 43  19  22  1   
 44  19  23  1   
 45  19  46  1   
 46  20  22  1   
 47  20  24  1   
 48  20  47  1   
 49  21  23  1   
 50  21  24  1   
 51  21  48  1   
 52  22  49  1   
 53  22  50  1   
 54  23  51  1   
 55  23  52  1   
 56  24  53  1   
 57  24  54  1   
@<TRIPOS>SUBSTRUCTURE
  1 ****  10 GROUP 4 **** **** 0

# MOE 2024.06 (io_trps.svl 2023.06)
