@<TRIPOS>MOLECULE
NONAME
55 57 1 0 0 
SMALL
USER_CHARGES


@<TRIPOS>ATOM
  1 S       -0.2410    -2.2610    -0.2810 S.3   1 <1>  -0.0800 
  2 C       -1.0520    -1.9690     1.2510 C.2   1 <1>  -0.1400 
  3 C        0.8150    -0.8810    -0.0380 C.2   1 <1>  -0.1100 
  4 C       -0.5230    -0.8940     1.8630 C.2   1 <1>  -0.1500 
  5 C       -2.1740    -2.9070     1.6590 C.3   1 <1>   0.0200 
  6 C        0.5400    -0.2740     1.1300 C.2   1 <1>  -0.1500 
  7 C       -3.3250    -2.8750     0.6450 C.3   1 <1>  -0.1600 
  8 C       -4.5980    -3.5340     1.2010 C.3   1 <1>  -0.0990 
  9 C       -5.6890    -3.6270     0.1400 C.2   1 <1>   0.5690 
 10 O       -6.2500    -2.5940    -0.1400 O.2   1 <1>  -0.5700 
 11 N       -6.0340    -4.8030    -0.4790 N.am  1 <1>  -0.6600 
 12 C       -5.4880    -6.1500    -0.0800 C.3   1 <1>   0.3640 
 13 C       -7.1220    -4.7600    -1.5040 C.3   1 <1>   0.1400 
 14 C       -4.0110    -6.2470    -0.4750 C.ar  1 <1>  -0.1430 
 15 C       -6.2400    -7.4010    -0.6390 C.3   1 <1>   0.2000 
 16 C       -7.3120    -6.0820    -2.2470 C.3   1 <1>   0.1200 
 17 C       -3.0880    -6.7340     0.4400 C.ar  1 <1>  -0.1500 
 18 C       -3.5720    -5.8760    -1.7390 C.ar  1 <1>  -0.1500 
 19 O       -7.4300    -7.1070    -1.3180 O.3   1 <1>  -0.5600 
 20 C       -6.6100    -8.3970     0.4700 C.3   1 <1>   0.1200 
 21 C       -1.7500    -6.8650     0.1110 C.ar  1 <1>   0.0830 
 22 C       -2.2360    -5.9990    -2.0830 C.ar  1 <1>  -0.1500 
 23 O       -5.4810    -8.7990     1.1790 O.3   1 <1>  -0.6800 
 24 O       -0.9390    -7.3650     1.0810 O.3   1 <1>  -0.3630 
 25 C       -1.3200    -6.4870    -1.1670 C.ar  1 <1>   0.0830 
 26 C        0.0170    -8.3460     0.7410 C.3   1 <1>   0.0400 
 27 O       -0.0280    -6.5780    -1.5580 O.3   1 <1>  -0.3630 
 28 C        0.7760    -5.4660    -1.2430 C.3   1 <1>   0.0400 
 29 H        1.5370    -0.6690    -0.8060 H     1 <1>   0.1500 
 30 H       -0.8370    -0.4990     2.8130 H     1 <1>   0.1500 
 31 H       -1.7910    -3.9090     1.7440 H     1 <1>   0.0800 
 32 H       -2.5350    -2.6030     2.6250 H     1 <1>   0.0800 
 33 H        1.0420     0.5950     1.5170 H     1 <1>   0.1500 
 34 H       -3.5480    -1.8540     0.3870 H     1 <1>   0.0800 
 35 H       -3.0170    -3.3820    -0.2530 H     1 <1>   0.0800 
 36 H       -4.9790    -2.9310     2.0050 H     1 <1>   0.0800 
 37 H       -4.3620    -4.4920     1.6150 H     1 <1>   0.0800 
 38 H       -5.5480    -6.2060     0.9930 H     1 <1>   0.0800 
 39 H       -8.0450    -4.5020    -1.0140 H     1 <1>   0.0800 
 40 H       -6.9060    -3.9820    -2.2160 H     1 <1>   0.0800 
 41 H       -5.6060    -7.9080    -1.3450 H     1 <1>   0.0800 
 42 H       -6.4860    -6.2880    -2.9060 H     1 <1>   0.0800 
 43 H       -8.2190    -6.0530    -2.8250 H     1 <1>   0.0800 
 44 H       -3.3980    -7.0290     1.4270 H     1 <1>   0.1500 
 45 H       -4.2650    -5.4850    -2.4620 H     1 <1>   0.1500 
 46 H       -7.0740    -9.2730     0.0510 H     1 <1>   0.0800 
 47 H       -7.2860    -7.9350     1.1680 H     1 <1>   0.0800 
 48 H       -1.8990    -5.7130    -3.0620 H     1 <1>   0.1500 
 49 H       -4.9060    -9.3720     0.6300 H     1 <1>   0.4000 
 50 H        0.2560    -8.9020     1.6290 H     1 <1>   0.0800 
 51 H        0.9010    -7.8600     0.3700 H     1 <1>   0.0800 
 52 H       -0.3970    -9.0000    -0.0050 H     1 <1>   0.0800 
 53 H        1.7930    -5.6990    -1.5020 H     1 <1>   0.0800 
 54 H        0.6990    -5.2650    -0.1880 H     1 <1>   0.0800 
 55 H        0.4340    -4.6220    -1.8130 H     1 <1>   0.0800 
@<TRIPOS>BOND
  1   1   2  1   
  2   1   3  1   
  3   2   4  2   
  4   2   5  1   
  5   3   6  2   
  6   3  29  1   
  7   4   6  1   
  8   4  30  1   
  9   5   7  1   
 10   5  31  1   
 11   5  32  1   
 12   6  33  1   
 13   7   8  1   
 14   7  34  1   
 15   7  35  1   
 16   8   9  1   
 17   8  36  1   
 18   8  37  1   
 19   9  10  2   
 20   9  11  am  
 21  11  12  1   
 22  11  13  1   
 23  12  14  1   
 24  12  15  1   
 25  12  38  1   
 26  13  16  1   
 27  13  39  1   
 28  13  40  1   
 29  14  17  ar  
 30  14  18  ar  
 31  15  19  1   
 32  15  20  1   
 33  15  41  1   
 34  16  19  1   
 35  16  42  1   
 36  16  43  1   
 37  17  21  ar  
 38  17  44  1   
 39  18  22  ar  
 40  18  45  1   
 41  20  23  1   
 42  20  46  1   
 43  20  47  1   
 44  21  24  1   
 45  21  25  ar  
 46  22  25  ar  
 47  22  48  1   
 48  23  49  1   
 49  24  26  1   
 50  25  27  1   
 51  26  50  1   
 52  26  51  1   
 53  26  52  1   
 54  27  28  1   
 55  28  53  1   
 56  28  54  1   
 57  28  55  1   
@<TRIPOS>SUBSTRUCTURE
  1 ****  14 GROUP 4 **** **** 0

# MOE 2024.06 (io_trps.svl 2023.06)
