@<TRIPOS>MOLECULE
NONAME
37 38 1 0 0 
SMALL
USER_CHARGES


@<TRIPOS>ATOM
  1 O       -0.3390     0.0670     0.5740 O.2   1 <1>  -0.5700 
  2 C       -1.3410    -0.6210     0.5370 C.2   1 <1>   0.7800 
  3 O       -1.2710    -1.9170     0.2220 O.3   1 <1>  -0.4300 
  4 N       -2.5770    -0.1150     0.8230 N.am  1 <1>  -0.6600 
  5 C       -0.1190    -2.6590    -0.1160 C.3   1 <1>   0.2800 
  6 C       -3.8230    -0.9420     0.6790 C.3   1 <1>   0.3210 
  7 C       -2.7690     1.3110     1.2450 C.3   1 <1>   0.1400 
  8 C       -0.6250    -4.0760    -0.3890 C.3   1 <1>  -0.2400 
  9 C        0.8580    -2.6900     1.0650 C.3   1 <1>  -0.2400 
 10 C        0.5190    -2.0960    -1.3920 C.3   1 <1>  -0.2400 
 11 C       -4.9700    -0.0930     0.1450 C.2   1 <1>   0.0460 
 12 C       -3.6750     2.0770     0.2630 C.3   1 <1>   0.0200 
 13 N       -6.1810    -0.5690    -0.2040 N.2   1 <1>  -0.5650 
 14 C       -4.8990     1.2380    -0.0450 C.2   1 <1>  -0.3320 
 15 C       -6.8160     0.4860    -0.6130 C.2   1 <1>   0.0070 
 16 N       -6.0860     1.6220    -0.5420 N.pl3 1 <1>   0.0330 
 17 C       -8.2440     0.4870    -1.1230 C.3   1 <1>   0.3000 
 18 O       -8.9810     1.3830    -0.3660 O.3   1 <1>  -0.6800 
 19 H       -4.0970    -1.3460     1.6360 H     1 <1>   0.0800 
 20 H       -3.6610    -1.7570    -0.0040 H     1 <1>   0.0800 
 21 H       -1.8210     1.8160     1.3270 H     1 <1>   0.0800 
 22 H       -3.2270     1.3140     2.2190 H     1 <1>   0.0800 
 23 H       -1.0990    -4.4780     0.4880 H     1 <1>   0.0800 
 24 H        0.1930    -4.7200    -0.6580 H     1 <1>   0.0800 
 25 H       -1.3320    -4.0700    -1.1990 H     1 <1>   0.0800 
 26 H        0.3570    -3.0200     1.9560 H     1 <1>   0.0800 
 27 H        1.2870    -1.7200     1.2390 H     1 <1>   0.0800 
 28 H        1.6650    -3.3680     0.8550 H     1 <1>   0.0800 
 29 H       -0.2140    -2.0220    -2.1750 H     1 <1>   0.0800 
 30 H        1.3090    -2.7440    -1.7230 H     1 <1>   0.0800 
 31 H        0.9470    -1.1270    -1.2160 H     1 <1>   0.0800 
 32 H       -3.1330     2.2770    -0.6450 H     1 <1>   0.0800 
 33 H       -3.9620     3.0150     0.7040 H     1 <1>   0.0800 
 34 H       -6.4020     2.5620    -0.7990 H     1 <1>   0.2700 
 35 H       -8.6820    -0.4910    -1.0220 H     1 <1>   0.0800 
 36 H       -8.2840     0.7950    -2.1530 H     1 <1>   0.0800 
 37 H       -8.9050     1.1230     0.5740 H     1 <1>   0.4000 
@<TRIPOS>BOND
  1   1   2  2   
  2   2   3  1   
  3   2   4  am  
  4   3   5  1   
  5   4   6  1   
  6   4   7  1   
  7   5   8  1   
  8   5   9  1   
  9   5  10  1   
 10   6  11  1   
 11   6  19  1   
 12   6  20  1   
 13   7  12  1   
 14   7  21  1   
 15   7  22  1   
 16   8  23  1   
 17   8  24  1   
 18   8  25  1   
 19   9  26  1   
 20   9  27  1   
 21   9  28  1   
 22  10  29  1   
 23  10  30  1   
 24  10  31  1   
 25  11  13  1   
 26  11  14  2   
 27  12  14  1   
 28  12  32  1   
 29  12  33  1   
 30  13  15  2   
 31  14  16  1   
 32  15  16  1   
 33  15  17  1   
 34  16  34  1   
 35  17  18  1   
 36  17  35  1   
 37  17  36  1   
 38  18  37  1   
@<TRIPOS>SUBSTRUCTURE
  1 ****   6 GROUP 4 **** **** 0

# MOE 2024.06 (io_trps.svl 2023.06)
