@<TRIPOS>MOLECULE
NONAME
48 50 1 0 0 
SMALL
USER_CHARGES


@<TRIPOS>ATOM
  1 O       -0.3290     0.2190    -0.0100 O.2   1 <1>  -0.5700 
  2 C       -1.4000     0.7730    -0.0950 C.2   1 <1>   0.5690 
  3 N       -2.5570     0.0660    -0.2680 N.am  1 <1>  -0.6600 
  4 C       -1.4640     2.2880    -0.0070 C.3   1 <1>  -0.0990 
  5 C       -3.9290     0.6270    -0.3420 C.3   1 <1>   0.1400 
  6 C       -2.5900    -1.4140    -0.3490 C.3   1 <1>   0.1400 
  7 C       -0.0830     2.9270     0.1200 C.3   1 <1>   0.1200 
  8 C       -4.8500    -0.5870    -0.4830 C.3   1 <1>   0.2000 
  9 C       -4.0330    -1.7910    -0.0140 C.3   1 <1>  -0.0800 
 10 O       -0.2570     4.3050     0.1870 O.3   1 <1>  -0.5600 
 11 O       -5.9880    -0.4550     0.2970 O.3   1 <1>  -0.6800 
 12 C       -4.4980    -3.1090    -0.6550 C.3   1 <1>  -0.0170 
 13 C        0.9300     5.0130     0.3040 C.3   1 <1>   0.1200 
 14 C       -3.6570    -4.2810    -0.1820 C.ar  1 <1>   0.1670 
 15 C        0.5780     6.4940     0.3630 C.3   1 <1>  -0.2400 
 16 N       -2.5930    -4.5690    -0.8670 N.ar  1 <1>  -0.6200 
 17 C       -4.0590    -4.9860     0.9640 C.ar  1 <1>  -0.1500 
 18 C       -1.8290    -5.6080    -0.4430 C.ar  1 <1>   0.3100 
 19 C       -3.3120    -6.0330     1.4120 C.ar  1 <1>  -0.1500 
 20 C       -2.1510    -6.3740     0.7000 C.ar  1 <1>   0.0000 
 21 C       -0.6700    -5.9370    -1.1630 C.ar  1 <1>  -0.1500 
 22 C       -1.3020    -7.4350     1.0740 C.ar  1 <1>  -0.1500 
 23 C        0.1420    -6.9730    -0.7830 C.ar  1 <1>  -0.1500 
 24 C       -0.1790    -7.7290     0.3490 C.ar  1 <1>  -0.1500 
 25 H       -1.9360     2.6640    -0.8940 H     1 <1>   0.0800 
 26 H       -2.0500     2.5570     0.8510 H     1 <1>   0.0800 
 27 H       -4.1430     1.1710     0.5620 H     1 <1>   0.0800 
 28 H       -4.0220     1.2720    -1.1970 H     1 <1>   0.0800 
 29 H       -2.3340    -1.7160    -1.3500 H     1 <1>   0.0800 
 30 H       -1.8920    -1.8580     0.3420 H     1 <1>   0.0800 
 31 H        0.5240     2.6900    -0.7380 H     1 <1>   0.0800 
 32 H        0.4080     2.5910     1.0190 H     1 <1>   0.0800 
 33 H       -5.1530    -0.6950    -1.5110 H     1 <1>   0.0800 
 34 H       -4.0960    -1.8740     1.0570 H     1 <1>   0.0800 
 35 H       -5.7460    -0.3850     1.2410 H     1 <1>   0.4000 
 36 H       -4.4280    -3.0390    -1.7270 H     1 <1>   0.0800 
 37 H       -5.5300    -3.2840    -0.4100 H     1 <1>   0.0800 
 38 H        1.4330     4.7050     1.2050 H     1 <1>   0.0800 
 39 H        1.5480     4.8030    -0.5540 H     1 <1>   0.0800 
 40 H       -0.0490     6.6880     1.2150 H     1 <1>   0.0800 
 41 H        0.0640     6.7860    -0.5350 H     1 <1>   0.0800 
 42 H        1.4740     7.0790     0.4540 H     1 <1>   0.0800 
 43 H       -4.9540    -4.6880     1.4780 H     1 <1>   0.1500 
 44 H       -3.5870    -6.5960     2.2850 H     1 <1>   0.1500 
 45 H       -0.4400    -5.3430    -2.0280 H     1 <1>   0.1500 
 46 H       -1.5540    -8.0120     1.9450 H     1 <1>   0.1500 
 47 H        1.0290    -7.2130    -1.3440 H     1 <1>   0.1500 
 48 H        0.4690    -8.5400     0.6370 H     1 <1>   0.1500 
@<TRIPOS>BOND
  1   1   2  2   
  2   2   3  am  
  3   2   4  1   
  4   3   5  1   
  5   3   6  1   
  6   4   7  1   
  7   4  25  1   
  8   4  26  1   
  9   5   8  1   
 10   5  27  1   
 11   5  28  1   
 12   6   9  1   
 13   6  29  1   
 14   6  30  1   
 15   7  10  1   
 16   7  31  1   
 17   7  32  1   
 18   8   9  1   
 19   8  11  1   
 20   8  33  1   
 21   9  12  1   
 22   9  34  1   
 23  10  13  1   
 24  11  35  1   
 25  12  14  1   
 26  12  36  1   
 27  12  37  1   
 28  13  15  1   
 29  13  38  1   
 30  13  39  1   
 31  14  16  ar  
 32  14  17  ar  
 33  15  40  1   
 34  15  41  1   
 35  15  42  1   
 36  16  18  ar  
 37  17  19  ar  
 38  17  43  1   
 39  18  20  ar  
 40  18  21  ar  
 41  19  20  ar  
 42  19  44  1   
 43  20  22  ar  
 44  21  23  ar  
 45  21  45  1   
 46  22  24  ar  
 47  22  46  1   
 48  23  24  ar  
 49  23  47  1   
 50  24  48  1   
@<TRIPOS>SUBSTRUCTURE
  1 ****   6 GROUP 4 **** **** 0

# MOE 2024.06 (io_trps.svl 2023.06)
