@<TRIPOS>MOLECULE
NONAME
15 16 1 0 0 
SMALL
USER_CHARGES


@<TRIPOS>ATOM
  1 N        3.7270     0.0110     0.6890 N.2   1 <1>  -0.2110 
  2 N        3.5220     0.1900    -0.5230 N.2   1 <1>  -0.2110 
  3 C        4.8660     0.1480    -0.1230 C.3   1 <1>   0.2700 
  4 C        5.9560    -0.9320    -0.2310 C.3   1 <1>   0.0760 
  5 C        5.9270     1.2390     0.0960 C.3   1 <1>   0.0760 
  6 C        6.8410     0.0690     0.5750 C.3   1 <1>   0.4720 
  7 N        8.2450     0.1580     0.1010 N.4   1 <1>  -0.8220 
  8 H        6.2820    -1.0800    -1.2450 H     1 <1>   0.0000 
  9 H        5.7230    -1.8370     0.3020 H     1 <1>   0.0000 
 10 H        5.6730     1.9410     0.8700 H     1 <1>   0.0000 
 11 H        6.2460     1.6870    -0.8300 H     1 <1>   0.0000 
 12 H        6.7770    -0.0920     1.6360 H     1 <1>   0.0000 
 13 H        8.2930     0.3110    -0.9130 H     1 <1>   0.4500 
 14 H        8.7530    -0.7070     0.3210 H     1 <1>   0.4500 
 15 H        8.7310     0.9330     0.5670 H     1 <1>   0.4500 
@<TRIPOS>BOND
  1   1   2  2   
  2   1   3  1   
  3   2   3  1   
  4   3   4  1   
  5   3   5  1   
  6   4   6  1   
  7   4   8  1   
  8   4   9  1   
  9   5   6  1   
 10   5  10  1   
 11   5  11  1   
 12   6   7  1   
 13   6  12  1   
 14   7  13  1   
 15   7  14  1   
 16   7  15  1   
@<TRIPOS>SUBSTRUCTURE
  1 ****   3 GROUP 4 **** **** 0

# MOE 2024.06 (io_trps.svl 2023.06)
