@<TRIPOS>MOLECULE
NONAME
51 52 1 0 0 
SMALL
USER_CHARGES


@<TRIPOS>ATOM
  1 O       -3.4440     0.6710    -1.7460 O.2   1 <1>  -0.5700 
  2 C       -2.9280     1.2000    -0.7810 C.2   1 <1>   0.5440 
  3 N       -2.9470     0.4800     0.3830 N.am  1 <1>  -0.6600 
  4 C       -2.4410     2.5690    -0.8360 C.ar  1 <1>   0.0860 
  5 C       -2.3920    -0.9100     0.4020 C.3   1 <1>   0.3210 
  6 C       -3.7310     0.9430     1.5730 C.3   1 <1>   0.1400 
  7 C       -1.5530     3.0740     0.1130 C.ar  1 <1>  -0.1500 
  8 C       -2.8630     3.4360    -1.8450 C.ar  1 <1>  -0.1500 
  9 C       -3.4640    -2.0000     0.3610 C.2   1 <1>   0.0460 
 10 C       -5.2140     0.5150     1.5070 C.3   1 <1>   0.3430 
 11 C       -1.1260     4.3970     0.0810 C.ar  1 <1>   0.0820 
 12 C       -2.4440     4.7520    -1.8870 C.ar  1 <1>  -0.1500 
 13 N       -4.1160    -2.3820     1.4810 N.2   1 <1>  -0.5650 
 14 C       -3.8600    -2.7440    -0.6990 C.2   1 <1>  -0.3320 
 15 N       -5.7380     0.5250     0.1030 N.4   1 <1>  -0.9590 
 16 O       -0.2690     4.9150     0.9990 O.3   1 <1>  -0.3620 
 17 C       -1.5810     5.2440    -0.9240 C.ar  1 <1>  -0.1430 
 18 C       -4.8550    -3.3700     1.0900 C.2   1 <1>   0.0360 
 19 N       -4.7490    -3.6370    -0.2270 N.pl3 1 <1>   0.0330 
 20 C       -3.4360    -2.7060    -2.1590 C.3   1 <1>  -0.0600 
 21 C       -6.1770     1.8730    -0.3580 C.3   1 <1>   0.2630 
 22 C       -6.7860    -0.5110    -0.0900 C.3   1 <1>   0.2630 
 23 C        0.4390     4.1000     1.9070 C.3   1 <1>   0.0400 
 24 C       -1.1300     6.6970    -0.9800 C.3   1 <1>  -0.0970 
 25 H       -1.7960    -1.0440     1.2870 H     1 <1>   0.0800 
 26 H       -1.7400    -1.0370    -0.4440 H     1 <1>   0.0800 
 27 H       -3.6870     2.0160     1.6320 H     1 <1>   0.0800 
 28 H       -3.2890     0.5520     2.4740 H     1 <1>   0.0800 
 29 H       -1.2000     2.4140     0.8810 H     1 <1>   0.1500 
 30 H       -3.5260     3.0730    -2.6110 H     1 <1>   0.1500 
 31 H       -5.8100     1.1530     2.1370 H     1 <1>   0.0800 
 32 H       -5.2900    -0.4810     1.9050 H     1 <1>   0.0800 
 33 H       -2.7920     5.3940    -2.6790 H     1 <1>   0.1500 
 34 H       -4.9170     0.2410    -0.4840 H     1 <1>   0.4500 
 35 H       -5.4970    -3.9430     1.7390 H     1 <1>   0.1500 
 36 H       -5.2160    -4.3880    -0.7470 H     1 <1>   0.2700 
 37 H       -2.7310    -1.9140    -2.3340 H     1 <1>   0.0800 
 38 H       -4.2900    -2.5370    -2.7910 H     1 <1>   0.0800 
 39 H       -2.9760    -3.6380    -2.4380 H     1 <1>   0.0800 
 40 H       -7.0230     2.2110     0.2190 H     1 <1>   0.0800 
 41 H       -6.4580     1.8340    -1.3980 H     1 <1>   0.0800 
 42 H       -5.3740     2.5840    -0.2500 H     1 <1>   0.0800 
 43 H       -7.6520    -0.2870     0.5090 H     1 <1>   0.0800 
 44 H       -6.4010    -1.4760     0.1980 H     1 <1>   0.0800 
 45 H       -7.0770    -0.5550    -1.1270 H     1 <1>   0.0800 
 46 H        1.1200     4.7270     2.4540 H     1 <1>   0.0800 
 47 H        0.9890     3.3580     1.3560 H     1 <1>   0.0800 
 48 H       -0.2580     3.6430     2.5860 H     1 <1>   0.0800 
 49 H       -1.4040     7.1990    -0.0700 H     1 <1>   0.0800 
 50 H       -1.5800     7.2150    -1.8070 H     1 <1>   0.0800 
 51 H       -0.0610     6.7420    -1.0890 H     1 <1>   0.0800 
@<TRIPOS>BOND
  1   1   2  2   
  2   2   3  am  
  3   2   4  1   
  4   3   5  1   
  5   3   6  1   
  6   4   7  ar  
  7   4   8  ar  
  8   5   9  1   
  9   5  25  1   
 10   5  26  1   
 11   6  10  1   
 12   6  27  1   
 13   6  28  1   
 14   7  11  ar  
 15   7  29  1   
 16   8  12  ar  
 17   8  30  1   
 18   9  13  1   
 19   9  14  2   
 20  10  15  1   
 21  10  31  1   
 22  10  32  1   
 23  11  16  1   
 24  11  17  ar  
 25  12  17  ar  
 26  12  33  1   
 27  13  18  2   
 28  14  19  1   
 29  14  20  1   
 30  15  21  1   
 31  15  22  1   
 32  15  34  1   
 33  16  23  1   
 34  17  24  1   
 35  18  19  1   
 36  18  35  1   
 37  19  36  1   
 38  20  37  1   
 39  20  38  1   
 40  20  39  1   
 41  21  40  1   
 42  21  41  1   
 43  21  42  1   
 44  22  43  1   
 45  22  44  1   
 46  22  45  1   
 47  23  46  1   
 48  23  47  1   
 49  23  48  1   
 50  24  49  1   
 51  24  50  1   
 52  24  51  1   
@<TRIPOS>SUBSTRUCTURE
  1 ****   2 GROUP 4 **** **** 0

# MOE 2024.06 (io_trps.svl 2023.06)
