@<TRIPOS>MOLECULE
NONAME
46 49 1 0 0 
SMALL
USER_CHARGES


@<TRIPOS>ATOM
  1 O       -0.0640     0.8940     0.4080 O.2   1 <1>  -0.5700 
  2 C       -0.0550     2.0290     0.0050 C.2   1 <1>   0.5690 
  3 N       -0.5770     3.0280     0.7490 N.am  1 <1>  -0.7300 
  4 C        0.5250     2.3530    -1.3740 C.3   1 <1>   0.1810 
  5 C       -0.6330     4.4430     0.3050 C.3   1 <1>   0.3640 
  6 O        0.8620     3.7160    -1.5100 O.3   1 <1>  -0.5600 
  7 C       -2.0430     4.9810     0.5290 C.ar  1 <1>  -0.1440 
  8 C       -0.1870     4.6150    -1.1690 C.3   1 <1>   0.2610 
  9 C       -3.1670     4.2220     0.2290 C.ar  1 <1>  -0.1500 
 10 C       -2.2130     6.2620     1.0360 C.ar  1 <1>  -0.1500 
 11 C        0.2050     6.0790    -1.4010 C.2   1 <1>   0.5690 
 12 C       -4.4370     4.7310     0.4400 C.ar  1 <1>  -0.1500 
 13 C       -3.4820     6.7730     1.2470 C.ar  1 <1>  -0.1500 
 14 O       -0.5790     6.7810    -1.9980 O.2   1 <1>  -0.5700 
 15 N        1.3790     6.6020    -0.9150 N.am  1 <1>  -0.6600 
 16 C       -4.5950     6.0070     0.9500 C.ar  1 <1>  -0.1500 
 17 C        1.7380     8.0350    -1.0640 C.3   1 <1>   0.1400 
 18 C        2.5370     5.8420    -0.3740 C.3   1 <1>   0.1400 
 19 C        3.2470     8.0710    -0.8320 C.3   1 <1>  -0.0800 
 20 C        3.4780     6.9230     0.1590 C.3   1 <1>  -0.0800 
 21 C        3.8040     9.4390    -0.3980 C.3   1 <1>  -0.0220 
 22 C        3.0930     7.2770     1.6150 C.3   1 <1>  -0.0220 
 23 C        3.7470     9.6550     1.1030 C.2   1 <1>  -0.2880 
 24 C        3.4360     8.7060     1.9870 C.2   1 <1>  -0.2880 
 25 H       -1.0080     2.8040     1.6470 H     1 <1>   0.3700 
 26 H       -0.1900     2.1010    -2.1350 H     1 <1>   0.0800 
 27 H        1.4180     1.7760    -1.5300 H     1 <1>   0.0800 
 28 H        0.0410     5.0010     0.9300 H     1 <1>   0.0800 
 29 H       -1.0180     4.3950    -1.8150 H     1 <1>   0.0800 
 30 H       -3.0660     3.2270    -0.1700 H     1 <1>   0.1500 
 31 H       -1.3600     6.8780     1.2650 H     1 <1>   0.1500 
 32 H       -5.3020     4.1360     0.2070 H     1 <1>   0.1500 
 33 H       -3.6030     7.7680     1.6370 H     1 <1>   0.1500 
 34 H       -5.5810     6.4050     1.1130 H     1 <1>   0.1500 
 35 H        1.4750     8.4010    -2.0430 H     1 <1>   0.0800 
 36 H        1.2220     8.6080    -0.3130 H     1 <1>   0.0800 
 37 H        2.2410     5.1470     0.3920 H     1 <1>   0.0800 
 38 H        3.0080     5.3040    -1.1800 H     1 <1>   0.0800 
 39 H        3.7090     7.8140    -1.7700 H     1 <1>   0.0800 
 40 H        4.5040     6.5990     0.1310 H     1 <1>   0.0800 
 41 H        4.8340     9.5070    -0.7000 H     1 <1>   0.0800 
 42 H        3.2640    10.2230    -0.8990 H     1 <1>   0.0800 
 43 H        2.0350     7.1500     1.7680 H     1 <1>   0.0800 
 44 H        3.6020     6.6030     2.2820 H     1 <1>   0.0800 
 45 H        3.9920    10.6630     1.3930 H     1 <1>   0.1500 
 46 H        3.3950     8.8910     3.0480 H     1 <1>   0.1500 
@<TRIPOS>BOND
  1   1   2  2   
  2   2   3  am  
  3   2   4  1   
  4   3   5  1   
  5   3  25  1   
  6   4   6  1   
  7   4  26  1   
  8   4  27  1   
  9   5   7  1   
 10   5   8  1   
 11   5  28  1   
 12   6   8  1   
 13   7   9  ar  
 14   7  10  ar  
 15   8  11  1   
 16   8  29  1   
 17   9  12  ar  
 18   9  30  1   
 19  10  13  ar  
 20  10  31  1   
 21  11  14  2   
 22  11  15  am  
 23  12  16  ar  
 24  12  32  1   
 25  13  16  ar  
 26  13  33  1   
 27  15  17  1   
 28  15  18  1   
 29  16  34  1   
 30  17  19  1   
 31  17  35  1   
 32  17  36  1   
 33  18  20  1   
 34  18  37  1   
 35  18  38  1   
 36  19  20  1   
 37  19  21  1   
 38  19  39  1   
 39  20  22  1   
 40  20  40  1   
 41  21  23  1   
 42  21  41  1   
 43  21  42  1   
 44  22  24  1   
 45  22  43  1   
 46  22  44  1   
 47  23  24  2   
 48  23  45  1   
 49  24  46  1   
@<TRIPOS>SUBSTRUCTURE
  1 ****  11 GROUP 4 **** **** 0

# MOE 2024.06 (io_trps.svl 2023.06)
