@<TRIPOS>MOLECULE
NONAME
41 43 1 0 0 
SMALL
USER_CHARGES


@<TRIPOS>ATOM
  1 O        0.9050    -0.5980    -1.3810 O.3   1 <1>  -0.0190 
  2 N        1.0990     0.6890    -1.3750 N.2   1 <1>  -0.4100 
  3 C        1.3640    -1.1650    -0.2970 C.2   1 <1>  -0.0400 
  4 C        1.6930     0.9550    -0.2660 C.2   1 <1>   0.1080 
  5 C        1.8950    -0.2060     0.4760 C.2   1 <1>  -0.1500 
  6 C        1.2450    -2.6680    -0.1130 C.3   1 <1>   0.2900 
  7 C        2.1110     2.3480     0.1660 C.3   1 <1>   0.0210 
  8 N       -0.0530    -3.0410     0.4760 N.3   1 <1>  -0.8100 
  9 C        3.6190     2.5550    -0.0050 C.3   1 <1>  -0.2400 
 10 C       -1.2030    -2.6520    -0.3500 C.3   1 <1>   0.1100 
 11 C       -0.1840    -4.4920     0.6770 C.3   1 <1>   0.1100 
 12 C       -2.3470    -3.4920     0.2020 C.3   1 <1>   0.2000 
 13 C       -1.6810    -4.8290     0.5280 C.3   1 <1>  -0.0800 
 14 O       -2.7440    -2.9200     1.3940 O.3   1 <1>  -0.6800 
 15 C       -1.9410    -5.8650    -0.5810 C.3   1 <1>  -0.0170 
 16 C       -1.3420    -7.2220    -0.2480 C.ar  1 <1>   0.1670 
 17 N       -0.1380    -7.4790    -0.7350 N.ar  1 <1>  -0.6200 
 18 C       -2.0630    -8.1230     0.5340 C.ar  1 <1>   0.1600 
 19 C        0.2890    -8.6840    -0.3940 C.ar  1 <1>   0.1600 
 20 N       -1.6370    -9.3260     0.8790 N.ar  1 <1>  -0.6200 
 21 C       -0.4360    -9.5770     0.3870 C.ar  1 <1>   0.1600 
 22 H        2.3650    -0.2810     1.4380 H     1 <1>   0.1500 
 23 H        2.0270    -2.9950     0.5490 H     1 <1>   0.0800 
 24 H        1.3810    -3.1570    -1.0630 H     1 <1>   0.0800 
 25 H        1.5790     3.0720    -0.4270 H     1 <1>   0.0800 
 26 H        1.8350     2.4950     1.1950 H     1 <1>   0.0800 
 27 H        3.8940     2.4120    -1.0350 H     1 <1>   0.0800 
 28 H        4.1640     1.8520     0.5990 H     1 <1>   0.0800 
 29 H        3.8920     3.5520     0.2910 H     1 <1>   0.0800 
 30 H       -1.4090    -1.5970    -0.2780 H     1 <1>   0.0800 
 31 H       -1.0250    -2.9120    -1.3800 H     1 <1>   0.0800 
 32 H        0.3970    -5.0220    -0.0590 H     1 <1>   0.0800 
 33 H        0.1750    -4.7590     1.6570 H     1 <1>   0.0800 
 34 H       -3.1990    -3.5570    -0.4530 H     1 <1>   0.0800 
 35 H       -2.0640    -5.2220     1.4550 H     1 <1>   0.0800 
 36 H       -1.9200    -2.6530     1.8560 H     1 <1>   0.4000 
 37 H       -1.5360    -5.5160    -1.5160 H     1 <1>   0.0800 
 38 H       -3.0020    -5.9800    -0.7150 H     1 <1>   0.0800 
 39 H       -3.0360    -7.8340     0.8920 H     1 <1>   0.1500 
 40 H        1.2600    -8.9810    -0.7490 H     1 <1>   0.1500 
 41 H       -0.0030   -10.5360     0.6110 H     1 <1>   0.1500 
@<TRIPOS>BOND
  1   1   2  1   
  2   1   3  1   
  3   2   4  2   
  4   3   5  2   
  5   3   6  1   
  6   4   5  1   
  7   4   7  1   
  8   5  22  1   
  9   6   8  1   
 10   6  23  1   
 11   6  24  1   
 12   7   9  1   
 13   7  25  1   
 14   7  26  1   
 15   8  10  1   
 16   8  11  1   
 17   9  27  1   
 18   9  28  1   
 19   9  29  1   
 20  10  12  1   
 21  10  30  1   
 22  10  31  1   
 23  11  13  1   
 24  11  32  1   
 25  11  33  1   
 26  12  13  1   
 27  12  14  1   
 28  12  34  1   
 29  13  15  1   
 30  13  35  1   
 31  14  36  1   
 32  15  16  1   
 33  15  37  1   
 34  15  38  1   
 35  16  17  ar  
 36  16  18  ar  
 37  17  19  ar  
 38  18  20  ar  
 39  18  39  1   
 40  19  21  ar  
 41  19  40  1   
 42  20  21  ar  
 43  21  41  1   
@<TRIPOS>SUBSTRUCTURE
  1 ****   8 GROUP 4 **** **** 0

# MOE 2024.06 (io_trps.svl 2023.06)
