@<TRIPOS>MOLECULE
NONAME
47 50 1 0 0 
SMALL
USER_CHARGES


@<TRIPOS>ATOM
  1 O        0.1070     0.9810     0.9950 O.2   1 <1>  -0.5700 
  2 C       -0.0420     2.1140     0.5640 C.2   1 <1>   0.7160 
  3 N       -1.3420     2.5870     0.4480 N.am  1 <1>  -0.6600 
  4 C        1.1580     2.8700     0.1940 C.2   1 <1>   0.1410 
  5 C       -2.4750     1.8640     1.1000 C.3   1 <1>   0.1400 
  6 C       -1.6910     3.8290    -0.3060 C.3   1 <1>   0.1400 
  7 N        1.2200     4.2080    -0.0660 N.2   1 <1>  -0.5650 
  8 C        2.4120     2.3400     0.0710 C.2   1 <1>  -0.3020 
  9 C       -3.5450     2.8580     1.5590 C.3   1 <1>  -0.1600 
 10 C       -3.1400     3.7710    -0.7880 C.3   1 <1>  -0.1600 
 11 C        2.4700     4.4460    -0.3380 C.2   1 <1>   0.3120 
 12 N        3.2570     3.3200    -0.2650 N.pl3 1 <1>   0.3340 
 13 C       -4.1350     3.6880     0.3930 C.3   1 <1>   0.2800 
 14 N        2.9800     5.6790    -0.6700 N.2   1 <1>  -0.5760 
 15 C        4.6130     3.3980    -0.5220 C.2   1 <1>  -0.1810 
 16 O       -4.2300     5.0080     0.8850 O.3   1 <1>  -0.5600 
 17 C       -5.5310     3.1270    -0.0340 C.3   1 <1>   0.2000 
 18 C        4.2450     5.7400    -0.9080 C.2   1 <1>   0.3760 
 19 C        5.1160     4.6150    -0.8470 C.2   1 <1>  -0.1360 
 20 C       -5.4540     5.6820     0.8440 C.3   1 <1>   0.1200 
 21 O       -5.4170     1.8530    -0.6170 O.3   1 <1>  -0.6800 
 22 C       -6.3600     4.1170    -0.9140 C.3   1 <1>   0.2800 
 23 C       -6.0350     5.5800    -0.5650 C.3   1 <1>  -0.1600 
 24 O       -7.6940     3.9250    -0.6080 O.3   1 <1>  -0.6800 
 25 C       -6.2550     3.8900    -2.4290 C.3   1 <1>  -0.2400 
 26 H       -2.8970     1.1620     0.4010 H     1 <1>   0.0800 
 27 H       -2.1170     1.3120     1.9530 H     1 <1>   0.0800 
 28 H       -1.5480     4.6850     0.3330 H     1 <1>   0.0800 
 29 H       -1.0460     3.9290    -1.1610 H     1 <1>   0.0800 
 30 H        2.7160     1.3190     0.2130 H     1 <1>   0.1500 
 31 H       -3.0910     3.5100     2.2840 H     1 <1>   0.0800 
 32 H       -4.3220     2.3130     2.0620 H     1 <1>   0.0800 
 33 H       -3.2300     2.9120    -1.4270 H     1 <1>   0.0800 
 34 H       -3.3450     4.6400    -1.3830 H     1 <1>   0.0800 
 35 H        5.1840     2.4900    -0.4490 H     1 <1>   0.1500 
 36 H       -6.0850     2.9740     0.8750 H     1 <1>   0.0800 
 37 H        4.6800     6.6890    -1.1690 H     1 <1>   0.0600 
 38 H        6.1580     4.7720    -1.0620 H     1 <1>   0.1500 
 39 H       -6.1140     5.2510     1.5780 H     1 <1>   0.0800 
 40 H       -5.2660     6.7090     1.1050 H     1 <1>   0.0800 
 41 H       -5.2250     1.9390    -1.5680 H     1 <1>   0.4000 
 42 H       -5.3030     5.9770    -1.2450 H     1 <1>   0.0800 
 43 H       -6.9120     6.1970    -0.6460 H     1 <1>   0.0800 
 44 H       -8.2550     4.4050    -1.2440 H     1 <1>   0.4000 
 45 H       -5.2320     3.9580    -2.7500 H     1 <1>   0.0800 
 46 H       -6.8160     4.6370    -2.9620 H     1 <1>   0.0800 
 47 H       -6.6330     2.9190    -2.6970 H     1 <1>   0.0800 
@<TRIPOS>BOND
  1   1   2  2   
  2   2   3  am  
  3   2   4  1   
  4   3   5  1   
  5   3   6  1   
  6   4   7  1   
  7   4   8  2   
  8   5   9  1   
  9   5  26  1   
 10   5  27  1   
 11   6  10  1   
 12   6  28  1   
 13   6  29  1   
 14   7  11  2   
 15   8  12  1   
 16   8  30  1   
 17   9  13  1   
 18   9  31  1   
 19   9  32  1   
 20  10  13  1   
 21  10  33  1   
 22  10  34  1   
 23  11  12  1   
 24  11  14  1   
 25  12  15  1   
 26  13  16  1   
 27  13  17  1   
 28  14  18  2   
 29  15  19  2   
 30  15  35  1   
 31  16  20  1   
 32  17  21  1   
 33  17  22  1   
 34  17  36  1   
 35  18  19  1   
 36  18  37  1   
 37  19  38  1   
 38  20  23  1   
 39  20  39  1   
 40  20  40  1   
 41  21  41  1   
 42  22  23  1   
 43  22  24  1   
 44  22  25  1   
 45  23  42  1   
 46  23  43  1   
 47  24  44  1   
 48  25  45  1   
 49  25  46  1   
 50  25  47  1   
@<TRIPOS>SUBSTRUCTURE
  1 ****   6 GROUP 4 **** **** 0

# MOE 2024.06 (io_trps.svl 2023.06)
