@<TRIPOS>MOLECULE
NONAME
43 44 1 0 0 
SMALL
USER_CHARGES


@<TRIPOS>ATOM
  1 F       -1.4650     2.9180    -2.6040 F     1 <1>  -0.1900 
  2 C       -1.9070     2.5310    -1.4350 C.ar  1 <1>   0.1900 
  3 C       -1.0310     2.4730    -0.3620 C.ar  1 <1>  -0.1440 
  4 C       -3.2480     2.2100    -1.3240 C.ar  1 <1>  -0.1500 
  5 C       -1.5470     2.0940     0.8700 C.ar  1 <1>  -0.1500 
  6 C        0.4440     2.8400    -0.5360 C.3   1 <1>   0.3940 
  7 C       -3.7390     1.8240    -0.0890 C.ar  1 <1>  -0.1500 
  8 C       -2.8880     1.7700     1.0050 C.ar  1 <1>  -0.1500 
  9 N        1.3300     1.9000     0.2350 N.3   1 <1>  -0.8100 
 10 C        0.5940     4.3590    -0.2580 C.2   1 <1>   0.5690 
 11 C        1.1950     0.5090    -0.2270 C.3   1 <1>   0.0300 
 12 C        2.7450     2.2980     0.1990 C.3   1 <1>   0.0300 
 13 O        0.9060     4.7730     0.8380 O.2   1 <1>  -0.5700 
 14 N        0.3390     5.2120    -1.3050 N.am  1 <1>  -0.4940 
 15 C        0.3910     6.6260    -1.3740 C.2   1 <1>  -0.0880 
 16 N        1.2870     7.4720    -0.7820 N.pl3 1 <1>   0.3140 
 17 C       -0.4650     7.4070    -2.0730 C.2   1 <1>  -0.1500 
 18 N        1.0040     8.7650    -1.0890 N.2   1 <1>  -0.7070 
 19 C        2.4660     7.1100     0.0470 C.3   1 <1>   0.0960 
 20 C       -0.0390     8.7090    -1.8550 C.2   1 <1>   0.1390 
 21 C        3.6680     8.0450    -0.1730 C.3   1 <1>  -0.1600 
 22 C        4.8900     7.5790     0.6280 C.3   1 <1>  -0.2400 
 23 H       -3.8910     2.2650    -2.1830 H     1 <1>   0.1500 
 24 H       -0.8960     2.0530     1.7290 H     1 <1>   0.1500 
 25 H        0.7030     2.7040    -1.5700 H     1 <1>   0.0800 
 26 H       -4.7790     1.5690     0.0250 H     1 <1>   0.1500 
 27 H       -3.2700     1.4760     1.9670 H     1 <1>   0.1500 
 28 H        0.1790     0.1710    -0.1180 H     1 <1>   0.0800 
 29 H        1.8210    -0.1350     0.3680 H     1 <1>   0.0800 
 30 H        1.4860     0.4220    -1.2600 H     1 <1>   0.0800 
 31 H        2.8790     3.2570     0.6680 H     1 <1>   0.0800 
 32 H        3.1030     2.3440    -0.8160 H     1 <1>   0.0800 
 33 H        3.3380     1.5850     0.7460 H     1 <1>   0.0800 
 34 H       -0.1160     4.7730    -2.1090 H     1 <1>   0.3700 
 35 H       -1.3060     7.1140    -2.6720 H     1 <1>   0.1500 
 36 H        2.7580     6.1080    -0.2040 H     1 <1>   0.0800 
 37 H        2.1650     7.1290     1.0780 H     1 <1>   0.0800 
 38 H       -0.5130     9.5830    -2.2690 H     1 <1>   0.1500 
 39 H        3.4050     9.0420     0.1370 H     1 <1>   0.0800 
 40 H        3.9160     8.0680    -1.2200 H     1 <1>   0.0800 
 41 H        4.6660     7.5640     1.6800 H     1 <1>   0.0800 
 42 H        5.7140     8.2510     0.4640 H     1 <1>   0.0800 
 43 H        5.1880     6.5910     0.3220 H     1 <1>   0.0800 
@<TRIPOS>BOND
  1   1   2  1   
  2   2   3  ar  
  3   2   4  ar  
  4   3   5  ar  
  5   3   6  1   
  6   4   7  ar  
  7   4  23  1   
  8   5   8  ar  
  9   5  24  1   
 10   6   9  1   
 11   6  10  1   
 12   6  25  1   
 13   7   8  ar  
 14   7  26  1   
 15   8  27  1   
 16   9  11  1   
 17   9  12  1   
 18  10  13  2   
 19  10  14  am  
 20  11  28  1   
 21  11  29  1   
 22  11  30  1   
 23  12  31  1   
 24  12  32  1   
 25  12  33  1   
 26  14  15  1   
 27  14  34  1   
 28  15  16  1   
 29  15  17  2   
 30  16  18  1   
 31  16  19  1   
 32  17  20  1   
 33  17  35  1   
 34  18  20  2   
 35  19  21  1   
 36  19  36  1   
 37  19  37  1   
 38  20  38  1   
 39  21  22  1   
 40  21  39  1   
 41  21  40  1   
 42  22  41  1   
 43  22  42  1   
 44  22  43  1   
@<TRIPOS>SUBSTRUCTURE
  1 ****  10 GROUP 4 **** **** 0

# MOE 2024.06 (io_trps.svl 2023.06)
