@<TRIPOS>MOLECULE
NONAME
49 52 1 0 0 
SMALL
USER_CHARGES


@<TRIPOS>ATOM
  1 S        0.2620    -0.0690    -1.0820 S.3   1 <1>  -0.0800 
  2 C       -0.6640     1.3670    -0.7430 C.2   1 <1>  -0.1400 
  3 C       -0.8870    -0.9950    -0.1470 C.2   1 <1>   0.2280 
  4 C       -1.7270     1.0300     0.0060 C.2   1 <1>   0.0460 
  5 C       -0.1570     2.6770    -1.3000 C.3   1 <1>   0.5230 
  6 N       -1.8350    -0.3040     0.3470 N.2   1 <1>  -0.5650 
  7 C       -2.8260     1.9330     0.5280 C.3   1 <1>  -0.0590 
  8 N        1.1560     3.0220    -0.6960 N.4   1 <1>  -0.9590 
  9 C        1.1470     2.9430     0.8180 C.3   1 <1>   0.4230 
 10 C        1.6760     4.3080    -1.2960 C.3   1 <1>   0.3430 
 11 C        0.3860     4.1070     1.5010 C.3   1 <1>   0.1200 
 12 C        2.5820     2.7660     1.3780 C.3   1 <1>   0.1400 
 13 C        2.6020     5.1650    -0.3980 C.3   1 <1>  -0.0800 
 14 O        0.5440     5.3370     0.8540 O.3   1 <1>  -0.5600 
 15 N        3.6550     3.0330     0.3660 N.am  1 <1>  -0.6600 
 16 C        1.8470     5.8250     0.7750 C.3   1 <1>   0.1200 
 17 C        3.9020     4.4600     0.0400 C.3   1 <1>   0.1400 
 18 C        4.1230     2.0120    -0.4210 C.2   1 <1>   0.5690 
 19 O        3.3850     1.0860    -0.6670 O.2   1 <1>  -0.5700 
 20 C        5.4950     2.0450    -1.0910 C.3   1 <1>   0.0820 
 21 C        6.6110     2.6630    -0.2530 C.2   1 <1>  -0.1810 
 22 C        6.6790     2.7080     1.0930 C.2   1 <1>  -0.1100 
 23 C        7.7420     3.2700    -0.8920 C.2   1 <1>  -0.1500 
 24 S        8.1360     3.5260     1.6250 S.3   1 <1>  -0.0800 
 25 C        8.6440     3.7800    -0.0330 C.2   1 <1>  -0.1100 
 26 H       -0.7130    -2.0540    -0.0570 H     1 <1>   0.1500 
 27 H       -0.8690     3.4570    -1.0840 H     1 <1>   0.0800 
 28 H       -0.0610     2.5920    -2.3700 H     1 <1>   0.0800 
 29 H       -2.6840     2.9500     0.2150 H     1 <1>   0.0800 
 30 H       -2.8480     1.8940     1.6020 H     1 <1>   0.0800 
 31 H       -3.7760     1.5890     0.1590 H     1 <1>   0.0800 
 32 H        1.8230     2.2650    -0.9510 H     1 <1>   0.4500 
 33 H        0.6310     2.0440     1.1130 H     1 <1>   0.0800 
 34 H        2.1970     4.0770    -2.2110 H     1 <1>   0.0800 
 35 H        0.8340     4.9300    -1.5560 H     1 <1>   0.0800 
 36 H        0.6810     4.2170     2.5300 H     1 <1>   0.0800 
 37 H       -0.6670     3.8870     1.4940 H     1 <1>   0.0800 
 38 H        2.6790     1.7490     1.7190 H     1 <1>   0.0800 
 39 H        2.7380     3.3890     2.2410 H     1 <1>   0.0800 
 40 H        2.9270     5.9900    -1.0080 H     1 <1>   0.0800 
 41 H        1.7690     6.8850     0.6020 H     1 <1>   0.0800 
 42 H        2.3410     5.6830     1.7220 H     1 <1>   0.0800 
 43 H        4.3410     4.9550     0.8920 H     1 <1>   0.0800 
 44 H        4.6160     4.5270    -0.7630 H     1 <1>   0.0800 
 45 H        5.7790     1.0390    -1.3430 H     1 <1>   0.0800 
 46 H        5.3970     2.5900    -2.0100 H     1 <1>   0.0800 
 47 H        6.0190     2.3430     1.8600 H     1 <1>   0.1500 
 48 H        7.8360     3.2970    -1.9640 H     1 <1>   0.1500 
 49 H        9.5800     4.2870    -0.1900 H     1 <1>   0.1500 
@<TRIPOS>BOND
  1   1   2  1   
  2   1   3  1   
  3   2   4  2   
  4   2   5  1   
  5   3   6  2   
  6   3  26  1   
  7   4   6  1   
  8   4   7  1   
  9   5   8  1   
 10   5  27  1   
 11   5  28  1   
 12   7  29  1   
 13   7  30  1   
 14   7  31  1   
 15   8   9  1   
 16   8  10  1   
 17   8  32  1   
 18   9  11  1   
 19   9  12  1   
 20   9  33  1   
 21  10  13  1   
 22  10  34  1   
 23  10  35  1   
 24  11  14  1   
 25  11  36  1   
 26  11  37  1   
 27  12  15  1   
 28  12  38  1   
 29  12  39  1   
 30  13  16  1   
 31  13  17  1   
 32  13  40  1   
 33  14  16  1   
 34  15  17  1   
 35  15  18  am  
 36  16  41  1   
 37  16  42  1   
 38  17  43  1   
 39  17  44  1   
 40  18  19  2   
 41  18  20  1   
 42  20  21  1   
 43  20  45  1   
 44  20  46  1   
 45  21  22  2   
 46  21  23  1   
 47  22  24  1   
 48  22  47  1   
 49  23  25  2   
 50  23  48  1   
 51  24  25  1   
 52  25  49  1   
@<TRIPOS>SUBSTRUCTURE
  1 ****  15 GROUP 4 **** **** 0

# MOE 2024.06 (io_trps.svl 2023.06)
