@<TRIPOS>MOLECULE
NONAME
50 53 1 0 0 
SMALL
USER_CHARGES


@<TRIPOS>ATOM
  1 S       -0.2320     0.6050    -1.9870 S.3   1 <1>  -0.0800 
  2 C       -1.2190     1.3080    -0.7140 C.2   1 <1>  -0.1400 
  3 C       -1.5360    -0.4860    -2.4390 C.2   1 <1>  -0.1100 
  4 C       -2.4300     0.7380    -0.6850 C.2   1 <1>  -0.1810 
  5 C       -0.7150     2.4160     0.2040 C.3   1 <1>   0.4600 
  6 C       -2.6180    -0.2920    -1.6610 C.2   1 <1>  -0.1500 
  7 C       -3.4500     1.2060     0.3280 C.3   1 <1>   0.0210 
  8 O       -1.6880     2.6470     1.2070 O.3   1 <1>  -0.5600 
  9 C        0.5620     1.9860     0.9330 C.3   1 <1>  -0.1600 
 10 C       -0.4760     3.7220    -0.5660 C.3   1 <1>  -0.1600 
 11 C       -3.0470     2.6040     0.8370 C.3   1 <1>   0.1200 
 12 C        1.1010     3.1030     1.8290 C.3   1 <1>   0.1400 
 13 C        0.0680     4.8230     0.3470 C.3   1 <1>   0.1400 
 14 N        1.3070     4.3330     1.0140 N.am  1 <1>  -0.6600 
 15 C        2.5650     4.8470     0.8030 C.2   1 <1>   0.6900 
 16 O        3.5500     4.2130     1.1350 O.2   1 <1>  -0.5700 
 17 N        2.6820     6.0820     0.2350 N.am  1 <1>  -0.5470 
 18 C        3.7650     6.8590    -0.2110 C.ar  1 <1>   0.1170 
 19 C        3.5280     8.2040    -0.5180 C.ar  1 <1>   0.0830 
 20 C        5.0480     6.3510    -0.3740 C.ar  1 <1>  -0.1500 
 21 O        2.2500     8.6680    -0.3570 O.3   1 <1>  -0.3620 
 22 C        4.5710     9.0070    -0.9680 C.ar  1 <1>  -0.1500 
 23 C        6.0870     7.1510    -0.8200 C.ar  1 <1>  -0.1430 
 24 C        1.9440    10.0330    -0.5390 C.3   1 <1>   0.0400 
 25 C        5.8420     8.4810    -1.1170 C.ar  1 <1>  -0.1500 
 26 C        7.4780     6.5680    -0.9840 C.3   1 <1>  -0.0970 
 27 H       -1.3490    -1.1670    -3.2500 H     1 <1>   0.1500 
 28 H       -3.5460    -0.8310    -1.7320 H     1 <1>   0.1500 
 29 H       -3.4900     0.5140     1.1510 H     1 <1>   0.0800 
 30 H       -4.4240     1.2580    -0.1230 H     1 <1>   0.0800 
 31 H        1.3220     1.7310     0.2180 H     1 <1>   0.0800 
 32 H        0.3580     1.1100     1.5200 H     1 <1>   0.0800 
 33 H       -1.3840     4.0460    -1.0380 H     1 <1>   0.0800 
 34 H        0.2410     3.5430    -1.3470 H     1 <1>   0.0800 
 35 H       -3.6300     2.8640     1.7030 H     1 <1>   0.0800 
 36 H       -3.2160     3.3420     0.0740 H     1 <1>   0.0800 
 37 H        2.0230     2.7870     2.2870 H     1 <1>   0.0800 
 38 H        0.3980     3.3160     2.6150 H     1 <1>   0.0800 
 39 H       -0.6610     5.0700     1.1000 H     1 <1>   0.0800 
 40 H        0.2590     5.7030    -0.2400 H     1 <1>   0.0800 
 41 H        1.8120     6.6060     0.2340 H     1 <1>   0.3700 
 42 H        5.2420     5.3180    -0.1530 H     1 <1>   0.1500 
 43 H        4.4200    10.0400    -1.2110 H     1 <1>   0.1500 
 44 H        0.9010    10.1750    -0.3180 H     1 <1>   0.0800 
 45 H        2.1390    10.3030    -1.5620 H     1 <1>   0.0800 
 46 H        2.5430    10.6190     0.1360 H     1 <1>   0.0800 
 47 H        6.6410     9.1110    -1.4660 H     1 <1>   0.1500 
 48 H        7.6520     5.8040    -0.2470 H     1 <1>   0.0800 
 49 H        8.2260     7.3310    -0.8630 H     1 <1>   0.0800 
 50 H        7.5770     6.1340    -1.9630 H     1 <1>   0.0800 
@<TRIPOS>BOND
  1   1   2  1   
  2   1   3  1   
  3   2   4  2   
  4   2   5  1   
  5   3   6  2   
  6   3  27  1   
  7   4   6  1   
  8   4   7  1   
  9   5   8  1   
 10   5   9  1   
 11   5  10  1   
 12   6  28  1   
 13   7  11  1   
 14   7  29  1   
 15   7  30  1   
 16   8  11  1   
 17   9  12  1   
 18   9  31  1   
 19   9  32  1   
 20  10  13  1   
 21  10  33  1   
 22  10  34  1   
 23  11  35  1   
 24  11  36  1   
 25  12  14  1   
 26  12  37  1   
 27  12  38  1   
 28  13  14  1   
 29  13  39  1   
 30  13  40  1   
 31  14  15  am  
 32  15  16  2   
 33  15  17  am  
 34  17  18  1   
 35  17  41  1   
 36  18  19  ar  
 37  18  20  ar  
 38  19  21  1   
 39  19  22  ar  
 40  20  23  ar  
 41  20  42  1   
 42  21  24  1   
 43  22  25  ar  
 44  22  43  1   
 45  23  25  ar  
 46  23  26  1   
 47  24  44  1   
 48  24  45  1   
 49  24  46  1   
 50  25  47  1   
 51  26  48  1   
 52  26  49  1   
 53  26  50  1   
@<TRIPOS>SUBSTRUCTURE
  1 ****  14 GROUP 4 **** **** 0

# MOE 2024.06 (io_trps.svl 2023.06)
