@<TRIPOS>MOLECULE
NONAME
55 59 1 0 0 
SMALL
USER_CHARGES


@<TRIPOS>ATOM
  1 O       -2.5940     0.9190     2.7460 O.2   1 <1>  -0.5700 
  2 C       -2.7600     1.2650     1.5980 C.2   1 <1>   0.6300 
  3 N       -3.5530     0.5410     0.7480 N.am  1 <1>  -0.6600 
  4 C       -2.0490     2.5300     1.1000 C.3   1 <1>   0.0320 
  5 C       -3.6410     0.7370    -0.7220 C.3   1 <1>   0.1400 
  6 C       -4.1420    -0.7660     1.1280 C.3   1 <1>   0.1400 
  7 C       -0.7990     2.2120     0.2860 C.ar  1 <1>  -0.0320 
  8 C       -1.9580     3.7180     2.0180 C.3   1 <1>  -0.2000 
  9 C       -2.8570     3.7730     0.8270 C.3   1 <1>  -0.2000 
 10 C       -4.4860    -0.4340    -1.2260 C.3   1 <1>   0.2000 
 11 C       -4.2650    -1.5390    -0.1910 C.3   1 <1>  -0.0800 
 12 C       -0.6880     2.5620    -1.0520 C.ar  1 <1>  -0.1500 
 13 C        0.2510     1.5430     0.8940 C.ar  1 <1>  -0.1500 
 14 O       -5.8210    -0.0650    -1.1880 O.3   1 <1>  -0.6800 
 15 C       -2.9790    -2.3330    -0.5060 C.3   1 <1>  -0.0170 
 16 C        0.4520     2.2440    -1.7690 C.ar  1 <1>  -0.1500 
 17 C        1.3920     1.2240     0.1780 C.ar  1 <1>  -0.1500 
 18 C       -2.7300    -3.4460     0.5080 C.ar  1 <1>  -0.1440 
 19 C        1.4970     1.5700    -1.1580 C.ar  1 <1>  -0.1440 
 20 C       -3.4390    -4.6700     0.4860 C.ar  1 <1>   0.0000 
 21 C       -1.7940    -3.2770     1.4860 C.ar  1 <1>  -0.1500 
 22 C        2.7510     1.2210    -1.9390 C.3   1 <1>  -0.0970 
 23 C       -3.1320    -5.6250     1.4870 C.ar  1 <1>   0.3100 
 24 C       -4.4300    -5.0050    -0.4660 C.ar  1 <1>  -0.1500 
 25 C       -1.5660    -4.2870     2.4270 C.ar  1 <1>   0.1600 
 26 N       -2.1950    -5.4190     2.4470 N.ar  1 <1>  -0.6200 
 27 C       -3.8240    -6.8470     1.4960 C.ar  1 <1>  -0.1500 
 28 C       -5.0850    -6.2060    -0.4300 C.ar  1 <1>  -0.1500 
 29 C       -4.7810    -7.1400     0.5630 C.ar  1 <1>  -0.1500 
 30 H       -4.0810     1.6870    -0.9720 H     1 <1>   0.0800 
 31 H       -2.6540     0.6720    -1.1440 H     1 <1>   0.0800 
 32 H       -3.5340    -1.2750     1.8560 H     1 <1>   0.0800 
 33 H       -5.1160    -0.5980     1.5540 H     1 <1>   0.0800 
 34 H       -2.3900     3.6370     3.0010 H     1 <1>   0.1000 
 35 H       -1.0500     4.2970     2.0140 H     1 <1>   0.1000 
 36 H       -2.5810     4.4370     0.0280 H     1 <1>   0.1000 
 37 H       -3.9200     3.7430     0.9910 H     1 <1>   0.1000 
 38 H       -4.2470    -0.7260    -2.2350 H     1 <1>   0.0800 
 39 H       -5.1000    -2.2160    -0.1600 H     1 <1>   0.0800 
 40 H       -1.4880     3.0840    -1.5450 H     1 <1>   0.1500 
 41 H        0.1780     1.2700     1.9330 H     1 <1>   0.1500 
 42 H       -6.0250     0.3120    -0.3090 H     1 <1>   0.4000 
 43 H       -2.1340    -1.6660    -0.5080 H     1 <1>   0.0800 
 44 H       -3.0390    -2.7580    -1.4920 H     1 <1>   0.0800 
 45 H        0.5240     2.5250    -2.8050 H     1 <1>   0.1500 
 46 H        2.1970     0.7060     0.6690 H     1 <1>   0.1500 
 47 H       -1.2170    -2.3720     1.5650 H     1 <1>   0.1500 
 48 H        2.5420     1.1740    -2.9930 H     1 <1>   0.0800 
 49 H        3.1320     0.2660    -1.6260 H     1 <1>   0.0800 
 50 H        3.5050     1.9690    -1.7690 H     1 <1>   0.0800 
 51 H       -4.6790    -4.3040    -1.2390 H     1 <1>   0.1500 
 52 H       -0.8200    -4.1090     3.1830 H     1 <1>   0.1500 
 53 H       -3.5720    -7.5490     2.2680 H     1 <1>   0.1500 
 54 H       -5.8380    -6.4480    -1.1610 H     1 <1>   0.1500 
 55 H       -5.3020    -8.0810     0.5820 H     1 <1>   0.1500 
@<TRIPOS>BOND
  1   1   2  2   
  2   2   3  am  
  3   2   4  1   
  4   3   5  1   
  5   3   6  1   
  6   4   7  1   
  7   4   8  1   
  8   4   9  1   
  9   5  10  1   
 10   5  30  1   
 11   5  31  1   
 12   6  11  1   
 13   6  32  1   
 14   6  33  1   
 15   7  12  ar  
 16   7  13  ar  
 17   8   9  1   
 18   8  34  1   
 19   8  35  1   
 20   9  36  1   
 21   9  37  1   
 22  10  11  1   
 23  10  14  1   
 24  10  38  1   
 25  11  15  1   
 26  11  39  1   
 27  12  16  ar  
 28  12  40  1   
 29  13  17  ar  
 30  13  41  1   
 31  14  42  1   
 32  15  18  1   
 33  15  43  1   
 34  15  44  1   
 35  16  19  ar  
 36  16  45  1   
 37  17  19  ar  
 38  17  46  1   
 39  18  20  ar  
 40  18  21  ar  
 41  19  22  1   
 42  20  23  ar  
 43  20  24  ar  
 44  21  25  ar  
 45  21  47  1   
 46  22  48  1   
 47  22  49  1   
 48  22  50  1   
 49  23  26  ar  
 50  23  27  ar  
 51  24  28  ar  
 52  24  51  1   
 53  25  26  ar  
 54  25  52  1   
 55  27  29  ar  
 56  27  53  1   
 57  28  29  ar  
 58  28  54  1   
 59  29  55  1   
@<TRIPOS>SUBSTRUCTURE
  1 ****  15 GROUP 4 **** **** 0

# MOE 2024.06 (io_trps.svl 2023.06)
