@<TRIPOS>MOLECULE
NONAME
41 43 1 0 0 
SMALL
USER_CHARGES


@<TRIPOS>ATOM
  1 O       -0.4940     0.2590     0.1800 O.2   1 <1>  -0.5700 
  2 C       -1.5430     0.8810     0.2310 C.2   1 <1>   0.5440 
  3 N       -2.7080     0.1490     0.0770 N.am  1 <1>  -0.6600 
  4 C       -1.5030     2.3390     0.4210 C.ar  1 <1>   0.3960 
  5 C       -4.0880     0.6900     0.0130 C.3   1 <1>   0.1400 
  6 C       -2.7160    -1.3240    -0.1030 C.3   1 <1>   0.1400 
  7 N       -2.5070     2.9820     1.0530 N.ar  1 <1>  -0.6200 
  8 C       -0.4010     3.0420    -0.0620 C.ar  1 <1>  -0.1500 
  9 C       -4.9700    -0.5120    -0.3260 C.3   1 <1>   0.2000 
 10 C       -4.1730    -1.7390     0.1100 C.3   1 <1>  -0.0800 
 11 C       -2.3980     4.2900     1.1930 C.ar  1 <1>   0.1600 
 12 C       -0.3000     4.4070     0.0850 C.ar  1 <1>   0.0830 
 13 O       -6.1780    -0.4700     0.3530 O.3   1 <1>  -0.6800 
 14 C       -4.5830    -3.0130    -0.6470 C.3   1 <1>  -0.0170 
 15 C       -1.3370     5.0460     0.7370 C.ar  1 <1>  -0.1500 
 16 O        0.7940     5.0240    -0.4110 O.3   1 <1>  -0.3630 
 17 C       -3.7870    -4.2210    -0.1810 C.ar  1 <1>   0.1670 
 18 C        0.9840     6.4150    -0.2780 C.3   1 <1>   0.0400 
 19 N       -2.6220    -4.4260    -0.7730 N.ar  1 <1>  -0.6200 
 20 C       -4.2940    -5.0410     0.8250 C.ar  1 <1>   0.1600 
 21 C       -2.0010    -5.4900    -0.2940 C.ar  1 <1>   0.1600 
 22 N       -3.6760    -6.1070     1.3060 N.ar  1 <1>  -0.6200 
 23 C       -2.5110    -6.3030     0.7120 C.ar  1 <1>   0.1600 
 24 H       -4.3520     1.0990     0.9720 H     1 <1>   0.0800 
 25 H       -4.1590     1.4490    -0.7470 H     1 <1>   0.0800 
 26 H       -2.3890    -1.5560    -1.1030 H     1 <1>   0.0800 
 27 H       -2.0590    -1.8030     0.6030 H     1 <1>   0.0800 
 28 H        0.3910     2.5120    -0.5590 H     1 <1>   0.1500 
 29 H       -5.1720    -0.5300    -1.3830 H     1 <1>   0.0800 
 30 H       -4.3040    -1.8920     1.1670 H     1 <1>   0.0800 
 31 H       -3.2030     4.7920     1.7030 H     1 <1>   0.1500 
 32 H       -6.0220    -0.3770     1.3130 H     1 <1>   0.4000 
 33 H       -4.4320    -2.8780    -1.7040 H     1 <1>   0.0800 
 34 H       -5.6320    -3.1930    -0.4920 H     1 <1>   0.0800 
 35 H       -1.3380     6.1060     0.8970 H     1 <1>   0.1500 
 36 H        1.9210     6.6690    -0.7390 H     1 <1>   0.0800 
 37 H        1.0110     6.6650     0.7680 H     1 <1>   0.0800 
 38 H        0.1810     6.9270    -0.7770 H     1 <1>   0.0800 
 39 H       -5.2510    -4.8030     1.2540 H     1 <1>   0.1500 
 40 H       -1.0430    -5.7320    -0.7170 H     1 <1>   0.1500 
 41 H       -1.9310    -7.1490     1.0350 H     1 <1>   0.1500 
@<TRIPOS>BOND
  1   1   2  2   
  2   2   3  am  
  3   2   4  1   
  4   3   5  1   
  5   3   6  1   
  6   4   7  ar  
  7   4   8  ar  
  8   5   9  1   
  9   5  24  1   
 10   5  25  1   
 11   6  10  1   
 12   6  26  1   
 13   6  27  1   
 14   7  11  ar  
 15   8  12  ar  
 16   8  28  1   
 17   9  10  1   
 18   9  13  1   
 19   9  29  1   
 20  10  14  1   
 21  10  30  1   
 22  11  15  ar  
 23  11  31  1   
 24  12  15  ar  
 25  12  16  1   
 26  13  32  1   
 27  14  17  1   
 28  14  33  1   
 29  14  34  1   
 30  15  35  1   
 31  16  18  1   
 32  17  19  ar  
 33  17  20  ar  
 34  18  36  1   
 35  18  37  1   
 36  18  38  1   
 37  19  21  ar  
 38  20  22  ar  
 39  20  39  1   
 40  21  23  ar  
 41  21  40  1   
 42  22  23  ar  
 43  23  41  1   
@<TRIPOS>SUBSTRUCTURE
  1 ****   3 GROUP 4 **** **** 0

# MOE 2024.06 (io_trps.svl 2023.06)
