@<TRIPOS>MOLECULE
NONAME
41 42 1 0 0 
SMALL
USER_CHARGES


@<TRIPOS>ATOM
  1 S       -1.8760    -0.2770     0.6730 S.o2  1 <1>   1.0900 
  2 O       -1.3330    -0.4790     1.9950 O.2   1 <1>  -0.6500 
  3 O       -3.0980     0.4690     0.4980 O.2   1 <1>  -0.6500 
  4 C       -2.1100    -1.8870    -0.0770 C.3   1 <1>  -0.0550 
  5 C       -0.6200     0.4960    -0.3300 C.3   1 <1>  -0.1350 
  6 C       -0.9180    -2.8390     0.1130 C.3   1 <1>  -0.0990 
  7 C       -1.1980    -4.1650    -0.5520 C.2   1 <1>   0.5690 
  8 O       -1.2420    -4.2060    -1.7560 O.2   1 <1>  -0.5700 
  9 N       -1.4210    -5.2550     0.2160 N.am  1 <1>  -0.7300 
 10 C       -1.6910    -6.6170    -0.3030 C.3   1 <1>   0.2200 
 11 C       -3.1560    -6.9970    -0.1280 C.3   1 <1>  -0.0800 
 12 C       -1.0300    -7.6320     0.6190 C.3   1 <1>   0.1200 
 13 C       -3.2090    -7.5210     1.3130 C.3   1 <1>   0.1200 
 14 C       -4.1810    -5.8910    -0.4400 C.3   1 <1>  -0.0160 
 15 O       -1.8860    -7.7310     1.7150 O.3   1 <1>  -0.5600 
 16 C       -5.6030    -6.4150    -0.3070 C.ar  1 <1>  -0.1430 
 17 C       -6.3710    -6.1760     0.8150 C.ar  1 <1>  -0.1500 
 18 C       -6.1980    -7.1590    -1.3060 C.ar  1 <1>  -0.1500 
 19 C       -7.6580    -6.6830     0.8840 C.ar  1 <1>   0.1600 
 20 C       -7.4930    -7.6200    -1.1370 C.ar  1 <1>   0.1600 
 21 N       -8.2370    -7.4020    -0.0640 N.ar  1 <1>  -0.6200 
 22 H       -2.9770    -2.3450     0.3600 H     1 <1>   0.0800 
 23 H       -2.3090    -1.7720    -1.1270 H     1 <1>   0.0800 
 24 H        0.3000    -0.0530    -0.2830 H     1 <1>   0.0800 
 25 H       -0.4350     1.4920     0.0250 H     1 <1>   0.0800 
 26 H       -0.9390     0.5580    -1.3530 H     1 <1>   0.0800 
 27 H       -0.0330    -2.4230    -0.3310 H     1 <1>   0.0800 
 28 H       -0.7310    -2.9890     1.1610 H     1 <1>   0.0800 
 29 H       -1.3960    -5.2050     1.2380 H     1 <1>   0.3700 
 30 H       -1.3550    -6.7110    -1.3230 H     1 <1>   0.0800 
 31 H       -3.3570    -7.8300    -0.7770 H     1 <1>   0.0800 
 32 H       -0.0510    -7.3280     0.9460 H     1 <1>   0.0800 
 33 H       -0.9780    -8.6000     0.1510 H     1 <1>   0.0800 
 34 H       -3.7470    -8.4510     1.3780 H     1 <1>   0.0800 
 35 H       -3.6440    -6.8020     1.9850 H     1 <1>   0.0800 
 36 H       -4.0250    -5.5330    -1.4440 H     1 <1>   0.0800 
 37 H       -4.0490    -5.0560     0.2240 H     1 <1>   0.0800 
 38 H       -5.9840    -5.6010     1.6360 H     1 <1>   0.1500 
 39 H       -5.6680    -7.3840    -2.2130 H     1 <1>   0.1500 
 40 H       -8.2430    -6.4870     1.7660 H     1 <1>   0.1500 
 41 H       -7.9410    -8.1990    -1.9260 H     1 <1>   0.1500 
@<TRIPOS>BOND
  1   1   2  2   
  2   1   3  2   
  3   1   4  1   
  4   1   5  1   
  5   4   6  1   
  6   4  22  1   
  7   4  23  1   
  8   5  24  1   
  9   5  25  1   
 10   5  26  1   
 11   6   7  1   
 12   6  27  1   
 13   6  28  1   
 14   7   8  2   
 15   7   9  am  
 16   9  10  1   
 17   9  29  1   
 18  10  11  1   
 19  10  12  1   
 20  10  30  1   
 21  11  13  1   
 22  11  14  1   
 23  11  31  1   
 24  12  15  1   
 25  12  32  1   
 26  12  33  1   
 27  13  15  1   
 28  13  34  1   
 29  13  35  1   
 30  14  16  1   
 31  14  36  1   
 32  14  37  1   
 33  16  17  ar  
 34  16  18  ar  
 35  17  19  ar  
 36  17  38  1   
 37  18  20  ar  
 38  18  39  1   
 39  19  21  ar  
 40  19  40  1   
 41  20  21  ar  
 42  20  41  1   
@<TRIPOS>SUBSTRUCTURE
  1 ****  14 GROUP 4 **** **** 0

# MOE 2024.06 (io_trps.svl 2023.06)
