@<TRIPOS>MOLECULE
NONAME
52 55 1 0 0 
SMALL
USER_CHARGES


@<TRIPOS>ATOM
  1 O       -4.2380     1.6440    -3.5120 O.co2 1 <1>  -0.9000 
  2 C       -3.4650     2.2870    -2.7720 C.2   1 <1>   0.9790 
  3 O       -2.4840     2.8530    -3.2960 O.co2 1 <1>  -0.9000 
  4 C       -3.7180     2.4040    -1.3230 C.ar  1 <1>   0.1310 
  5 N       -4.6670     1.6530    -0.7290 N.ar  1 <1>  -0.6200 
  6 C       -2.9770     3.3130    -0.5620 C.ar  1 <1>  -0.1500 
  7 C       -4.8920     1.8160     0.5590 C.ar  1 <1>   0.1670 
  8 C       -3.2040     3.4750     0.7880 C.ar  1 <1>  -0.1500 
  9 C       -4.1930     2.7050     1.3590 C.ar  1 <1>  -0.1500 
 10 C       -6.0110     0.9440     1.1150 C.3   1 <1>   0.4870 
 11 N       -7.0300     0.7070     0.0400 N.4   1 <1>  -0.9590 
 12 C       -7.8690     1.9100    -0.2800 C.3   1 <1>   0.3430 
 13 C       -7.8370    -0.5290     0.2370 C.3   1 <1>   0.3430 
 14 C       -8.8420     2.2890     0.8610 C.3   1 <1>   0.1440 
 15 C       -9.1690    -0.2500     0.9580 C.3   1 <1>  -0.1600 
 16 C      -10.0700     2.8800     0.1990 C.ar  1 <1>   0.1670 
 17 C       -9.1990     1.0710     1.7540 C.3   1 <1>  -0.1600 
 18 C       -8.3170     3.4820     1.7060 C.3   1 <1>  -0.1600 
 19 N      -10.9650     2.1930    -0.4650 N.ar  1 <1>  -0.6200 
 20 C      -10.1360     4.2290     0.3610 C.ar  1 <1>  -0.1430 
 21 C       -8.9650     4.7610     1.1440 C.3   1 <1>  -0.0170 
 22 C      -11.9790     2.9090    -0.9620 C.ar  1 <1>   0.7200 
 23 C      -11.2070     4.8850    -0.1920 C.ar  1 <1>   0.1600 
 24 N      -12.1330     4.2320    -0.8540 N.ar  1 <1>  -0.6200 
 25 N      -12.9540     2.2170    -1.6510 N.pl3 1 <1>  -0.8380 
 26 C      -13.9750     2.9160    -2.4810 C.3   1 <1>   0.1290 
 27 C      -13.1430     0.7470    -1.5090 C.3   1 <1>   0.1290 
 28 H       -2.2160     3.8940    -1.0570 H     1 <1>   0.1500 
 29 H       -2.6260     4.1770     1.3640 H     1 <1>   0.1500 
 30 H       -4.4040     2.8010     2.4080 H     1 <1>   0.1500 
 31 H       -6.4590     1.4100     1.9750 H     1 <1>   0.0800 
 32 H       -5.5800     0.0040     1.4140 H     1 <1>   0.0800 
 33 H       -6.4080     0.5950    -0.7940 H     1 <1>   0.4500 
 34 H       -8.4550     1.6900    -1.1580 H     1 <1>   0.0800 
 35 H       -7.2380     2.7510    -0.5220 H     1 <1>   0.0800 
 36 H       -7.2630    -1.2460     0.8010 H     1 <1>   0.0800 
 37 H       -8.0550    -0.9700    -0.7230 H     1 <1>   0.0800 
 38 H       -9.3950    -1.0750     1.6110 H     1 <1>   0.0800 
 39 H       -9.9500    -0.2260     0.2170 H     1 <1>   0.0800 
 40 H      -10.1770     1.2120     2.1840 H     1 <1>   0.0800 
 41 H       -8.5030     0.9930     2.5700 H     1 <1>   0.0800 
 42 H       -7.2440     3.5600     1.6990 H     1 <1>   0.0800 
 43 H       -8.6450     3.3730     2.7250 H     1 <1>   0.0800 
 44 H       -8.2910     5.2780     0.4820 H     1 <1>   0.0800 
 45 H       -9.2830     5.4250     1.9300 H     1 <1>   0.0800 
 46 H      -11.3080     5.9520    -0.0930 H     1 <1>   0.1500 
 47 H      -13.5630     3.8150    -2.9070 H     1 <1>   0.0800 
 48 H      -14.8200     3.1760    -1.8690 H     1 <1>   0.0800 
 49 H      -14.2980     2.2790    -3.2860 H     1 <1>   0.0800 
 50 H      -12.7310     0.3990    -0.5780 H     1 <1>   0.0800 
 51 H      -12.6510     0.2430    -2.3220 H     1 <1>   0.0800 
 52 H      -14.1920     0.5070    -1.5240 H     1 <1>   0.0800 
@<TRIPOS>BOND
  1   1   2  ar  
  2   2   3  ar  
  3   2   4  1   
  4   4   5  ar  
  5   4   6  ar  
  6   5   7  ar  
  7   6   8  ar  
  8   6  28  1   
  9   7   9  ar  
 10   7  10  1   
 11   8   9  ar  
 12   8  29  1   
 13   9  30  1   
 14  10  11  1   
 15  10  31  1   
 16  10  32  1   
 17  11  12  1   
 18  11  13  1   
 19  11  33  1   
 20  12  14  1   
 21  12  34  1   
 22  12  35  1   
 23  13  15  1   
 24  13  36  1   
 25  13  37  1   
 26  14  16  1   
 27  14  17  1   
 28  14  18  1   
 29  15  17  1   
 30  15  38  1   
 31  15  39  1   
 32  16  19  ar  
 33  16  20  ar  
 34  17  40  1   
 35  17  41  1   
 36  18  21  1   
 37  18  42  1   
 38  18  43  1   
 39  19  22  ar  
 40  20  21  1   
 41  20  23  ar  
 42  21  44  1   
 43  21  45  1   
 44  22  24  ar  
 45  22  25  1   
 46  23  24  ar  
 47  23  46  1   
 48  25  26  1   
 49  25  27  1   
 50  26  47  1   
 51  26  48  1   
 52  26  49  1   
 53  27  50  1   
 54  27  51  1   
 55  27  52  1   
@<TRIPOS>SUBSTRUCTURE
  1 ****  12 GROUP 4 **** **** 0

# MOE 2024.06 (io_trps.svl 2023.06)
