@<TRIPOS>MOLECULE
NONAME
42 43 1 0 0 
SMALL
USER_CHARGES


@<TRIPOS>ATOM
  1 S        0.0120    -0.6760     1.0480 S.o2  1 <1>   1.5000 
  2 O        0.5580    -1.8160     1.7460 O.2   1 <1>  -0.6500 
  3 O       -1.1340     0.0170     1.5840 O.2   1 <1>  -0.6500 
  4 N       -0.5080    -1.1630    -0.4750 N.am  1 <1>  -0.9140 
  5 C        1.3420     0.4890     0.6750 C.2   1 <1>  -0.0220 
  6 C       -1.0730    -2.5040    -0.6670 C.3   1 <1>   0.2760 
  7 S        0.9400     1.9370    -0.2450 S.3   1 <1>  -0.0800 
  8 C        2.6630     0.4910     0.9540 C.2   1 <1>  -0.1500 
  9 C       -2.1750    -2.9140     0.3190 C.3   1 <1>  -0.0800 
 10 C       -0.0540    -3.6490    -0.6010 C.3   1 <1>   0.1200 
 11 C        2.6010     2.5000    -0.2120 C.2   1 <1>  -0.1400 
 12 C        3.3760     1.6270     0.4550 C.2   1 <1>  -0.1500 
 13 C       -1.5580    -4.1320     1.0110 C.3   1 <1>   0.1200 
 14 C       -3.4610    -3.3020    -0.4390 C.3   1 <1>  -0.0550 
 15 O       -0.7120    -4.6840     0.0590 O.3   1 <1>  -0.5600 
 16 C        2.9040     3.8150    -0.9000 C.3   1 <1>  -0.0600 
 17 S       -4.9020    -3.5020     0.6100 S.o2  1 <1>   1.3330 
 18 O       -5.2290    -2.2010     1.1460 O.2   1 <1>  -0.6500 
 19 O       -4.7210    -4.6230     1.5050 O.2   1 <1>  -0.6500 
 20 N       -6.1060    -3.9270    -0.5090 N.am  1 <1>  -0.8490 
 21 C       -7.4410    -3.5060    -0.0710 C.3   1 <1>   0.1160 
 22 C       -6.1190    -5.3590    -0.8320 C.3   1 <1>   0.1160 
 23 H       -1.2460    -0.4890    -0.6720 H     1 <1>   0.4200 
 24 H       -1.4730    -2.5240    -1.6670 H     1 <1>   0.0800 
 25 H        3.1750    -0.2800     1.5040 H     1 <1>   0.1500 
 26 H       -2.4090    -2.1510     1.0400 H     1 <1>   0.0800 
 27 H        0.8240    -3.3970    -0.0350 H     1 <1>   0.0800 
 28 H        0.2270    -3.9930    -1.5800 H     1 <1>   0.0800 
 29 H        4.4350     1.7310     0.6230 H     1 <1>   0.1500 
 30 H       -2.2720    -4.8760     1.3190 H     1 <1>   0.0800 
 31 H       -0.9610    -3.8410     1.8590 H     1 <1>   0.0800 
 32 H       -3.2860    -4.2070    -0.9870 H     1 <1>   0.0800 
 33 H       -3.6870    -2.5310    -1.1500 H     1 <1>   0.0800 
 34 H        3.9490     4.0500    -0.8090 H     1 <1>   0.0800 
 35 H        2.3290     4.6040    -0.4500 H     1 <1>   0.0800 
 36 H        2.6510     3.7500    -1.9430 H     1 <1>   0.0800 
 37 H       -8.1790    -3.7780    -0.8070 H     1 <1>   0.0800 
 38 H       -7.4690    -2.4360     0.0520 H     1 <1>   0.0800 
 39 H       -7.6900    -3.9690     0.8700 H     1 <1>   0.0800 
 40 H       -6.8360    -5.5550    -1.6110 H     1 <1>   0.0800 
 41 H       -6.3790    -5.9400     0.0380 H     1 <1>   0.0800 
 42 H       -5.1490    -5.6720    -1.1770 H     1 <1>   0.0800 
@<TRIPOS>BOND
  1   1   2  2   
  2   1   3  2   
  3   1   4  am  
  4   1   5  1   
  5   4   6  1   
  6   4  23  1   
  7   5   7  1   
  8   5   8  2   
  9   6   9  1   
 10   6  10  1   
 11   6  24  1   
 12   7  11  1   
 13   8  12  1   
 14   8  25  1   
 15   9  13  1   
 16   9  14  1   
 17   9  26  1   
 18  10  15  1   
 19  10  27  1   
 20  10  28  1   
 21  11  12  2   
 22  11  16  1   
 23  12  29  1   
 24  13  15  1   
 25  13  30  1   
 26  13  31  1   
 27  14  17  1   
 28  14  32  1   
 29  14  33  1   
 30  16  34  1   
 31  16  35  1   
 32  16  36  1   
 33  17  18  2   
 34  17  19  2   
 35  17  20  am  
 36  20  21  1   
 37  20  22  1   
 38  21  37  1   
 39  21  38  1   
 40  21  39  1   
 41  22  40  1   
 42  22  41  1   
 43  22  42  1   
@<TRIPOS>SUBSTRUCTURE
  1 ****   4 GROUP 4 **** **** 0

# MOE 2024.06 (io_trps.svl 2023.06)
