@<TRIPOS>MOLECULE
NONAME
49 52 1 0 0 
SMALL
USER_CHARGES


@<TRIPOS>ATOM
  1 O       -1.1730    -0.5360     0.3510 O.2   1 <1>  -0.5700 
  2 C       -0.6990    -1.6540     0.2960 C.2   1 <1>   0.5440 
  3 N       -1.4790    -2.6310     0.8060 N.am  1 <1>  -0.8000 
  4 C        0.6190    -1.8820    -0.2690 C.ar  1 <1>   0.0860 
  5 C        1.0890    -3.1470    -0.6930 C.ar  1 <1>   0.4100 
  6 C        1.4950    -0.8100    -0.4030 C.ar  1 <1>  -0.1500 
  7 N        2.3100    -3.3640    -1.1820 N.ar  1 <1>  -0.6200 
  8 N        0.3030    -4.2800    -0.6580 N.pl3 1 <1>  -0.8380 
  9 C        2.7510    -1.0350    -0.9150 C.ar  1 <1>  -0.1500 
 10 C        3.1040    -2.3200    -1.2820 C.ar  1 <1>   0.1600 
 11 C        0.8220    -5.4800     0.0410 C.3   1 <1>   0.2090 
 12 C       -0.6110    -4.5230    -1.8080 C.3   1 <1>   0.2090 
 13 C       -0.3420    -6.3110     0.5930 C.3   1 <1>  -0.1600 
 14 C       -1.2050    -5.9350    -1.7670 C.3   1 <1>  -0.1600 
 15 C       -1.5770    -6.3550    -0.3340 C.3   1 <1>   0.4240 
 16 O       -2.4610    -5.3830     0.1800 O.3   1 <1>  -0.5600 
 17 C       -2.2140    -7.7630    -0.3290 C.ar  1 <1>  -0.1440 
 18 C       -3.8120    -5.5020    -0.1400 C.3   1 <1>   0.1200 
 19 C       -3.5300    -7.9610     0.0770 C.ar  1 <1>  -0.1440 
 20 C       -1.4770    -8.8670    -0.7460 C.ar  1 <1>  -0.1500 
 21 C       -4.3590    -6.7690     0.5110 C.3   1 <1>  -0.0170 
 22 C       -4.0880    -9.2300     0.0810 C.ar  1 <1>  -0.1500 
 23 C       -2.0330   -10.1330    -0.7460 C.ar  1 <1>  -0.1500 
 24 C       -3.3390   -10.3260    -0.3320 C.ar  1 <1>   0.0830 
 25 O       -3.8070   -11.5990    -0.3590 O.3   1 <1>  -0.3630 
 26 C       -5.1170   -11.9080     0.0630 C.3   1 <1>   0.0400 
 27 H       -2.4210    -2.4190     1.1240 H     1 <1>   0.3700 
 28 H       -1.2830    -3.6220     0.5850 H     1 <1>   0.3700 
 29 H        1.1920     0.1790    -0.1050 H     1 <1>   0.1500 
 30 H        3.4510    -0.2270    -1.0290 H     1 <1>   0.1500 
 31 H        4.0900    -2.4920    -1.6790 H     1 <1>   0.1500 
 32 H        1.4780    -5.1850     0.8420 H     1 <1>   0.0800 
 33 H        1.3950    -6.0640    -0.6590 H     1 <1>   0.0800 
 34 H       -0.0750    -4.3760    -2.7310 H     1 <1>   0.0800 
 35 H       -1.4100    -3.8020    -1.7660 H     1 <1>   0.0800 
 36 H       -0.6300    -5.9230     1.5530 H     1 <1>   0.0800 
 37 H        0.0340    -7.3000     0.7680 H     1 <1>   0.0800 
 38 H       -0.4790    -6.6190    -2.1630 H     1 <1>   0.0800 
 39 H       -2.0620    -5.9900    -2.4090 H     1 <1>   0.0800 
 40 H       -3.9230    -5.5350    -1.2090 H     1 <1>   0.0800 
 41 H       -4.3190    -4.6330     0.2420 H     1 <1>   0.0800 
 42 H       -0.4600    -8.7520    -1.0750 H     1 <1>   0.1500 
 43 H       -5.3850    -6.9010     0.2190 H     1 <1>   0.0800 
 44 H       -4.3190    -6.6680     1.5810 H     1 <1>   0.0800 
 45 H       -5.1030    -9.3510     0.4050 H     1 <1>   0.1500 
 46 H       -1.4580   -10.9810    -1.0680 H     1 <1>   0.1500 
 47 H       -5.2580   -12.9690    -0.0390 H     1 <1>   0.0800 
 48 H       -5.8180   -11.3850    -0.5630 H     1 <1>   0.0800 
 49 H       -5.2290   -11.6210     1.0930 H     1 <1>   0.0800 
@<TRIPOS>BOND
  1   1   2  2   
  2   2   3  am  
  3   2   4  1   
  4   3  27  1   
  5   3  28  1   
  6   4   5  ar  
  7   4   6  ar  
  8   5   7  ar  
  9   5   8  1   
 10   6   9  ar  
 11   6  29  1   
 12   7  10  ar  
 13   8  11  1   
 14   8  12  1   
 15   9  10  ar  
 16   9  30  1   
 17  10  31  1   
 18  11  13  1   
 19  11  32  1   
 20  11  33  1   
 21  12  14  1   
 22  12  34  1   
 23  12  35  1   
 24  13  15  1   
 25  13  36  1   
 26  13  37  1   
 27  14  15  1   
 28  14  38  1   
 29  14  39  1   
 30  15  16  1   
 31  15  17  1   
 32  16  18  1   
 33  17  19  ar  
 34  17  20  ar  
 35  18  21  1   
 36  18  40  1   
 37  18  41  1   
 38  19  21  1   
 39  19  22  ar  
 40  20  23  ar  
 41  20  42  1   
 42  21  43  1   
 43  21  44  1   
 44  22  24  ar  
 45  22  45  1   
 46  23  24  ar  
 47  23  46  1   
 48  24  25  1   
 49  25  26  1   
 50  26  47  1   
 51  26  48  1   
 52  26  49  1   
@<TRIPOS>SUBSTRUCTURE
  1 ****  15 GROUP 4 **** **** 0

# MOE 2024.06 (io_trps.svl 2023.06)
