@<TRIPOS>MOLECULE
NONAME
49 52 1 0 0 
SMALL
USER_CHARGES


@<TRIPOS>ATOM
  1 O       -1.0450     1.1330    -1.8450 O.2   1 <1>  -0.5700 
  2 C       -1.4660     1.0040    -0.7090 C.2   1 <1>   0.7160 
  3 N       -1.9120    -0.2370    -0.3030 N.am  1 <1>  -0.6600 
  4 C       -1.4670     2.1330     0.1630 C.2   1 <1>  -0.0860 
  5 C       -2.0680    -1.3830    -1.2470 C.3   1 <1>   0.1400 
  6 C       -2.5240    -0.5080     1.0330 C.3   1 <1>   0.1400 
  7 C       -2.6120     2.7960     0.6180 C.2   1 <1>   0.3720 
  8 C       -0.4430     2.8110     0.7480 C.2   1 <1>   0.0870 
  9 C       -3.5360    -1.8400    -1.2910 C.3   1 <1>   0.1200 
 10 C       -3.9700    -0.9990     0.8620 C.3   1 <1>   0.1200 
 11 N       -2.2970     3.7550     1.4170 N.2   1 <1>  -0.4100 
 12 N       -3.9300     2.4540     0.2740 N.pl3 1 <1>  -0.8210 
 13 O       -0.9920     3.7520     1.4750 O.3   1 <1>  -0.0190 
 14 C        0.9960     2.6710     0.7140 C.ar  1 <1>   0.0530 
 15 O       -4.0160    -2.1020    -0.0010 O.3   1 <1>  -0.5600 
 16 C       -5.0340     3.1570     0.9790 C.3   1 <1>   0.2090 
 17 C       -4.2340     2.4210    -1.1830 C.3   1 <1>   0.2090 
 18 C        1.8220     3.6820     1.2110 C.ar  1 <1>  -0.1500 
 19 C        1.6300     1.5370     0.1970 C.ar  1 <1>  -0.1500 
 20 C       -6.2110     3.0960     0.0200 C.3   1 <1>  -0.1600 
 21 C       -5.5620     3.1500    -1.3560 C.3   1 <1>  -0.1600 
 22 C        3.1990     3.5700     1.1940 C.ar  1 <1>  -0.1500 
 23 C        3.0070     1.4170     0.1750 C.ar  1 <1>  -0.1500 
 24 C        3.8060     2.4390     0.6770 C.ar  1 <1>   0.0830 
 25 O        5.1590     2.4040     0.6940 O.3   1 <1>  -0.3630 
 26 C        5.8760     1.3120     0.1620 C.3   1 <1>   0.0400 
 27 H       -1.4520    -2.2010    -0.9170 H     1 <1>   0.0800 
 28 H       -1.7520    -1.1120    -2.2390 H     1 <1>   0.0800 
 29 H       -2.5190     0.3680     1.6560 H     1 <1>   0.0800 
 30 H       -1.9520    -1.2690     1.5360 H     1 <1>   0.0800 
 31 H       -3.6260    -2.7460    -1.8640 H     1 <1>   0.0800 
 32 H       -4.1540    -1.0830    -1.7410 H     1 <1>   0.0800 
 33 H       -4.5910    -0.2170     0.4620 H     1 <1>   0.0800 
 34 H       -4.3720    -1.3070     1.8110 H     1 <1>   0.0800 
 35 H       -4.7680     4.1860     1.1590 H     1 <1>   0.0800 
 36 H       -5.2570     2.6740     1.9150 H     1 <1>   0.0800 
 37 H       -4.3300     1.3950    -1.4960 H     1 <1>   0.0800 
 38 H       -3.4570     2.8960    -1.7610 H     1 <1>   0.0800 
 39 H        1.3810     4.5760     1.6170 H     1 <1>   0.1500 
 40 H        1.0470     0.7270    -0.1960 H     1 <1>   0.1500 
 41 H       -6.9020     3.9050     0.1820 H     1 <1>   0.0800 
 42 H       -6.7230     2.1590     0.1520 H     1 <1>   0.0800 
 43 H       -6.1700     2.6960    -2.1170 H     1 <1>   0.0800 
 44 H       -5.3630     4.1720    -1.6270 H     1 <1>   0.0800 
 45 H        3.8150     4.3600     1.5820 H     1 <1>   0.1500 
 46 H        3.4400     0.5260    -0.2360 H     1 <1>   0.1500 
 47 H        6.9260     1.5140     0.2760 H     1 <1>   0.0800 
 48 H        5.6350     1.2110    -0.8810 H     1 <1>   0.0800 
 49 H        5.6130     0.4230     0.7070 H     1 <1>   0.0800 
@<TRIPOS>BOND
  1   1   2  2   
  2   2   3  am  
  3   2   4  1   
  4   3   5  1   
  5   3   6  1   
  6   4   7  1   
  7   4   8  2   
  8   5   9  1   
  9   5  27  1   
 10   5  28  1   
 11   6  10  1   
 12   6  29  1   
 13   6  30  1   
 14   7  11  2   
 15   7  12  1   
 16   8  13  1   
 17   8  14  1   
 18   9  15  1   
 19   9  31  1   
 20   9  32  1   
 21  10  15  1   
 22  10  33  1   
 23  10  34  1   
 24  11  13  1   
 25  12  16  1   
 26  12  17  1   
 27  14  18  ar  
 28  14  19  ar  
 29  16  20  1   
 30  16  35  1   
 31  16  36  1   
 32  17  21  1   
 33  17  37  1   
 34  17  38  1   
 35  18  22  ar  
 36  18  39  1   
 37  19  23  ar  
 38  19  40  1   
 39  20  21  1   
 40  20  41  1   
 41  20  42  1   
 42  21  43  1   
 43  21  44  1   
 44  22  24  ar  
 45  22  45  1   
 46  23  24  ar  
 47  23  46  1   
 48  24  25  1   
 49  25  26  1   
 50  26  47  1   
 51  26  48  1   
 52  26  49  1   
@<TRIPOS>SUBSTRUCTURE
  1 ****   4 GROUP 4 **** **** 0

# MOE 2024.06 (io_trps.svl 2023.06)
