@<TRIPOS>MOLECULE
NONAME
52 55 1 0 0 
SMALL
USER_CHARGES


@<TRIPOS>ATOM
  1 S        0.5480     0.8420     1.4360 S.o2  1 <1>   1.4470 
  2 O       -0.2910     0.1120     2.3640 O.2   1 <1>  -0.6500 
  3 O        1.4250     1.8670     1.9600 O.2   1 <1>  -0.6500 
  4 N       -0.5080     1.5930     0.3390 N.am  1 <1>  -0.8490 
  5 C        1.4950    -0.3200     0.3950 C.ar  1 <1>  -0.0090 
  6 C       -1.4130     0.6360    -0.3220 C.3   1 <1>   0.1960 
  7 C       -1.1680     2.7880     0.9000 C.3   1 <1>   0.1960 
  8 C        2.4210     0.0910    -0.5690 C.ar  1 <1>  -0.1440 
  9 C        1.2780    -1.6860     0.5390 C.ar  1 <1>  -0.1500 
 10 C       -2.5730     1.3600    -1.0030 C.3   1 <1>  -0.1600 
 11 C       -2.6210     2.5020     1.2710 C.3   1 <1>  -0.1600 
 12 C        3.0930    -0.8480    -1.3380 C.ar  1 <1>  -0.1500 
 13 C        2.7250     1.5650    -0.8120 C.3   1 <1>  -0.0970 
 14 C        1.9420    -2.6390    -0.2250 C.ar  1 <1>  -0.0230 
 15 C       -3.4290     2.1330     0.0160 C.3   1 <1>   0.4180 
 16 C        2.8580    -2.1970    -1.1710 C.ar  1 <1>  -0.1500 
 17 N        1.6830    -4.0270    -0.0430 N.pl3 1 <1>   0.5930 
 18 O       -3.8100     3.3150    -0.6440 O.3   1 <1>  -0.5600 
 19 C       -4.6580     1.3070     0.3940 C.2   1 <1>  -0.2880 
 20 N        0.4500    -4.5240     0.2340 N.2   1 <1>  -0.7070 
 21 C        2.5770    -5.0450    -0.1160 C.2   1 <1>  -0.3020 
 22 C       -4.9560     3.9810    -0.1890 C.3   1 <1>   0.1200 
 23 C       -5.9190     1.7140     0.2270 C.2   1 <1>  -0.2760 
 24 C        0.6000    -5.8080     0.3220 C.2   1 <1>   0.1390 
 25 C        1.9160    -6.1980     0.1110 C.2   1 <1>  -0.1500 
 26 C       -6.1980     3.0930    -0.3400 C.3   1 <1>  -0.0220 
 27 C       -7.1440     0.8820     0.5600 C.3   1 <1>  -0.1020 
 28 H       -1.8150    -0.0590     0.3980 H     1 <1>   0.0800 
 29 H       -0.8600     0.0720    -1.0550 H     1 <1>   0.0800 
 30 H       -1.1480     3.5690     0.1580 H     1 <1>   0.0800 
 31 H       -0.6370     3.1550     1.7630 H     1 <1>   0.0800 
 32 H        0.5630    -2.0290     1.2720 H     1 <1>   0.1500 
 33 H       -3.1850     0.6470    -1.5240 H     1 <1>   0.0800 
 34 H       -2.1620     2.0340    -1.7330 H     1 <1>   0.0800 
 35 H       -3.0500     3.3530     1.7630 H     1 <1>   0.0800 
 36 H       -2.6370     1.6900     1.9760 H     1 <1>   0.0800 
 37 H        3.8080    -0.5300    -2.0780 H     1 <1>   0.1500 
 38 H        1.8190     2.1140    -0.9960 H     1 <1>   0.0800 
 39 H        3.3670     1.6950    -1.6650 H     1 <1>   0.0800 
 40 H        3.2200     1.9870     0.0450 H     1 <1>   0.0800 
 41 H        3.3870    -2.9060    -1.7850 H     1 <1>   0.1500 
 42 H       -4.4020     0.3470     0.8050 H     1 <1>   0.1500 
 43 H        3.6180    -4.8820    -0.3190 H     1 <1>   0.1500 
 44 H       -5.0670     4.8790    -0.7700 H     1 <1>   0.0800 
 45 H       -4.8140     4.2510     0.8410 H     1 <1>   0.0800 
 46 H       -0.2090    -6.4880     0.5350 H     1 <1>   0.1500 
 47 H        2.2900    -7.2070     0.1330 H     1 <1>   0.1500 
 48 H       -6.4670     3.0140    -1.3780 H     1 <1>   0.0800 
 49 H       -7.0140     3.5550     0.1860 H     1 <1>   0.0800 
 50 H       -7.7430     0.7360    -0.3210 H     1 <1>   0.0800 
 51 H       -7.7380     1.3770     1.3070 H     1 <1>   0.0800 
 52 H       -6.8530    -0.0810     0.9390 H     1 <1>   0.0800 
@<TRIPOS>BOND
  1   1   2  2   
  2   1   3  2   
  3   1   4  am  
  4   1   5  1   
  5   4   6  1   
  6   4   7  1   
  7   5   8  ar  
  8   5   9  ar  
  9   6  10  1   
 10   6  28  1   
 11   6  29  1   
 12   7  11  1   
 13   7  30  1   
 14   7  31  1   
 15   8  12  ar  
 16   8  13  1   
 17   9  14  ar  
 18   9  32  1   
 19  10  15  1   
 20  10  33  1   
 21  10  34  1   
 22  11  15  1   
 23  11  35  1   
 24  11  36  1   
 25  12  16  ar  
 26  12  37  1   
 27  13  38  1   
 28  13  39  1   
 29  13  40  1   
 30  14  16  ar  
 31  14  17  1   
 32  15  18  1   
 33  15  19  1   
 34  16  41  1   
 35  17  20  1   
 36  17  21  1   
 37  18  22  1   
 38  19  23  2   
 39  19  42  1   
 40  20  24  2   
 41  21  25  2   
 42  21  43  1   
 43  22  26  1   
 44  22  44  1   
 45  22  45  1   
 46  23  26  1   
 47  23  27  1   
 48  24  25  1   
 49  24  46  1   
 50  25  47  1   
 51  26  48  1   
 52  26  49  1   
 53  27  50  1   
 54  27  51  1   
 55  27  52  1   
@<TRIPOS>SUBSTRUCTURE
  1 ****   6 GROUP 4 **** **** 0

# MOE 2024.06 (io_trps.svl 2023.06)
