@<TRIPOS>MOLECULE
NONAME
41 42 1 0 0 
SMALL
USER_CHARGES


@<TRIPOS>ATOM
  1 O        3.5280    -1.4540     0.3250 O.2   1 <1>  -0.5700 
  2 C        2.4860    -1.4740    -0.2900 C.2   1 <1>   0.5690 
  3 N        1.6850    -0.3710    -0.4340 N.am  1 <1>  -0.4940 
  4 C        2.0170    -2.7700    -0.9450 C.3   1 <1>   0.2370 
  5 C        1.7280     0.8910     0.2010 C.2   1 <1>  -0.0880 
  6 N        0.5640    -2.9020    -0.6680 N.pl3 1 <1>   0.3140 
  7 C        2.8250    -4.0360    -0.5860 C.3   1 <1>  -0.2400 
  8 N        2.8190     1.6750     0.4420 N.pl3 1 <1>   0.3140 
  9 C        0.6580     1.5610     0.6880 C.2   1 <1>  -0.1810 
 10 N       -0.3090    -2.4440    -1.5920 N.2   1 <1>  -0.7070 
 11 C       -0.0910    -3.2720     0.4640 C.2   1 <1>  -0.3320 
 12 N        2.4620     2.8180     1.0820 N.2   1 <1>  -0.7070 
 13 C        4.2260     1.4080     0.0470 C.3   1 <1>   0.0960 
 14 C        1.1760     2.7350     1.2190 C.2   1 <1>   0.1390 
 15 C       -0.8040     1.1500     0.6920 C.3   1 <1>  -0.0590 
 16 C       -1.4790    -2.5800    -1.0560 C.2   1 <1>   0.1080 
 17 C       -1.4080    -3.0900     0.2310 C.2   1 <1>  -0.1500 
 18 C        0.5400    -3.7670     1.7550 C.3   1 <1>  -0.0600 
 19 C        4.9810     2.6730    -0.3890 C.3   1 <1>  -0.2400 
 20 C       -2.7510    -2.2060    -1.7790 C.3   1 <1>  -0.0590 
 21 H        0.7870    -0.5810    -0.8950 H     1 <1>   0.3700 
 22 H        2.1120    -2.6280    -2.0050 H     1 <1>   0.0800 
 23 H        2.9270    -4.1440     0.4770 H     1 <1>   0.0800 
 24 H        3.8150    -3.9530    -0.9970 H     1 <1>   0.0800 
 25 H        2.3550    -4.9100    -1.0000 H     1 <1>   0.0800 
 26 H        4.2210     0.7100    -0.7680 H     1 <1>   0.0800 
 27 H        4.7220     0.9500     0.8840 H     1 <1>   0.0800 
 28 H        0.5860     3.5000     1.6950 H     1 <1>   0.1500 
 29 H       -0.9160     0.1350     0.3560 H     1 <1>   0.0800 
 30 H       -1.3660     1.7950     0.0410 H     1 <1>   0.0800 
 31 H       -1.2010     1.2260     1.6880 H     1 <1>   0.0800 
 32 H       -2.2400    -3.2800     0.8850 H     1 <1>   0.1500 
 33 H        1.3050    -3.0860     2.0860 H     1 <1>   0.0800 
 34 H        0.9650    -4.7440     1.6150 H     1 <1>   0.0800 
 35 H       -0.2070    -3.8350     2.5270 H     1 <1>   0.0800 
 36 H        4.4680     3.1470    -1.2060 H     1 <1>   0.0800 
 37 H        5.9750     2.4150    -0.7060 H     1 <1>   0.0800 
 38 H        5.0540     3.3640     0.4330 H     1 <1>   0.0800 
 39 H       -2.7210    -1.1660    -2.0470 H     1 <1>   0.0800 
 40 H       -3.6060    -2.3850    -1.1550 H     1 <1>   0.0800 
 41 H       -2.8390    -2.7930    -2.6740 H     1 <1>   0.0800 
@<TRIPOS>BOND
  1   1   2  2   
  2   2   3  am  
  3   2   4  1   
  4   3   5  1   
  5   3  21  1   
  6   4   6  1   
  7   4   7  1   
  8   4  22  1   
  9   5   8  1   
 10   5   9  2   
 11   6  10  1   
 12   6  11  1   
 13   7  23  1   
 14   7  24  1   
 15   7  25  1   
 16   8  12  1   
 17   8  13  1   
 18   9  14  1   
 19   9  15  1   
 20  10  16  2   
 21  11  17  2   
 22  11  18  1   
 23  12  14  2   
 24  13  19  1   
 25  13  26  1   
 26  13  27  1   
 27  14  28  1   
 28  15  29  1   
 29  15  30  1   
 30  15  31  1   
 31  16  17  1   
 32  16  20  1   
 33  17  32  1   
 34  18  33  1   
 35  18  34  1   
 36  18  35  1   
 37  19  36  1   
 38  19  37  1   
 39  19  38  1   
 40  20  39  1   
 41  20  40  1   
 42  20  41  1   
@<TRIPOS>SUBSTRUCTURE
  1 ****   3 GROUP 4 **** **** 0

# MOE 2024.06 (io_trps.svl 2023.06)
