@<TRIPOS>MOLECULE
NONAME
49 52 1 0 0 
SMALL
USER_CHARGES


@<TRIPOS>ATOM
  1 O        4.0170    -1.5380    -2.2400 O.2   1 <1>  -0.5700 
  2 C        3.2830    -1.5840    -1.2690 C.2   1 <1>   0.5440 
  3 N        3.1620    -0.4340    -0.5300 N.am  1 <1>  -0.6600 
  4 C        2.6580    -2.8230    -0.8430 C.ar  1 <1>   0.0860 
  5 C        3.8380    -0.4400     0.8180 C.3   1 <1>   0.2200 
  6 C        3.0080     0.8760    -1.2450 C.3   1 <1>   0.1400 
  7 C        3.2130    -4.0620    -1.1620 C.ar  1 <1>  -0.1500 
  8 C        1.4910    -2.8320    -0.0790 C.ar  1 <1>  -0.1500 
  9 C        3.2680     0.6200     1.7730 C.3   1 <1>   0.1200 
 10 C        5.3770    -0.3080     0.6720 C.3   1 <1>   0.3430 
 11 C        3.9750     1.9910    -0.8010 C.3   1 <1>  -0.0800 
 12 C        2.6470    -5.2410    -0.7190 C.ar  1 <1>  -0.1500 
 13 C        0.9230    -4.0130     0.3620 C.ar  1 <1>  -0.1500 
 14 O        3.9230     1.8420     1.6210 O.3   1 <1>  -0.5600 
 15 N        5.7850     0.1920    -0.6870 N.4   1 <1>  -0.9590 
 16 C        3.5550     2.6220     0.5350 C.3   1 <1>   0.1200 
 17 C        5.4800     1.6450    -0.8460 C.3   1 <1>   0.3430 
 18 C        1.4900    -5.2490     0.0570 C.ar  1 <1>   0.0540 
 19 C        7.2790    -0.0240    -0.8620 C.3   1 <1>   0.2370 
 20 C        0.9170    -6.4940     0.5260 C.2   1 <1>   0.2350 
 21 C        8.1460     0.6690     0.1930 C.2   1 <1>   0.9060 
 22 N        1.6160    -7.5830     0.7410 N.2   1 <1>  -0.7070 
 23 C       -0.4340    -6.7160     0.8150 C.2   1 <1>  -0.1500 
 24 O        8.3470     0.0710     1.2550 O.co2 1 <1>  -0.9000 
 25 O        8.4870     1.8370    -0.0150 O.co2 1 <1>  -0.9000 
 26 N        0.7310    -8.4970     1.1670 N.pl3 1 <1>   0.3000 
 27 C       -0.5170    -7.9970     1.2210 C.2   1 <1>  -0.3020 
 28 H        3.6440    -1.3910     1.2820 H     1 <1>   0.0800 
 29 H        3.1340     0.7190    -2.3040 H     1 <1>   0.0800 
 30 H        1.9950     1.2150    -1.1070 H     1 <1>   0.0800 
 31 H        4.1060    -4.0980    -1.7640 H     1 <1>   0.1500 
 32 H        1.0210    -1.8980     0.1740 H     1 <1>   0.1500 
 33 H        3.4490     0.3080     2.7870 H     1 <1>   0.0800 
 34 H        2.2080     0.7500     1.6420 H     1 <1>   0.0800 
 35 H        5.8190    -1.2770     0.8340 H     1 <1>   0.0800 
 36 H        5.7680     0.3440     1.4380 H     1 <1>   0.0800 
 37 H        3.8450     2.7820    -1.5170 H     1 <1>   0.0800 
 38 H        3.1020    -6.1830    -0.9730 H     1 <1>   0.1500 
 39 H        0.0290    -3.9780     0.9570 H     1 <1>   0.1500 
 40 H        5.2460    -0.3520    -1.3910 H     1 <1>   0.4500 
 41 H        2.4920     2.7970     0.5770 H     1 <1>   0.0800 
 42 H        4.0530     3.5690     0.6570 H     1 <1>   0.0800 
 43 H        5.9990     2.2060    -0.0830 H     1 <1>   0.0800 
 44 H        5.8740     1.9680    -1.7960 H     1 <1>   0.0800 
 45 H        7.5010    -1.0740    -0.8130 H     1 <1>   0.0800 
 46 H        7.5900     0.3430    -1.8230 H     1 <1>   0.0800 
 47 H       -1.2260    -5.9960     0.7180 H     1 <1>   0.1500 
 48 H        1.0080    -9.4550     1.4140 H     1 <1>   0.2700 
 49 H       -1.3700    -8.5710     1.5360 H     1 <1>   0.1500 
@<TRIPOS>BOND
  1   1   2  2   
  2   2   3  am  
  3   2   4  1   
  4   3   5  1   
  5   3   6  1   
  6   4   7  ar  
  7   4   8  ar  
  8   5   9  1   
  9   5  10  1   
 10   5  28  1   
 11   6  11  1   
 12   6  29  1   
 13   6  30  1   
 14   7  12  ar  
 15   7  31  1   
 16   8  13  ar  
 17   8  32  1   
 18   9  14  1   
 19   9  33  1   
 20   9  34  1   
 21  10  15  1   
 22  10  35  1   
 23  10  36  1   
 24  11  16  1   
 25  11  17  1   
 26  11  37  1   
 27  12  18  ar  
 28  12  38  1   
 29  13  18  ar  
 30  13  39  1   
 31  14  16  1   
 32  15  17  1   
 33  15  19  1   
 34  15  40  1   
 35  16  41  1   
 36  16  42  1   
 37  17  43  1   
 38  17  44  1   
 39  18  20  1   
 40  19  21  1   
 41  19  45  1   
 42  19  46  1   
 43  20  22  2   
 44  20  23  1   
 45  21  24  ar  
 46  21  25  ar  
 47  22  26  1   
 48  23  27  2   
 49  23  47  1   
 50  26  27  1   
 51  26  48  1   
 52  27  49  1   
@<TRIPOS>SUBSTRUCTURE
  1 ****   2 GROUP 4 **** **** 0

# MOE 2024.06 (io_trps.svl 2023.06)
