@<TRIPOS>MOLECULE
NONAME
50 52 1 0 0 
SMALL
USER_CHARGES


@<TRIPOS>ATOM
  1 O       -4.5740     0.7310     2.3000 O.2   1 <1>  -0.5700 
  2 C       -3.8910     0.8650     1.3030 C.2   1 <1>   0.5440 
  3 N       -4.0200    -0.0710     0.3080 N.am  1 <1>  -0.6600 
  4 C       -2.9820     1.9770     1.1920 C.ar  1 <1>   0.0860 
  5 C       -3.0970    -1.2550     0.3770 C.3   1 <1>   0.3640 
  6 C       -5.4050    -0.4110    -0.1190 C.3   1 <1>   0.1400 
  7 C       -2.4150     2.5790     2.3000 C.ar  1 <1>   0.1600 
  8 C       -2.6130     2.5300    -0.0210 C.ar  1 <1>   0.1600 
  9 C       -1.6550    -0.7380     0.3390 C.ar  1 <1>  -0.1440 
 10 C       -3.3370    -2.3210    -0.7400 C.3   1 <1>   0.2000 
 11 C       -5.3910    -1.3250    -1.3450 C.3   1 <1>   0.1200 
 12 N       -1.5780     3.5870     2.2270 N.ar  1 <1>  -0.6200 
 13 N       -1.7840     3.5380    -0.1370 N.ar  1 <1>  -0.6200 
 14 C       -0.8590    -0.8390     1.4720 C.ar  1 <1>  -0.1500 
 15 C       -1.1270    -0.1480    -0.8030 C.ar  1 <1>  -0.1500 
 16 O       -4.6980    -2.4950    -1.0410 O.3   1 <1>  -0.5600 
 17 C       -2.8130    -3.7230    -0.3740 C.3   1 <1>   0.1200 
 18 C       -1.2950     4.0150     1.0050 C.ar  1 <1>   0.7200 
 19 C        0.4370    -0.3550     1.4660 C.ar  1 <1>  -0.1500 
 20 C        0.1690     0.3370    -0.8090 C.ar  1 <1>  -0.1500 
 21 O       -1.5350    -3.6990     0.1770 O.3   1 <1>  -0.6800 
 22 N       -0.4160     5.0330     0.9590 N.pl3 1 <1>  -0.8690 
 23 C        0.9510     0.2340     0.3260 C.ar  1 <1>  -0.1500 
 24 C        0.2380     5.5820    -0.2260 C.3   1 <1>   0.2890 
 25 C        1.5770     4.8750    -0.3970 C.3   1 <1>  -0.2400 
 26 C        0.4210     7.0790    -0.0090 C.3   1 <1>  -0.2400 
 27 H       -3.2650    -1.7420     1.3230 H     1 <1>   0.0800 
 28 H       -5.9200    -0.9040     0.6890 H     1 <1>   0.0800 
 29 H       -5.9380     0.4950    -0.3490 H     1 <1>   0.0800 
 30 H       -2.6690     2.2040     3.2770 H     1 <1>   0.1500 
 31 H       -3.0250     2.1160    -0.9240 H     1 <1>   0.1500 
 32 H       -2.8590    -2.0070    -1.6490 H     1 <1>   0.0800 
 33 H       -4.9240    -0.8440    -2.1860 H     1 <1>   0.0800 
 34 H       -6.3960    -1.6010    -1.6120 H     1 <1>   0.0800 
 35 H       -1.2450    -1.2950     2.3680 H     1 <1>   0.1500 
 36 H       -1.7240    -0.0460    -1.6920 H     1 <1>   0.1500 
 37 H       -2.7850    -4.3460    -1.2510 H     1 <1>   0.0800 
 38 H       -3.4620    -4.1760     0.3560 H     1 <1>   0.0800 
 39 H        1.0440    -0.4350     2.3510 H     1 <1>   0.1500 
 40 H        0.5670     0.8020    -1.6940 H     1 <1>   0.1500 
 41 H       -0.9130    -3.1730    -0.3680 H     1 <1>   0.4000 
 42 H       -0.0310     5.2990     1.8610 H     1 <1>   0.4000 
 43 H        1.9580     0.6160     0.3250 H     1 <1>   0.1500 
 44 H       -0.3760     5.4180    -1.0980 H     1 <1>   0.0800 
 45 H        2.1990     5.0260     0.4660 H     1 <1>   0.0800 
 46 H        2.0850     5.2580    -1.2630 H     1 <1>   0.0800 
 47 H        1.4130     3.8220    -0.5380 H     1 <1>   0.0800 
 48 H        1.0340     7.2660     0.8540 H     1 <1>   0.0800 
 49 H       -0.5380     7.5450     0.1260 H     1 <1>   0.0800 
 50 H        0.8930     7.5180    -0.8690 H     1 <1>   0.0800 
@<TRIPOS>BOND
  1   1   2  2   
  2   2   3  am  
  3   2   4  1   
  4   3   5  1   
  5   3   6  1   
  6   4   7  ar  
  7   4   8  ar  
  8   5   9  1   
  9   5  10  1   
 10   5  27  1   
 11   6  11  1   
 12   6  28  1   
 13   6  29  1   
 14   7  12  ar  
 15   7  30  1   
 16   8  13  ar  
 17   8  31  1   
 18   9  14  ar  
 19   9  15  ar  
 20  10  16  1   
 21  10  17  1   
 22  10  32  1   
 23  11  16  1   
 24  11  33  1   
 25  11  34  1   
 26  12  18  ar  
 27  13  18  ar  
 28  14  19  ar  
 29  14  35  1   
 30  15  20  ar  
 31  15  36  1   
 32  17  21  1   
 33  17  37  1   
 34  17  38  1   
 35  18  22  1   
 36  19  23  ar  
 37  19  39  1   
 38  20  23  ar  
 39  20  40  1   
 40  21  41  1   
 41  22  24  1   
 42  22  42  1   
 43  23  43  1   
 44  24  25  1   
 45  24  26  1   
 46  24  44  1   
 47  25  45  1   
 48  25  46  1   
 49  25  47  1   
 50  26  48  1   
 51  26  49  1   
 52  26  50  1   
@<TRIPOS>SUBSTRUCTURE
  1 ****   4 GROUP 4 **** **** 0

# MOE 2024.06 (io_trps.svl 2023.06)
