@<TRIPOS>MOLECULE
NONAME
50 51 1 0 0 
SMALL
USER_CHARGES


@<TRIPOS>ATOM
  1 O        2.3510    -1.1120     1.4910 O.2   1 <1>  -0.5700 
  2 C        2.1010    -1.0430     0.3130 C.2   1 <1>   0.5690 
  3 N        2.2940     0.0740    -0.4400 N.am  1 <1>  -0.4930 
  4 C        1.5370    -2.2840    -0.3320 C.3   1 <1>  -0.0990 
  5 C        2.7710     1.3410    -0.0200 C.2   1 <1>   0.0630 
  6 C        0.4160    -2.8270     0.5670 C.3   1 <1>   0.4230 
  7 C        3.1680     1.7680     1.2490 C.2   1 <1>   0.1390 
  8 C        2.9360     2.4240    -0.8070 C.2   1 <1>  -0.3020 
  9 N        0.1480    -4.2750     0.3470 N.4   1 <1>  -0.9590 
 10 C       -0.8910    -2.0580     0.3790 C.3   1 <1>  -0.2400 
 11 N        3.5460     3.0110     1.2540 N.2   1 <1>  -0.7070 
 12 N        3.4050     3.4230    -0.0230 N.pl3 1 <1>   0.3140 
 13 C        1.2230    -5.1150     0.9450 C.3   1 <1>   0.3430 
 14 C       -0.1050    -4.6690    -1.0650 C.3   1 <1>   0.3430 
 15 C        3.7360     4.8050    -0.4760 C.3   1 <1>   0.1760 
 16 C        0.6740    -6.4670     1.4070 C.3   1 <1>  -0.1600 
 17 C       -1.3150    -5.5990    -1.1470 C.3   1 <1>  -0.1600 
 18 C        5.2260     5.1040    -0.2600 C.3   1 <1>  -0.2400 
 19 C        2.8620     5.8390     0.2480 C.3   1 <1>  -0.2400 
 20 C       -0.0650    -7.3010     0.3440 C.3   1 <1>  -0.1600 
 21 C       -1.4140    -6.6920    -0.0670 C.3   1 <1>  -0.1600 
 22 H        2.0970     0.0250    -1.4380 H     1 <1>   0.3700 
 23 H        2.3430    -2.9890    -0.4060 H     1 <1>   0.0800 
 24 H        1.1710    -2.0600    -1.3160 H     1 <1>   0.0800 
 25 H        0.7210    -2.7020     1.5960 H     1 <1>   0.0800 
 26 H        3.1660     1.1490     2.1300 H     1 <1>   0.1500 
 27 H        2.7540     2.5470    -1.8570 H     1 <1>   0.1500 
 28 H       -0.7100    -4.5010     0.8670 H     1 <1>   0.4500 
 29 H       -1.2420    -2.1040    -0.6360 H     1 <1>   0.0800 
 30 H       -0.7400    -1.0230     0.6320 H     1 <1>   0.0800 
 31 H       -1.6500    -2.4410     1.0370 H     1 <1>   0.0800 
 32 H        1.6480    -4.6110     1.7990 H     1 <1>   0.0800 
 33 H        2.0120    -5.2690     0.2260 H     1 <1>   0.0800 
 34 H        0.7620    -5.1730    -1.4610 H     1 <1>   0.0800 
 35 H       -0.2920    -3.8000    -1.6740 H     1 <1>   0.0800 
 36 H        3.5270     4.8600    -1.5290 H     1 <1>   0.0800 
 37 H        0.0330    -6.3150     2.2580 H     1 <1>   0.0800 
 38 H        1.5100    -7.0470     1.7600 H     1 <1>   0.0800 
 39 H       -1.2840    -6.0760    -2.1110 H     1 <1>   0.0800 
 40 H       -2.2150    -5.0090    -1.1300 H     1 <1>   0.0800 
 41 H        5.4660     5.0620     0.7880 H     1 <1>   0.0800 
 42 H        5.4670     6.0850    -0.6280 H     1 <1>   0.0800 
 43 H        5.8280     4.3840    -0.7850 H     1 <1>   0.0800 
 44 H        3.0530     5.8110     1.3070 H     1 <1>   0.0800 
 45 H        1.8210     5.6300     0.0760 H     1 <1>   0.0800 
 46 H        3.0770     6.8280    -0.1130 H     1 <1>   0.0800 
 47 H       -0.2620    -8.2690     0.7750 H     1 <1>   0.0800 
 48 H        0.5580    -7.4670    -0.5180 H     1 <1>   0.0800 
 49 H       -2.0410    -7.4800    -0.4540 H     1 <1>   0.0800 
 50 H       -1.9170    -6.3080     0.8050 H     1 <1>   0.0800 
@<TRIPOS>BOND
  1   1   2  2   
  2   2   3  am  
  3   2   4  1   
  4   3   5  1   
  5   3  22  1   
  6   4   6  1   
  7   4  23  1   
  8   4  24  1   
  9   5   7  1   
 10   5   8  2   
 11   6   9  1   
 12   6  10  1   
 13   6  25  1   
 14   7  11  2   
 15   7  26  1   
 16   8  12  1   
 17   8  27  1   
 18   9  13  1   
 19   9  14  1   
 20   9  28  1   
 21  10  29  1   
 22  10  30  1   
 23  10  31  1   
 24  11  12  1   
 25  12  15  1   
 26  13  16  1   
 27  13  32  1   
 28  13  33  1   
 29  14  17  1   
 30  14  34  1   
 31  14  35  1   
 32  15  18  1   
 33  15  19  1   
 34  15  36  1   
 35  16  20  1   
 36  16  37  1   
 37  16  38  1   
 38  17  21  1   
 39  17  39  1   
 40  17  40  1   
 41  18  41  1   
 42  18  42  1   
 43  18  43  1   
 44  19  44  1   
 45  19  45  1   
 46  19  46  1   
 47  20  21  1   
 48  20  47  1   
 49  20  48  1   
 50  21  49  1   
 51  21  50  1   
@<TRIPOS>SUBSTRUCTURE
  1 ****   2 GROUP 4 **** **** 0

# MOE 2024.06 (io_trps.svl 2023.06)
