@<TRIPOS>MOLECULE
NONAME
52 54 1 0 0 
SMALL
USER_CHARGES


@<TRIPOS>ATOM
  1 S        0.8630     1.5250     0.8520 S.o2  1 <1>   1.3330 
  2 O        0.4660     0.1830     0.4870 O.2   1 <1>  -0.6500 
  3 O       -0.1480     2.5150     1.1460 O.2   1 <1>  -0.6500 
  4 N        1.8640     1.4170     2.2210 N.am  1 <1>  -0.8490 
  5 C        1.9520     2.1540    -0.4270 C.3   1 <1>  -0.0550 
  6 C        2.1160     2.7150     2.8580 C.3   1 <1>   0.1160 
  7 C        1.3330     0.4740     3.2100 C.3   1 <1>   0.1160 
  8 C        2.9780     1.1260    -0.9570 C.3   1 <1>  -0.0800 
  9 C        3.8970     1.6400    -2.0550 C.3   1 <1>   0.2200 
 10 C        3.9730     0.6080     0.0870 C.3   1 <1>   0.1200 
 11 N        4.3950     2.9880    -1.7110 N.am  1 <1>  -0.7300 
 12 C        5.0460     0.6470    -1.9480 C.3   1 <1>   0.1200 
 13 O        5.1710     0.3550    -0.5880 O.3   1 <1>  -0.5600 
 14 C        3.9050     4.1740    -2.1550 C.2   1 <1>   0.7160 
 15 O        3.1880     4.1770    -3.1390 O.2   1 <1>  -0.5700 
 16 C        4.2090     5.3620    -1.4130 C.2   1 <1>  -0.0860 
 17 C        4.6820     5.4390    -0.1270 C.2   1 <1>  -0.0260 
 18 C        4.0950     6.6980    -1.8060 C.2   1 <1>   0.1080 
 19 N        4.9720     4.4370     0.7760 N.2   1 <1>  -0.5760 
 20 N        4.8330     6.7730     0.1540 N.pl3 1 <1>   0.6010 
 21 N        4.4610     7.5420    -0.8910 N.2   1 <1>  -0.7070 
 22 C        3.6030     7.1730    -3.1570 C.3   1 <1>  -0.0590 
 23 C        5.4300     4.8110     1.9270 C.2   1 <1>   0.3750 
 24 C        5.3200     7.1630     1.3930 C.2   1 <1>  -0.1690 
 25 C        5.6210     6.1760     2.2800 C.2   1 <1>  -0.1360 
 26 C        5.7780     3.7480     2.9450 C.3   1 <1>  -0.1790 
 27 C        5.4860     8.6490     1.6780 C.3   1 <1>  -0.1020 
 28 H        1.3510     2.4750    -1.2560 H     1 <1>   0.0800 
 29 H        2.4590     3.0190    -0.0500 H     1 <1>   0.0800 
 30 H        2.8040     2.5960     3.6770 H     1 <1>   0.0800 
 31 H        1.1970     3.1370     3.2310 H     1 <1>   0.0800 
 32 H        2.5490     3.4010     2.1510 H     1 <1>   0.0800 
 33 H        1.9920     0.4100     4.0580 H     1 <1>   0.0800 
 34 H        1.2490    -0.5080     2.7760 H     1 <1>   0.0800 
 35 H        0.3570     0.7890     3.5410 H     1 <1>   0.0800 
 36 H        2.4400     0.2760    -1.3400 H     1 <1>   0.0800 
 37 H        3.4380     1.6380    -3.0300 H     1 <1>   0.0800 
 38 H        3.6320    -0.3000     0.5560 H     1 <1>   0.0800 
 39 H        4.1790     1.3510     0.8380 H     1 <1>   0.0800 
 40 H        4.9290     3.0340    -0.8330 H     1 <1>   0.3700 
 41 H        5.9740     1.0430    -2.3220 H     1 <1>   0.0800 
 42 H        4.8060    -0.2690    -2.4580 H     1 <1>   0.0800 
 43 H        4.1420     6.6750    -3.9410 H     1 <1>   0.0800 
 44 H        3.7490     8.2340    -3.2530 H     1 <1>   0.0800 
 45 H        2.5560     6.9540    -3.2590 H     1 <1>   0.0800 
 46 H        6.0070     6.3940     3.2590 H     1 <1>   0.1500 
 47 H        5.2350     3.9190     3.8560 H     1 <1>   0.0800 
 48 H        6.8330     3.7750     3.1510 H     1 <1>   0.0800 
 49 H        5.5270     2.7720     2.5700 H     1 <1>   0.0800 
 50 H        6.1690     9.0840     0.9690 H     1 <1>   0.0800 
 51 H        5.8690     8.8120     2.6690 H     1 <1>   0.0800 
 52 H        4.5380     9.1490     1.5870 H     1 <1>   0.0800 
@<TRIPOS>BOND
  1   1   2  2   
  2   1   3  2   
  3   1   4  am  
  4   1   5  1   
  5   4   6  1   
  6   4   7  1   
  7   5   8  1   
  8   5  28  1   
  9   5  29  1   
 10   6  30  1   
 11   6  31  1   
 12   6  32  1   
 13   7  33  1   
 14   7  34  1   
 15   7  35  1   
 16   8   9  1   
 17   8  10  1   
 18   8  36  1   
 19   9  11  1   
 20   9  12  1   
 21   9  37  1   
 22  10  13  1   
 23  10  38  1   
 24  10  39  1   
 25  11  14  am  
 26  11  40  1   
 27  12  13  1   
 28  12  41  1   
 29  12  42  1   
 30  14  15  2   
 31  14  16  1   
 32  16  17  2   
 33  16  18  1   
 34  17  19  1   
 35  17  20  1   
 36  18  21  2   
 37  18  22  1   
 38  19  23  2   
 39  20  21  1   
 40  20  24  1   
 41  22  43  1   
 42  22  44  1   
 43  22  45  1   
 44  23  25  1   
 45  23  26  1   
 46  24  25  2   
 47  24  27  1   
 48  25  46  1   
 49  26  47  1   
 50  26  48  1   
 51  26  49  1   
 52  27  50  1   
 53  27  51  1   
 54  27  52  1   
@<TRIPOS>SUBSTRUCTURE
  1 ****  19 GROUP 4 **** **** 0

# MOE 2024.06 (io_trps.svl 2023.06)
