@<TRIPOS>MOLECULE
NONAME
52 54 1 0 0 
SMALL
USER_CHARGES


@<TRIPOS>ATOM
  1 S       -0.2920     0.5660     0.6170 S.3   1 <1>  -0.4600 
  2 C        1.4710     0.7930     0.2720 C.3   1 <1>   0.0700 
  3 C       -0.4570    -1.2340     0.7320 C.3   1 <1>  -0.0100 
  4 C        1.7030     2.2890     0.0530 C.3   1 <1>  -0.1600 
  5 C        3.1850     2.6600    -0.0910 C.3   1 <1>   0.2200 
  6 N        3.2550     4.1260    -0.2130 N.am  1 <1>  -0.7300 
  7 C        3.8860     2.0250    -1.3080 C.3   1 <1>   0.1200 
  8 C        4.2040     4.9350     0.3280 C.2   1 <1>   0.7160 
  9 O        4.2040     0.6940    -1.0580 O.3   1 <1>  -0.6800 
 10 O        5.1840     4.4120     0.8200 O.2   1 <1>  -0.5700 
 11 C        4.0280     6.3570     0.3090 C.2   1 <1>  -0.0860 
 12 C        2.8260     7.0330     0.0530 C.2   1 <1>   0.3720 
 13 C        4.9110     7.3710     0.5310 C.2   1 <1>   0.0870 
 14 N        2.9850     8.3070     0.1190 N.2   1 <1>  -0.4100 
 15 N        1.5870     6.4290    -0.2210 N.pl3 1 <1>  -0.8210 
 16 O        4.2420     8.4900     0.4110 O.3   1 <1>  -0.0190 
 17 C        6.3200     7.4260     0.8340 C.ar  1 <1>   0.0530 
 18 C        0.7930     6.0880     1.0050 C.3   1 <1>   0.2090 
 19 C        0.7380     7.1240    -1.2470 C.3   1 <1>   0.2090 
 20 C        7.2410     6.5650     0.2390 C.ar  1 <1>  -0.1500 
 21 C        6.8130     8.3730     1.7320 C.ar  1 <1>  -0.1500 
 22 C       -0.0710     7.2690     1.4850 C.3   1 <1>   0.1200 
 23 C       -0.1560     8.2250    -0.6410 C.3   1 <1>   0.1200 
 24 C        8.5900     6.6380     0.5330 C.ar  1 <1>  -0.1500 
 25 C        8.1610     8.4530     2.0290 C.ar  1 <1>  -0.1500 
 26 O       -0.8850     7.7370     0.4490 O.3   1 <1>  -0.5600 
 27 C        9.0540     7.5830     1.4300 C.ar  1 <1>  -0.1500 
 28 H        2.0170     0.4210     1.1210 H     1 <1>   0.0800 
 29 H        1.7040     0.2160    -0.6060 H     1 <1>   0.0800 
 30 H       -1.4900    -1.4560     0.9340 H     1 <1>   0.0800 
 31 H        0.1720    -1.5760     1.5340 H     1 <1>   0.0800 
 32 H       -0.1510    -1.6570    -0.2080 H     1 <1>   0.0800 
 33 H        1.1650     2.5930    -0.8270 H     1 <1>   0.0800 
 34 H        1.3010     2.8150     0.9010 H     1 <1>   0.0800 
 35 H        3.7150     2.3710     0.8020 H     1 <1>   0.0800 
 36 H        2.4030     4.6100    -0.5320 H     1 <1>   0.3700 
 37 H        4.8050     2.5420    -1.5220 H     1 <1>   0.0800 
 38 H        3.2460     2.0590    -2.1720 H     1 <1>   0.0800 
 39 H        4.9650     0.6380    -0.4450 H     1 <1>   0.4000 
 40 H        0.1490     5.2530     0.7880 H     1 <1>   0.0800 
 41 H        1.4570     5.7930     1.7990 H     1 <1>   0.0800 
 42 H        1.3690     7.5600    -2.0030 H     1 <1>   0.0800 
 43 H        0.1090     6.3970    -1.7300 H     1 <1>   0.0800 
 44 H        6.8990     5.8270    -0.4630 H     1 <1>   0.1500 
 45 H        6.1290     9.0550     2.2050 H     1 <1>   0.1500 
 46 H        0.5510     8.0770     1.8300 H     1 <1>   0.0800 
 47 H       -0.7120     6.9570     2.2900 H     1 <1>   0.0800 
 48 H       -0.8580     8.5770    -1.3750 H     1 <1>   0.0800 
 49 H        0.4400     9.0590    -0.3110 H     1 <1>   0.0800 
 50 H        9.2800     5.9580     0.0640 H     1 <1>   0.1500 
 51 H        8.5170     9.1910     2.7270 H     1 <1>   0.1500 
 52 H       10.1040     7.6420     1.6600 H     1 <1>   0.1500 
@<TRIPOS>BOND
  1   1   2  1   
  2   1   3  1   
  3   2   4  1   
  4   2  28  1   
  5   2  29  1   
  6   3  30  1   
  7   3  31  1   
  8   3  32  1   
  9   4   5  1   
 10   4  33  1   
 11   4  34  1   
 12   5   6  1   
 13   5   7  1   
 14   5  35  1   
 15   6   8  am  
 16   6  36  1   
 17   7   9  1   
 18   7  37  1   
 19   7  38  1   
 20   8  10  2   
 21   8  11  1   
 22   9  39  1   
 23  11  12  1   
 24  11  13  2   
 25  12  14  2   
 26  12  15  1   
 27  13  16  1   
 28  13  17  1   
 29  14  16  1   
 30  15  18  1   
 31  15  19  1   
 32  17  20  ar  
 33  17  21  ar  
 34  18  22  1   
 35  18  40  1   
 36  18  41  1   
 37  19  23  1   
 38  19  42  1   
 39  19  43  1   
 40  20  24  ar  
 41  20  44  1   
 42  21  25  ar  
 43  21  45  1   
 44  22  26  1   
 45  22  46  1   
 46  22  47  1   
 47  23  26  1   
 48  23  48  1   
 49  23  49  1   
 50  24  27  ar  
 51  24  50  1   
 52  25  27  ar  
 53  25  51  1   
 54  27  52  1   
@<TRIPOS>SUBSTRUCTURE
  1 ****   8 GROUP 4 **** **** 0

# MOE 2024.06 (io_trps.svl 2023.06)
