@<TRIPOS>MOLECULE
NONAME
51 53 1 0 0 
SMALL
USER_CHARGES


@<TRIPOS>ATOM
  1 F       -0.4870     0.4370     0.2540 F     1 <1>  -0.1900 
  2 C       -1.7650     0.7150     0.2570 C.ar  1 <1>   0.1900 
  3 C       -2.2410     2.0270     0.1600 C.ar  1 <1>   0.0830 
  4 C       -2.6270    -0.3590     0.3650 C.ar  1 <1>  -0.1500 
  5 O       -1.4960     3.1640     0.0500 O.3   1 <1>  -0.3630 
  6 C       -3.6130     2.2150     0.1760 C.ar  1 <1>  -0.1500 
  7 C       -3.9910    -0.1350     0.3790 C.ar  1 <1>  -0.1500 
  8 C       -0.0880     3.1580    -0.0230 C.3   1 <1>   0.0400 
  9 C       -4.5190     1.1560     0.2830 C.ar  1 <1>   0.0530 
 10 C       -5.9430     1.4050     0.2980 C.2   1 <1>   0.0870 
 11 O       -6.3990     2.5920     0.6130 O.3   1 <1>  -0.0190 
 12 C       -7.0300     0.6280     0.0460 C.2   1 <1>  -0.0860 
 13 N       -7.7030     2.6660     0.5850 N.2   1 <1>  -0.4100 
 14 C       -8.1100     1.4960     0.2340 C.2   1 <1>   0.3720 
 15 C       -7.1190    -0.7440    -0.3390 C.2   1 <1>   0.7160 
 16 N       -9.4630     1.1570     0.0670 N.pl3 1 <1>  -0.8210 
 17 O       -6.6590    -1.0830    -1.4140 O.2   1 <1>  -0.5700 
 18 N       -7.6780    -1.7070     0.4750 N.am  1 <1>  -0.6600 
 19 C      -10.4390     2.0570     0.7440 C.3   1 <1>   0.1290 
 20 C       -9.8500     0.8890    -1.3460 C.3   1 <1>   0.1290 
 21 C       -7.9560    -3.0960    -0.0030 C.3   1 <1>   0.1400 
 22 C       -8.2940    -1.4280     1.8070 C.3   1 <1>   0.1400 
 23 C       -9.4640    -3.4090     0.0890 C.3   1 <1>   0.2000 
 24 C       -9.7790    -1.8240     1.7970 C.3   1 <1>   0.1200 
 25 O       -9.9290    -3.1540     1.3860 O.3   1 <1>  -0.5600 
 26 C       -9.7630    -4.8760    -0.2510 C.3   1 <1>  -0.1600 
 27 C      -11.2640    -5.1980    -0.2300 C.3   1 <1>  -0.2400 
 28 H       -2.2320    -1.3560     0.4370 H     1 <1>   0.1500 
 29 H       -3.9840     3.2210     0.0980 H     1 <1>   0.1500 
 30 H       -4.6470    -0.9810     0.4680 H     1 <1>   0.1500 
 31 H        0.2460     4.1750    -0.1280 H     1 <1>   0.0800 
 32 H        0.2170     2.5850    -0.8810 H     1 <1>   0.0800 
 33 H        0.3080     2.7370     0.8840 H     1 <1>   0.0800 
 34 H      -10.1400     2.2170     1.7670 H     1 <1>   0.0800 
 35 H      -11.4180     1.6130     0.7360 H     1 <1>   0.0800 
 36 H      -10.4740     3.0090     0.2420 H     1 <1>   0.0800 
 37 H       -9.1470     0.2210    -1.8130 H     1 <1>   0.0800 
 38 H       -9.8700     1.8110    -1.9020 H     1 <1>   0.0800 
 39 H      -10.8250     0.4340    -1.3790 H     1 <1>   0.0800 
 40 H       -7.4090    -3.7940     0.6060 H     1 <1>   0.0800 
 41 H       -7.6320    -3.2230    -1.0210 H     1 <1>   0.0800 
 42 H       -8.2050    -0.3900     2.0730 H     1 <1>   0.0800 
 43 H       -7.7830    -2.0030     2.5590 H     1 <1>   0.0800 
 44 H      -10.0020    -2.7710    -0.5920 H     1 <1>   0.0800 
 45 H      -10.3370    -1.1890     1.1310 H     1 <1>   0.0800 
 46 H      -10.1930    -1.7370     2.7850 H     1 <1>   0.0800 
 47 H       -9.2480    -5.5130     0.4480 H     1 <1>   0.0800 
 48 H       -9.3800    -5.0900    -1.2330 H     1 <1>   0.0800 
 49 H      -11.6670    -5.0350     0.7550 H     1 <1>   0.0800 
 50 H      -11.4260    -6.2280    -0.4960 H     1 <1>   0.0800 
 51 H      -11.7940    -4.5740    -0.9270 H     1 <1>   0.0800 
@<TRIPOS>BOND
  1   1   2  1   
  2   2   3  ar  
  3   2   4  ar  
  4   3   5  1   
  5   3   6  ar  
  6   4   7  ar  
  7   4  28  1   
  8   5   8  1   
  9   6   9  ar  
 10   6  29  1   
 11   7   9  ar  
 12   7  30  1   
 13   8  31  1   
 14   8  32  1   
 15   8  33  1   
 16   9  10  1   
 17  10  11  1   
 18  10  12  2   
 19  11  13  1   
 20  12  14  1   
 21  12  15  1   
 22  13  14  2   
 23  14  16  1   
 24  15  17  2   
 25  15  18  am  
 26  16  19  1   
 27  16  20  1   
 28  18  21  1   
 29  18  22  1   
 30  19  34  1   
 31  19  35  1   
 32  19  36  1   
 33  20  37  1   
 34  20  38  1   
 35  20  39  1   
 36  21  23  1   
 37  21  40  1   
 38  21  41  1   
 39  22  24  1   
 40  22  42  1   
 41  22  43  1   
 42  23  25  1   
 43  23  26  1   
 44  23  44  1   
 45  24  25  1   
 46  24  45  1   
 47  24  46  1   
 48  26  27  1   
 49  26  47  1   
 50  26  48  1   
 51  27  49  1   
 52  27  50  1   
 53  27  51  1   
@<TRIPOS>SUBSTRUCTURE
  1 ****  12 GROUP 4 **** **** 0

# MOE 2024.06 (io_trps.svl 2023.06)
