@<TRIPOS>MOLECULE
NONAME
51 54 1 0 0 
SMALL
USER_CHARGES


@<TRIPOS>ATOM
  1 O       -0.7160     0.2720     1.4660 O.2   1 <1>  -0.5700 
  2 C       -1.5970     0.8870     0.9000 C.2   1 <1>   0.5440 
  3 N       -2.6360     0.1860     0.3350 N.am  1 <1>  -0.6600 
  4 C       -1.5380     2.3310     0.8240 C.ar  1 <1>   0.0860 
  5 C       -3.6640     0.7500    -0.5770 C.3   1 <1>   0.1400 
  6 C       -2.6730    -1.2990     0.2890 C.3   1 <1>   0.1400 
  7 C       -0.5370     2.9790     0.1380 C.ar  1 <1>  -0.1500 
  8 C       -2.5130     3.1260     1.4560 C.ar  1 <1>  -0.1500 
  9 C       -4.6560    -0.3940    -0.7730 C.3   1 <1>   0.2000 
 10 C       -3.7710    -1.6420    -0.7260 C.3   1 <1>  -0.0800 
 11 C       -0.4710     4.3730     0.0280 C.ar  1 <1>   0.3100 
 12 C       -2.4790     4.4900     1.3760 C.ar  1 <1>  -0.1500 
 13 O       -5.5200    -0.3970     0.3130 O.3   1 <1>  -0.6800 
 14 C       -4.4990    -2.9660    -0.4310 C.3   1 <1>   0.0210 
 15 N        0.5460     4.9080    -0.6920 N.ar  1 <1>  -0.6200 
 16 C       -1.4630     5.1590     0.6590 C.ar  1 <1>   0.0000 
 17 C       -3.5220    -4.1240    -0.4120 C.2   1 <1>   0.1080 
 18 C        0.6020     6.1980    -0.7880 C.ar  1 <1>   0.1670 
 19 C       -1.3710     6.5620     0.5310 C.ar  1 <1>  -0.1430 
 20 N       -2.8370    -4.4840    -1.4520 N.2   1 <1>  -0.7070 
 21 C       -3.2400    -4.9100     0.7010 C.2   1 <1>  -0.1500 
 22 C       -0.3320     7.0620    -0.1970 C.ar  1 <1>  -0.1500 
 23 C        1.7450     6.7780    -1.5930 C.3   1 <1>  -0.0970 
 24 C       -2.3880     7.4930     1.1750 C.3   1 <1>  -0.0970 
 25 N       -2.0920    -5.5220    -1.0270 N.pl3 1 <1>   0.3000 
 26 C       -2.3180    -5.7980     0.2750 C.2   1 <1>  -0.3320 
 27 C       -1.6270    -6.9090     1.0430 C.3   1 <1>  -0.0600 
 28 H       -4.1430     1.6210    -0.1680 H     1 <1>   0.0800 
 29 H       -3.2000     0.9980    -1.5160 H     1 <1>   0.0800 
 30 H       -1.7210    -1.7000    -0.0160 H     1 <1>   0.0800 
 31 H       -2.9160    -1.6750     1.2680 H     1 <1>   0.0800 
 32 H        0.2360     2.4070    -0.3420 H     1 <1>   0.1500 
 33 H       -3.2890     2.6280     2.0100 H     1 <1>   0.1500 
 34 H       -5.2350    -0.3100    -1.6770 H     1 <1>   0.0800 
 35 H       -3.2920    -1.7380    -1.6850 H     1 <1>   0.0800 
 36 H       -3.2370     5.0690     1.8710 H     1 <1>   0.1500 
 37 H       -4.9820    -0.3530     1.1290 H     1 <1>   0.4000 
 38 H       -5.2340    -3.1490    -1.1940 H     1 <1>   0.0800 
 39 H       -5.0070    -2.9190     0.5150 H     1 <1>   0.0800 
 40 H       -3.6770    -4.8080     1.6780 H     1 <1>   0.1500 
 41 H       -0.2100     8.1200    -0.3310 H     1 <1>   0.1500 
 42 H        1.8410     7.8350    -1.4280 H     1 <1>   0.0800 
 43 H        1.5740     6.5980    -2.6380 H     1 <1>   0.0800 
 44 H        2.6650     6.3000    -1.3070 H     1 <1>   0.0800 
 45 H       -2.1510     8.5210     0.9690 H     1 <1>   0.0800 
 46 H       -2.3890     7.3550     2.2420 H     1 <1>   0.0800 
 47 H       -3.3710     7.2880     0.7910 H     1 <1>   0.0800 
 48 H       -1.4420    -6.0180    -1.6470 H     1 <1>   0.2700 
 49 H       -1.9750    -6.9260     2.0610 H     1 <1>   0.0800 
 50 H       -0.5630    -6.7530     1.0480 H     1 <1>   0.0800 
 51 H       -1.8410    -7.8620     0.5920 H     1 <1>   0.0800 
@<TRIPOS>BOND
  1   1   2  2   
  2   2   3  am  
  3   2   4  1   
  4   3   5  1   
  5   3   6  1   
  6   4   7  ar  
  7   4   8  ar  
  8   5   9  1   
  9   5  28  1   
 10   5  29  1   
 11   6  10  1   
 12   6  30  1   
 13   6  31  1   
 14   7  11  ar  
 15   7  32  1   
 16   8  12  ar  
 17   8  33  1   
 18   9  10  1   
 19   9  13  1   
 20   9  34  1   
 21  10  14  1   
 22  10  35  1   
 23  11  15  ar  
 24  11  16  ar  
 25  12  16  ar  
 26  12  36  1   
 27  13  37  1   
 28  14  17  1   
 29  14  38  1   
 30  14  39  1   
 31  15  18  ar  
 32  16  19  ar  
 33  17  20  2   
 34  17  21  1   
 35  18  22  ar  
 36  18  23  1   
 37  19  22  ar  
 38  19  24  1   
 39  20  25  1   
 40  21  26  2   
 41  21  40  1   
 42  22  41  1   
 43  23  42  1   
 44  23  43  1   
 45  23  44  1   
 46  24  45  1   
 47  24  46  1   
 48  24  47  1   
 49  25  26  1   
 50  25  48  1   
 51  26  27  1   
 52  27  49  1   
 53  27  50  1   
 54  27  51  1   
@<TRIPOS>SUBSTRUCTURE
  1 ****   2 GROUP 4 **** **** 0

# MOE 2024.06 (io_trps.svl 2023.06)
