@<TRIPOS>MOLECULE
NONAME
49 50 1 0 0 
SMALL
USER_CHARGES


@<TRIPOS>ATOM
  1 CL       1.5520     1.4330    -2.0830 Cl    1 <1>  -0.1770 
  2 C        0.9060     2.5080    -0.8640 C.ar  1 <1>   0.1770 
  3 C        1.5680     2.7290     0.3410 C.ar  1 <1>  -0.1440 
  4 C       -0.2950     3.1310    -1.1520 C.ar  1 <1>  -0.1500 
  5 C        0.9840     3.5950     1.2580 C.ar  1 <1>  -0.1500 
  6 C        2.9010     2.0750     0.6970 C.3   1 <1>   0.3640 
  7 C       -0.8600     3.9910    -0.2290 C.ar  1 <1>  -0.1500 
  8 C       -0.2190     4.2200     0.9750 C.ar  1 <1>  -0.1500 
  9 N        2.7540     0.6040     0.7180 N.am  1 <1>  -0.7300 
 10 C        4.0630     2.5390    -0.2170 C.3   1 <1>   0.2610 
 11 C        3.6700    -0.2410     0.1920 C.2   1 <1>   0.5690 
 12 O        5.1800     1.6670    -0.1310 O.3   1 <1>  -0.5600 
 13 C        4.4290     3.9920     0.1140 C.2   1 <1>   0.5690 
 14 O        3.5230    -1.4330     0.2750 O.2   1 <1>  -0.5700 
 15 C        4.8970     0.3370    -0.5210 C.3   1 <1>   0.1810 
 16 O        4.0280     4.8420    -0.6510 O.2   1 <1>  -0.5700 
 17 N        5.1740     4.3700     1.2170 N.am  1 <1>  -0.6600 
 18 C        5.4590     5.8160     1.4610 C.3   1 <1>   0.1400 
 19 C        5.7980     3.4300     2.2000 C.3   1 <1>   0.0600 
 20 C        6.3660     6.3900     0.3520 C.3   1 <1>   0.3430 
 21 N        5.9500     7.7570    -0.1130 N.4   1 <1>  -0.9590 
 22 C        7.0270     8.3550    -0.9440 C.3   1 <1>   0.3430 
 23 C        4.6600     7.6790    -0.8800 C.3   1 <1>   0.2630 
 24 C        6.8020     9.8570    -1.0760 C.3   1 <1>  -0.2400 
 25 H       -0.7810     2.9410    -2.0920 H     1 <1>   0.1500 
 26 H        1.4560     3.7930     2.2050 H     1 <1>   0.1500 
 27 H        3.1490     2.3700     1.7010 H     1 <1>   0.0800 
 28 H       -1.7950     4.4790    -0.4470 H     1 <1>   0.1500 
 29 H       -0.6620     4.8880     1.6960 H     1 <1>   0.1500 
 30 H        1.9120     0.2100     1.1390 H     1 <1>   0.3700 
 31 H        3.7430     2.5250    -1.2410 H     1 <1>   0.0800 
 32 H        4.7330     0.3200    -1.5830 H     1 <1>   0.0800 
 33 H        5.7580    -0.2640    -0.2930 H     1 <1>   0.0800 
 34 H        4.5200     6.3400     1.4890 H     1 <1>   0.0800 
 35 H        5.9390     5.9430     2.4160 H     1 <1>   0.0800 
 36 H        5.6800     3.8080     3.2020 H     1 <1>   0.0800 
 37 H        6.8470     3.3250     1.9860 H     1 <1>   0.0800 
 38 H        5.3460     2.4560     2.1630 H     1 <1>   0.0800 
 39 H        6.3460     5.7170    -0.4890 H     1 <1>   0.0800 
 40 H        7.3770     6.4240     0.7240 H     1 <1>   0.0800 
 41 H        5.8140     8.3640     0.7070 H     1 <1>   0.4500 
 42 H        7.9840     8.1890    -0.4750 H     1 <1>   0.0800 
 43 H        7.0450     7.8930    -1.9190 H     1 <1>   0.0800 
 44 H        4.7770     7.0440    -1.7440 H     1 <1>   0.0800 
 45 H        4.3490     8.6570    -1.2070 H     1 <1>   0.0800 
 46 H        3.8780     7.2600    -0.2670 H     1 <1>   0.0800 
 47 H        6.7680    10.3270    -0.1100 H     1 <1>   0.0800 
 48 H        5.8990    10.0740    -1.6180 H     1 <1>   0.0800 
 49 H        7.6210    10.2870    -1.6240 H     1 <1>   0.0800 
@<TRIPOS>BOND
  1   1   2  1   
  2   2   3  ar  
  3   2   4  ar  
  4   3   5  ar  
  5   3   6  1   
  6   4   7  ar  
  7   4  25  1   
  8   5   8  ar  
  9   5  26  1   
 10   6   9  1   
 11   6  10  1   
 12   6  27  1   
 13   7   8  ar  
 14   7  28  1   
 15   8  29  1   
 16   9  11  am  
 17   9  30  1   
 18  10  12  1   
 19  10  13  1   
 20  10  31  1   
 21  11  14  2   
 22  11  15  1   
 23  12  15  1   
 24  13  16  2   
 25  13  17  am  
 26  15  32  1   
 27  15  33  1   
 28  17  18  1   
 29  17  19  1   
 30  18  20  1   
 31  18  34  1   
 32  18  35  1   
 33  19  36  1   
 34  19  37  1   
 35  19  38  1   
 36  20  21  1   
 37  20  39  1   
 38  20  40  1   
 39  21  22  1   
 40  21  23  1   
 41  21  41  1   
 42  22  24  1   
 43  22  42  1   
 44  22  43  1   
 45  23  44  1   
 46  23  45  1   
 47  23  46  1   
 48  24  47  1   
 49  24  48  1   
 50  24  49  1   
@<TRIPOS>SUBSTRUCTURE
  1 ****  13 GROUP 4 **** **** 0

# MOE 2024.06 (io_trps.svl 2023.06)
