@<TRIPOS>MOLECULE
NONAME
46 48 1 0 0 
SMALL
USER_CHARGES


@<TRIPOS>ATOM
  1 F        0.1090    -0.6210     0.0380 F     1 <1>  -0.1900 
  2 C       -0.5930    -1.7270     0.0430 C.ar  1 <1>   0.1900 
  3 C        0.0020    -2.9830     0.2050 C.ar  1 <1>   0.0820 
  4 C       -1.9570    -1.5890    -0.1250 C.ar  1 <1>  -0.1500 
  5 O        1.3300    -3.2470     0.3770 O.3   1 <1>  -0.3630 
  6 C       -0.8280    -4.0920     0.1920 C.ar  1 <1>  -0.1500 
  7 C       -2.7540    -2.7180    -0.1340 C.ar  1 <1>  -0.1500 
  8 C        2.3070    -2.2350     0.4800 C.3   1 <1>   0.0400 
  9 C       -2.2130    -3.9950     0.0260 C.ar  1 <1>   0.0530 
 10 C       -3.0390    -5.1810     0.0190 C.2   1 <1>   0.0870 
 11 O       -2.5240    -6.3380    -0.3200 O.3   1 <1>  -0.0190 
 12 C       -4.3440    -5.4080     0.3140 C.2   1 <1>  -0.2330 
 13 N       -3.3930    -7.3130    -0.2780 N.2   1 <1>  -0.4100 
 14 C       -4.5060    -6.7790     0.0930 C.2   1 <1>   0.3720 
 15 C       -5.3330    -4.4960     0.7800 C.2   1 <1>   1.0330 
 16 N       -5.6680    -7.5570     0.2280 N.pl3 1 <1>  -0.8210 
 17 O       -5.9660    -3.7910    -0.0260 O.co2 1 <1>  -0.9000 
 18 O       -5.5950    -4.3990     1.9900 O.co2 1 <1>  -0.9000 
 19 C       -5.5580    -8.7310     1.1400 C.3   1 <1>   0.2090 
 20 C       -6.9960    -6.8870     0.1940 C.3   1 <1>   0.2090 
 21 C       -5.8260   -10.0300     0.3680 C.3   1 <1>   0.1400 
 22 C       -8.1510    -7.8600    -0.0860 C.3   1 <1>  -0.1600 
 23 N       -7.2620   -10.1740    -0.0430 N.am  1 <1>  -0.6600 
 24 C       -7.7690    -9.0840    -0.9290 C.3   1 <1>   0.1400 
 25 C       -8.0210   -11.2210     0.4120 C.2   1 <1>   0.5690 
 26 O       -7.5750   -12.0800     1.1350 O.2   1 <1>  -0.5700 
 27 C       -9.4770   -11.3400     0.0250 C.3   1 <1>  -0.1790 
 28 H       -2.3920    -0.6140    -0.2460 H     1 <1>   0.1500 
 29 H       -0.3850    -5.0630     0.3190 H     1 <1>   0.1500 
 30 H       -3.8160    -2.6020    -0.2730 H     1 <1>   0.1500 
 31 H        3.2590    -2.7060     0.6450 H     1 <1>   0.0800 
 32 H        2.0650    -1.5990     1.3130 H     1 <1>   0.0800 
 33 H        2.3310    -1.6770    -0.4390 H     1 <1>   0.0800 
 34 H       -6.2490    -8.6380     1.9590 H     1 <1>   0.0800 
 35 H       -4.5660    -8.7730     1.5540 H     1 <1>   0.0800 
 36 H       -6.9770    -6.1470    -0.5890 H     1 <1>   0.0800 
 37 H       -7.1710    -6.3760     1.1260 H     1 <1>   0.0800 
 38 H       -5.5370   -10.8570     0.9920 H     1 <1>   0.0800 
 39 H       -5.1990   -10.0490    -0.5060 H     1 <1>   0.0800 
 40 H       -8.9100    -7.3050    -0.6050 H     1 <1>   0.0800 
 41 H       -8.5810    -8.1800     0.8460 H     1 <1>   0.0800 
 42 H       -7.0140    -8.8190    -1.6510 H     1 <1>   0.0800 
 43 H       -8.6280    -9.4240    -1.4760 H     1 <1>   0.0800 
 44 H      -10.0010   -10.4410     0.2860 H     1 <1>   0.0800 
 45 H       -9.9250   -12.1640     0.5500 H     1 <1>   0.0800 
 46 H       -9.5580   -11.5200    -1.0300 H     1 <1>   0.0800 
@<TRIPOS>BOND
  1   1   2  1   
  2   2   3  ar  
  3   2   4  ar  
  4   3   5  1   
  5   3   6  ar  
  6   4   7  ar  
  7   4  28  1   
  8   5   8  1   
  9   6   9  ar  
 10   6  29  1   
 11   7   9  ar  
 12   7  30  1   
 13   8  31  1   
 14   8  32  1   
 15   8  33  1   
 16   9  10  1   
 17  10  11  1   
 18  10  12  2   
 19  11  13  1   
 20  12  14  1   
 21  12  15  1   
 22  13  14  2   
 23  14  16  1   
 24  15  17  ar  
 25  15  18  ar  
 26  16  19  1   
 27  16  20  1   
 28  19  21  1   
 29  19  34  1   
 30  19  35  1   
 31  20  22  1   
 32  20  36  1   
 33  20  37  1   
 34  21  23  1   
 35  21  38  1   
 36  21  39  1   
 37  22  24  1   
 38  22  40  1   
 39  22  41  1   
 40  23  24  1   
 41  23  25  am  
 42  24  42  1   
 43  24  43  1   
 44  25  26  2   
 45  25  27  1   
 46  27  44  1   
 47  27  45  1   
 48  27  46  1   
@<TRIPOS>SUBSTRUCTURE
  1 ****  12 GROUP 4 **** **** 0

# MOE 2024.06 (io_trps.svl 2023.06)
