@<TRIPOS>MOLECULE
NONAME
39 41 1 0 0 
SMALL
USER_CHARGES


@<TRIPOS>ATOM
  1 CL       0.2000    -1.0880    -2.5390 Cl    1 <1>  -0.1770 
  2 C        1.4020    -1.3430    -1.2850 C.ar  1 <1>   0.1770 
  3 C        1.4260    -2.5180    -0.5440 C.ar  1 <1>   0.4100 
  4 C        2.3420    -0.3870    -1.0180 C.ar  1 <1>   0.1600 
  5 N        2.3420    -2.6970     0.3920 N.ar  1 <1>  -0.6200 
  6 N        0.5130    -3.5280    -0.7560 N.pl3 1 <1>  -0.8690 
  7 N        3.2610    -0.5570    -0.0830 N.ar  1 <1>  -0.6200 
  8 C        3.2020    -1.7080     0.5660 C.ar  1 <1>   0.4770 
  9 C        0.5720    -4.8670    -0.1480 C.3   1 <1>   0.2890 
 10 C        4.2430    -1.9130     1.6390 C.3   1 <1>  -0.0970 
 11 C        1.3410    -5.8010    -1.0780 C.3   1 <1>  -0.1600 
 12 C       -0.8530    -5.3690     0.0730 C.3   1 <1>  -0.1600 
 13 C        1.3490    -7.2220    -0.5170 C.3   1 <1>   0.1400 
 14 C       -0.8560    -6.8000     0.6140 C.3   1 <1>   0.1400 
 15 N       -0.0500    -7.6800    -0.2780 N.am  1 <1>  -0.6600 
 16 C       -0.5560    -8.8030    -0.9120 C.2   1 <1>   0.7150 
 17 O       -0.0120    -9.1720    -1.9390 O.2   1 <1>  -0.5700 
 18 C       -1.6970    -9.5560    -0.4270 C.2   1 <1>   0.0550 
 19 O       -2.0990    -9.5190     0.8440 O.3   1 <1>  -0.2800 
 20 C       -2.5120   -10.4160    -1.1010 C.2   1 <1>  -0.1500 
 21 C       -3.1350   -10.3150     0.9890 C.2   1 <1>  -0.0100 
 22 C       -3.4440   -10.9040    -0.1850 C.2   1 <1>  -0.1500 
 23 H        2.3460     0.5320    -1.5760 H     1 <1>   0.1500 
 24 H       -0.0960    -3.4500    -1.5740 H     1 <1>   0.4000 
 25 H        1.0750    -4.8170     0.8050 H     1 <1>   0.0800 
 26 H        4.3170    -2.9520     1.8990 H     1 <1>   0.0800 
 27 H        3.9690    -1.3500     2.5110 H     1 <1>   0.0800 
 28 H        5.2000    -1.5730     1.2870 H     1 <1>   0.0800 
 29 H        2.3540    -5.4540    -1.1730 H     1 <1>   0.0800 
 30 H        0.8890    -5.8140    -2.0540 H     1 <1>   0.0800 
 31 H       -1.3970    -5.3500    -0.8540 H     1 <1>   0.0800 
 32 H       -1.3520    -4.7250     0.7750 H     1 <1>   0.0800 
 33 H        1.8860    -7.2430     0.4160 H     1 <1>   0.0800 
 34 H        1.8570    -7.8780    -1.2030 H     1 <1>   0.0800 
 35 H       -1.8750    -7.1380     0.6710 H     1 <1>   0.0800 
 36 H       -0.4350    -6.8250     1.6050 H     1 <1>   0.0800 
 37 H       -2.4520   -10.6810    -2.1430 H     1 <1>   0.1500 
 38 H       -3.5930   -10.4080     1.9580 H     1 <1>   0.1500 
 39 H       -4.2310   -11.6050    -0.4000 H     1 <1>   0.1500 
@<TRIPOS>BOND
  1   1   2  1   
  2   2   3  ar  
  3   2   4  ar  
  4   3   5  ar  
  5   3   6  1   
  6   4   7  ar  
  7   4  23  1   
  8   5   8  ar  
  9   6   9  1   
 10   6  24  1   
 11   7   8  ar  
 12   8  10  1   
 13   9  11  1   
 14   9  12  1   
 15   9  25  1   
 16  10  26  1   
 17  10  27  1   
 18  10  28  1   
 19  11  13  1   
 20  11  29  1   
 21  11  30  1   
 22  12  14  1   
 23  12  31  1   
 24  12  32  1   
 25  13  15  1   
 26  13  33  1   
 27  13  34  1   
 28  14  15  1   
 29  14  35  1   
 30  14  36  1   
 31  15  16  am  
 32  16  17  2   
 33  16  18  1   
 34  18  19  1   
 35  18  20  2   
 36  19  21  1   
 37  20  22  1   
 38  20  37  1   
 39  21  22  2   
 40  21  38  1   
 41  22  39  1   
@<TRIPOS>SUBSTRUCTURE
  1 ****   9 GROUP 4 **** **** 0

# MOE 2024.06 (io_trps.svl 2023.06)
