@<TRIPOS>MOLECULE
NONAME
24 26 1 0 0 
SMALL
USER_CHARGES


@<TRIPOS>ATOM
  1 O        0.2150    -0.5920    -0.0190 O.co2 1 <1>  -0.9000 
  2 C        1.2870    -1.1690     0.1990 C.2   1 <1>   0.8710 
  3 O        2.3570    -0.5540     0.2750 O.co2 1 <1>  -0.9000 
  4 C        1.2860    -2.6590     0.4070 C.3   1 <1>  -0.0710 
  5 C        2.4460    -3.3690    -0.3100 C.3   1 <1>   0.2450 
  6 C        0.3520    -3.4000    -0.5610 C.3   1 <1>   0.2450 
  7 N        1.4550    -4.4090    -0.7710 N.3   1 <1>  -0.5900 
  8 C        1.4470    -5.7070    -0.2910 C.ar  1 <1>   0.4100 
  9 N        0.2800    -6.2420     0.0290 N.ar  1 <1>  -0.6200 
 10 C        2.6300    -6.4690    -0.1610 C.ar  1 <1>   0.2270 
 11 C        0.2900    -7.4990     0.4850 C.ar  1 <1>   0.4700 
 12 N        3.9620    -6.2330    -0.4180 N.2   1 <1>  -0.5650 
 13 C        2.4790    -7.7460     0.3190 C.ar  1 <1>   0.1050 
 14 N        1.3130    -8.3010     0.6590 N.ar  1 <1>  -0.5670 
 15 C        4.5500    -7.3320    -0.0930 C.2   1 <1>   0.0360 
 16 N        3.7070    -8.2930     0.3630 N.pl3 1 <1>   0.0330 
 17 H        1.1680    -2.9630     1.4330 H     1 <1>   0.0000 
 18 H        3.1860    -3.7590     0.3650 H     1 <1>   0.0000 
 19 H        2.8520    -2.8280    -1.1470 H     1 <1>   0.0000 
 20 H        0.1440    -2.8670    -1.4730 H     1 <1>   0.0000 
 21 H       -0.5220    -3.8060    -0.0850 H     1 <1>   0.0000 
 22 H       -0.6780    -7.8970     0.7410 H     1 <1>   0.1500 
 23 H        5.6110    -7.4970    -0.1690 H     1 <1>   0.1500 
 24 H        3.9230    -9.2410     0.6750 H     1 <1>   0.2700 
@<TRIPOS>BOND
  1   1   2  ar  
  2   2   3  ar  
  3   2   4  1   
  4   4   5  1   
  5   4   6  1   
  6   4  17  1   
  7   5   7  1   
  8   5  18  1   
  9   5  19  1   
 10   6   7  1   
 11   6  20  1   
 12   6  21  1   
 13   7   8  1   
 14   8   9  ar  
 15   8  10  ar  
 16   9  11  ar  
 17  10  12  1   
 18  10  13  ar  
 19  11  14  ar  
 20  11  22  1   
 21  12  15  2   
 22  13  14  ar  
 23  13  16  1   
 24  15  16  1   
 25  15  23  1   
 26  16  24  1   
@<TRIPOS>SUBSTRUCTURE
  1 ****   8 GROUP 4 **** **** 0

# MOE 2024.06 (io_trps.svl 2023.06)
