@<TRIPOS>MOLECULE
NONAME
52 54 1 0 0 
SMALL
USER_CHARGES


@<TRIPOS>ATOM
  1 F       -2.4370    -0.1120    -1.8630 F     1 <1>  -0.1900 
  2 C       -2.4460     0.5040    -0.7100 C.ar  1 <1>   0.1900 
  3 C       -2.5590    -0.2340     0.4610 C.ar  1 <1>  -0.1440 
  4 C       -2.3450     1.8830    -0.7130 C.ar  1 <1>  -0.1500 
  5 C       -2.5720     0.4580     1.6630 C.ar  1 <1>  -0.1500 
  6 C       -2.6740    -1.7540     0.4490 C.3   1 <1>  -0.0160 
  7 C       -2.3590     2.5550     0.4960 C.ar  1 <1>  -0.1500 
  8 C       -2.4730     1.8410     1.6790 C.ar  1 <1>  -0.1500 
  9 C       -4.1270    -2.1790     0.1900 C.3   1 <1>  -0.0990 
 10 C       -4.3250    -3.6880     0.1630 C.2   1 <1>   0.5690 
 11 O       -3.4960    -4.3960     0.6840 O.2   1 <1>  -0.5700 
 12 N       -5.4420    -4.2390    -0.4130 N.am  1 <1>  -0.6600 
 13 C       -5.5580    -5.7140    -0.5670 C.3   1 <1>   0.1400 
 14 C       -6.7110    -3.5050    -0.6800 C.3   1 <1>   0.1400 
 15 C       -6.6080    -6.2470     0.4310 C.3   1 <1>   0.4230 
 16 C       -7.7710    -4.0120     0.3080 C.3   1 <1>  -0.1600 
 17 N       -6.6810    -7.7680     0.4990 N.4   1 <1>  -0.9590 
 18 C       -7.9930    -5.5530     0.2520 C.3   1 <1>   0.0000 
 19 C       -7.9380    -8.2940     1.1250 C.3   1 <1>   0.3430 
 20 C       -6.4100    -8.4870    -0.7890 C.3   1 <1>   0.2630 
 21 C       -8.9280    -5.9650     1.4270 C.3   1 <1>  -0.1600 
 22 C       -8.6240    -5.9570    -1.1120 C.3   1 <1>   0.1200 
 23 C       -8.5230    -7.2850     2.1120 C.3   1 <1>  -0.1600 
 24 O       -9.7510    -5.2050    -1.3980 O.3   1 <1>  -0.6800 
 25 H       -2.2580     2.4130    -1.6440 H     1 <1>   0.1500 
 26 H       -2.6580    -0.0760     2.5940 H     1 <1>   0.1500 
 27 H       -2.0330    -2.1640    -0.3130 H     1 <1>   0.0800 
 28 H       -2.3420    -2.1490     1.3930 H     1 <1>   0.0800 
 29 H       -2.2820     3.6290     0.5190 H     1 <1>   0.1500 
 30 H       -2.4830     2.3650     2.6200 H     1 <1>   0.1500 
 31 H       -4.4310    -1.7740    -0.7580 H     1 <1>   0.0800 
 32 H       -4.7560    -1.7660     0.9560 H     1 <1>   0.0800 
 33 H       -5.8330    -5.9300    -1.5820 H     1 <1>   0.0800 
 34 H       -4.6080    -6.1820    -0.3730 H     1 <1>   0.0800 
 35 H       -6.5850    -2.4440    -0.5530 H     1 <1>   0.0800 
 36 H       -7.0240    -3.6770    -1.6970 H     1 <1>   0.0800 
 37 H       -6.2560    -5.9220     1.3960 H     1 <1>   0.0800 
 38 H       -7.4490    -3.7240     1.2940 H     1 <1>   0.0800 
 39 H       -8.6930    -3.4880     0.1230 H     1 <1>   0.0800 
 40 H       -5.9170    -8.0260     1.1440 H     1 <1>   0.4500 
 41 H       -8.6730    -8.4870     0.3600 H     1 <1>   0.0800 
 42 H       -7.7340    -9.2250     1.6300 H     1 <1>   0.0800 
 43 H       -7.1490    -8.2290    -1.5290 H     1 <1>   0.0800 
 44 H       -6.4390    -9.5540    -0.6340 H     1 <1>   0.0800 
 45 H       -5.4350    -8.2300    -1.1690 H     1 <1>   0.0800 
 46 H       -8.9400    -5.2020     2.1880 H     1 <1>   0.0800 
 47 H       -9.9430    -6.0500     1.0790 H     1 <1>   0.0800 
 48 H       -8.9190    -6.9910    -1.1210 H     1 <1>   0.0800 
 49 H       -7.9400    -5.7930    -1.9250 H     1 <1>   0.0800 
 50 H       -9.3890    -7.7150     2.5870 H     1 <1>   0.0800 
 51 H       -7.8020    -7.0950     2.8890 H     1 <1>   0.0800 
 52 H      -10.4750    -5.3600    -0.7590 H     1 <1>   0.4000 
@<TRIPOS>BOND
  1   1   2  1   
  2   2   3  ar  
  3   2   4  ar  
  4   3   5  ar  
  5   3   6  1   
  6   4   7  ar  
  7   4  25  1   
  8   5   8  ar  
  9   5  26  1   
 10   6   9  1   
 11   6  27  1   
 12   6  28  1   
 13   7   8  ar  
 14   7  29  1   
 15   8  30  1   
 16   9  10  1   
 17   9  31  1   
 18   9  32  1   
 19  10  11  2   
 20  10  12  am  
 21  12  13  1   
 22  12  14  1   
 23  13  15  1   
 24  13  33  1   
 25  13  34  1   
 26  14  16  1   
 27  14  35  1   
 28  14  36  1   
 29  15  17  1   
 30  15  18  1   
 31  15  37  1   
 32  16  18  1   
 33  16  38  1   
 34  16  39  1   
 35  17  19  1   
 36  17  20  1   
 37  17  40  1   
 38  18  21  1   
 39  18  22  1   
 40  19  23  1   
 41  19  41  1   
 42  19  42  1   
 43  20  43  1   
 44  20  44  1   
 45  20  45  1   
 46  21  23  1   
 47  21  46  1   
 48  21  47  1   
 49  22  24  1   
 50  22  48  1   
 51  22  49  1   
 52  23  50  1   
 53  23  51  1   
 54  24  52  1   
@<TRIPOS>SUBSTRUCTURE
  1 ****  12 GROUP 4 **** **** 0

# MOE 2024.06 (io_trps.svl 2023.06)
