@<TRIPOS>MOLECULE
NONAME
55 56 1 0 0 
SMALL
USER_CHARGES


@<TRIPOS>ATOM
  1 O        0.9970     2.2500    -0.7900 O.2   1 <1>  -0.5700 
  2 C        0.3010     3.2310    -0.6680 C.2   1 <1>   0.5690 
  3 N       -0.8820     3.2120     0.0190 N.am  1 <1>  -0.6600 
  4 C        0.7810     4.5360    -1.3010 C.3   1 <1>   0.1810 
  5 C       -1.7330     4.4400     0.1360 C.3   1 <1>   0.3640 
  6 C       -1.4060     1.9840     0.6820 C.3   1 <1>   0.0600 
  7 O       -0.2720     5.4210    -1.6150 O.3   1 <1>  -0.5600 
  8 C       -3.1740     4.1870    -0.3420 C.ar  1 <1>  -0.1430 
  9 C       -1.1300     5.7190    -0.5210 C.3   1 <1>   0.2610 
 10 C       -3.5390     3.7360    -1.6150 C.ar  1 <1>  -0.1430 
 11 C       -4.1790     4.4460     0.5850 C.ar  1 <1>  -0.1500 
 12 C       -0.4350     6.6640     0.4730 C.2   1 <1>   0.5690 
 13 C       -4.8820     3.5570    -1.9180 C.ar  1 <1>  -0.1500 
 14 C       -2.5370     3.4210    -2.7190 C.3   1 <1>  -0.0960 
 15 C       -5.5130     4.2640     0.2730 C.ar  1 <1>  -0.1500 
 16 O       -0.6390     6.5570     1.6600 O.2   1 <1>  -0.5700 
 17 N        0.3930     7.6160    -0.0440 N.am  1 <1>  -0.7300 
 18 C       -5.8660     3.8180    -0.9840 C.ar  1 <1>  -0.1500 
 19 C        1.2120     8.6350     0.6220 C.3   1 <1>   0.3000 
 20 C        1.8460     9.5380    -0.4690 C.3   1 <1>  -0.1600 
 21 C        0.2970     9.5140     1.4840 C.3   1 <1>  -0.2400 
 22 C        2.2450     7.9380     1.5080 C.3   1 <1>  -0.2400 
 23 C        2.9220     9.0270    -1.4650 C.3   1 <1>  -0.0800 
 24 C        2.5790     7.7110    -2.1740 C.3   1 <1>  -0.2400 
 25 C        4.3290     8.9500    -0.8550 C.3   1 <1>  -0.2400 
 26 H        1.3030     4.3130    -2.2140 H     1 <1>   0.0800 
 27 H        1.4600     5.0250    -0.6260 H     1 <1>   0.0800 
 28 H       -1.8110     4.6270     1.1910 H     1 <1>   0.0800 
 29 H       -1.6290     2.1920     1.7130 H     1 <1>   0.0800 
 30 H       -0.6800     1.1900     0.6400 H     1 <1>   0.0800 
 31 H       -2.3020     1.6560     0.1850 H     1 <1>   0.0800 
 32 H       -1.9480     6.2830    -0.9300 H     1 <1>   0.0800 
 33 H       -3.9350     4.7970     1.5730 H     1 <1>   0.1500 
 34 H       -5.1770     3.2100    -2.8920 H     1 <1>   0.1500 
 35 H       -3.0290     3.0160    -3.5840 H     1 <1>   0.0800 
 36 H       -1.8220     2.6920    -2.3880 H     1 <1>   0.0800 
 37 H       -2.0260     4.3140    -3.0250 H     1 <1>   0.0800 
 38 H       -6.2730     4.4700     1.0050 H     1 <1>   0.1500 
 39 H        0.5650     7.5710    -1.0500 H     1 <1>   0.3700 
 40 H       -6.9020     3.6740    -1.2360 H     1 <1>   0.1500 
 41 H        1.0350     9.9310    -1.0570 H     1 <1>   0.0800 
 42 H        2.2730    10.3900     0.0300 H     1 <1>   0.0800 
 43 H        0.8630    10.3090     1.9350 H     1 <1>   0.0800 
 44 H       -0.1510     8.9470     2.2790 H     1 <1>   0.0800 
 45 H       -0.4830     9.9480     0.8860 H     1 <1>   0.0800 
 46 H        2.9520     8.6530     1.8870 H     1 <1>   0.0800 
 47 H        2.7690     7.1800     0.9580 H     1 <1>   0.0800 
 48 H        1.7630     7.4700     2.3470 H     1 <1>   0.0800 
 49 H        2.9820     9.7790    -2.2350 H     1 <1>   0.0800 
 50 H        2.5950     6.8910    -1.4820 H     1 <1>   0.0800 
 51 H        3.3050     7.5100    -2.9430 H     1 <1>   0.0800 
 52 H        1.6120     7.7710    -2.6410 H     1 <1>   0.0800 
 53 H        4.4230     8.1340    -0.1640 H     1 <1>   0.0800 
 54 H        4.5700     9.8650    -0.3440 H     1 <1>   0.0800 
 55 H        5.0560     8.8040    -1.6340 H     1 <1>   0.0800 
@<TRIPOS>BOND
  1   1   2  2   
  2   2   3  am  
  3   2   4  1   
  4   3   5  1   
  5   3   6  1   
  6   4   7  1   
  7   4  26  1   
  8   4  27  1   
  9   5   8  1   
 10   5   9  1   
 11   5  28  1   
 12   6  29  1   
 13   6  30  1   
 14   6  31  1   
 15   7   9  1   
 16   8  10  ar  
 17   8  11  ar  
 18   9  12  1   
 19   9  32  1   
 20  10  13  ar  
 21  10  14  1   
 22  11  15  ar  
 23  11  33  1   
 24  12  16  2   
 25  12  17  am  
 26  13  18  ar  
 27  13  34  1   
 28  14  35  1   
 29  14  36  1   
 30  14  37  1   
 31  15  18  ar  
 32  15  38  1   
 33  17  19  1   
 34  17  39  1   
 35  18  40  1   
 36  19  20  1   
 37  19  21  1   
 38  19  22  1   
 39  20  23  1   
 40  20  41  1   
 41  20  42  1   
 42  21  43  1   
 43  21  44  1   
 44  21  45  1   
 45  22  46  1   
 46  22  47  1   
 47  22  48  1   
 48  23  24  1   
 49  23  25  1   
 50  23  49  1   
 51  24  50  1   
 52  24  51  1   
 53  24  52  1   
 54  25  53  1   
 55  25  54  1   
 56  25  55  1   
@<TRIPOS>SUBSTRUCTURE
  1 ****   9 GROUP 4 **** **** 0

# MOE 2024.06 (io_trps.svl 2023.06)
