@<TRIPOS>MOLECULE
NONAME
58 61 1 0 0 
SMALL
USER_CHARGES


@<TRIPOS>ATOM
  1 CL      -1.2550    -0.8310     1.9100 Cl    1 <1>  -0.1230 
  2 C       -2.6700    -0.0210     1.2720 C.2   1 <1>   0.3500 
  3 N       -2.9250     1.2610     1.5620 N.2   1 <1>  -0.5650 
  4 C       -3.6120    -0.5750     0.4890 C.2   1 <1>  -0.3320 
  5 C       -4.0350     1.4870     0.9340 C.2   1 <1>   0.0060 
  6 N       -4.5050     0.4140     0.2530 N.pl3 1 <1>   0.0330 
  7 C       -3.6960    -1.9850    -0.0320 C.3   1 <1>   0.5230 
  8 C       -4.7670     2.8170     0.9530 C.3   1 <1>   0.0200 
  9 N       -4.3230    -2.8600     1.0000 N.4   1 <1>  -0.9590 
 10 C       -4.7970     3.4610    -0.4390 C.3   1 <1>  -0.1600 
 11 C       -5.5890    -2.3000     1.5620 C.3   1 <1>   0.3430 
 12 C       -4.6380    -4.2110     0.4330 C.3   1 <1>   0.3430 
 13 C       -5.5960     4.7700    -0.4340 C.3   1 <1>  -0.1600 
 14 C       -6.7300    -3.0950     0.9560 C.3   1 <1>  -0.0800 
 15 C       -6.1260    -4.4800     0.7010 C.3   1 <1>  -0.0800 
 16 C       -5.6370     5.3940    -1.8310 C.3   1 <1>  -0.2400 
 17 C       -7.3490    -2.4430    -0.3070 C.3   1 <1>   0.4240 
 18 C       -6.8360    -5.2560    -0.4340 C.3   1 <1>  -0.1600 
 19 O       -6.4000    -2.4600    -1.3180 O.3   1 <1>  -0.6800 
 20 C       -7.7610    -0.9710    -0.0920 C.ar  1 <1>  -0.1430 
 21 C       -8.5190    -3.3220    -0.7900 C.3   1 <1>  -0.1600 
 22 C       -8.3140    -4.8440    -0.5700 C.3   1 <1>  -0.1600 
 23 C       -7.5100     0.0180    -1.0450 C.ar  1 <1>  -0.1500 
 24 C       -8.4030    -0.5880     1.0820 C.ar  1 <1>  -0.1500 
 25 C       -7.8560     1.3380    -0.8160 C.ar  1 <1>  -0.1500 
 26 C       -8.7460     0.7320     1.3140 C.ar  1 <1>  -0.1500 
 27 C       -8.4690     1.6980     0.3680 C.ar  1 <1>  -0.1500 
 28 H       -5.3770     0.3910    -0.2920 H     1 <1>   0.2700 
 29 H       -2.7020    -2.3440    -0.2490 H     1 <1>   0.0800 
 30 H       -4.2600    -2.0020    -0.9470 H     1 <1>   0.0800 
 31 H       -5.7700     2.6600     1.3110 H     1 <1>   0.0800 
 32 H       -4.2710     3.4780     1.6430 H     1 <1>   0.0800 
 33 H       -3.6430    -2.9400     1.7670 H     1 <1>   0.4500 
 34 H       -3.7850     3.6580    -0.7520 H     1 <1>   0.0800 
 35 H       -5.2360     2.7800    -1.1460 H     1 <1>   0.0800 
 36 H       -5.5930    -2.4520     2.6290 H     1 <1>   0.0800 
 37 H       -5.7080    -1.2480     1.3760 H     1 <1>   0.0800 
 38 H       -4.4710    -4.2050    -0.6330 H     1 <1>   0.0800 
 39 H       -4.0240    -4.9770     0.8770 H     1 <1>   0.0800 
 40 H       -6.6040     4.5820    -0.1020 H     1 <1>   0.0800 
 41 H       -5.1440     5.4670     0.2510 H     1 <1>   0.0800 
 42 H       -7.5070    -3.1890     1.6930 H     1 <1>   0.0800 
 43 H       -6.2020    -5.0540     1.6090 H     1 <1>   0.0800 
 44 H       -6.1070     4.7260    -2.5320 H     1 <1>   0.0800 
 45 H       -4.6410     5.6120    -2.1750 H     1 <1>   0.0800 
 46 H       -6.1970     6.3120    -1.8080 H     1 <1>   0.0800 
 47 H       -6.3480    -5.0760    -1.3770 H     1 <1>   0.0800 
 48 H       -6.7720    -6.3150    -0.2450 H     1 <1>   0.0800 
 49 H       -6.8740    -2.3540    -2.1670 H     1 <1>   0.4000 
 50 H       -9.4070    -3.0350    -0.2540 H     1 <1>   0.0800 
 51 H       -8.7180    -3.1230    -1.8290 H     1 <1>   0.0800 
 52 H       -8.8290    -5.1360     0.3310 H     1 <1>   0.0800 
 53 H       -8.7700    -5.3880    -1.3810 H     1 <1>   0.0800 
 54 H       -7.0480    -0.2110    -1.9890 H     1 <1>   0.1500 
 55 H       -8.6610    -1.3070     1.8400 H     1 <1>   0.1500 
 56 H       -7.6590     2.0900    -1.5630 H     1 <1>   0.1500 
 57 H       -9.2390     1.0090     2.2310 H     1 <1>   0.1500 
 58 H       -8.7410     2.7250     0.5470 H     1 <1>   0.1500 
@<TRIPOS>BOND
  1   1   2  1   
  2   2   3  1   
  3   2   4  2   
  4   3   5  2   
  5   4   6  1   
  6   4   7  1   
  7   5   6  1   
  8   5   8  1   
  9   6  28  1   
 10   7   9  1   
 11   7  29  1   
 12   7  30  1   
 13   8  10  1   
 14   8  31  1   
 15   8  32  1   
 16   9  11  1   
 17   9  12  1   
 18   9  33  1   
 19  10  13  1   
 20  10  34  1   
 21  10  35  1   
 22  11  14  1   
 23  11  36  1   
 24  11  37  1   
 25  12  15  1   
 26  12  38  1   
 27  12  39  1   
 28  13  16  1   
 29  13  40  1   
 30  13  41  1   
 31  14  15  1   
 32  14  17  1   
 33  14  42  1   
 34  15  18  1   
 35  15  43  1   
 36  16  44  1   
 37  16  45  1   
 38  16  46  1   
 39  17  19  1   
 40  17  20  1   
 41  17  21  1   
 42  18  22  1   
 43  18  47  1   
 44  18  48  1   
 45  19  49  1   
 46  20  23  ar  
 47  20  24  ar  
 48  21  22  1   
 49  21  50  1   
 50  21  51  1   
 51  22  52  1   
 52  22  53  1   
 53  23  25  ar  
 54  23  54  1   
 55  24  26  ar  
 56  24  55  1   
 57  25  27  ar  
 58  25  56  1   
 59  26  27  ar  
 60  26  57  1   
 61  27  58  1   
@<TRIPOS>SUBSTRUCTURE
  1 ****   6 GROUP 4 **** **** 0

# MOE 2024.06 (io_trps.svl 2023.06)
