@<TRIPOS>MOLECULE
NONAME
45 49 1 0 0 
SMALL
USER_CHARGES


@<TRIPOS>ATOM
  1 S       -1.1380     0.2690    -1.0720 S.3   1 <1>  -0.1930 
  2 C       -2.1360    -1.0260    -0.4750 C.cat 1 <1>   0.8920 
  3 C        0.2660    -0.8230    -1.0940 C.2   1 <1>  -0.0490 
  4 N       -3.3970    -1.1370    -0.1130 N.pl3 1 <1>  -0.7000 
  5 N       -1.4630    -2.1480    -0.3440 N.pl3 1 <1>  -0.6290 
  6 C       -0.0930    -2.0480    -0.6750 C.2   1 <1>   0.2290 
  7 C       -3.5490    -2.4350     0.3080 C.2   1 <1>   0.1820 
  8 C       -2.3580    -3.0940     0.1590 C.2   1 <1>   0.2770 
  9 C       -4.8750    -2.9210     0.8650 C.3   1 <1>  -0.0720 
 10 C       -2.0200    -4.4720     0.4640 C.2   1 <1>   0.7030 
 11 O       -0.9970    -4.7060     1.0810 O.2   1 <1>  -0.5700 
 12 N       -2.8130    -5.5230     0.0620 N.am  1 <1>  -0.6600 
 13 C       -3.5390    -5.5250    -1.2470 C.3   1 <1>   0.1400 
 14 C       -2.8140    -6.8050     0.8200 C.3   1 <1>   0.1400 
 15 C       -4.4190    -6.7690    -1.4130 C.3   1 <1>  -0.1600 
 16 C       -4.2540    -7.2720     1.0710 C.3   1 <1>  -0.1600 
 17 C       -5.2030    -7.0670    -0.1290 C.3   1 <1>   0.4600 
 18 O       -5.9890    -5.9250     0.1720 O.3   1 <1>  -0.5600 
 19 C       -6.1240    -8.2690    -0.3090 C.2   1 <1>  -0.1400 
 20 C       -7.2510    -5.8000    -0.4490 C.3   1 <1>   0.1200 
 21 S       -5.5200    -9.8930    -0.6070 S.3   1 <1>  -0.0800 
 22 C       -7.4630    -8.2620    -0.2770 C.2   1 <1>  -0.1810 
 23 C       -8.1930    -6.9580    -0.0650 C.3   1 <1>   0.0210 
 24 C       -7.1590   -10.5290    -0.6560 C.2   1 <1>  -0.1100 
 25 C       -8.0620    -9.5470    -0.4650 C.2   1 <1>  -0.1500 
 26 H        1.2090    -0.4140    -1.4170 H     1 <1>   0.1500 
 27 H       -4.0840    -0.3790    -0.1240 H     1 <1>   0.4500 
 28 H        0.5400    -2.9180    -0.5690 H     1 <1>   0.1500 
 29 H       -5.2200    -2.2560     1.6360 H     1 <1>   0.0800 
 30 H       -4.7700    -3.9010     1.2940 H     1 <1>   0.0800 
 31 H       -5.6140    -2.9650     0.0860 H     1 <1>   0.0800 
 32 H       -2.8250    -5.4830    -2.0530 H     1 <1>   0.0800 
 33 H       -4.1680    -4.6540    -1.3080 H     1 <1>   0.0800 
 34 H       -2.3030    -6.6940     1.7620 H     1 <1>   0.0800 
 35 H       -2.2840    -7.5470     0.2460 H     1 <1>   0.0800 
 36 H       -3.7990    -7.6130    -1.6540 H     1 <1>   0.0800 
 37 H       -5.0950    -6.6390    -2.2380 H     1 <1>   0.0800 
 38 H       -4.6510    -6.7670     1.9330 H     1 <1>   0.0800 
 39 H       -4.2050    -8.3130     1.3270 H     1 <1>   0.0800 
 40 H       -7.1050    -5.7810    -1.5150 H     1 <1>   0.0800 
 41 H       -7.6780    -4.8620    -0.1420 H     1 <1>   0.0800 
 42 H       -9.0720    -6.9220    -0.6820 H     1 <1>   0.0800 
 43 H       -8.4910    -6.8670     0.9640 H     1 <1>   0.0800 
 44 H       -7.2750   -11.5850    -0.8240 H     1 <1>   0.1500 
 45 H       -9.1310    -9.6740    -0.4480 H     1 <1>   0.1500 
@<TRIPOS>BOND
  1   1   2  1   
  2   1   3  1   
  3   2   4  ar  
  4   2   5  ar  
  5   3   6  2   
  6   3  26  1   
  7   4   7  1   
  8   4  27  1   
  9   5   6  1   
 10   5   8  1   
 11   6  28  1   
 12   7   8  2   
 13   7   9  1   
 14   8  10  1   
 15   9  29  1   
 16   9  30  1   
 17   9  31  1   
 18  10  11  2   
 19  10  12  am  
 20  12  13  1   
 21  12  14  1   
 22  13  15  1   
 23  13  32  1   
 24  13  33  1   
 25  14  16  1   
 26  14  34  1   
 27  14  35  1   
 28  15  17  1   
 29  15  36  1   
 30  15  37  1   
 31  16  17  1   
 32  16  38  1   
 33  16  39  1   
 34  17  18  1   
 35  17  19  1   
 36  18  20  1   
 37  19  21  1   
 38  19  22  2   
 39  20  23  1   
 40  20  40  1   
 41  20  41  1   
 42  21  24  1   
 43  22  23  1   
 44  22  25  1   
 45  23  42  1   
 46  23  43  1   
 47  24  25  2   
 48  24  44  1   
 49  25  45  1   
@<TRIPOS>SUBSTRUCTURE
  1 ****  13 GROUP 4 **** **** 0

# MOE 2024.06 (io_trps.svl 2023.06)
