@<TRIPOS>MOLECULE
NONAME
55 56 1 0 0 
SMALL
USER_CHARGES


@<TRIPOS>ATOM
  1 S        0.5640     0.4870     0.4140 S.o2  1 <1>   1.3330 
  2 O       -0.7030     0.4390     1.1070 O.2   1 <1>  -0.6500 
  3 O        1.7890     0.6550     1.1630 O.2   1 <1>  -0.6500 
  4 N        0.7160    -0.9160    -0.5290 N.am  1 <1>  -0.8490 
  5 C        0.4590     1.7820    -0.8190 C.3   1 <1>  -0.0550 
  6 C        2.0970    -1.2030    -0.9320 C.3   1 <1>   0.1160 
  7 C        0.1330    -2.0920     0.1250 C.3   1 <1>   0.1160 
  8 C        0.2190     3.1770    -0.2150 C.3   1 <1>  -0.0800 
  9 C        0.0440     4.2470    -1.2880 C.3   1 <1>   0.2000 
 10 C        1.3720     3.7030     0.6440 C.3   1 <1>   0.1400 
 11 O       -1.2610     4.2530    -1.7490 O.3   1 <1>  -0.6800 
 12 C        0.4150     5.5660    -0.6140 C.3   1 <1>   0.1400 
 13 N        1.3230     5.1780     0.4930 N.am  1 <1>  -0.6600 
 14 C        2.0220     6.0220     1.3200 C.2   1 <1>   0.5690 
 15 O        2.6990     5.5830     2.2210 O.2   1 <1>  -0.5700 
 16 C        1.9520     7.5520     1.1430 C.3   1 <1>   0.1710 
 17 N        3.1050     8.2020     0.4550 N.3   1 <1>  -0.8100 
 18 C        4.3520     8.0280     1.2310 C.3   1 <1>   0.2530 
 19 C        3.2630     7.7460    -0.9320 C.3   1 <1>   0.0300 
 20 C        5.4840     8.8810     0.6720 C.ar  1 <1>  -0.1440 
 21 C        6.7020     8.3050     0.3440 C.ar  1 <1>  -0.1500 
 22 C        5.3130    10.2440     0.4880 C.ar  1 <1>  -0.1500 
 23 C        7.7320     9.0810    -0.1600 C.ar  1 <1>  -0.1500 
 24 C        6.3420    11.0200    -0.0160 C.ar  1 <1>  -0.1500 
 25 C        7.5580    10.4430    -0.3440 C.ar  1 <1>  -0.1440 
 26 C        8.6870    11.2940    -0.8950 C.3   1 <1>  -0.0970 
 27 H        1.3600     1.7950    -1.4010 H     1 <1>   0.0800 
 28 H       -0.3540     1.5540    -1.4810 H     1 <1>   0.0800 
 29 H        2.1190    -2.0470    -1.6000 H     1 <1>   0.0800 
 30 H        2.7030    -1.4240    -0.0680 H     1 <1>   0.0800 
 31 H        2.5190    -0.3550    -1.4420 H     1 <1>   0.0800 
 32 H        0.2320    -2.9580    -0.5060 H     1 <1>   0.0800 
 33 H       -0.9160    -1.9290     0.3090 H     1 <1>   0.0800 
 34 H        0.6240    -2.2790     1.0660 H     1 <1>   0.0800 
 35 H       -0.6580     3.1500     0.4100 H     1 <1>   0.0800 
 36 H        0.6980     4.0750    -2.1270 H     1 <1>   0.0800 
 37 H        2.3230     3.3470     0.2850 H     1 <1>   0.0800 
 38 H        1.2590     3.4190     1.6780 H     1 <1>   0.0800 
 39 H       -1.8920     4.3080    -1.0040 H     1 <1>   0.4000 
 40 H       -0.4580     6.0450    -0.2050 H     1 <1>   0.0800 
 41 H        0.9110     6.2180    -1.3080 H     1 <1>   0.0800 
 42 H        1.8620     7.9820     2.1250 H     1 <1>   0.0800 
 43 H        1.0530     7.8090     0.6170 H     1 <1>   0.0800 
 44 H        4.1800     8.3220     2.2520 H     1 <1>   0.0800 
 45 H        4.6410     6.9900     1.2310 H     1 <1>   0.0800 
 46 H        4.0570     8.2920    -1.4130 H     1 <1>   0.0800 
 47 H        2.3580     7.9310    -1.4830 H     1 <1>   0.0800 
 48 H        3.4960     6.6950    -0.9630 H     1 <1>   0.0800 
 49 H        6.8530     7.2490     0.4810 H     1 <1>   0.1500 
 50 H        4.3680    10.6960     0.7340 H     1 <1>   0.1500 
 51 H        8.6710     8.6180    -0.4070 H     1 <1>   0.1500 
 52 H        6.1890    12.0760    -0.1510 H     1 <1>   0.1500 
 53 H        9.3130    10.7120    -1.5470 H     1 <1>   0.0800 
 54 H        9.2840    11.6730    -0.0850 H     1 <1>   0.0800 
 55 H        8.2930    12.1230    -1.4550 H     1 <1>   0.0800 
@<TRIPOS>BOND
  1   1   2  2   
  2   1   3  2   
  3   1   4  am  
  4   1   5  1   
  5   4   6  1   
  6   4   7  1   
  7   5   8  1   
  8   5  27  1   
  9   5  28  1   
 10   6  29  1   
 11   6  30  1   
 12   6  31  1   
 13   7  32  1   
 14   7  33  1   
 15   7  34  1   
 16   8   9  1   
 17   8  10  1   
 18   8  35  1   
 19   9  11  1   
 20   9  12  1   
 21   9  36  1   
 22  10  13  1   
 23  10  37  1   
 24  10  38  1   
 25  11  39  1   
 26  12  13  1   
 27  12  40  1   
 28  12  41  1   
 29  13  14  am  
 30  14  15  2   
 31  14  16  1   
 32  16  17  1   
 33  16  42  1   
 34  16  43  1   
 35  17  18  1   
 36  17  19  1   
 37  18  20  1   
 38  18  44  1   
 39  18  45  1   
 40  19  46  1   
 41  19  47  1   
 42  19  48  1   
 43  20  21  ar  
 44  20  22  ar  
 45  21  23  ar  
 46  21  49  1   
 47  22  24  ar  
 48  22  50  1   
 49  23  25  ar  
 50  23  51  1   
 51  24  25  ar  
 52  24  52  1   
 53  25  26  1   
 54  26  53  1   
 55  26  54  1   
 56  26  55  1   
@<TRIPOS>SUBSTRUCTURE
  1 ****  13 GROUP 4 **** **** 0

# MOE 2024.06 (io_trps.svl 2023.06)
