@<TRIPOS>MOLECULE
NONAME
53 56 1 0 0 
SMALL
USER_CHARGES


@<TRIPOS>ATOM
  1 F       -1.9660     1.1080     2.3980 F     1 <1>  -0.1900 
  2 C       -3.1870     1.1470     1.9360 C.ar  1 <1>   0.1900 
  3 C       -3.6570     2.3280     1.3930 C.ar  1 <1>  -0.1500 
  4 C       -3.9630     0.0050     2.0070 C.ar  1 <1>  -0.1500 
  5 C       -4.9530     2.3600     0.9060 C.ar  1 <1>  -0.1500 
  6 C       -5.2580     0.0470     1.5170 C.ar  1 <1>  -0.1500 
  7 C       -5.7570     1.2280     0.9640 C.ar  1 <1>   0.0830 
  8 O       -7.0120     1.3530     0.4640 O.3   1 <1>  -0.3630 
  9 C       -7.9180     0.2800     0.4810 C.3   1 <1>   0.1200 
 10 C       -9.2210     0.7860    -0.1370 C.3   1 <1>  -0.1600 
 11 C      -10.2800    -0.3150    -0.1470 C.3   1 <1>   0.3430 
 12 N      -11.5180     0.1640    -0.8220 N.4   1 <1>  -0.9590 
 13 C      -12.2510     1.1840     0.0130 C.3   1 <1>   0.3430 
 14 C      -12.4130    -0.9850    -1.1510 C.3   1 <1>   0.3430 
 15 C      -13.4930     1.7420    -0.7020 C.3   1 <1>   0.1430 
 16 C      -13.6360    -0.4920    -1.9300 C.3   1 <1>  -0.1600 
 17 C      -14.2240     2.6440     0.2620 C.ar  1 <1>   0.1670 
 18 C      -14.4120     0.5910    -1.1590 C.3   1 <1>  -0.1600 
 19 C      -13.1460     2.7100    -1.8660 C.3   1 <1>  -0.1600 
 20 N      -14.4910     2.3360     1.5100 N.ar  1 <1>  -0.6200 
 21 C      -14.5640     3.8320    -0.3090 C.ar  1 <1>  -0.1430 
 22 C      -14.1110     3.9070    -1.7460 C.3   1 <1>  -0.0170 
 23 C      -15.1410     3.2850     2.1730 C.ar  1 <1>   0.4770 
 24 C      -15.2320     4.7430     0.4700 C.ar  1 <1>   0.1600 
 25 N      -15.5260     4.4720     1.7250 N.ar  1 <1>  -0.6200 
 26 C      -15.4900     2.9800     3.6100 C.3   1 <1>  -0.0970 
 27 H       -3.0230     3.1950     1.3550 H     1 <1>   0.1500 
 28 H       -3.5570    -0.8930     2.4370 H     1 <1>   0.1500 
 29 H       -5.3470     3.2640     0.4780 H     1 <1>   0.1500 
 30 H       -5.8530    -0.8440     1.5760 H     1 <1>   0.1500 
 31 H       -8.0620    -0.0220     1.5050 H     1 <1>   0.0800 
 32 H       -7.4970    -0.5260    -0.0960 H     1 <1>   0.0800 
 33 H       -9.0180     1.1040    -1.1440 H     1 <1>   0.0800 
 34 H       -9.5580     1.6240     0.4460 H     1 <1>   0.0800 
 35 H      -10.5040    -0.6210     0.8620 H     1 <1>   0.0800 
 36 H       -9.8870    -1.1680    -0.6790 H     1 <1>   0.0800 
 37 H      -11.2510     0.6130    -1.7080 H     1 <1>   0.4500 
 38 H      -11.6020     2.0060     0.2620 H     1 <1>   0.0800 
 39 H      -12.5710     0.7280     0.9370 H     1 <1>   0.0800 
 40 H      -12.7410    -1.4640    -0.2410 H     1 <1>   0.0800 
 41 H      -11.8810    -1.7130    -1.7430 H     1 <1>   0.0800 
 42 H      -14.2900    -1.3270    -2.1120 H     1 <1>   0.0800 
 43 H      -13.3240    -0.1210    -2.8900 H     1 <1>   0.0800 
 44 H      -15.2160     0.9750    -1.7650 H     1 <1>   0.0800 
 45 H      -14.8610     0.1400    -0.2890 H     1 <1>   0.0800 
 46 H      -13.2230     2.2510    -2.8360 H     1 <1>   0.0800 
 47 H      -12.1440     3.0820    -1.7430 H     1 <1>   0.0800 
 48 H      -14.9600     3.7840    -2.3980 H     1 <1>   0.0800 
 49 H      -13.6200     4.8410    -1.9610 H     1 <1>   0.0800 
 50 H      -15.5280     5.6980     0.0700 H     1 <1>   0.1500 
 51 H      -14.8390     2.2220     4.0020 H     1 <1>   0.0800 
 52 H      -16.5050     2.6360     3.6620 H     1 <1>   0.0800 
 53 H      -15.3890     3.8680     4.2060 H     1 <1>   0.0800 
@<TRIPOS>BOND
  1   1   2  1   
  2   2   3  ar  
  3   2   4  ar  
  4   3   5  ar  
  5   3  27  1   
  6   4   6  ar  
  7   4  28  1   
  8   5   7  ar  
  9   5  29  1   
 10   6   7  ar  
 11   6  30  1   
 12   7   8  1   
 13   8   9  1   
 14   9  10  1   
 15   9  31  1   
 16   9  32  1   
 17  10  11  1   
 18  10  33  1   
 19  10  34  1   
 20  11  12  1   
 21  11  35  1   
 22  11  36  1   
 23  12  13  1   
 24  12  14  1   
 25  12  37  1   
 26  13  15  1   
 27  13  38  1   
 28  13  39  1   
 29  14  16  1   
 30  14  40  1   
 31  14  41  1   
 32  15  17  1   
 33  15  18  1   
 34  15  19  1   
 35  16  18  1   
 36  16  42  1   
 37  16  43  1   
 38  17  20  ar  
 39  17  21  ar  
 40  18  44  1   
 41  18  45  1   
 42  19  22  1   
 43  19  46  1   
 44  19  47  1   
 45  20  23  ar  
 46  21  22  1   
 47  21  24  ar  
 48  22  48  1   
 49  22  49  1   
 50  23  25  ar  
 51  23  26  1   
 52  24  25  ar  
 53  24  50  1   
 54  26  51  1   
 55  26  52  1   
 56  26  53  1   
@<TRIPOS>SUBSTRUCTURE
  1 ****  10 GROUP 4 **** **** 0

# MOE 2024.06 (io_trps.svl 2023.06)
