@<TRIPOS>MOLECULE
NONAME
57 59 1 0 0 
SMALL
USER_CHARGES


@<TRIPOS>ATOM
  1 O        0.5340     1.4380    -0.4250 O.2   1 <1>  -0.5700 
  2 C        0.2100     2.5770    -0.6690 C.2   1 <1>   0.5690 
  3 N       -0.7340     3.2720     0.0430 N.am  1 <1>  -0.6600 
  4 C        0.8930     3.2660    -1.8460 C.3   1 <1>   0.1810 
  5 C       -1.0960     4.6800    -0.3400 C.3   1 <1>   0.3640 
  6 C       -1.4180     2.7660     1.2660 C.3   1 <1>   0.2200 
  7 O        1.0380     4.6440    -1.6240 O.3   1 <1>  -0.5600 
  8 C       -2.5540     4.7150    -0.8040 C.ar  1 <1>  -0.1440 
  9 C       -0.1900     5.3300    -1.4270 C.3   1 <1>   0.2610 
 10 C       -0.4010     2.5550     2.3870 C.3   1 <1>  -0.2400 
 11 C       -2.2190     1.4960     0.9750 C.3   1 <1>  -0.2400 
 12 C       -3.4070     5.7020    -0.3290 C.ar  1 <1>  -0.1500 
 13 C       -3.0480     3.7800    -1.7060 C.ar  1 <1>  -0.1500 
 14 C        0.0810     6.8000    -1.0740 C.2   1 <1>   0.5690 
 15 C       -4.7260     5.7520    -0.7430 C.ar  1 <1>  -0.1500 
 16 C       -4.3670     3.8290    -2.1210 C.ar  1 <1>  -0.1500 
 17 O       -0.8270     7.5130    -0.7150 O.2   1 <1>  -0.5700 
 18 N        1.3520     7.2750    -1.1610 N.am  1 <1>  -0.7300 
 19 C       -5.2080     4.8150    -1.6390 C.ar  1 <1>  -0.1500 
 20 C        1.7740     8.6790    -0.9290 C.3   1 <1>   0.1400 
 21 C        1.8170     8.9850     0.5680 C.3   1 <1>   0.1200 
 22 O        2.3660    10.2530     0.7380 O.3   1 <1>  -0.5600 
 23 C        2.3870    10.6920     2.0610 C.3   1 <1>   0.2630 
 24 C        3.0280    12.0700     2.1230 C.ar  1 <1>  -0.1430 
 25 C        4.0600    12.3280     3.0150 C.ar  1 <1>  -0.1500 
 26 C        2.5810    13.0890     1.2950 C.ar  1 <1>  -0.1500 
 27 C        4.6320    13.5870     3.0800 C.ar  1 <1>  -0.1500 
 28 C        3.1520    14.3490     1.3580 C.ar  1 <1>  -0.1500 
 29 C        4.1780    14.5990     2.2520 C.ar  1 <1>  -0.1500 
 30 H        0.3220     3.1150    -2.7440 H     1 <1>   0.0800 
 31 H        1.8750     2.8500    -1.9800 H     1 <1>   0.0800 
 32 H       -1.0120     5.2770     0.5520 H     1 <1>   0.0800 
 33 H       -2.1200     3.5120     1.6020 H     1 <1>   0.0800 
 34 H       -0.7100     5.3190    -2.3680 H     1 <1>   0.0800 
 35 H        0.2870     1.7670     2.1370 H     1 <1>   0.0800 
 36 H       -0.9090     2.2810     3.2930 H     1 <1>   0.0800 
 37 H        0.1480     3.4610     2.5660 H     1 <1>   0.0800 
 38 H       -1.5740     0.6780     0.7160 H     1 <1>   0.0800 
 39 H       -2.9140     1.6700     0.1750 H     1 <1>   0.0800 
 40 H       -2.7780     1.2140     1.8490 H     1 <1>   0.0800 
 41 H       -3.0480     6.4470     0.3620 H     1 <1>   0.1500 
 42 H       -2.4100     3.0020    -2.0870 H     1 <1>   0.1500 
 43 H       -5.3770     6.5240    -0.3690 H     1 <1>   0.1500 
 44 H       -4.7400     3.0980    -2.8170 H     1 <1>   0.1500 
 45 H        2.0810     6.6050    -1.4320 H     1 <1>   0.3700 
 46 H       -6.2340     4.8550    -1.9600 H     1 <1>   0.1500 
 47 H        2.7490     8.8310    -1.3580 H     1 <1>   0.0800 
 48 H        1.0730     9.3430    -1.4050 H     1 <1>   0.0800 
 49 H        2.4400     8.2720     1.0790 H     1 <1>   0.0800 
 50 H        0.8200     8.9780     0.9740 H     1 <1>   0.0800 
 51 H        1.3750    10.7430     2.4230 H     1 <1>   0.0800 
 52 H        2.9490     9.9860     2.6480 H     1 <1>   0.0800 
 53 H        4.4230    11.5510     3.6630 H     1 <1>   0.1500 
 54 H        1.7870    12.8960     0.5950 H     1 <1>   0.1500 
 55 H        5.4320    13.7800     3.7730 H     1 <1>   0.1500 
 56 H        2.7970    15.1310     0.7100 H     1 <1>   0.1500 
 57 H        4.6220    15.5770     2.3020 H     1 <1>   0.1500 
@<TRIPOS>BOND
  1   1   2  2   
  2   2   3  am  
  3   2   4  1   
  4   3   5  1   
  5   3   6  1   
  6   4   7  1   
  7   4  30  1   
  8   4  31  1   
  9   5   8  1   
 10   5   9  1   
 11   5  32  1   
 12   6  10  1   
 13   6  11  1   
 14   6  33  1   
 15   7   9  1   
 16   8  12  ar  
 17   8  13  ar  
 18   9  14  1   
 19   9  34  1   
 20  10  35  1   
 21  10  36  1   
 22  10  37  1   
 23  11  38  1   
 24  11  39  1   
 25  11  40  1   
 26  12  15  ar  
 27  12  41  1   
 28  13  16  ar  
 29  13  42  1   
 30  14  17  2   
 31  14  18  am  
 32  15  19  ar  
 33  15  43  1   
 34  16  19  ar  
 35  16  44  1   
 36  18  20  1   
 37  18  45  1   
 38  19  46  1   
 39  20  21  1   
 40  20  47  1   
 41  20  48  1   
 42  21  22  1   
 43  21  49  1   
 44  21  50  1   
 45  22  23  1   
 46  23  24  1   
 47  23  51  1   
 48  23  52  1   
 49  24  25  ar  
 50  24  26  ar  
 51  25  27  ar  
 52  25  53  1   
 53  26  28  ar  
 54  26  54  1   
 55  27  29  ar  
 56  27  55  1   
 57  28  29  ar  
 58  28  56  1   
 59  29  57  1   
@<TRIPOS>SUBSTRUCTURE
  1 ****  14 GROUP 4 **** **** 0

# MOE 2024.06 (io_trps.svl 2023.06)
