@<TRIPOS>MOLECULE
NONAME
42 43 1 0 0 
SMALL
USER_CHARGES


@<TRIPOS>ATOM
  1 F       -0.1960    -0.6540     0.4240 F     1 <1>  -0.3400 
  2 C       -1.3230    -0.5210     1.1110 C.3   1 <1>   0.8800 
  3 F       -1.0630     0.3530     2.0720 F     1 <1>  -0.3400 
  4 O       -1.6320    -1.7540     1.7180 O.3   1 <1>  -0.3630 
  5 C       -2.1020    -2.8020     0.9980 C.ar  1 <1>   0.0830 
  6 C       -2.4050    -3.9490     1.7120 C.ar  1 <1>  -0.1500 
  7 C       -2.2880    -2.7880    -0.3820 C.ar  1 <1>  -0.1500 
  8 C       -2.8910    -5.0720     1.0690 C.ar  1 <1>  -0.1500 
  9 C       -2.7780    -3.9120    -1.0260 C.ar  1 <1>  -0.1500 
 10 C       -3.0870    -5.0570    -0.3050 C.ar  1 <1>  -0.1440 
 11 C       -3.6300    -6.2920    -0.9920 C.3   1 <1>   0.4870 
 12 N       -5.1020    -6.2980    -0.7850 N.4   1 <1>  -0.9590 
 13 C       -5.6480    -7.6730    -0.7370 C.3   1 <1>   0.5230 
 14 C       -5.7950    -5.4010    -1.7620 C.3   1 <1>   0.3430 
 15 C       -5.0860    -8.2990     0.5120 C.2   1 <1>  -0.3320 
 16 C       -7.2300    -5.0530    -1.3430 C.3   1 <1>   0.1200 
 17 N       -4.3210    -9.4140     0.5550 N.pl3 1 <1>   0.0480 
 18 C       -5.2230    -7.8780     1.7900 C.2   1 <1>   0.0770 
 19 O       -7.7770    -4.2800    -2.3490 O.3   1 <1>  -0.6800 
 20 C       -4.0270    -9.5700     1.8640 C.2   1 <1>   0.0360 
 21 C       -3.9040   -10.3140    -0.5400 C.3   1 <1>   0.0160 
 22 N       -4.5420    -8.6660     2.6300 N.2   1 <1>  -0.5650 
 23 H       -2.1090    -0.1480     0.4790 H     1 <1>   0.0800 
 24 H       -2.2500    -3.9590     2.7780 H     1 <1>   0.1500 
 25 H       -2.0490    -1.9240    -0.9750 H     1 <1>   0.1500 
 26 H       -3.1030    -5.9520     1.6550 H     1 <1>   0.1500 
 27 H       -2.9050    -3.8800    -2.0960 H     1 <1>   0.1500 
 28 H       -3.1800    -7.1600    -0.5380 H     1 <1>   0.0800 
 29 H       -3.3880    -6.2840    -2.0420 H     1 <1>   0.0800 
 30 H       -5.2160    -5.9040     0.1580 H     1 <1>   0.4500 
 31 H       -5.3610    -8.2290    -1.6150 H     1 <1>   0.0800 
 32 H       -6.7240    -7.6540    -0.6720 H     1 <1>   0.0800 
 33 H       -5.8180    -5.8680    -2.7330 H     1 <1>   0.0800 
 34 H       -5.2480    -4.4760    -1.8470 H     1 <1>   0.0800 
 35 H       -7.2390    -4.4750    -0.4340 H     1 <1>   0.0800 
 36 H       -7.8420    -5.9320    -1.2380 H     1 <1>   0.0800 
 37 H       -5.7770    -7.0360     2.1740 H     1 <1>   0.1500 
 38 H       -8.6940    -3.9980    -2.1380 H     1 <1>   0.4000 
 39 H       -3.4190   -10.3830     2.2250 H     1 <1>   0.1500 
 40 H       -3.2910    -9.7770    -1.2410 H     1 <1>   0.0800 
 41 H       -4.7730   -10.7050    -1.0360 H     1 <1>   0.0800 
 42 H       -3.3360   -11.1330    -0.1340 H     1 <1>   0.0800 
@<TRIPOS>BOND
  1   1   2  1   
  2   2   3  1   
  3   2   4  1   
  4   2  23  1   
  5   4   5  1   
  6   5   6  ar  
  7   5   7  ar  
  8   6   8  ar  
  9   6  24  1   
 10   7   9  ar  
 11   7  25  1   
 12   8  10  ar  
 13   8  26  1   
 14   9  10  ar  
 15   9  27  1   
 16  10  11  1   
 17  11  12  1   
 18  11  28  1   
 19  11  29  1   
 20  12  13  1   
 21  12  14  1   
 22  12  30  1   
 23  13  15  1   
 24  13  31  1   
 25  13  32  1   
 26  14  16  1   
 27  14  33  1   
 28  14  34  1   
 29  15  17  1   
 30  15  18  2   
 31  16  19  1   
 32  16  35  1   
 33  16  36  1   
 34  17  20  1   
 35  17  21  1   
 36  18  22  1   
 37  18  37  1   
 38  19  38  1   
 39  20  22  2   
 40  20  39  1   
 41  21  40  1   
 42  21  41  1   
 43  21  42  1   
@<TRIPOS>SUBSTRUCTURE
  1 ****  10 GROUP 4 **** **** 0

# MOE 2024.06 (io_trps.svl 2023.06)
