@<TRIPOS>MOLECULE
NONAME
50 52 1 0 0 
SMALL
USER_CHARGES


@<TRIPOS>ATOM
  1 O       -4.8060     4.5310     0.3860 O.co2 1 <1>  -0.9000 
  2 C       -3.8880     4.0100    -0.2570 C.2   1 <1>   0.9060 
  3 O       -2.7070     4.3390    -0.1270 O.co2 1 <1>  -0.9000 
  4 C       -4.2370     2.9240    -1.2520 C.3   1 <1>  -0.2660 
  5 C       -4.8420     1.6860    -0.5690 C.3   1 <1>  -0.1600 
  6 C       -5.3930     0.6710    -1.5820 C.3   1 <1>  -0.0990 
  7 C       -6.1820    -0.4500    -0.9160 C.2   1 <1>   0.5690 
  8 O       -5.6070    -1.5040    -0.7640 O.2   1 <1>  -0.5700 
  9 N       -7.4940    -0.2840    -0.5340 N.am  1 <1>  -0.6600 
 10 C       -8.2920     0.9770    -0.7130 C.3   1 <1>   0.1400 
 11 C       -8.2850    -1.4340    -0.0070 C.3   1 <1>   0.1400 
 12 C       -9.0400     1.3850     0.5740 C.3   1 <1>   0.1430 
 13 C       -9.0010    -1.0500     1.2940 C.3   1 <1>  -0.1600 
 14 C       -9.8900     2.6020     0.2530 C.ar  1 <1>   0.1670 
 15 C       -9.8730     0.2020     1.1080 C.3   1 <1>  -0.1600 
 16 C       -8.0740     1.9480     1.6480 C.3   1 <1>  -0.1600 
 17 N      -11.0300     2.5890    -0.3950 N.ar  1 <1>  -0.6200 
 18 C       -9.3090     3.7450     0.7110 C.ar  1 <1>  -0.1440 
 19 C       -8.0020     3.4680     1.4130 C.3   1 <1>  -0.0170 
 20 C      -11.5950     3.7860    -0.5720 C.ar  1 <1>   0.7200 
 21 C       -9.9570     4.9300     0.4740 C.ar  1 <1>   0.1600 
 22 N      -11.1050     4.9620    -0.1640 N.ar  1 <1>  -0.6200 
 23 N      -12.8030     3.8110    -1.2440 N.pl3 1 <1>  -0.8380 
 24 C      -13.6180     2.5830    -1.4560 C.3   1 <1>   0.1290 
 25 C      -13.3830     5.0750    -1.7750 C.3   1 <1>   0.1290 
 26 H       -3.3470     2.6560    -1.7880 H     1 <1>   0.0800 
 27 H       -4.9390     3.3490    -1.9420 H     1 <1>   0.0800 
 28 H       -5.6320     2.0180     0.0740 H     1 <1>   0.0800 
 29 H       -4.0970     1.2170     0.0520 H     1 <1>   0.0800 
 30 H       -4.5690     0.2370    -2.1180 H     1 <1>   0.0800 
 31 H       -6.0150     1.1610    -2.3050 H     1 <1>   0.0800 
 32 H       -9.0140     0.8130    -1.4940 H     1 <1>   0.0800 
 33 H       -7.6670     1.7950    -1.0200 H     1 <1>   0.0800 
 34 H       -7.6470    -2.2810     0.1780 H     1 <1>   0.0800 
 35 H       -9.0100    -1.7220    -0.7480 H     1 <1>   0.0800 
 36 H       -8.2630    -0.8810     2.0590 H     1 <1>   0.0800 
 37 H       -9.6160    -1.8720     1.6110 H     1 <1>   0.0800 
 38 H      -10.6540    -0.0210     0.4020 H     1 <1>   0.0800 
 39 H      -10.3440     0.4700     2.0370 H     1 <1>   0.0800 
 40 H       -7.1060     1.4830     1.6290 H     1 <1>   0.0800 
 41 H       -8.4970     1.7890     2.6240 H     1 <1>   0.0800 
 42 H       -7.1830     3.7200     0.7620 H     1 <1>   0.0800 
 43 H       -7.9080     4.0130     2.3350 H     1 <1>   0.0800 
 44 H       -9.5260     5.8570     0.8100 H     1 <1>   0.1500 
 45 H      -13.4240     1.8620    -0.6800 H     1 <1>   0.0800 
 46 H      -13.3690     2.1470    -2.4080 H     1 <1>   0.0800 
 47 H      -14.6650     2.8260    -1.4370 H     1 <1>   0.0800 
 48 H      -12.6020     5.7700    -2.0310 H     1 <1>   0.0800 
 49 H      -14.0160     5.5200    -1.0280 H     1 <1>   0.0800 
 50 H      -13.9610     4.8740    -2.6600 H     1 <1>   0.0800 
@<TRIPOS>BOND
  1   1   2  ar  
  2   2   3  ar  
  3   2   4  1   
  4   4   5  1   
  5   4  26  1   
  6   4  27  1   
  7   5   6  1   
  8   5  28  1   
  9   5  29  1   
 10   6   7  1   
 11   6  30  1   
 12   6  31  1   
 13   7   8  2   
 14   7   9  am  
 15   9  10  1   
 16   9  11  1   
 17  10  12  1   
 18  10  32  1   
 19  10  33  1   
 20  11  13  1   
 21  11  34  1   
 22  11  35  1   
 23  12  14  1   
 24  12  15  1   
 25  12  16  1   
 26  13  15  1   
 27  13  36  1   
 28  13  37  1   
 29  14  17  ar  
 30  14  18  ar  
 31  15  38  1   
 32  15  39  1   
 33  16  19  1   
 34  16  40  1   
 35  16  41  1   
 36  17  20  ar  
 37  18  19  1   
 38  18  21  ar  
 39  19  42  1   
 40  19  43  1   
 41  20  22  ar  
 42  20  23  1   
 43  21  22  ar  
 44  21  44  1   
 45  23  24  1   
 46  23  25  1   
 47  24  45  1   
 48  24  46  1   
 49  24  47  1   
 50  25  48  1   
 51  25  49  1   
 52  25  50  1   
@<TRIPOS>SUBSTRUCTURE
  1 ****  12 GROUP 4 **** **** 0

# MOE 2024.06 (io_trps.svl 2023.06)
