@<TRIPOS>MOLECULE
NONAME
52 54 1 0 0 
SMALL
USER_CHARGES


@<TRIPOS>ATOM
  1 O        0.0550     0.9630    -0.2860 O.2   1 <1>  -0.5700 
  2 C       -0.1260     2.1440    -0.4650 C.2   1 <1>   0.5690 
  3 N       -0.8760     2.9100     0.3880 N.am  1 <1>  -0.6600 
  4 C        0.4990     2.7900    -1.7030 C.3   1 <1>   0.1810 
  5 C       -1.0890     4.3720     0.1340 C.3   1 <1>   0.3640 
  6 C       -1.4530     2.3680     1.6530 C.3   1 <1>   0.0600 
  7 O        0.7100     4.1700    -1.5430 O.3   1 <1>  -0.5600 
  8 C       -2.5740     4.7580     0.2220 C.ar  1 <1>  -0.1430 
  9 C       -0.4590     4.8890    -1.1840 C.3   1 <1>   0.2610 
 10 C       -3.6100     4.1090    -0.4580 C.ar  1 <1>  -0.1430 
 11 C       -2.8830     5.8410     1.0370 C.ar  1 <1>  -0.1500 
 12 C       -0.1860     6.3950    -1.0700 C.2   1 <1>   0.5690 
 13 C       -4.9140     4.5530    -0.2950 C.ar  1 <1>  -0.1500 
 14 C       -3.3990     2.9130    -1.3820 C.3   1 <1>  -0.0960 
 15 C       -4.1860     6.2760     1.1890 C.ar  1 <1>  -0.1500 
 16 O       -0.8870     7.1250    -1.7330 O.2   1 <1>  -0.5700 
 17 N        0.7970     6.9190    -0.2540 N.am  1 <1>  -0.6600 
 18 C       -5.2050     5.6280     0.5220 C.ar  1 <1>  -0.1500 
 19 C        1.0950     8.3870    -0.2600 C.3   1 <1>   0.1400 
 20 C        1.8610     6.1330     0.4520 C.3   1 <1>   0.1400 
 21 C        2.4560     8.6550    -0.9220 C.3   1 <1>   0.1400 
 22 C        3.2230     6.3660    -0.2170 C.3   1 <1>   0.1400 
 23 N        3.5280     7.8270    -0.2870 N.am  1 <1>  -0.6600 
 24 C        4.6690     8.3520     0.2570 C.2   1 <1>   0.7800 
 25 O        5.4980     7.6680     0.8260 O.2   1 <1>  -0.5700 
 26 O        4.8580     9.6700     0.1550 O.3   1 <1>  -0.4300 
 27 C        6.0160    10.2830     0.6860 C.3   1 <1>   0.0400 
 28 H       -0.1370     2.6350    -2.5550 H     1 <1>   0.0800 
 29 H        1.4530     2.3340    -1.8970 H     1 <1>   0.0800 
 30 H       -0.5850     4.8790     0.9360 H     1 <1>   0.0800 
 31 H       -1.1020     2.9420     2.4910 H     1 <1>   0.0800 
 32 H       -1.1650     1.3400     1.7940 H     1 <1>   0.0800 
 33 H       -2.5280     2.4190     1.6180 H     1 <1>   0.0800 
 34 H       -1.1630     4.7610    -1.9840 H     1 <1>   0.0800 
 35 H       -2.1080     6.3700     1.5640 H     1 <1>   0.1500 
 36 H       -5.7230     4.0620    -0.8070 H     1 <1>   0.1500 
 37 H       -4.2790     2.7210    -1.9680 H     1 <1>   0.0800 
 38 H       -3.1880     2.0320    -0.8030 H     1 <1>   0.0800 
 39 H       -2.5900     3.0870    -2.0630 H     1 <1>   0.0800 
 40 H       -4.4060     7.1170     1.8220 H     1 <1>   0.1500 
 41 H       -6.2220     5.9610     0.6350 H     1 <1>   0.1500 
 42 H        0.3310     8.9320    -0.7870 H     1 <1>   0.0800 
 43 H        1.1140     8.7500     0.7530 H     1 <1>   0.0800 
 44 H        1.9170     6.4560     1.4770 H     1 <1>   0.0800 
 45 H        1.6450     5.0820     0.4580 H     1 <1>   0.0800 
 46 H        2.6830     9.7030    -0.8460 H     1 <1>   0.0800 
 47 H        2.3930     8.4070    -1.9670 H     1 <1>   0.0800 
 48 H        3.2030     5.9590    -1.2130 H     1 <1>   0.0800 
 49 H        3.9840     5.8450     0.3370 H     1 <1>   0.0800 
 50 H        5.9620    11.3390     0.4910 H     1 <1>   0.0800 
 51 H        6.8820     9.8600     0.2090 H     1 <1>   0.0800 
 52 H        6.0500    10.1020     1.7460 H     1 <1>   0.0800 
@<TRIPOS>BOND
  1   1   2  2   
  2   2   3  am  
  3   2   4  1   
  4   3   5  1   
  5   3   6  1   
  6   4   7  1   
  7   4  28  1   
  8   4  29  1   
  9   5   8  1   
 10   5   9  1   
 11   5  30  1   
 12   6  31  1   
 13   6  32  1   
 14   6  33  1   
 15   7   9  1   
 16   8  10  ar  
 17   8  11  ar  
 18   9  12  1   
 19   9  34  1   
 20  10  13  ar  
 21  10  14  1   
 22  11  15  ar  
 23  11  35  1   
 24  12  16  2   
 25  12  17  am  
 26  13  18  ar  
 27  13  36  1   
 28  14  37  1   
 29  14  38  1   
 30  14  39  1   
 31  15  18  ar  
 32  15  40  1   
 33  17  19  1   
 34  17  20  1   
 35  18  41  1   
 36  19  21  1   
 37  19  42  1   
 38  19  43  1   
 39  20  22  1   
 40  20  44  1   
 41  20  45  1   
 42  21  23  1   
 43  21  46  1   
 44  21  47  1   
 45  22  23  1   
 46  22  48  1   
 47  22  49  1   
 48  23  24  am  
 49  24  25  2   
 50  24  26  1   
 51  26  27  1   
 52  27  50  1   
 53  27  51  1   
 54  27  52  1   
@<TRIPOS>SUBSTRUCTURE
  1 ****  12 GROUP 4 **** **** 0

# MOE 2024.06 (io_trps.svl 2023.06)
