@<TRIPOS>MOLECULE
NONAME
45 47 1 0 0 
SMALL
USER_CHARGES


@<TRIPOS>ATOM
  1 O       -0.2650     0.7060     0.7590 O.2   1 <1>  -0.5700 
  2 C        0.0450     1.8760     0.6340 C.2   1 <1>   0.6900 
  3 N       -0.9010     2.8660     0.7410 N.am  1 <1>  -0.6600 
  4 N        1.3450     2.2360     0.4140 N.am  1 <1>  -0.5470 
  5 C       -2.3070     2.5400     1.1290 C.3   1 <1>   0.1400 
  6 C       -0.6680     4.2740     0.3010 C.3   1 <1>   0.1400 
  7 C        2.4880     1.4740     0.1370 C.ar  1 <1>   0.1170 
  8 C       -3.3020     2.7820    -0.0410 C.3   1 <1>   0.0000 
  9 C       -1.9780     4.9850    -0.0710 C.3   1 <1>  -0.1600 
 10 C        2.4310     0.2110    -0.4440 C.ar  1 <1>  -0.1500 
 11 C        3.7380     2.0060     0.4340 C.ar  1 <1>  -0.1500 
 12 C       -4.7310     2.8170     0.5510 C.3   1 <1>   0.2000 
 13 C       -2.9000     4.0450    -0.8600 C.3   1 <1>  -0.1600 
 14 C       -3.3550     1.5350    -0.9400 C.3   1 <1>  -0.1600 
 15 C        3.5860    -0.5010    -0.7160 C.ar  1 <1>  -0.1500 
 16 C        4.8970     1.2990     0.1640 C.ar  1 <1>  -0.1500 
 17 O       -5.6350     3.3290    -0.3880 O.3   1 <1>  -0.5600 
 18 C       -5.0860     1.3450     0.7910 C.3   1 <1>  -0.1600 
 19 C       -4.2920     0.5390    -0.2460 C.3   1 <1>  -0.1600 
 20 C        4.8220     0.0430    -0.4120 C.ar  1 <1>  -0.1500 
 21 C       -6.7930     3.8870     0.1470 C.3   1 <1>   0.0400 
 22 H        1.5060     3.2220     0.5700 H     1 <1>   0.3700 
 23 H       -2.3770     1.5240     1.4770 H     1 <1>   0.0800 
 24 H       -2.5690     3.1710     1.9590 H     1 <1>   0.0800 
 25 H       -0.1710     4.8180     1.0860 H     1 <1>   0.0800 
 26 H       -0.0310     4.2640    -0.5670 H     1 <1>   0.0800 
 27 H       -2.4760     5.3240     0.8200 H     1 <1>   0.0800 
 28 H       -1.7510     5.8540    -0.6630 H     1 <1>   0.0800 
 29 H        1.4770    -0.2210    -0.6890 H     1 <1>   0.1500 
 30 H        3.8090     2.9780     0.8840 H     1 <1>   0.1500 
 31 H       -4.7780     3.4130     1.4470 H     1 <1>   0.0800 
 32 H       -2.3650     3.7330    -1.7410 H     1 <1>   0.0800 
 33 H       -3.7610     4.5900    -1.2000 H     1 <1>   0.0800 
 34 H       -3.7880     1.8010    -1.8900 H     1 <1>   0.0800 
 35 H       -2.3790     1.1150    -1.1130 H     1 <1>   0.0800 
 36 H        3.5200    -1.4770    -1.1630 H     1 <1>   0.1500 
 37 H        5.8570     1.7230     0.4010 H     1 <1>   0.1500 
 38 H       -4.7630     1.0610     1.7770 H     1 <1>   0.0800 
 39 H       -6.1430     1.1620     0.7120 H     1 <1>   0.0800 
 40 H       -3.7220    -0.2340     0.2410 H     1 <1>   0.0800 
 41 H       -4.9510     0.0860    -0.9670 H     1 <1>   0.0800 
 42 H        5.7200    -0.5110    -0.6230 H     1 <1>   0.1500 
 43 H       -7.4140     4.2110    -0.6690 H     1 <1>   0.0800 
 44 H       -6.5280     4.7320     0.7580 H     1 <1>   0.0800 
 45 H       -7.3150     3.1470     0.7280 H     1 <1>   0.0800 
@<TRIPOS>BOND
  1   1   2  2   
  2   2   3  am  
  3   2   4  am  
  4   3   5  1   
  5   3   6  1   
  6   4   7  1   
  7   4  22  1   
  8   5   8  1   
  9   5  23  1   
 10   5  24  1   
 11   6   9  1   
 12   6  25  1   
 13   6  26  1   
 14   7  10  ar  
 15   7  11  ar  
 16   8  12  1   
 17   8  13  1   
 18   8  14  1   
 19   9  13  1   
 20   9  27  1   
 21   9  28  1   
 22  10  15  ar  
 23  10  29  1   
 24  11  16  ar  
 25  11  30  1   
 26  12  17  1   
 27  12  18  1   
 28  12  31  1   
 29  13  32  1   
 30  13  33  1   
 31  14  19  1   
 32  14  34  1   
 33  14  35  1   
 34  15  20  ar  
 35  15  36  1   
 36  16  20  ar  
 37  16  37  1   
 38  17  21  1   
 39  18  19  1   
 40  18  38  1   
 41  18  39  1   
 42  19  40  1   
 43  19  41  1   
 44  20  42  1   
 45  21  43  1   
 46  21  44  1   
 47  21  45  1   
@<TRIPOS>SUBSTRUCTURE
  1 ****   3 GROUP 4 **** **** 0

# MOE 2024.06 (io_trps.svl 2023.06)
