@<TRIPOS>MOLECULE
NONAME
56 59 1 0 0 
SMALL
USER_CHARGES


@<TRIPOS>ATOM
  1 F       -4.8610    -1.5700    -3.8580 F     1 <1>  -0.1900 
  2 C       -4.6520    -0.4990    -3.1440 C.ar  1 <1>   0.1900 
  3 C       -4.8090    -0.5520    -1.7880 C.ar  1 <1>  -0.1500 
  4 C       -4.2750     0.6680    -3.8080 C.ar  1 <1>  -0.1500 
  5 C       -4.6000     0.6070    -1.0090 C.ar  1 <1>   0.0000 
  6 C       -4.0530     1.7950    -3.0630 C.ar  1 <1>  -0.1500 
  7 C       -4.2010     1.7970    -1.6630 C.ar  1 <1>   0.3100 
  8 C       -4.7620     0.6450     0.3970 C.ar  1 <1>   0.0860 
  9 N       -3.9460     2.9490    -1.0000 N.ar  1 <1>  -0.6200 
 10 C       -5.2380    -0.4970     1.1410 C.2   1 <1>   0.5440 
 11 C       -4.4600     1.8250     1.0240 C.ar  1 <1>  -0.1500 
 12 C       -4.0590     2.9440     0.2900 C.ar  1 <1>   0.1660 
 13 O       -4.4610    -1.0850     1.8700 O.2   1 <1>  -0.5700 
 14 N       -6.5480    -0.9350     1.0600 N.am  1 <1>  -0.6600 
 15 C       -3.7390     4.2370     1.0110 C.3   1 <1>  -0.0970 
 16 C       -7.6280    -0.0950     0.4550 C.3   1 <1>   0.2200 
 17 C       -6.9260    -2.2220     1.7220 C.3   1 <1>   0.0600 
 18 C       -8.8110     0.1540     1.3900 C.3   1 <1>  -0.1600 
 19 C       -8.2450    -0.7210    -0.7940 C.3   1 <1>  -0.1600 
 20 C       -9.9690     0.5230     0.4520 C.3   1 <1>  -0.0800 
 21 C       -9.6170    -0.0460    -0.9270 C.3   1 <1>  -0.0800 
 22 C      -11.3320    -0.0830     0.8210 C.3   1 <1>  -0.1600 
 23 C      -10.7760    -0.9800    -1.3030 C.3   1 <1>  -0.1600 
 24 C      -11.9850    -0.4700    -0.5100 C.3   1 <1>   0.4230 
 25 N      -12.5950     0.7290    -1.1730 N.4   1 <1>  -0.9590 
 26 C      -13.7050     1.3330    -0.3660 C.3   1 <1>   0.2630 
 27 C      -13.1190     0.4290    -2.5450 C.3   1 <1>   0.2630 
 28 H       -5.0890    -1.4790    -1.3190 H     1 <1>   0.1500 
 29 H       -4.1640     0.6570    -4.8780 H     1 <1>   0.1500 
 30 H       -3.7550     2.7170    -3.5300 H     1 <1>   0.1500 
 31 H       -4.5370     1.8920     2.0940 H     1 <1>   0.1500 
 32 H       -3.8580     4.1330     2.0740 H     1 <1>   0.0800 
 33 H       -4.3930     5.0150     0.6620 H     1 <1>   0.0800 
 34 H       -2.7240     4.5200     0.8020 H     1 <1>   0.0800 
 35 H       -7.2360     0.8690     0.1780 H     1 <1>   0.0800 
 36 H       -7.7890    -2.6620     1.2580 H     1 <1>   0.0800 
 37 H       -7.1350    -2.0420     2.7620 H     1 <1>   0.0800 
 38 H       -6.1120    -2.9240     1.6560 H     1 <1>   0.0800 
 39 H       -9.0510    -0.7340     1.9430 H     1 <1>   0.0800 
 40 H       -8.5950     0.9490     2.0820 H     1 <1>   0.0800 
 41 H       -7.6380    -0.5350    -1.6620 H     1 <1>   0.0800 
 42 H       -8.3520    -1.7820    -0.6650 H     1 <1>   0.0800 
 43 H      -10.0430     1.5960     0.3790 H     1 <1>   0.0800 
 44 H       -9.5490     0.7670    -1.6310 H     1 <1>   0.0800 
 45 H      -11.9160     0.5700     1.4410 H     1 <1>   0.0800 
 46 H      -11.1820    -0.9940     1.3740 H     1 <1>   0.0800 
 47 H      -10.5630    -1.9740    -0.9490 H     1 <1>   0.0800 
 48 H      -10.9220    -1.0450    -2.3640 H     1 <1>   0.0800 
 49 H      -12.7250    -1.2440    -0.3780 H     1 <1>   0.0800 
 50 H      -11.8390     1.4230    -1.2580 H     1 <1>   0.4500 
 51 H      -14.4750     0.6010    -0.1820 H     1 <1>   0.0800 
 52 H      -14.1420     2.1640    -0.8970 H     1 <1>   0.0800 
 53 H      -13.3390     1.6960     0.5790 H     1 <1>   0.0800 
 54 H      -13.8490    -0.3630    -2.5030 H     1 <1>   0.0800 
 55 H      -12.3210     0.1300    -3.2030 H     1 <1>   0.0800 
 56 H      -13.5870     1.3050    -2.9650 H     1 <1>   0.0800 
@<TRIPOS>BOND
  1   1   2  1   
  2   2   3  ar  
  3   2   4  ar  
  4   3   5  ar  
  5   3  28  1   
  6   4   6  ar  
  7   4  29  1   
  8   5   7  ar  
  9   5   8  ar  
 10   6   7  ar  
 11   6  30  1   
 12   7   9  ar  
 13   8  10  1   
 14   8  11  ar  
 15   9  12  ar  
 16  10  13  2   
 17  10  14  am  
 18  11  12  ar  
 19  11  31  1   
 20  12  15  1   
 21  14  16  1   
 22  14  17  1   
 23  15  32  1   
 24  15  33  1   
 25  15  34  1   
 26  16  18  1   
 27  16  19  1   
 28  16  35  1   
 29  17  36  1   
 30  17  37  1   
 31  17  38  1   
 32  18  20  1   
 33  18  39  1   
 34  18  40  1   
 35  19  21  1   
 36  19  41  1   
 37  19  42  1   
 38  20  21  1   
 39  20  22  1   
 40  20  43  1   
 41  21  23  1   
 42  21  44  1   
 43  22  24  1   
 44  22  45  1   
 45  22  46  1   
 46  23  24  1   
 47  23  47  1   
 48  23  48  1   
 49  24  25  1   
 50  24  49  1   
 51  25  26  1   
 52  25  27  1   
 53  25  50  1   
 54  26  51  1   
 55  26  52  1   
 56  26  53  1   
 57  27  54  1   
 58  27  55  1   
 59  27  56  1   
@<TRIPOS>SUBSTRUCTURE
  1 ****  16 GROUP 4 **** **** 0

# MOE 2024.06 (io_trps.svl 2023.06)
