@<TRIPOS>MOLECULE
NONAME
47 49 1 0 0 
SMALL
USER_CHARGES


@<TRIPOS>ATOM
  1 O       -0.7930    -1.0190     0.5400 O.3   1 <1>  -0.5600 
  2 C        0.4950    -1.5260     0.3660 C.3   1 <1>   0.1200 
  3 C       -1.7310    -1.9720     0.9500 C.3   1 <1>   0.1200 
  4 C        0.5010    -2.6190    -0.7200 C.3   1 <1>   0.2090 
  5 C       -1.8510    -3.0960    -0.0940 C.3   1 <1>   0.2090 
  6 N       -0.5020    -3.7010    -0.4110 N.pl3 1 <1>  -0.8380 
  7 C       -0.2960    -5.0460    -0.3940 C.ar  1 <1>   0.7710 
  8 N       -1.2770    -5.8500    -0.0050 N.ar  1 <1>  -0.6200 
  9 N        0.8980    -5.5350    -0.7790 N.ar  1 <1>  -0.1790 
 10 C       -1.0530    -7.1420     0.0150 C.ar  1 <1>   0.4100 
 11 C        1.1710    -6.8620    -0.7770 C.ar  1 <1>   0.2180 
 12 N       -2.0870    -7.8820     0.4390 N.pl3 1 <1>  -0.8690 
 13 C        0.1810    -7.6940    -0.3720 C.ar  1 <1>  -0.1500 
 14 C        2.5500    -7.3360    -1.2220 C.3   1 <1>  -0.0170 
 15 C       -2.2210    -9.3480     0.5940 C.3   1 <1>   0.3470 
 16 C        3.6640    -6.8240    -0.2990 C.3   1 <1>  -0.2400 
 17 C       -3.7020    -9.7040     0.5870 C.2   1 <1>  -0.0380 
 18 N       -4.4950    -9.2410    -0.4340 N.pl3 1 <1>  -0.5500 
 19 C       -4.3140   -10.4550     1.5310 C.2   1 <1>  -0.1360 
 20 C       -5.8270    -9.5340    -0.4930 C.2   1 <1>   0.4390 
 21 C       -5.7020   -10.7330     1.4300 C.2   1 <1>   0.7670 
 22 N       -6.4340   -10.2460     0.3810 N.2   1 <1>  -0.6610 
 23 C       -6.5930    -8.9710    -1.6640 C.3   1 <1>  -0.1790 
 24 O       -6.2600   -11.4110     2.2760 O.2   1 <1>  -0.5700 
 25 H        0.8430    -1.9130     1.3080 H     1 <1>   0.0800 
 26 H        1.1280    -0.7060     0.0740 H     1 <1>   0.0800 
 27 H       -2.6760    -1.4720     1.0670 H     1 <1>   0.0800 
 28 H       -1.4300    -2.3680     1.9050 H     1 <1>   0.0800 
 29 H        1.4980    -3.0100    -0.7960 H     1 <1>   0.0800 
 30 H        0.2500    -2.1620    -1.6630 H     1 <1>   0.0800 
 31 H       -2.2750    -2.6850    -0.9940 H     1 <1>   0.0800 
 32 H       -2.5450    -3.8280     0.2800 H     1 <1>   0.0800 
 33 H        1.5820    -4.8540    -1.0770 H     1 <1>   0.4570 
 34 H       -2.9060    -7.3680     0.7820 H     1 <1>   0.4000 
 35 H        0.3150    -8.7580    -0.3350 H     1 <1>   0.1500 
 36 H        2.7380    -7.0120    -2.2310 H     1 <1>   0.0800 
 37 H        2.5740    -8.4130    -1.2230 H     1 <1>   0.0800 
 38 H       -1.7710    -9.6560     1.5230 H     1 <1>   0.0800 
 39 H       -1.7290    -9.8540    -0.2190 H     1 <1>   0.0800 
 40 H        3.7360    -5.7510    -0.3200 H     1 <1>   0.0800 
 41 H        4.6110    -7.2270    -0.6140 H     1 <1>   0.0800 
 42 H        3.4890    -7.1410     0.7160 H     1 <1>   0.0800 
 43 H       -4.0940    -8.6390    -1.1600 H     1 <1>   0.4000 
 44 H       -3.8080   -10.8710     2.3800 H     1 <1>   0.1500 
 45 H       -6.1700    -9.3270    -2.5850 H     1 <1>   0.0800 
 46 H       -6.5600    -7.8980    -1.6420 H     1 <1>   0.0800 
 47 H       -7.6210    -9.2840    -1.6140 H     1 <1>   0.0800 
@<TRIPOS>BOND
  1   1   2  1   
  2   1   3  1   
  3   2   4  1   
  4   2  25  1   
  5   2  26  1   
  6   3   5  1   
  7   3  27  1   
  8   3  28  1   
  9   4   6  1   
 10   4  29  1   
 11   4  30  1   
 12   5   6  1   
 13   5  31  1   
 14   5  32  1   
 15   6   7  1   
 16   7   8  ar  
 17   7   9  ar  
 18   8  10  ar  
 19   9  11  ar  
 20   9  33  1   
 21  10  12  1   
 22  10  13  ar  
 23  11  13  ar  
 24  11  14  1   
 25  12  15  1   
 26  12  34  1   
 27  13  35  1   
 28  14  16  1   
 29  14  36  1   
 30  14  37  1   
 31  15  17  1   
 32  15  38  1   
 33  15  39  1   
 34  16  40  1   
 35  16  41  1   
 36  16  42  1   
 37  17  18  1   
 38  17  19  2   
 39  18  20  1   
 40  18  43  1   
 41  19  21  1   
 42  19  44  1   
 43  20  22  2   
 44  20  23  1   
 45  21  22  1   
 46  21  24  2   
 47  23  45  1   
 48  23  46  1   
 49  23  47  1   
@<TRIPOS>SUBSTRUCTURE
  1 ****  10 GROUP 4 **** **** 0

# MOE 2024.06 (io_trps.svl 2023.06)
