@<TRIPOS>MOLECULE
NONAME
42 43 1 0 0 
SMALL
USER_CHARGES


@<TRIPOS>ATOM
  1 F        0.9850     0.6890    -0.3310 F     1 <1>  -0.3400 
  2 C        0.8130     1.9340    -0.7520 C.3   1 <1>   0.8800 
  3 F        1.3370     1.9810    -1.9710 F     1 <1>  -0.3400 
  4 O        1.5550     2.7840     0.0900 O.3   1 <1>  -0.3630 
  5 C        1.3830     4.1250     0.0700 C.ar  1 <1>   0.0830 
  6 C        0.6240     4.8030    -0.8800 C.ar  1 <1>  -0.1500 
  7 C        2.0070     4.8480     1.0730 C.ar  1 <1>  -0.1500 
  8 C        0.5000     6.1780    -0.8090 C.ar  1 <1>  -0.1500 
  9 C        1.8770     6.2230     1.1360 C.ar  1 <1>  -0.1500 
 10 C        1.1250     6.9260     0.1910 C.ar  1 <1>   0.0860 
 11 C        0.9890     8.3690     0.2340 C.2   1 <1>   0.5440 
 12 O       -0.0350     8.8970    -0.1540 O.2   1 <1>  -0.5700 
 13 N        2.0310     9.1340     0.6900 N.am  1 <1>  -0.4930 
 14 C        2.1200    10.5380     0.8680 C.2   1 <1>   0.0630 
 15 C        1.1910    11.4330     1.4110 C.2   1 <1>   0.1080 
 16 C        3.1920    11.3020     0.5600 C.2   1 <1>  -0.3320 
 17 N        1.6420    12.6480     1.4410 N.2   1 <1>  -0.7070 
 18 C       -0.1860    11.0930     1.9350 C.3   1 <1>  -0.0590 
 19 N        2.8730    12.5750     0.9090 N.pl3 1 <1>   0.3140 
 20 C        4.5180    10.8950    -0.0660 C.3   1 <1>  -0.0600 
 21 C        3.7030    13.7880     0.7570 C.3   1 <1>   0.0960 
 22 C        3.4740    14.4410    -0.6140 C.3   1 <1>  -0.1600 
 23 C        4.3410    15.6930    -0.7900 C.3   1 <1>  -0.2400 
 24 H       -0.2350     2.1710    -0.7810 H     1 <1>   0.0800 
 25 H        0.1300     4.2900    -1.6840 H     1 <1>   0.1500 
 26 H        2.5920     4.3230     1.8090 H     1 <1>   0.1500 
 27 H       -0.0910     6.6980    -1.5460 H     1 <1>   0.1500 
 28 H        2.3600     6.7540     1.9370 H     1 <1>   0.1500 
 29 H        2.9210     8.6550     0.7920 H     1 <1>   0.3700 
 30 H       -0.1860    10.1130     2.3740 H     1 <1>   0.0800 
 31 H       -0.8910    11.1160     1.1250 H     1 <1>   0.0800 
 32 H       -0.4820    11.8100     2.6780 H     1 <1>   0.0800 
 33 H        4.5210     9.8470    -0.3060 H     1 <1>   0.0800 
 34 H        5.3270    11.0920     0.6150 H     1 <1>   0.0800 
 35 H        4.6830    11.4460    -0.9750 H     1 <1>   0.0800 
 36 H        4.7340    13.5210     0.8800 H     1 <1>   0.0800 
 37 H        3.4310    14.4750     1.5380 H     1 <1>   0.0800 
 38 H        2.4350    14.7130    -0.7020 H     1 <1>   0.0800 
 39 H        3.7050    13.7360    -1.3940 H     1 <1>   0.0800 
 40 H        4.1070    16.4210    -0.0330 H     1 <1>   0.0800 
 41 H        4.1560    16.1340    -1.7540 H     1 <1>   0.0800 
 42 H        5.3850    15.4430    -0.7240 H     1 <1>   0.0800 
@<TRIPOS>BOND
  1   1   2  1   
  2   2   3  1   
  3   2   4  1   
  4   2  24  1   
  5   4   5  1   
  6   5   6  ar  
  7   5   7  ar  
  8   6   8  ar  
  9   6  25  1   
 10   7   9  ar  
 11   7  26  1   
 12   8  10  ar  
 13   8  27  1   
 14   9  10  ar  
 15   9  28  1   
 16  10  11  1   
 17  11  12  2   
 18  11  13  am  
 19  13  14  1   
 20  13  29  1   
 21  14  15  1   
 22  14  16  2   
 23  15  17  2   
 24  15  18  1   
 25  16  19  1   
 26  16  20  1   
 27  17  19  1   
 28  18  30  1   
 29  18  31  1   
 30  18  32  1   
 31  19  21  1   
 32  20  33  1   
 33  20  34  1   
 34  20  35  1   
 35  21  22  1   
 36  21  36  1   
 37  21  37  1   
 38  22  23  1   
 39  22  38  1   
 40  22  39  1   
 41  23  40  1   
 42  23  41  1   
 43  23  42  1   
@<TRIPOS>SUBSTRUCTURE
  1 ****  11 GROUP 4 **** **** 0

# MOE 2024.06 (io_trps.svl 2023.06)
