@<TRIPOS>MOLECULE
NONAME
52 54 1 0 0 
SMALL
USER_CHARGES


@<TRIPOS>ATOM
  1 O       -1.1950     0.7060    -1.6830 O.2   1 <1>  -0.5700 
  2 C       -1.6100     1.1540    -0.6440 C.2   1 <1>   0.5690 
  3 N       -2.1760     0.3670     0.3010 N.am  1 <1>  -0.7300 
  4 C       -1.4910     2.6370    -0.3810 C.3   1 <1>  -0.0990 
  5 C       -2.3370    -1.1000     0.1950 C.3   1 <1>   0.2200 
  6 C       -0.0980     2.9910     0.1490 C.3   1 <1>  -0.0160 
  7 C       -3.8040    -1.4260    -0.0270 C.3   1 <1>  -0.0800 
  8 C       -2.0810    -1.7380     1.5540 C.3   1 <1>   0.1200 
  9 C        0.0010     4.4830     0.4250 C.ar  1 <1>  -0.1440 
 10 C       -4.3590    -1.4400     1.4030 C.3   1 <1>   0.1200 
 11 C       -3.9790    -2.7830    -0.7360 C.3   1 <1>  -0.0160 
 12 O       -3.2710    -1.5950     2.2690 O.3   1 <1>  -0.5600 
 13 C        0.3330     5.3600    -0.5930 C.ar  1 <1>  -0.1500 
 14 C       -0.2450     4.9780     1.6950 C.ar  1 <1>  -0.1500 
 15 C       -5.4460    -3.0990    -0.9800 C.ar  1 <1>  -0.1440 
 16 C        0.4220     6.7300    -0.3520 C.ar  1 <1>   0.0820 
 17 C       -0.1590     6.3370     1.9430 C.ar  1 <1>  -0.1500 
 18 C       -6.1310    -4.0370    -0.2330 C.ar  1 <1>  -0.1500 
 19 C       -6.1700    -2.4620    -1.9680 C.ar  1 <1>  -0.1500 
 20 O        0.7450     7.6300    -1.3190 O.3   1 <1>  -0.3620 
 21 C        0.1740     7.2180     0.9280 C.ar  1 <1>  -0.1440 
 22 C       -7.4680    -4.2800    -0.4980 C.ar  1 <1>   0.1600 
 23 C       -7.5050    -2.7800    -2.1520 C.ar  1 <1>   0.1600 
 24 C        1.0230     7.2290    -2.6420 C.3   1 <1>   0.0400 
 25 C        0.2650     8.7100     1.2190 C.3   1 <1>  -0.0970 
 26 N       -8.1730    -3.6730    -1.4390 N.ar  1 <1>  -0.6200 
 27 H       -2.5330     0.7650     1.1730 H     1 <1>   0.3700 
 28 H       -1.6710     3.1640    -1.3000 H     1 <1>   0.0800 
 29 H       -2.2390     2.9430     0.3280 H     1 <1>   0.0800 
 30 H       -1.6900    -1.4950    -0.5710 H     1 <1>   0.0800 
 31 H        0.6450     2.7070    -0.5770 H     1 <1>   0.0800 
 32 H        0.1010     2.4390     1.0500 H     1 <1>   0.0800 
 33 H       -4.2840    -0.6660    -0.6190 H     1 <1>   0.0800 
 34 H       -1.2760    -1.2680     2.0900 H     1 <1>   0.0800 
 35 H       -1.8860    -2.7910     1.4510 H     1 <1>   0.0800 
 36 H       -5.0570    -2.2390     1.5770 H     1 <1>   0.0800 
 37 H       -4.8300    -0.5010     1.6380 H     1 <1>   0.0800 
 38 H       -3.5320    -3.5700    -0.1530 H     1 <1>   0.0800 
 39 H       -3.4720    -2.7560    -1.6850 H     1 <1>   0.0800 
 40 H        0.5200     4.9610    -1.5710 H     1 <1>   0.1500 
 41 H       -0.5040     4.3110     2.4980 H     1 <1>   0.1500 
 42 H       -0.3520     6.7030     2.9360 H     1 <1>   0.1500 
 43 H       -5.6390    -4.5800     0.5530 H     1 <1>   0.1500 
 44 H       -5.7080    -1.7230    -2.5970 H     1 <1>   0.1500 
 45 H       -7.9860    -5.0140     0.0950 H     1 <1>   0.1500 
 46 H       -8.0530    -2.2730    -2.9270 H     1 <1>   0.1500 
 47 H        1.2550     8.1080    -3.2150 H     1 <1>   0.0800 
 48 H        0.1540     6.7440    -3.0490 H     1 <1>   0.0800 
 49 H        1.8690     6.5640    -2.6330 H     1 <1>   0.0800 
 50 H        0.0450     8.9200     2.2500 H     1 <1>   0.0800 
 51 H       -0.4350     9.2430     0.6020 H     1 <1>   0.0800 
 52 H        1.2560     9.0620     0.9990 H     1 <1>   0.0800 
@<TRIPOS>BOND
  1   1   2  2   
  2   2   3  am  
  3   2   4  1   
  4   3   5  1   
  5   3  27  1   
  6   4   6  1   
  7   4  28  1   
  8   4  29  1   
  9   5   7  1   
 10   5   8  1   
 11   5  30  1   
 12   6   9  1   
 13   6  31  1   
 14   6  32  1   
 15   7  10  1   
 16   7  11  1   
 17   7  33  1   
 18   8  12  1   
 19   8  34  1   
 20   8  35  1   
 21   9  13  ar  
 22   9  14  ar  
 23  10  12  1   
 24  10  36  1   
 25  10  37  1   
 26  11  15  1   
 27  11  38  1   
 28  11  39  1   
 29  13  16  ar  
 30  13  40  1   
 31  14  17  ar  
 32  14  41  1   
 33  15  18  ar  
 34  15  19  ar  
 35  16  20  1   
 36  16  21  ar  
 37  17  21  ar  
 38  17  42  1   
 39  18  22  ar  
 40  18  43  1   
 41  19  23  ar  
 42  19  44  1   
 43  20  24  1   
 44  21  25  1   
 45  22  26  ar  
 46  22  45  1   
 47  23  26  ar  
 48  23  46  1   
 49  24  47  1   
 50  24  48  1   
 51  24  49  1   
 52  25  50  1   
 53  25  51  1   
 54  25  52  1   
@<TRIPOS>SUBSTRUCTURE
  1 ****   2 GROUP 4 **** **** 0

# MOE 2024.06 (io_trps.svl 2023.06)
