@<TRIPOS>MOLECULE
NONAME
49 52 1 0 0 
SMALL
USER_CHARGES


@<TRIPOS>ATOM
  1 O        1.0000    -0.3410    -2.0350 O.2   1 <1>  -0.5700 
  2 C        1.6550    -0.6920    -1.0720 C.2   1 <1>   0.7150 
  3 N        2.5210     0.2330    -0.5160 N.am  1 <1>  -0.6600 
  4 C        1.5840    -2.0510    -0.5790 C.2   1 <1>   0.1020 
  5 C        2.9110     0.1800     0.9460 C.3   1 <1>   0.2200 
  6 C        3.1350     1.2720    -1.3960 C.3   1 <1>   0.1400 
  7 N        2.6010    -2.6950    -0.0670 N.2   1 <1>  -0.3380 
  8 N        0.4960    -2.8490    -0.5880 N.pl3 1 <1>   0.0480 
  9 C        2.9240     1.5690     1.6040 C.3   1 <1>   0.1200 
 10 C        4.2800    -0.5180     1.1460 C.3   1 <1>   0.3430 
 11 C        4.5130     1.7750    -0.9240 C.3   1 <1>  -0.0800 
 12 N        2.1910    -3.9010     0.2740 N.2   1 <1>  -0.3380 
 13 C        0.9430    -3.9800    -0.0460 C.2   1 <1>   0.0070 
 14 C       -0.8840    -2.5760    -1.0630 C.3   1 <1>   0.0960 
 15 O        4.1700     2.1820     1.4380 O.3   1 <1>  -0.5600 
 16 N        5.0500    -0.6220    -0.1390 N.4   1 <1>  -0.9590 
 17 C        4.3860     2.8000     0.2140 C.3   1 <1>   0.1200 
 18 C        5.5790     0.6900    -0.6350 C.3   1 <1>   0.3430 
 19 C        0.0980    -5.2210     0.1780 C.3   1 <1>   0.0200 
 20 C       -1.9150    -2.7230     0.0650 C.3   1 <1>  -0.1600 
 21 C        6.1020    -1.6720    -0.0390 C.3   1 <1>   0.2630 
 22 C       -1.0970    -4.9500     1.1030 C.3   1 <1>  -0.1600 
 23 C       -2.2440    -4.1800     0.4310 C.3   1 <1>  -0.1600 
 24 H        2.1680    -0.3950     1.4720 H     1 <1>   0.0800 
 25 H        3.2390     0.8620    -2.3880 H     1 <1>   0.0800 
 26 H        2.4510     2.1020    -1.4730 H     1 <1>   0.0800 
 27 H        2.7820     1.4570     2.6650 H     1 <1>   0.0800 
 28 H        2.1410     2.2040     1.2250 H     1 <1>   0.0800 
 29 H        4.0910    -1.5090     1.5250 H     1 <1>   0.0800 
 30 H        4.8570     0.0070     1.8900 H     1 <1>   0.0800 
 31 H        4.9010     2.3480    -1.7470 H     1 <1>   0.0800 
 32 H       -0.9410    -1.5750    -1.4470 H     1 <1>   0.0800 
 33 H       -1.1130    -3.2490    -1.8700 H     1 <1>   0.0800 
 34 H        4.3390    -0.9460    -0.8160 H     1 <1>   0.4500 
 35 H        3.5900     3.5030     0.0320 H     1 <1>   0.0800 
 36 H        5.3030     3.3570     0.3080 H     1 <1>   0.0800 
 37 H        6.2860     1.0830     0.0780 H     1 <1>   0.0800 
 38 H        6.1170     0.5080    -1.5510 H     1 <1>   0.0800 
 39 H       -0.2380    -5.6090    -0.7670 H     1 <1>   0.0800 
 40 H        0.7200    -5.9740     0.6310 H     1 <1>   0.0800 
 41 H       -1.5890    -2.1810     0.9360 H     1 <1>   0.0800 
 42 H       -2.8280    -2.2610    -0.2700 H     1 <1>   0.0800 
 43 H        6.8380    -1.3980     0.6990 H     1 <1>   0.0800 
 44 H        6.5930    -1.8020    -0.9900 H     1 <1>   0.0800 
 45 H        5.6570    -2.6130     0.2460 H     1 <1>   0.0800 
 46 H       -1.4830    -5.9000     1.4310 H     1 <1>   0.0800 
 47 H       -0.7600    -4.4240     1.9800 H     1 <1>   0.0800 
 48 H       -3.0770    -4.1680     1.1150 H     1 <1>   0.0800 
 49 H       -2.5700    -4.7100    -0.4480 H     1 <1>   0.0800 
@<TRIPOS>BOND
  1   1   2  2   
  2   2   3  am  
  3   2   4  1   
  4   3   5  1   
  5   3   6  1   
  6   4   7  2   
  7   4   8  1   
  8   5   9  1   
  9   5  10  1   
 10   5  24  1   
 11   6  11  1   
 12   6  25  1   
 13   6  26  1   
 14   7  12  1   
 15   8  13  1   
 16   8  14  1   
 17   9  15  1   
 18   9  27  1   
 19   9  28  1   
 20  10  16  1   
 21  10  29  1   
 22  10  30  1   
 23  11  17  1   
 24  11  18  1   
 25  11  31  1   
 26  12  13  2   
 27  13  19  1   
 28  14  20  1   
 29  14  32  1   
 30  14  33  1   
 31  15  17  1   
 32  16  18  1   
 33  16  21  1   
 34  16  34  1   
 35  17  35  1   
 36  17  36  1   
 37  18  37  1   
 38  18  38  1   
 39  19  22  1   
 40  19  39  1   
 41  19  40  1   
 42  20  23  1   
 43  20  41  1   
 44  20  42  1   
 45  21  43  1   
 46  21  44  1   
 47  21  45  1   
 48  22  23  1   
 49  22  46  1   
 50  22  47  1   
 51  23  48  1   
 52  23  49  1   
@<TRIPOS>SUBSTRUCTURE
  1 ****   4 GROUP 4 **** **** 0

# MOE 2024.06 (io_trps.svl 2023.06)
