@<TRIPOS>MOLECULE
NONAME
42 43 1 0 0 
SMALL
USER_CHARGES


@<TRIPOS>ATOM
  1 S        2.2510    -1.2910    -0.9430 S.3   1 <1>  -0.0800 
  2 C        1.5810    -0.7460     0.5790 C.2   1 <1>   0.1980 
  3 C        0.7290    -2.0480    -1.3080 C.2   1 <1>  -0.1100 
  4 N        0.3690    -1.0920     0.7720 N.2   1 <1>  -0.5650 
  5 C        2.4840     0.0740     1.4840 C.3   1 <1>   0.3200 
  6 C       -0.1230    -1.8320    -0.2920 C.2   1 <1>   0.0460 
  7 N        2.5480     1.4740     1.0020 N.am  1 <1>  -0.7300 
  8 C       -1.5640    -2.3040    -0.1690 C.3   1 <1>   0.0210 
  9 C        3.6880     2.1890     0.8560 C.2   1 <1>   0.5690 
 10 C       -2.0500    -3.1120    -1.3780 C.3   1 <1>  -0.2400 
 11 O        4.7560     1.7520     1.2060 O.2   1 <1>  -0.5700 
 12 C        3.6210     3.5820     0.2360 C.3   1 <1>  -0.0190 
 13 C        2.6930     4.5250     1.0260 C.3   1 <1>  -0.1600 
 14 C        3.2270     3.5260    -1.2610 C.3   1 <1>  -0.1600 
 15 C        2.7480     5.9730     0.4950 C.3   1 <1>   0.2000 
 16 C        2.6270     4.8430    -1.7930 C.3   1 <1>  -0.1600 
 17 O        1.4790     6.5490     0.6770 O.3   1 <1>  -0.5600 
 18 C        3.1360     6.0520    -1.0060 C.3   1 <1>   0.2000 
 19 C        1.2280     7.0390     1.9580 C.3   1 <1>   0.0400 
 20 O        2.5800     7.1870    -1.5590 O.3   1 <1>  -0.6800 
 21 H        0.6380    -2.5710    -2.2410 H     1 <1>   0.1500 
 22 H        3.4680    -0.3630     1.5060 H     1 <1>   0.0800 
 23 H        2.0840     0.0640     2.4820 H     1 <1>   0.0800 
 24 H        1.6550     1.8510     0.6800 H     1 <1>   0.3700 
 25 H       -1.6500    -2.9060     0.7180 H     1 <1>   0.0800 
 26 H       -2.1940    -1.4420    -0.0420 H     1 <1>   0.0800 
 27 H       -1.4470    -3.9940    -1.5050 H     1 <1>   0.0800 
 28 H       -1.9950    -2.5160    -2.2720 H     1 <1>   0.0800 
 29 H       -3.0710    -3.4140    -1.2300 H     1 <1>   0.0800 
 30 H        4.6150     3.9910     0.2960 H     1 <1>   0.0800 
 31 H        2.9780     4.5180     2.0630 H     1 <1>   0.0800 
 32 H        1.6830     4.1590     0.9500 H     1 <1>   0.0800 
 33 H        4.1080     3.2790    -1.8300 H     1 <1>   0.0800 
 34 H        2.5120     2.7390    -1.4330 H     1 <1>   0.0800 
 35 H        3.4740     6.5440     1.0500 H     1 <1>   0.0800 
 36 H        1.5550     4.8020    -1.6990 H     1 <1>   0.0800 
 37 H        2.8700     4.9550    -2.8360 H     1 <1>   0.0800 
 38 H        4.2050     6.1220    -1.1130 H     1 <1>   0.0800 
 39 H        0.2350     7.4530     1.9690 H     1 <1>   0.0800 
 40 H        1.9430     7.8090     2.1900 H     1 <1>   0.0800 
 41 H        1.2910     6.2350     2.6700 H     1 <1>   0.0800 
 42 H        1.7480     7.3470    -1.0560 H     1 <1>   0.4000 
@<TRIPOS>BOND
  1   1   2  1   
  2   1   3  1   
  3   2   4  2   
  4   2   5  1   
  5   3   6  2   
  6   3  21  1   
  7   4   6  1   
  8   5   7  1   
  9   5  22  1   
 10   5  23  1   
 11   6   8  1   
 12   7   9  am  
 13   7  24  1   
 14   8  10  1   
 15   8  25  1   
 16   8  26  1   
 17   9  11  2   
 18   9  12  1   
 19  10  27  1   
 20  10  28  1   
 21  10  29  1   
 22  12  13  1   
 23  12  14  1   
 24  12  30  1   
 25  13  15  1   
 26  13  31  1   
 27  13  32  1   
 28  14  16  1   
 29  14  33  1   
 30  14  34  1   
 31  15  17  1   
 32  15  18  1   
 33  15  35  1   
 34  16  18  1   
 35  16  36  1   
 36  16  37  1   
 37  17  19  1   
 38  18  20  1   
 39  18  38  1   
 40  19  39  1   
 41  19  40  1   
 42  19  41  1   
 43  20  42  1   
@<TRIPOS>SUBSTRUCTURE
  1 ****   7 GROUP 4 **** **** 0

# MOE 2024.06 (io_trps.svl 2023.06)
