@<TRIPOS>MOLECULE
NONAME
54 57 1 0 0 
SMALL
USER_CHARGES


@<TRIPOS>ATOM
  1 O        0.3610    -0.7220     1.5600 O.2   1 <1>  -0.5700 
  2 C        1.2270    -1.5280     1.3410 C.2   1 <1>   0.4230 
  3 C        0.9800    -2.7920     0.6790 C.ar  1 <1>   0.0860 
  4 C        2.6270    -1.1650     1.7950 C.3   1 <1>  -0.1790 
  5 C       -0.2590    -3.0950     0.1420 C.ar  1 <1>  -0.1500 
  6 C        1.9330    -3.7950     0.5230 C.ar  1 <1>  -0.1500 
  7 C       -0.5080    -4.3090    -0.4840 C.ar  1 <1>   0.4100 
  8 C        1.6060    -4.9700    -0.1210 C.ar  1 <1>   0.1600 
  9 N        0.4190    -5.2480    -0.6250 N.ar  1 <1>  -0.6200 
 10 N       -1.7700    -4.5800    -0.9860 N.pl3 1 <1>  -0.8380 
 11 C       -1.9510    -5.5080    -2.1380 C.3   1 <1>   0.2090 
 12 C       -2.9560    -4.4890    -0.0970 C.3   1 <1>   0.2090 
 13 C       -2.3000    -6.9070    -1.6300 C.3   1 <1>  -0.1600 
 14 C       -3.2880    -5.8790     0.4430 C.3   1 <1>  -0.1600 
 15 C       -3.5140    -6.8910    -0.6920 C.3   1 <1>   0.4240 
 16 O       -4.5900    -6.4360    -1.4820 O.3   1 <1>  -0.5600 
 17 C       -3.7810    -8.3040    -0.1290 C.ar  1 <1>  -0.1430 
 18 C       -5.8800    -6.7370    -1.0500 C.3   1 <1>   0.1200 
 19 C       -4.9950    -8.9480    -0.3320 C.ar  1 <1>  -0.1430 
 20 C       -2.8040    -8.9630     0.6070 C.ar  1 <1>  -0.1500 
 21 C       -6.0830    -8.2470    -1.1220 C.3   1 <1>  -0.0170 
 22 C       -5.2190   -10.2150     0.1820 C.ar  1 <1>  -0.1500 
 23 C       -3.0080   -10.2310     1.1230 C.ar  1 <1>   0.0830 
 24 C       -4.2390   -10.8730     0.9220 C.ar  1 <1>   0.0830 
 25 O       -1.9530   -10.7520     1.8110 O.3   1 <1>  -0.3630 
 26 O       -4.4620   -12.1070     1.4630 O.3   1 <1>  -0.3620 
 27 C       -1.6450   -12.1250     1.7170 C.3   1 <1>   0.0400 
 28 C       -5.7340   -12.7160     1.4440 C.3   1 <1>   0.0400 
 29 H        3.3100    -1.2170     0.9680 H     1 <1>   0.0800 
 30 H        2.9450    -1.8330     2.5740 H     1 <1>   0.0800 
 31 H        2.6360    -0.1610     2.1810 H     1 <1>   0.0800 
 32 H       -1.0520    -2.3750     0.2010 H     1 <1>   0.1500 
 33 H        2.9300    -3.6720     0.9000 H     1 <1>   0.1500 
 34 H        2.3620    -5.7300    -0.2310 H     1 <1>   0.1500 
 35 H       -1.0520    -5.5450    -2.7280 H     1 <1>   0.0800 
 36 H       -2.7440    -5.1370    -2.7650 H     1 <1>   0.0800 
 37 H       -3.7880    -4.0980    -0.6570 H     1 <1>   0.0800 
 38 H       -2.7610    -3.8230     0.7250 H     1 <1>   0.0800 
 39 H       -1.4410    -7.2940    -1.1160 H     1 <1>   0.0800 
 40 H       -2.5010    -7.5580    -2.4590 H     1 <1>   0.0800 
 41 H       -4.1520    -5.8330     1.0770 H     1 <1>   0.0800 
 42 H       -2.4650    -6.2030     1.0510 H     1 <1>   0.0800 
 43 H       -6.5720    -6.2330    -1.7010 H     1 <1>   0.0800 
 44 H       -6.0120    -6.3750    -0.0460 H     1 <1>   0.0800 
 45 H       -1.8530    -8.4970     0.7910 H     1 <1>   0.1500 
 46 H       -6.0470    -8.5640    -2.1490 H     1 <1>   0.0800 
 47 H       -7.0500    -8.4930    -0.7240 H     1 <1>   0.0800 
 48 H       -6.1690   -10.6740    -0.0040 H     1 <1>   0.1500 
 49 H       -0.6090   -12.2540     1.9710 H     1 <1>   0.0800 
 50 H       -1.8240   -12.4580     0.7100 H     1 <1>   0.0800 
 51 H       -2.2600   -12.6660     2.4130 H     1 <1>   0.0800 
 52 H       -5.6700   -13.6380     1.9930 H     1 <1>   0.0800 
 53 H       -6.0100   -12.9180     0.4240 H     1 <1>   0.0800 
 54 H       -6.4430   -12.0600     1.9160 H     1 <1>   0.0800 
@<TRIPOS>BOND
  1   1   2  2   
  2   2   3  1   
  3   2   4  1   
  4   3   5  ar  
  5   3   6  ar  
  6   4  29  1   
  7   4  30  1   
  8   4  31  1   
  9   5   7  ar  
 10   5  32  1   
 11   6   8  ar  
 12   6  33  1   
 13   7   9  ar  
 14   7  10  1   
 15   8   9  ar  
 16   8  34  1   
 17  10  11  1   
 18  10  12  1   
 19  11  13  1   
 20  11  35  1   
 21  11  36  1   
 22  12  14  1   
 23  12  37  1   
 24  12  38  1   
 25  13  15  1   
 26  13  39  1   
 27  13  40  1   
 28  14  15  1   
 29  14  41  1   
 30  14  42  1   
 31  15  16  1   
 32  15  17  1   
 33  16  18  1   
 34  17  19  ar  
 35  17  20  ar  
 36  18  21  1   
 37  18  43  1   
 38  18  44  1   
 39  19  21  1   
 40  19  22  ar  
 41  20  23  ar  
 42  20  45  1   
 43  21  46  1   
 44  21  47  1   
 45  22  24  ar  
 46  22  48  1   
 47  23  24  ar  
 48  23  25  1   
 49  24  26  1   
 50  25  27  1   
 51  26  28  1   
 52  27  49  1   
 53  27  50  1   
 54  27  51  1   
 55  28  52  1   
 56  28  53  1   
 57  28  54  1   
@<TRIPOS>SUBSTRUCTURE
  1 ****  14 GROUP 4 **** **** 0

# MOE 2024.06 (io_trps.svl 2023.06)
