@<TRIPOS>MOLECULE
NONAME
52 56 1 0 0 
SMALL
USER_CHARGES


@<TRIPOS>ATOM
  1 O        1.4140     0.1680    -1.9900 O.2   1 <1>  -0.5700 
  2 C        1.3810    -0.9290    -1.4860 C.2   1 <1>   0.5690 
  3 N        0.2500    -1.5530    -1.0620 N.am  1 <1>  -0.6600 
  4 C        2.6030    -1.8150    -1.3790 C.3   1 <1>  -0.0190 
  5 C        0.5190    -2.9280    -0.5850 C.3   1 <1>   0.1400 
  6 C       -1.1190    -0.9870    -1.0440 C.3   1 <1>   0.0600 
  7 C        2.0490    -2.9600    -0.5290 C.3   1 <1>   0.4180 
  8 C        3.9030    -1.4530    -0.5880 C.3   1 <1>  -0.0190 
  9 O        2.4960    -2.5780     0.7260 O.3   1 <1>  -0.5600 
 10 C        2.9030    -4.1870    -0.7250 C.2   1 <1>  -0.2880 
 11 C        4.0730    -0.0640     0.0230 C.2   1 <1>   0.5690 
 12 C        3.8600    -2.5270     0.5120 C.3   1 <1>   0.3380 
 13 C        4.0380    -3.9090    -0.0960 C.2   1 <1>  -0.2880 
 14 O        4.6640     0.0220     1.0770 O.2   1 <1>  -0.5700 
 15 N        3.6370     1.0340    -0.6460 N.am  1 <1>  -0.4930 
 16 C        3.9180     2.3910    -0.3540 C.2   1 <1>   0.0630 
 17 C        5.1540     3.0580    -0.4040 C.2   1 <1>   0.3720 
 18 C        3.0240     3.3320     0.0110 C.2   1 <1>  -0.3320 
 19 N        5.0420     4.3110    -0.0780 N.2   1 <1>  -0.7070 
 20 N        6.3870     2.4650    -0.7530 N.pl3 1 <1>  -0.8210 
 21 N        3.7270     4.4780     0.1780 N.pl3 1 <1>   0.3140 
 22 C        1.5230     3.1920     0.2160 C.3   1 <1>  -0.0600 
 23 C        7.0820     1.9480     0.4560 C.3   1 <1>   0.2090 
 24 C        7.3200     3.3650    -1.4810 C.3   1 <1>   0.2090 
 25 C        3.2010     5.7850     0.5890 C.3   1 <1>   0.0160 
 26 C        8.5320     2.4010     0.3450 C.3   1 <1>  -0.1600 
 27 C        8.4640     3.6500    -0.5190 C.3   1 <1>  -0.1600 
 28 H        2.8400    -2.1720    -2.3640 H     1 <1>   0.0800 
 29 H        0.0920    -3.1050     0.3860 H     1 <1>   0.0800 
 30 H        0.1480    -3.6380    -1.3020 H     1 <1>   0.0800 
 31 H       -1.7780    -1.6010    -1.6330 H     1 <1>   0.0800 
 32 H       -1.1110     0.0090    -1.4540 H     1 <1>   0.0800 
 33 H       -1.4800    -0.9430    -0.0310 H     1 <1>   0.0800 
 34 H        4.7670    -1.6270    -1.2010 H     1 <1>   0.0800 
 35 H        2.5660    -5.0350    -1.2950 H     1 <1>   0.1500 
 36 H        4.3870    -2.3500     1.4340 H     1 <1>   0.0800 
 37 H        4.9580    -4.4550     0.0260 H     1 <1>   0.1500 
 38 H        2.9540     0.9010    -1.4000 H     1 <1>   0.3700 
 39 H        1.2140     2.1780     0.0360 H     1 <1>   0.0800 
 40 H        0.9930     3.8340    -0.4660 H     1 <1>   0.0800 
 41 H        1.2610     3.4520     1.2250 H     1 <1>   0.0800 
 42 H        6.6320     2.3590     1.3460 H     1 <1>   0.0800 
 43 H        7.0140     0.8760     0.4940 H     1 <1>   0.0800 
 44 H        7.6870     2.8410    -2.3450 H     1 <1>   0.0800 
 45 H        6.8420     4.2740    -1.8070 H     1 <1>   0.0800 
 46 H        2.4630     6.1060    -0.1200 H     1 <1>   0.0800 
 47 H        4.0070     6.4940     0.6180 H     1 <1>   0.0800 
 48 H        2.7630     5.6950     1.5650 H     1 <1>   0.0800 
 49 H        8.9630     2.5910     1.3110 H     1 <1>   0.0800 
 50 H        9.0990     1.6360    -0.1550 H     1 <1>   0.0800 
 51 H        9.3840     3.8520    -1.0350 H     1 <1>   0.0800 
 52 H        8.1970     4.5000     0.0850 H     1 <1>   0.0800 
@<TRIPOS>BOND
  1   1   2  2   
  2   2   3  am  
  3   2   4  1   
  4   3   5  1   
  5   3   6  1   
  6   4   7  1   
  7   4   8  1   
  8   4  28  1   
  9   5   7  1   
 10   5  29  1   
 11   5  30  1   
 12   6  31  1   
 13   6  32  1   
 14   6  33  1   
 15   7   9  1   
 16   7  10  1   
 17   8  11  1   
 18   8  12  1   
 19   8  34  1   
 20   9  12  1   
 21  10  13  2   
 22  10  35  1   
 23  11  14  2   
 24  11  15  am  
 25  12  13  1   
 26  12  36  1   
 27  13  37  1   
 28  15  16  1   
 29  15  38  1   
 30  16  17  1   
 31  16  18  2   
 32  17  19  2   
 33  17  20  1   
 34  18  21  1   
 35  18  22  1   
 36  19  21  1   
 37  20  23  1   
 38  20  24  1   
 39  21  25  1   
 40  22  39  1   
 41  22  40  1   
 42  22  41  1   
 43  23  26  1   
 44  23  42  1   
 45  23  43  1   
 46  24  27  1   
 47  24  44  1   
 48  24  45  1   
 49  25  46  1   
 50  25  47  1   
 51  25  48  1   
 52  26  27  1   
 53  26  49  1   
 54  26  50  1   
 55  27  51  1   
 56  27  52  1   
@<TRIPOS>SUBSTRUCTURE
  1 ****  15 GROUP 4 **** **** 0

# MOE 2024.06 (io_trps.svl 2023.06)
