@<TRIPOS>MOLECULE
NONAME
51 54 1 0 0 
SMALL
USER_CHARGES


@<TRIPOS>ATOM
  1 O        2.5870    -0.4230    -2.7470 O.2   1 <1>  -0.5740 
  2 C        1.6670    -0.6350    -2.0030 C.2   1 <1>   0.8490 
  3 N        1.5660     0.0340    -0.8210 N.pl3 1 <1>  -0.7330 
  4 C        0.6200    -1.6690    -2.3990 C.3   1 <1>   0.1490 
  5 C        2.4930     0.7410    -0.1900 C.cat 1 <1>   1.0690 
  6 N       -0.2110    -1.9610    -1.2230 N.pl3 1 <1>   0.3080 
  7 N        3.6440     1.1450    -0.6880 N.pl3 1 <1>  -0.7040 
  8 N        2.3690     1.1580     1.0690 N.pl3 1 <1>  -0.7670 
  9 N       -1.1210    -1.0890    -0.8450 N.2   1 <1>  -0.4230 
 10 C       -0.0280    -2.8100    -0.2220 C.2   1 <1>  -0.0020 
 11 C        4.3090     1.8580     0.2800 C.2   1 <1>   0.1930 
 12 C        3.5190     1.8680     1.3710 C.2   1 <1>   0.1930 
 13 C        1.2670     0.8910     2.0380 C.3   1 <1>   0.2680 
 14 N       -1.4890    -1.4260     0.3330 N.2   1 <1>  -0.0080 
 15 N       -0.8040    -2.4790     0.7460 N.2   1 <1>  -0.3440 
 16 C        1.0270    -3.9280    -0.2330 C.3   1 <1>   0.5090 
 17 N        0.8470    -4.9210     0.8470 N.3   1 <1>  -0.8130 
 18 C        2.3920    -3.2430    -0.1190 C.ar  1 <1>  -0.1510 
 19 C        1.9630    -5.8970     0.9120 C.3   1 <1>   0.1030 
 20 C       -0.4290    -5.6640     0.7100 C.3   1 <1>   0.1030 
 21 C        3.3120    -3.3000    -1.1570 C.ar  1 <1>  -0.1570 
 22 C        2.7250    -2.5530     1.0400 C.ar  1 <1>  -0.1570 
 23 C        1.7250    -6.9580     2.0000 C.3   1 <1>   0.1130 
 24 C       -0.5830    -6.7270     1.8110 C.3   1 <1>   0.1130 
 25 C        4.5310    -2.6550    -1.0460 C.ar  1 <1>  -0.1570 
 26 C        3.9480    -1.9180     1.1560 C.ar  1 <1>  -0.1570 
 27 O        0.5040    -7.6040     1.7930 O.3   1 <1>  -0.5650 
 28 C        4.8500    -1.9630     0.1080 C.ar  1 <1>  -0.1570 
 29 H        0.7100    -0.1220    -0.2890 H     1 <1>   0.4450 
 30 H        1.0940    -2.5650    -2.7490 H     1 <1>   0.0720 
 31 H        0.0000    -1.2710    -3.1800 H     1 <1>   0.0720 
 32 H        3.9380     0.9000    -1.6400 H     1 <1>   0.4450 
 33 H        5.2820     2.2990     0.1280 H     1 <1>   0.1430 
 34 H        3.6960     2.3260     2.3330 H     1 <1>   0.1430 
 35 H        0.7920    -0.0530     1.8270 H     1 <1>   0.0720 
 36 H        0.5310     1.6760     1.9830 H     1 <1>   0.0720 
 37 H        1.6600     0.8520     3.0400 H     1 <1>   0.0720 
 38 H        0.9700    -4.4490    -1.1730 H     1 <1>   0.0720 
 39 H        2.8850    -5.3920     1.1410 H     1 <1>   0.0720 
 40 H        2.0780    -6.3940    -0.0360 H     1 <1>   0.0720 
 41 H       -0.4730    -6.1540    -0.2480 H     1 <1>   0.0720 
 42 H       -1.2630    -4.9900     0.7800 H     1 <1>   0.0720 
 43 H        3.0990    -3.8540    -2.0560 H     1 <1>   0.1430 
 44 H        2.0280    -2.5340     1.8630 H     1 <1>   0.1430 
 45 H        1.7150    -6.5030     2.9760 H     1 <1>   0.0720 
 46 H        2.5000    -7.7030     1.9710 H     1 <1>   0.0720 
 47 H       -1.4750    -7.3060     1.6490 H     1 <1>   0.0720 
 48 H       -0.6400    -6.2630     2.7800 H     1 <1>   0.0720 
 49 H        5.2410    -2.7030    -1.8550 H     1 <1>   0.1430 
 50 H        4.2030    -1.4030     2.0660 H     1 <1>   0.1430 
 51 H        5.8080    -1.4790     0.1970 H     1 <1>   0.1430 
@<TRIPOS>BOND
  1   1   2  2   
  2   2   3  1   
  3   2   4  1   
  4   3   5  ar  
  5   3  29  1   
  6   4   6  1   
  7   4  30  1   
  8   4  31  1   
  9   5   7  ar  
 10   5   8  ar  
 11   6   9  1   
 12   6  10  1   
 13   7  11  1   
 14   7  32  1   
 15   8  12  1   
 16   8  13  1   
 17   9  14  2   
 18  10  15  2   
 19  10  16  1   
 20  11  12  2   
 21  11  33  1   
 22  12  34  1   
 23  13  35  1   
 24  13  36  1   
 25  13  37  1   
 26  14  15  1   
 27  16  17  1   
 28  16  18  1   
 29  16  38  1   
 30  17  19  1   
 31  17  20  1   
 32  18  21  ar  
 33  18  22  ar  
 34  19  23  1   
 35  19  39  1   
 36  19  40  1   
 37  20  24  1   
 38  20  41  1   
 39  20  42  1   
 40  21  25  ar  
 41  21  43  1   
 42  22  26  ar  
 43  22  44  1   
 44  23  27  1   
 45  23  45  1   
 46  23  46  1   
 47  24  27  1   
 48  24  47  1   
 49  24  48  1   
 50  25  28  ar  
 51  25  49  1   
 52  26  28  ar  
 53  26  50  1   
 54  28  51  1   
@<TRIPOS>SUBSTRUCTURE
  1 ****  18 GROUP 4 **** **** 0

# MOE 2024.06 (io_trps.svl 2023.06)
