@<TRIPOS>MOLECULE
NONAME
24 25 1 0 0 
SMALL
USER_CHARGES


@<TRIPOS>ATOM
  1 O       -0.2720    -0.3180    -1.2630 O.co2 1 <1>  -0.9000 
  2 C       -1.4180    -0.7620    -1.4530 C.2   1 <1>   1.0320 
  3 O       -2.1470    -0.2030    -2.2890 O.co2 1 <1>  -0.9000 
  4 C       -1.9070    -1.9000    -0.7250 C.2   1 <1>  -0.3840 
  5 N       -1.2120    -2.5910     0.2090 N.pl3 1 <1>   0.3140 
  6 C       -3.1170    -2.5170    -0.7980 C.2   1 <1>  -0.1500 
  7 N       -1.9250    -3.6100     0.7290 N.2   1 <1>  -0.7070 
  8 C        0.1600    -2.3380     0.6710 C.3   1 <1>   0.0160 
  9 C       -3.0680    -3.5560     0.1140 C.2   1 <1>   0.2030 
 10 C       -4.2090    -4.5280     0.3880 C.3   1 <1>  -0.0090 
 11 C       -4.0060    -5.9670     0.0370 C.3   1 <1>  -0.2000 
 12 C       -4.9480    -5.1200    -0.7710 C.3   1 <1>  -0.2000 
 13 C       -4.9740    -4.1750     1.6640 C.3   1 <1>  -0.1450 
 14 H       -3.9390    -2.2460    -1.4340 H     1 <1>   0.1500 
 15 H        0.8280    -2.4110    -0.1660 H     1 <1>   0.0800 
 16 H        0.4250    -3.0610     1.4180 H     1 <1>   0.0800 
 17 H        0.2110    -1.3470     1.0820 H     1 <1>   0.0800 
 18 H       -4.4030    -6.7190     0.6940 H     1 <1>   0.1000 
 19 H       -3.0520    -6.2420    -0.3790 H     1 <1>   0.1000 
 20 H       -4.6560    -4.8360    -1.7670 H     1 <1>   0.1000 
 21 H       -6.0060    -5.2880    -0.6830 H     1 <1>   0.1000 
 22 H       -4.2980    -4.1860     2.5000 H     1 <1>   0.0800 
 23 H       -5.7660    -4.8780     1.8460 H     1 <1>   0.0800 
 24 H       -5.3920    -3.1890     1.5740 H     1 <1>   0.0800 
@<TRIPOS>BOND
  1   1   2  ar  
  2   2   3  ar  
  3   2   4  1   
  4   4   5  1   
  5   4   6  2   
  6   5   7  1   
  7   5   8  1   
  8   6   9  1   
  9   6  14  1   
 10   7   9  2   
 11   8  15  1   
 12   8  16  1   
 13   8  17  1   
 14   9  10  1   
 15  10  11  1   
 16  10  12  1   
 17  10  13  1   
 18  11  12  1   
 19  11  18  1   
 20  11  19  1   
 21  12  20  1   
 22  12  21  1   
 23  13  22  1   
 24  13  23  1   
 25  13  24  1   
@<TRIPOS>SUBSTRUCTURE
  1 ****   6 GROUP 4 **** **** 0

# MOE 2024.06 (io_trps.svl 2023.06)
