@<TRIPOS>MOLECULE
NONAME
51 54 1 0 0 
SMALL
USER_CHARGES


@<TRIPOS>ATOM
  1 O        3.5590    -2.0480    -1.9490 O.2   1 <1>  -0.5700 
  2 C        3.0930    -1.5840    -0.9310 C.2   1 <1>   0.5690 
  3 N        3.9560    -1.0640     0.0110 N.am  1 <1>  -0.6600 
  4 C        1.5510    -1.5600    -0.7790 C.3   1 <1>   0.2610 
  5 C        5.3860    -1.4790    -0.0120 C.3   1 <1>   0.1400 
  6 C        3.5690    -0.0570     1.0330 C.3   1 <1>   0.1400 
  7 O        1.1130    -1.5880     0.5590 O.3   1 <1>  -0.5600 
  8 C        0.8360    -2.7350    -1.4430 C.3   1 <1>  -0.1600 
  9 C        6.1600    -0.6480    -1.0480 C.3   1 <1>   0.3430 
 10 C        4.5460     1.1250     1.0480 C.3   1 <1>  -0.1600 
 11 C       -0.0700    -2.3150     0.7120 C.3   1 <1>   0.1200 
 12 C       -0.4650    -2.8090    -0.6730 C.3   1 <1>  -0.1600 
 13 N        6.3240     0.8050    -0.6830 N.4   1 <1>  -0.9590 
 14 C        5.0480     1.5180    -0.3450 C.3   1 <1>   0.3430 
 15 C        7.0450     1.5120    -1.7750 C.3   1 <1>   0.4860 
 16 C        7.4980     2.8640    -1.2600 C.ar  1 <1>  -0.1440 
 17 C        8.5490     2.9480    -0.3500 C.ar  1 <1>  -0.1500 
 18 C        6.8570     4.0230    -1.6950 C.ar  1 <1>  -0.1500 
 19 C        8.9260     4.1910     0.1200 C.ar  1 <1>  -0.1440 
 20 C        7.2450     5.2630    -1.2160 C.ar  1 <1>  -0.1500 
 21 C        8.2810     5.3220    -0.3050 C.ar  1 <1>   0.0820 
 22 C       10.0010     4.5940     1.0870 C.3   1 <1>  -0.0170 
 23 O        8.7670     6.4430     0.2470 O.3   1 <1>  -0.3630 
 24 C        9.8490     6.1260     1.1110 C.3   1 <1>   0.1200 
 25 H        1.1820    -0.6440    -1.2040 H     1 <1>   0.0800 
 26 H        5.8270    -1.3910     0.9650 H     1 <1>   0.0800 
 27 H        5.4370    -2.5170    -0.2980 H     1 <1>   0.0800 
 28 H        2.5870     0.3240     0.8100 H     1 <1>   0.0800 
 29 H        3.5240    -0.5250     2.0030 H     1 <1>   0.0800 
 30 H        0.6930    -2.5770    -2.4970 H     1 <1>   0.0800 
 31 H        1.4090    -3.6350    -1.2950 H     1 <1>   0.0800 
 32 H        5.6420    -0.7330    -1.9900 H     1 <1>   0.0800 
 33 H        7.1340    -1.0920    -1.1740 H     1 <1>   0.0800 
 34 H        5.3700     0.9250     1.7100 H     1 <1>   0.0800 
 35 H        4.0180     1.9640     1.4650 H     1 <1>   0.0800 
 36 H        0.1390    -3.1400     1.3710 H     1 <1>   0.0800 
 37 H       -0.8220    -1.6790     1.1470 H     1 <1>   0.0800 
 38 H       -0.8740    -3.8040    -0.6450 H     1 <1>   0.0800 
 39 H       -1.1940    -2.1390    -1.0970 H     1 <1>   0.0800 
 40 H        6.9240     0.8790     0.1450 H     1 <1>   0.4500 
 41 H        5.2270     2.5810    -0.3400 H     1 <1>   0.0800 
 42 H        4.2910     1.3100    -1.0860 H     1 <1>   0.0800 
 43 H        7.9100     0.9450    -2.0790 H     1 <1>   0.0800 
 44 H        6.4010     1.6360    -2.6310 H     1 <1>   0.0800 
 45 H        9.0760     2.0750    -0.0080 H     1 <1>   0.1500 
 46 H        6.0530     3.9770    -2.4100 H     1 <1>   0.1500 
 47 H        6.7670     6.1730    -1.5350 H     1 <1>   0.1500 
 48 H       10.9770     4.3120     0.7320 H     1 <1>   0.0800 
 49 H        9.8310     4.1770     2.0630 H     1 <1>   0.0800 
 50 H       10.7300     6.6170     0.7360 H     1 <1>   0.0800 
 51 H        9.6110     6.4880     2.0950 H     1 <1>   0.0800 
@<TRIPOS>BOND
  1   1   2  2   
  2   2   3  am  
  3   2   4  1   
  4   3   5  1   
  5   3   6  1   
  6   4   7  1   
  7   4   8  1   
  8   4  25  1   
  9   5   9  1   
 10   5  26  1   
 11   5  27  1   
 12   6  10  1   
 13   6  28  1   
 14   6  29  1   
 15   7  11  1   
 16   8  12  1   
 17   8  30  1   
 18   8  31  1   
 19   9  13  1   
 20   9  32  1   
 21   9  33  1   
 22  10  14  1   
 23  10  34  1   
 24  10  35  1   
 25  11  12  1   
 26  11  36  1   
 27  11  37  1   
 28  12  38  1   
 29  12  39  1   
 30  13  14  1   
 31  13  15  1   
 32  13  40  1   
 33  14  41  1   
 34  14  42  1   
 35  15  16  1   
 36  15  43  1   
 37  15  44  1   
 38  16  17  ar  
 39  16  18  ar  
 40  17  19  ar  
 41  17  45  1   
 42  18  20  ar  
 43  18  46  1   
 44  19  21  ar  
 45  19  22  1   
 46  20  21  ar  
 47  20  47  1   
 48  21  23  1   
 49  22  24  1   
 50  22  48  1   
 51  22  49  1   
 52  23  24  1   
 53  24  50  1   
 54  24  51  1   
@<TRIPOS>SUBSTRUCTURE
  1 ****  14 GROUP 4 **** **** 0

# MOE 2024.06 (io_trps.svl 2023.06)
