@<TRIPOS>MOLECULE
NONAME
50 51 1 0 0 
SMALL
USER_CHARGES


@<TRIPOS>ATOM
  1 O       -1.1310    -1.6800     1.4630 O.2   1 <1>  -0.5700 
  2 C       -0.3880    -2.3980     0.8180 C.2   1 <1>   0.6900 
  3 N        0.8060    -1.9280     0.3320 N.am  1 <1>  -0.6600 
  4 N       -0.7530    -3.6720     0.5520 N.am  1 <1>  -0.7300 
  5 C        1.1670    -0.4870     0.4330 C.3   1 <1>   0.0600 
  6 C        1.8720    -2.7980    -0.2360 C.3   1 <1>   0.0600 
  7 C       -2.0680    -4.2880     0.9050 C.3   1 <1>   0.2010 
  8 C       -2.8850    -4.6800    -0.3300 C.2   1 <1>   0.5690 
  9 O       -2.7520    -5.8090    -0.7460 O.2   1 <1>  -0.5700 
 10 N       -3.7390    -3.7970    -0.9450 N.am  1 <1>  -0.6600 
 11 C       -4.6640    -4.2710    -2.0090 C.3   1 <1>   0.1400 
 12 C       -3.9660    -2.3930    -0.5130 C.3   1 <1>   0.1400 
 13 C       -5.8710    -5.0090    -1.4060 C.3   1 <1>   0.1400 
 14 C       -5.1890    -2.2810     0.4060 C.3   1 <1>  -0.1600 
 15 N       -6.4510    -4.3510    -0.1830 N.am  1 <1>  -0.6600 
 16 C       -6.4900    -2.8590    -0.1720 C.3   1 <1>   0.1400 
 17 C       -6.7740    -5.0610     0.9580 C.2   1 <1>   0.5440 
 18 O       -7.0460    -4.4540     1.9770 O.2   1 <1>  -0.5700 
 19 C       -6.7890    -6.5060     0.9920 C.ar  1 <1>   0.0860 
 20 C       -6.0020    -7.1860     1.9160 C.ar  1 <1>   0.1600 
 21 C       -7.5690    -7.2720     0.1360 C.ar  1 <1>  -0.1500 
 22 N       -5.9120    -8.5020     2.0390 N.ar  1 <1>  -0.6200 
 23 C       -7.4990    -8.6450     0.2420 C.ar  1 <1>  -0.1430 
 24 C       -6.6600    -9.1980     1.1980 C.ar  1 <1>   0.1600 
 25 C       -8.3250    -9.5340    -0.6740 C.3   1 <1>  -0.0970 
 26 H       -0.2130    -4.1760    -0.1470 H     1 <1>   0.3700 
 27 H        0.3060     0.1060     0.6910 H     1 <1>   0.0800 
 28 H        1.5490    -0.1390    -0.5110 H     1 <1>   0.0800 
 29 H        1.9160    -0.3540     1.1930 H     1 <1>   0.0800 
 30 H        1.7920    -3.7990     0.1490 H     1 <1>   0.0800 
 31 H        2.8410    -2.4130     0.0310 H     1 <1>   0.0800 
 32 H        1.7860    -2.8200    -1.3090 H     1 <1>   0.0800 
 33 H       -2.6410    -3.6220     1.5230 H     1 <1>   0.0800 
 34 H       -1.8840    -5.1770     1.4800 H     1 <1>   0.0800 
 35 H       -4.1390    -4.9380    -2.6710 H     1 <1>   0.0800 
 36 H       -5.0050    -3.4390    -2.5990 H     1 <1>   0.0800 
 37 H       -4.1110    -1.7760    -1.3830 H     1 <1>   0.0800 
 38 H       -3.0990    -2.0130    -0.0040 H     1 <1>   0.0800 
 39 H       -5.5380    -6.0020    -1.1620 H     1 <1>   0.0800 
 40 H       -6.6380    -5.0990    -2.1540 H     1 <1>   0.0800 
 41 H       -5.3480    -1.2380     0.6080 H     1 <1>   0.0800 
 42 H       -4.9770    -2.7480     1.3510 H     1 <1>   0.0800 
 43 H       -6.6650    -2.4840    -1.1650 H     1 <1>   0.0800 
 44 H       -7.3150    -2.5390     0.4430 H     1 <1>   0.0800 
 45 H       -5.4100    -6.5940     2.5930 H     1 <1>   0.1500 
 46 H       -8.2080    -6.7930    -0.5840 H     1 <1>   0.1500 
 47 H       -6.6000   -10.2700     1.2790 H     1 <1>   0.1500 
 48 H       -9.2080    -9.0180    -1.0060 H     1 <1>   0.0800 
 49 H       -8.6290   -10.4260    -0.1560 H     1 <1>   0.0800 
 50 H       -7.7430    -9.8140    -1.5340 H     1 <1>   0.0800 
@<TRIPOS>BOND
  1   1   2  2   
  2   2   3  am  
  3   2   4  am  
  4   3   5  1   
  5   3   6  1   
  6   4   7  1   
  7   4  26  1   
  8   5  27  1   
  9   5  28  1   
 10   5  29  1   
 11   6  30  1   
 12   6  31  1   
 13   6  32  1   
 14   7   8  1   
 15   7  33  1   
 16   7  34  1   
 17   8   9  2   
 18   8  10  am  
 19  10  11  1   
 20  10  12  1   
 21  11  13  1   
 22  11  35  1   
 23  11  36  1   
 24  12  14  1   
 25  12  37  1   
 26  12  38  1   
 27  13  15  1   
 28  13  39  1   
 29  13  40  1   
 30  14  16  1   
 31  14  41  1   
 32  14  42  1   
 33  15  16  1   
 34  15  17  am  
 35  16  43  1   
 36  16  44  1   
 37  17  18  2   
 38  17  19  1   
 39  19  20  ar  
 40  19  21  ar  
 41  20  22  ar  
 42  20  45  1   
 43  21  23  ar  
 44  21  46  1   
 45  22  24  ar  
 46  23  24  ar  
 47  23  25  1   
 48  24  47  1   
 49  25  48  1   
 50  25  49  1   
 51  25  50  1   
@<TRIPOS>SUBSTRUCTURE
  1 ****   8 GROUP 4 **** **** 0

# MOE 2024.06 (io_trps.svl 2023.06)
