@<TRIPOS>MOLECULE
NONAME
47 49 1 0 0 
SMALL
USER_CHARGES


@<TRIPOS>ATOM
  1 O        0.4430    -0.3110     0.9140 O.2   1 <1>  -0.5700 
  2 C        0.8910    -1.0560     0.0720 C.2   1 <1>   0.5690 
  3 N        1.8650    -0.6920    -0.8090 N.am  1 <1>  -0.4930 
  4 C        0.3020    -2.4740     0.0070 C.3   1 <1>   0.4040 
  5 C        2.5250     0.5280    -0.9460 C.2   1 <1>   0.3520 
  6 N       -1.0890    -2.5990     0.5970 N.4   1 <1>  -0.9590 
  7 N        3.3910     0.7010    -1.8780 N.2   1 <1>  -0.4100 
  8 C        2.3900     1.6850    -0.1750 C.2   1 <1>  -0.1500 
  9 C       -1.5530    -4.0110     0.8240 C.3   1 <1>   0.4230 
 10 C       -2.0230    -1.8250    -0.2780 C.3   1 <1>   0.3430 
 11 O        3.8270     1.9290    -1.7450 O.3   1 <1>  -0.0190 
 12 C        3.2520     2.5400    -0.7420 C.2   1 <1>  -0.0400 
 13 C       -2.9760    -3.9820     1.4120 C.3   1 <1>  -0.1600 
 14 C       -0.6510    -4.8070     1.8000 C.3   1 <1>  -0.1600 
 15 C       -3.4200    -1.7720     0.3330 C.3   1 <1>  -0.1600 
 16 C        3.6200     3.9730    -0.4200 C.3   1 <1>  -0.0600 
 17 C       -3.9650    -3.1800     0.5630 C.3   1 <1>  -0.1600 
 18 C        0.6250    -5.4660     1.2310 C.3   1 <1>   0.0960 
 19 N        0.4340    -5.9580    -0.1470 N.pl3 1 <1>   0.3140 
 20 N        0.5310    -5.1330    -1.2100 N.2   1 <1>  -0.7070 
 21 C        0.1260    -7.2110    -0.5260 C.2   1 <1>  -0.3020 
 22 C        0.3000    -5.8940    -2.2400 C.2   1 <1>   0.1390 
 23 C        0.0360    -7.2070    -1.8720 C.2   1 <1>  -0.1500 
 24 H        2.2050    -1.3670    -1.4960 H     1 <1>   0.3700 
 25 H        0.9800    -3.1100     0.5370 H     1 <1>   0.0800 
 26 H        0.2850    -2.7930    -1.0210 H     1 <1>   0.0800 
 27 H       -1.0700    -2.1040     1.5000 H     1 <1>   0.4500 
 28 H        1.7420     1.8260     0.6690 H     1 <1>   0.1500 
 29 H       -1.5980    -4.5250    -0.1230 H     1 <1>   0.0800 
 30 H       -2.0790    -2.2890    -1.2500 H     1 <1>   0.0800 
 31 H       -1.6620    -0.8160    -0.4040 H     1 <1>   0.0800 
 32 H       -2.9470    -3.5720     2.4070 H     1 <1>   0.0800 
 33 H       -3.3470    -4.9900     1.4930 H     1 <1>   0.0800 
 34 H       -1.2340    -5.6260     2.1850 H     1 <1>   0.0800 
 35 H       -0.3990    -4.2000     2.6520 H     1 <1>   0.0800 
 36 H       -4.0760    -1.2390    -0.3340 H     1 <1>   0.0800 
 37 H       -3.3870    -1.2250     1.2600 H     1 <1>   0.0800 
 38 H        3.0580     4.3200     0.4280 H     1 <1>   0.0800 
 39 H        3.4050     4.6030    -1.2630 H     1 <1>   0.0800 
 40 H        4.6690     4.0370    -0.1940 H     1 <1>   0.0800 
 41 H       -4.9190    -3.1270     1.0610 H     1 <1>   0.0800 
 42 H       -4.1140    -3.6730    -0.3840 H     1 <1>   0.0800 
 43 H        0.9090    -6.2980     1.8510 H     1 <1>   0.0800 
 44 H        1.4510    -4.7810     1.2300 H     1 <1>   0.0800 
 45 H       -0.0040    -8.0270     0.1630 H     1 <1>   0.1500 
 46 H        0.3140    -5.5480    -3.2610 H     1 <1>   0.1500 
 47 H       -0.1860    -8.0230    -2.5390 H     1 <1>   0.1500 
@<TRIPOS>BOND
  1   1   2  2   
  2   2   3  am  
  3   2   4  1   
  4   3   5  1   
  5   3  24  1   
  6   4   6  1   
  7   4  25  1   
  8   4  26  1   
  9   5   7  2   
 10   5   8  1   
 11   6   9  1   
 12   6  10  1   
 13   6  27  1   
 14   7  11  1   
 15   8  12  2   
 16   8  28  1   
 17   9  13  1   
 18   9  14  1   
 19   9  29  1   
 20  10  15  1   
 21  10  30  1   
 22  10  31  1   
 23  11  12  1   
 24  12  16  1   
 25  13  17  1   
 26  13  32  1   
 27  13  33  1   
 28  14  18  1   
 29  14  34  1   
 30  14  35  1   
 31  15  17  1   
 32  15  36  1   
 33  15  37  1   
 34  16  38  1   
 35  16  39  1   
 36  16  40  1   
 37  17  41  1   
 38  17  42  1   
 39  18  19  1   
 40  18  43  1   
 41  18  44  1   
 42  19  20  1   
 43  19  21  1   
 44  20  22  2   
 45  21  23  2   
 46  21  45  1   
 47  22  23  1   
 48  22  46  1   
 49  23  47  1   
@<TRIPOS>SUBSTRUCTURE
  1 ****   4 GROUP 4 **** **** 0

# MOE 2024.06 (io_trps.svl 2023.06)
