@<TRIPOS>MOLECULE
NONAME
43 45 1 0 0 
SMALL
USER_CHARGES


@<TRIPOS>ATOM
  1 O       -0.3670     0.1960    -0.0650 O.2   1 <1>  -0.5700 
  2 C       -1.4100     0.7920     0.1270 C.2   1 <1>   0.5440 
  3 N       -2.5640     0.0600     0.2930 N.am  1 <1>  -0.6600 
  4 C       -1.4200     2.2430     0.1550 C.ar  1 <1>   0.0860 
  5 C       -3.9340     0.5860     0.0650 C.3   1 <1>   0.1400 
  6 C       -2.5670    -1.4250     0.2670 C.3   1 <1>   0.1400 
  7 C       -0.7760     2.9790    -0.8380 C.ar  1 <1>  -0.1500 
  8 C       -2.0640     2.9560     1.1660 C.ar  1 <1>  -0.1500 
  9 C       -4.7430    -0.6260    -0.3920 C.3   1 <1>   0.2000 
 10 C       -4.0410    -1.8300     0.2280 C.3   1 <1>  -0.0800 
 11 C       -0.7920     4.3620    -0.8360 C.ar  1 <1>  -0.1500 
 12 C       -2.0850     4.3390     1.1730 C.ar  1 <1>  -0.1500 
 13 O       -6.0580    -0.5580     0.0420 O.3   1 <1>  -0.6800 
 14 C       -4.2970    -3.1400    -0.5310 C.3   1 <1>   0.0210 
 15 C       -1.4520     5.0510     0.1680 C.ar  1 <1>  -0.1430 
 16 C       -3.5060    -4.2810     0.0770 C.2   1 <1>   0.1080 
 17 C       -1.4690     6.5690     0.1720 C.3   1 <1>  -0.0970 
 18 N       -3.7090    -4.7120     1.2830 N.2   1 <1>  -0.7070 
 19 C       -2.4840    -4.9730    -0.5640 C.2   1 <1>  -0.1500 
 20 N       -2.8140    -5.7050     1.4440 N.pl3 1 <1>   0.3000 
 21 C       -2.0590    -5.8810     0.3390 C.2   1 <1>  -0.3320 
 22 C       -0.9600    -6.9200     0.2130 C.3   1 <1>  -0.0600 
 23 H       -4.3210     0.9720     0.9920 H     1 <1>   0.0800 
 24 H       -3.9320     1.3520    -0.6900 H     1 <1>   0.0800 
 25 H       -2.0490    -1.7620    -0.6150 H     1 <1>   0.0800 
 26 H       -2.0730    -1.8220     1.1380 H     1 <1>   0.0800 
 27 H       -0.2560     2.4500    -1.6170 H     1 <1>   0.1500 
 28 H       -2.5490     2.4140     1.9580 H     1 <1>   0.1500 
 29 H       -4.7410    -0.6780    -1.4670 H     1 <1>   0.0800 
 30 H       -4.3600    -1.9490     1.2490 H     1 <1>   0.0800 
 31 H       -0.2860     4.9010    -1.6180 H     1 <1>   0.1500 
 32 H       -2.5910     4.8610     1.9660 H     1 <1>   0.1500 
 33 H       -6.1020    -0.6970     1.0080 H     1 <1>   0.4000 
 34 H       -4.0260    -3.0290    -1.5650 H     1 <1>   0.0800 
 35 H       -5.3440    -3.3840    -0.4840 H     1 <1>   0.0800 
 36 H       -1.4550     6.9480    -0.8340 H     1 <1>   0.0800 
 37 H       -0.6070     6.9410     0.6950 H     1 <1>   0.0800 
 38 H       -2.3550     6.9350     0.6590 H     1 <1>   0.0800 
 39 H       -2.1280    -4.8000    -1.5640 H     1 <1>   0.1500 
 40 H       -2.7440    -6.2410     2.3170 H     1 <1>   0.2700 
 41 H       -0.5060    -6.8610    -0.7610 H     1 <1>   0.0800 
 42 H       -1.3650    -7.9080     0.3420 H     1 <1>   0.0800 
 43 H       -0.2010    -6.7500     0.9550 H     1 <1>   0.0800 
@<TRIPOS>BOND
  1   1   2  2   
  2   2   3  am  
  3   2   4  1   
  4   3   5  1   
  5   3   6  1   
  6   4   7  ar  
  7   4   8  ar  
  8   5   9  1   
  9   5  23  1   
 10   5  24  1   
 11   6  10  1   
 12   6  25  1   
 13   6  26  1   
 14   7  11  ar  
 15   7  27  1   
 16   8  12  ar  
 17   8  28  1   
 18   9  10  1   
 19   9  13  1   
 20   9  29  1   
 21  10  14  1   
 22  10  30  1   
 23  11  15  ar  
 24  11  31  1   
 25  12  15  ar  
 26  12  32  1   
 27  13  33  1   
 28  14  16  1   
 29  14  34  1   
 30  14  35  1   
 31  15  17  1   
 32  16  18  2   
 33  16  19  1   
 34  17  36  1   
 35  17  37  1   
 36  17  38  1   
 37  18  20  1   
 38  19  21  2   
 39  19  39  1   
 40  20  21  1   
 41  20  40  1   
 42  21  22  1   
 43  22  41  1   
 44  22  42  1   
 45  22  43  1   
@<TRIPOS>SUBSTRUCTURE
  1 ****   3 GROUP 4 **** **** 0

# MOE 2024.06 (io_trps.svl 2023.06)
