@<TRIPOS>MOLECULE
NONAME
53 55 1 0 0 
SMALL
USER_CHARGES


@<TRIPOS>ATOM
  1 O       -0.1810     0.1640     0.7270 O.2   1 <1>  -0.5700 
  2 C       -1.0890     0.8720     0.3490 C.2   1 <1>   0.5690 
  3 N       -2.1400     0.2920    -0.3310 N.am  1 <1>  -0.6600 
  4 C       -1.0080     2.3960     0.6900 C.3   1 <1>   0.0610 
  5 C       -3.3380     0.9250    -0.9400 C.3   1 <1>   0.1400 
  6 C       -2.1900    -1.1750    -0.5550 C.3   1 <1>   0.1400 
  7 C       -1.2480     3.3350    -0.5240 C.3   1 <1>  -0.1600 
  8 C       -2.0320     2.7420     1.7910 C.3   1 <1>  -0.2400 
  9 C        0.3810     2.7520     1.2810 C.3   1 <1>  -0.2400 
 10 C       -4.2290    -0.2270    -1.4120 C.3   1 <1>   0.2000 
 11 C       -3.6690    -1.4920    -0.7660 C.3   1 <1>  -0.0800 
 12 C       -0.4200     2.9910    -1.7760 C.3   1 <1>  -0.1600 
 13 O       -5.5440    -0.0430    -1.0130 O.3   1 <1>  -0.6800 
 14 C       -3.9240    -2.7520    -1.6100 C.3   1 <1>  -0.0170 
 15 C       -0.7630     3.9340    -2.9330 C.3   1 <1>  -0.2400 
 16 C       -3.3250    -3.9850    -0.9560 C.ar  1 <1>   0.1660 
 17 N       -2.0980    -4.2820    -1.2550 N.ar  1 <1>  -0.6200 
 18 C       -4.1110    -4.7300    -0.0630 C.ar  1 <1>  -0.1500 
 19 C       -1.5470    -5.3700    -0.6600 C.ar  1 <1>   0.3100 
 20 C       -3.5860    -5.8310     0.5440 C.ar  1 <1>  -0.1500 
 21 C       -2.2580    -6.1820     0.2520 C.ar  1 <1>   0.0000 
 22 C       -0.2160    -5.7050    -0.9550 C.ar  1 <1>  -0.1500 
 23 C       -1.6120    -7.2950     0.8260 C.ar  1 <1>  -0.1500 
 24 C        0.3940    -6.7910    -0.3860 C.ar  1 <1>  -0.1500 
 25 C       -0.3130    -7.5950     0.5140 C.ar  1 <1>  -0.1500 
 26 H       -3.8510     1.5320    -0.2190 H     1 <1>   0.0800 
 27 H       -3.0460     1.5170    -1.7890 H     1 <1>   0.0800 
 28 H       -1.6140    -1.4160    -1.4330 H     1 <1>   0.0800 
 29 H       -1.7900    -1.7160     0.2860 H     1 <1>   0.0800 
 30 H       -2.2890     3.3360    -0.7830 H     1 <1>   0.0800 
 31 H       -1.0200     4.3460    -0.2340 H     1 <1>   0.0800 
 32 H       -1.9350     3.7690     2.0930 H     1 <1>   0.0800 
 33 H       -1.8690     2.1170     2.6520 H     1 <1>   0.0800 
 34 H       -3.0390     2.5870     1.4550 H     1 <1>   0.0800 
 35 H        0.4570     3.8020     1.5020 H     1 <1>   0.0800 
 36 H        1.1650     2.4880     0.5950 H     1 <1>   0.0800 
 37 H        0.5510     2.2050     2.1920 H     1 <1>   0.0800 
 38 H       -4.2070    -0.2880    -2.4870 H     1 <1>   0.0800 
 39 H       -4.1020    -1.6240     0.2100 H     1 <1>   0.0800 
 40 H        0.6300     3.0760    -1.5600 H     1 <1>   0.0800 
 41 H       -0.6100     1.9780    -2.0860 H     1 <1>   0.0800 
 42 H       -5.5990    -0.0190    -0.0380 H     1 <1>   0.4000 
 43 H       -3.4910    -2.6310    -2.5880 H     1 <1>   0.0800 
 44 H       -4.9820    -2.8900    -1.7400 H     1 <1>   0.0800 
 45 H       -0.5540     4.9540    -2.6620 H     1 <1>   0.0800 
 46 H       -1.8020     3.8490    -3.1960 H     1 <1>   0.0800 
 47 H       -0.1720     3.6830    -3.7970 H     1 <1>   0.0800 
 48 H       -5.1210    -4.4210     0.1320 H     1 <1>   0.1500 
 49 H       -4.1570    -6.4270     1.2330 H     1 <1>   0.1500 
 50 H        0.3090    -5.0740    -1.6470 H     1 <1>   0.1500 
 51 H       -2.1610    -7.9080     1.5180 H     1 <1>   0.1500 
 52 H        1.4160    -7.0360    -0.6210 H     1 <1>   0.1500 
 53 H        0.1790    -8.4450     0.9550 H     1 <1>   0.1500 
@<TRIPOS>BOND
  1   1   2  2   
  2   2   3  am  
  3   2   4  1   
  4   3   5  1   
  5   3   6  1   
  6   4   7  1   
  7   4   8  1   
  8   4   9  1   
  9   5  10  1   
 10   5  26  1   
 11   5  27  1   
 12   6  11  1   
 13   6  28  1   
 14   6  29  1   
 15   7  12  1   
 16   7  30  1   
 17   7  31  1   
 18   8  32  1   
 19   8  33  1   
 20   8  34  1   
 21   9  35  1   
 22   9  36  1   
 23   9  37  1   
 24  10  11  1   
 25  10  13  1   
 26  10  38  1   
 27  11  14  1   
 28  11  39  1   
 29  12  15  1   
 30  12  40  1   
 31  12  41  1   
 32  13  42  1   
 33  14  16  1   
 34  14  43  1   
 35  14  44  1   
 36  15  45  1   
 37  15  46  1   
 38  15  47  1   
 39  16  17  ar  
 40  16  18  ar  
 41  17  19  ar  
 42  18  20  ar  
 43  18  48  1   
 44  19  21  ar  
 45  19  22  ar  
 46  20  21  ar  
 47  20  49  1   
 48  21  23  ar  
 49  22  24  ar  
 50  22  50  1   
 51  23  25  ar  
 52  23  51  1   
 53  24  25  ar  
 54  24  52  1   
 55  25  53  1   
@<TRIPOS>SUBSTRUCTURE
  1 ****   6 GROUP 4 **** **** 0

# MOE 2024.06 (io_trps.svl 2023.06)
