@<TRIPOS>MOLECULE
NONAME
49 52 1 0 0 
SMALL
USER_CHARGES


@<TRIPOS>ATOM
  1 F        0.8660     1.5630    -2.2060 F     1 <1>  -0.1900 
  2 C        1.6260     1.5420    -1.1380 C.ar  1 <1>   0.1900 
  3 C        1.8440     2.7180    -0.4410 C.ar  1 <1>   0.1900 
  4 C        2.1890     0.3440    -0.7240 C.ar  1 <1>  -0.1440 
  5 F        1.2970     3.8380    -0.8450 F     1 <1>  -0.1900 
  6 C        2.6340     2.7360     0.6910 C.ar  1 <1>  -0.1500 
  7 C        2.9920     0.3560     0.4180 C.ar  1 <1>   0.0830 
  8 C        1.9510    -0.9440    -1.5040 C.3   1 <1>   0.2540 
  9 C        3.2080     1.5480     1.1180 C.ar  1 <1>  -0.1500 
 10 O        3.5480    -0.8230     0.8060 O.3   1 <1>  -0.3630 
 11 N        0.8760    -1.7480    -0.8860 N.3   1 <1>  -0.8100 
 12 C        4.4770    -0.8980     1.8660 C.3   1 <1>   0.0400 
 13 C       -0.4640    -1.1250    -1.0040 C.3   1 <1>   0.1100 
 14 C        0.8610    -3.1270    -1.4190 C.3   1 <1>   0.1100 
 15 C       -1.5500    -1.9260    -0.2380 C.3   1 <1>   0.4230 
 16 C       -0.2790    -3.9840    -0.8160 C.3   1 <1>   0.3430 
 17 N       -1.0130    -3.2440     0.2670 N.4   1 <1>  -0.9590 
 18 C       -2.8200    -2.1340    -1.0930 C.3   1 <1>   0.1200 
 19 C       -2.0880    -4.0210     0.9570 C.3   1 <1>   0.5180 
 20 O       -3.7710    -2.8840    -0.3880 O.3   1 <1>  -0.5600 
 21 C       -1.5150    -5.3650     1.4490 C.3   1 <1>  -0.1950 
 22 C       -3.3380    -4.1460     0.0490 C.3   1 <1>   0.1200 
 23 C       -1.4630    -6.6260     0.6350 C.3   1 <1>  -0.2000 
 24 C       -2.3800    -6.5320     1.8220 C.3   1 <1>  -0.2000 
 25 H        2.7950     3.6580     1.2220 H     1 <1>   0.1500 
 26 H        2.8660    -1.5120    -1.5050 H     1 <1>   0.0800 
 27 H        1.7080    -0.7270    -2.5310 H     1 <1>   0.0800 
 28 H        3.8210     1.5730     2.0000 H     1 <1>   0.1500 
 29 H        4.8130    -1.9160     1.9450 H     1 <1>   0.0800 
 30 H        3.9920    -0.6020     2.7790 H     1 <1>   0.0800 
 31 H        5.3120    -0.2560     1.6460 H     1 <1>   0.0800 
 32 H       -0.4420    -0.1310    -0.5920 H     1 <1>   0.0800 
 33 H       -0.7280    -1.0330    -2.0440 H     1 <1>   0.0800 
 34 H        0.7580    -3.1080    -2.4910 H     1 <1>   0.0800 
 35 H        1.8020    -3.6000    -1.1930 H     1 <1>   0.0800 
 36 H       -1.8410    -1.3290     0.6100 H     1 <1>   0.0800 
 37 H        0.1480    -4.8910    -0.4220 H     1 <1>   0.0800 
 38 H       -0.9640    -4.2600    -1.6000 H     1 <1>   0.0800 
 39 H       -0.2800    -2.9810     0.9390 H     1 <1>   0.4500 
 40 H       -2.5940    -2.6420    -2.0140 H     1 <1>   0.0800 
 41 H       -3.2670    -1.1840    -1.3280 H     1 <1>   0.0800 
 42 H       -2.3980    -3.4690     1.8300 H     1 <1>   0.0800 
 43 H       -0.6970    -5.1920     2.1280 H     1 <1>   0.1000 
 44 H       -4.1500    -4.5880     0.5990 H     1 <1>   0.0800 
 45 H       -3.1380    -4.7570    -0.8130 H     1 <1>   0.0800 
 46 H       -1.9250    -6.6970    -0.3350 H     1 <1>   0.1000 
 47 H       -0.6030    -7.2710     0.7190 H     1 <1>   0.1000 
 48 H       -2.1310    -7.1020     2.7030 H     1 <1>   0.1000 
 49 H       -3.4410    -6.5300     1.6360 H     1 <1>   0.1000 
@<TRIPOS>BOND
  1   1   2  1   
  2   2   3  ar  
  3   2   4  ar  
  4   3   5  1   
  5   3   6  ar  
  6   4   7  ar  
  7   4   8  1   
  8   6   9  ar  
  9   6  25  1   
 10   7   9  ar  
 11   7  10  1   
 12   8  11  1   
 13   8  26  1   
 14   8  27  1   
 15   9  28  1   
 16  10  12  1   
 17  11  13  1   
 18  11  14  1   
 19  12  29  1   
 20  12  30  1   
 21  12  31  1   
 22  13  15  1   
 23  13  32  1   
 24  13  33  1   
 25  14  16  1   
 26  14  34  1   
 27  14  35  1   
 28  15  17  1   
 29  15  18  1   
 30  15  36  1   
 31  16  17  1   
 32  16  37  1   
 33  16  38  1   
 34  17  19  1   
 35  17  39  1   
 36  18  20  1   
 37  18  40  1   
 38  18  41  1   
 39  19  21  1   
 40  19  22  1   
 41  19  42  1   
 42  20  22  1   
 43  21  23  1   
 44  21  24  1   
 45  21  43  1   
 46  22  44  1   
 47  22  45  1   
 48  23  24  1   
 49  23  46  1   
 50  23  47  1   
 51  24  48  1   
 52  24  49  1   
@<TRIPOS>SUBSTRUCTURE
  1 ****  11 GROUP 4 **** **** 0

# MOE 2024.06 (io_trps.svl 2023.06)
