@<TRIPOS>MOLECULE
NONAME
43 45 1 0 0 
SMALL
USER_CHARGES


@<TRIPOS>ATOM
  1 O       -0.3060     1.1260     0.8240 O.2   1 <1>  -0.5700 
  2 C       -0.0600     2.3060     0.6180 C.2   1 <1>   0.7160 
  3 N       -1.1290     3.1920     0.6030 N.am  1 <1>  -0.6600 
  4 C        1.3360     2.6920     0.3980 C.2   1 <1>   0.1410 
  5 C       -2.5040     2.7760     1.0110 C.3   1 <1>   0.1400 
  6 C       -1.0120     4.5890     0.0890 C.3   1 <1>   0.1400 
  7 N        1.8520     3.9620     0.4590 N.2   1 <1>  -0.5650 
  8 C        2.3640     1.8380     0.1150 C.2   1 <1>  -0.3020 
  9 C       -3.5130     2.8690    -0.1670 C.3   1 <1>   0.0000 
 10 C       -2.3730     5.1690    -0.3220 C.3   1 <1>  -0.1600 
 11 C        3.1120     3.8250     0.2190 C.2   1 <1>   0.0360 
 12 N        3.4890     2.5500    -0.0010 N.pl3 1 <1>   0.0480 
 13 C       -4.9410     2.8220     0.4240 C.3   1 <1>   0.2000 
 14 C       -3.2140     4.1140    -1.0560 C.3   1 <1>  -0.1600 
 15 C       -3.4600     1.5730    -0.9940 C.3   1 <1>  -0.1600 
 16 C        4.8420     2.0490    -0.2940 C.3   1 <1>   0.0160 
 17 O       -5.8840     3.1990    -0.5410 O.3   1 <1>  -0.5600 
 18 C       -5.1740     1.3420     0.7500 C.3   1 <1>  -0.1600 
 19 C       -4.3180     0.5460    -0.2450 C.3   1 <1>  -0.1600 
 20 C       -7.0830     3.6950    -0.0350 C.3   1 <1>   0.0400 
 21 H       -2.4950     1.7810     1.4200 H     1 <1>   0.0800 
 22 H       -2.8180     3.4330     1.8040 H     1 <1>   0.0800 
 23 H       -0.5570     5.2110     0.8410 H     1 <1>   0.0800 
 24 H       -0.3690     4.5830    -0.7750 H     1 <1>   0.0800 
 25 H        2.3140     0.7700     0.0030 H     1 <1>   0.1500 
 26 H       -2.8990     5.5180     0.5490 H     1 <1>   0.0800 
 27 H       -2.2120     6.0190    -0.9620 H     1 <1>   0.0800 
 28 H        3.8160     4.6390     0.1940 H     1 <1>   0.1500 
 29 H       -5.0390     3.4630     1.2840 H     1 <1>   0.0800 
 30 H       -2.6520     3.8000    -1.9180 H     1 <1>   0.0800 
 31 H       -4.1160     4.5670    -1.4240 H     1 <1>   0.0800 
 32 H       -3.9070     1.7500    -1.9580 H     1 <1>   0.0800 
 33 H       -2.4510     1.2260    -1.1410 H     1 <1>   0.0800 
 34 H        4.8110     0.9820    -0.4180 H     1 <1>   0.0800 
 35 H        5.4960     2.2950     0.5220 H     1 <1>   0.0800 
 36 H        5.2020     2.5040    -1.1980 H     1 <1>   0.0800 
 37 H       -4.8260     1.1420     1.7480 H     1 <1>   0.0800 
 38 H       -6.2110     1.0680     0.6900 H     1 <1>   0.0800 
 39 H       -3.6910    -0.1550     0.2800 H     1 <1>   0.0800 
 40 H       -4.9390     0.0070    -0.9400 H     1 <1>   0.0800 
 41 H       -7.7280     3.9170    -0.8670 H     1 <1>   0.0800 
 42 H       -6.8860     4.5950     0.5210 H     1 <1>   0.0800 
 43 H       -7.5440     2.9530     0.5930 H     1 <1>   0.0800 
@<TRIPOS>BOND
  1   1   2  2   
  2   2   3  am  
  3   2   4  1   
  4   3   5  1   
  5   3   6  1   
  6   4   7  1   
  7   4   8  2   
  8   5   9  1   
  9   5  21  1   
 10   5  22  1   
 11   6  10  1   
 12   6  23  1   
 13   6  24  1   
 14   7  11  2   
 15   8  12  1   
 16   8  25  1   
 17   9  13  1   
 18   9  14  1   
 19   9  15  1   
 20  10  14  1   
 21  10  26  1   
 22  10  27  1   
 23  11  12  1   
 24  11  28  1   
 25  12  16  1   
 26  13  17  1   
 27  13  18  1   
 28  13  29  1   
 29  14  30  1   
 30  14  31  1   
 31  15  19  1   
 32  15  32  1   
 33  15  33  1   
 34  16  34  1   
 35  16  35  1   
 36  16  36  1   
 37  17  20  1   
 38  18  19  1   
 39  18  37  1   
 40  18  38  1   
 41  19  39  1   
 42  19  40  1   
 43  20  41  1   
 44  20  42  1   
 45  20  43  1   
@<TRIPOS>SUBSTRUCTURE
  1 ****   3 GROUP 4 **** **** 0

# MOE 2024.06 (io_trps.svl 2023.06)
