@<TRIPOS>MOLECULE
NONAME
52 55 1 0 0 
SMALL
USER_CHARGES


@<TRIPOS>ATOM
  1 S       -0.0040    -0.5330    -0.4000 S.3   1 <1>  -0.0800 
  2 C       -1.5750    -0.6360     0.4040 C.2   1 <1>  -0.0450 
  3 C       -0.3940     1.0060    -1.1370 C.2   1 <1>  -0.1400 
  4 C       -1.8580    -1.7890     1.2250 C.2   1 <1>   0.7150 
  5 C       -2.2910     0.4750     0.0880 C.2   1 <1>  -0.1500 
  6 C       -1.6300     1.3950    -0.7790 C.2   1 <1>  -0.1500 
  7 C        0.6610     1.6420    -2.0170 C.3   1 <1>  -0.0600 
  8 O       -0.9640    -2.3210     1.8590 O.2   1 <1>  -0.5700 
  9 N       -3.1340    -2.3090     1.3240 N.am  1 <1>  -0.6600 
 10 C       -3.5240    -3.2190     2.4380 C.3   1 <1>   0.1400 
 11 C       -4.1520    -2.2040     0.2440 C.3   1 <1>   0.1400 
 12 C       -3.7980    -4.6180     1.8820 C.3   1 <1>  -0.1600 
 13 C       -4.4300    -3.5970    -0.3260 C.3   1 <1>  -0.1600 
 14 C       -4.8520    -4.5940     0.7660 C.3   1 <1>   0.4240 
 15 O       -6.0260    -4.1060     1.3730 O.3   1 <1>  -0.5600 
 16 C       -5.0550    -6.0100     0.1840 C.ar  1 <1>  -0.1430 
 17 C       -7.2410    -4.3930     0.7520 C.3   1 <1>   0.1200 
 18 C       -6.2980    -6.6280     0.2060 C.ar  1 <1>  -0.1430 
 19 C       -3.9890    -6.6970    -0.3830 C.ar  1 <1>  -0.1500 
 20 C       -7.4800    -5.8980     0.8110 C.3   1 <1>  -0.0170 
 21 C       -6.4640    -7.8990    -0.3220 C.ar  1 <1>  -0.1500 
 22 C       -4.1360    -7.9690    -0.9090 C.ar  1 <1>   0.0830 
 23 C       -5.3960    -8.5850    -0.8930 C.ar  1 <1>   0.0830 
 24 O       -2.9950    -8.5150    -1.4180 O.3   1 <1>  -0.3630 
 25 O       -5.5570    -9.8230    -1.4470 O.3   1 <1>  -0.3630 
 26 C       -2.7430    -9.8980    -1.3030 C.3   1 <1>   0.0400 
 27 C       -6.8290   -10.4100    -1.6140 C.3   1 <1>   0.0400 
 28 H       -3.2810     0.6830     0.4520 H     1 <1>   0.1500 
 29 H       -2.1110     2.3060    -1.0920 H     1 <1>   0.1500 
 30 H        0.8950     0.9890    -2.8390 H     1 <1>   0.0800 
 31 H        1.5550     1.8180    -1.4460 H     1 <1>   0.0800 
 32 H        0.3050     2.5790    -2.4060 H     1 <1>   0.0800 
 33 H       -4.4100    -2.8330     2.9130 H     1 <1>   0.0800 
 34 H       -2.7460    -3.2680     3.1800 H     1 <1>   0.0800 
 35 H       -3.8080    -1.5660    -0.5510 H     1 <1>   0.0800 
 36 H       -5.0570    -1.7830     0.6510 H     1 <1>   0.0800 
 37 H       -4.1340    -5.2650     2.6710 H     1 <1>   0.0800 
 38 H       -2.8710    -5.0150     1.5130 H     1 <1>   0.0800 
 39 H       -3.5330    -3.9470    -0.8020 H     1 <1>   0.0800 
 40 H       -5.1850    -3.5410    -1.0860 H     1 <1>   0.0800 
 41 H       -7.2110    -4.0440    -0.2650 H     1 <1>   0.0800 
 42 H       -8.0150    -3.8670     1.2830 H     1 <1>   0.0800 
 43 H       -3.0120    -6.2520    -0.4250 H     1 <1>   0.1500 
 44 H       -8.3800    -6.1330     0.2720 H     1 <1>   0.0800 
 45 H       -7.6090    -6.2000     1.8350 H     1 <1>   0.0800 
 46 H       -7.4410    -8.3390    -0.2800 H     1 <1>   0.1500 
 47 H       -1.6840   -10.0540    -1.3960 H     1 <1>   0.0800 
 48 H       -3.2570   -10.4100    -2.0970 H     1 <1>   0.0800 
 49 H       -3.0850   -10.2400    -0.3430 H     1 <1>   0.0800 
 50 H       -6.6990   -11.3420    -2.1350 H     1 <1>   0.0800 
 51 H       -7.4450    -9.7490    -2.1980 H     1 <1>   0.0800 
 52 H       -7.2610   -10.5910    -0.6460 H     1 <1>   0.0800 
@<TRIPOS>BOND
  1   1   2  1   
  2   1   3  1   
  3   2   4  1   
  4   2   5  2   
  5   3   6  2   
  6   3   7  1   
  7   4   8  2   
  8   4   9  am  
  9   5   6  1   
 10   5  28  1   
 11   6  29  1   
 12   7  30  1   
 13   7  31  1   
 14   7  32  1   
 15   9  10  1   
 16   9  11  1   
 17  10  12  1   
 18  10  33  1   
 19  10  34  1   
 20  11  13  1   
 21  11  35  1   
 22  11  36  1   
 23  12  14  1   
 24  12  37  1   
 25  12  38  1   
 26  13  14  1   
 27  13  39  1   
 28  13  40  1   
 29  14  15  1   
 30  14  16  1   
 31  15  17  1   
 32  16  18  ar  
 33  16  19  ar  
 34  17  20  1   
 35  17  41  1   
 36  17  42  1   
 37  18  20  1   
 38  18  21  ar  
 39  19  22  ar  
 40  19  43  1   
 41  20  44  1   
 42  20  45  1   
 43  21  23  ar  
 44  21  46  1   
 45  22  23  ar  
 46  22  24  1   
 47  23  25  1   
 48  24  26  1   
 49  25  27  1   
 50  26  47  1   
 51  26  48  1   
 52  26  49  1   
 53  27  50  1   
 54  27  51  1   
 55  27  52  1   
@<TRIPOS>SUBSTRUCTURE
  1 ****  13 GROUP 4 **** **** 0

# MOE 2024.06 (io_trps.svl 2023.06)
