@<TRIPOS>MOLECULE
NONAME
45 48 1 0 0 
SMALL
USER_CHARGES


@<TRIPOS>ATOM
  1 S        0.4750     0.7040     2.0630 S.3   1 <1>  -0.0800 
  2 C        0.3890     1.9370     0.8230 C.2   1 <1>  -0.1400 
  3 C        2.1100     1.2040     2.4730 C.2   1 <1>  -0.1100 
  4 C        1.5240     2.6430     0.7400 C.2   1 <1>  -0.1810 
  5 C       -0.8340     2.1540    -0.0250 C.3   1 <1>   0.0200 
  6 C        2.5130     2.2270     1.6940 C.2   1 <1>  -0.1500 
  7 C        1.6820     3.7650    -0.2890 C.3   1 <1>   0.4610 
  8 C       -0.7130     3.5550    -0.6450 C.3   1 <1>   0.1200 
  9 O        0.5750     3.7700    -1.1740 O.3   1 <1>  -0.5600 
 10 C        2.9170     3.5140    -1.1640 C.3   1 <1>  -0.1600 
 11 C        1.7780     5.1350     0.3980 C.3   1 <1>  -0.1600 
 12 C        3.1530     4.6570    -2.1520 C.3   1 <1>   0.1400 
 13 C        2.0290     6.2560    -0.6120 C.3   1 <1>   0.1400 
 14 N        3.2550     5.9330    -1.3910 N.am  1 <1>  -0.6600 
 15 C        4.4300     6.6460    -1.3040 C.2   1 <1>   0.5440 
 16 O        5.4150     6.2550    -1.9020 O.2   1 <1>  -0.5700 
 17 C        4.5560     7.8150    -0.4660 C.ar  1 <1>   0.0860 
 18 C        4.7820     7.7080     0.9120 C.ar  1 <1>   0.0830 
 19 C        4.4450     9.0930    -1.0120 C.ar  1 <1>  -0.1500 
 20 O        4.8990     6.5100     1.5220 O.3   1 <1>  -0.3630 
 21 C        4.8600     8.8400     1.7070 C.ar  1 <1>  -0.1500 
 22 C        4.5340    10.2220    -0.2200 C.ar  1 <1>  -0.1500 
 23 C        6.0090     5.7010     1.1920 C.3   1 <1>   0.8800 
 24 C        4.7390    10.0960     1.1440 C.ar  1 <1>  -0.1500 
 25 F        5.6730     4.4430     1.4440 F     1 <1>  -0.3400 
 26 F        6.9880     5.9910     2.0380 F     1 <1>  -0.3400 
 27 H        2.6040     0.6710     3.2660 H     1 <1>   0.1500 
 28 H       -1.7240     2.0960     0.5750 H     1 <1>   0.0800 
 29 H       -0.8840     1.4060    -0.7960 H     1 <1>   0.0800 
 30 H        3.4730     2.7100     1.7530 H     1 <1>   0.1500 
 31 H       -0.9080     4.3100     0.0960 H     1 <1>   0.0800 
 32 H       -1.4200     3.6690    -1.4470 H     1 <1>   0.0800 
 33 H        2.7900     2.5890    -1.6960 H     1 <1>   0.0800 
 34 H        3.7890     3.4150    -0.5450 H     1 <1>   0.0800 
 35 H        2.5890     5.1190     1.1010 H     1 <1>   0.0800 
 36 H        0.8840     5.3330     0.9570 H     1 <1>   0.0800 
 37 H        2.3320     4.7230    -2.8460 H     1 <1>   0.0800 
 38 H        4.0510     4.4710    -2.7170 H     1 <1>   0.0800 
 39 H        2.1270     7.1960    -0.0980 H     1 <1>   0.0800 
 40 H        1.1940     6.3330    -1.2890 H     1 <1>   0.0800 
 41 H        4.2860     9.1920    -2.0720 H     1 <1>   0.1500 
 42 H        5.0190     8.7330     2.7660 H     1 <1>   0.1500 
 43 H        4.4450    11.2010    -0.6610 H     1 <1>   0.1500 
 44 H        6.3500     5.8020     0.1780 H     1 <1>   0.0800 
 45 H        4.8050    10.9750     1.7630 H     1 <1>   0.1500 
@<TRIPOS>BOND
  1   1   2  1   
  2   1   3  1   
  3   2   4  2   
  4   2   5  1   
  5   3   6  2   
  6   3  27  1   
  7   4   6  1   
  8   4   7  1   
  9   5   8  1   
 10   5  28  1   
 11   5  29  1   
 12   6  30  1   
 13   7   9  1   
 14   7  10  1   
 15   7  11  1   
 16   8   9  1   
 17   8  31  1   
 18   8  32  1   
 19  10  12  1   
 20  10  33  1   
 21  10  34  1   
 22  11  13  1   
 23  11  35  1   
 24  11  36  1   
 25  12  14  1   
 26  12  37  1   
 27  12  38  1   
 28  13  14  1   
 29  13  39  1   
 30  13  40  1   
 31  14  15  am  
 32  15  16  2   
 33  15  17  1   
 34  17  18  ar  
 35  17  19  ar  
 36  18  20  1   
 37  18  21  ar  
 38  19  22  ar  
 39  19  41  1   
 40  20  23  1   
 41  21  24  ar  
 42  21  42  1   
 43  22  24  ar  
 44  22  43  1   
 45  23  25  1   
 46  23  26  1   
 47  23  44  1   
 48  24  45  1   
@<TRIPOS>SUBSTRUCTURE
  1 ****  11 GROUP 4 **** **** 0

# MOE 2024.06 (io_trps.svl 2023.06)
