@<TRIPOS>MOLECULE
NONAME
54 58 1 0 0 
SMALL
USER_CHARGES


@<TRIPOS>ATOM
  1 O       -0.7510    -0.2440    -0.4970 O.2   1 <1>  -0.5700 
  2 C       -1.6550     0.5120    -0.1890 C.2   1 <1>   0.5440 
  3 N       -2.6950     0.0190     0.5660 N.am  1 <1>  -0.6600 
  4 C       -1.6250     1.8920    -0.6180 C.ar  1 <1>   0.0860 
  5 C       -3.8840     0.7740     1.0090 C.3   1 <1>   0.1400 
  6 C       -2.8690    -1.4070     0.8920 C.3   1 <1>   0.1400 
  7 C       -0.6970     2.7920    -0.0600 C.ar  1 <1>   0.0000 
  8 C       -2.5000     2.3910    -1.5720 C.ar  1 <1>  -0.1500 
  9 C       -5.0270    -0.2480     0.9810 C.3   1 <1>  -0.0800 
 10 C       -4.3770    -1.6420     0.7750 C.3   1 <1>  -0.0800 
 11 C       -0.6820     4.1310    -0.4440 C.ar  1 <1>  -0.1520 
 12 C        0.3230     2.6450     0.9000 C.2   1 <1>  -0.1500 
 13 C       -2.4810     3.7330    -1.9600 C.ar  1 <1>  -0.1500 
 14 C       -6.1520     0.1170    -0.0190 C.3   1 <1>   0.4240 
 15 C       -4.7220    -2.3050    -0.5730 C.3   1 <1>  -0.1600 
 16 N        0.3080     4.7740     0.2610 N.pl3 1 <1>   0.0480 
 17 C       -1.5790     4.6080    -1.4010 C.ar  1 <1>  -0.1500 
 18 C        0.9070     3.8550     1.0720 C.2   1 <1>  -0.3020 
 19 O       -5.5820     0.4550    -1.2350 O.3   1 <1>  -0.6800 
 20 C       -6.9840     1.3070     0.5060 C.ar  1 <1>  -0.1440 
 21 C       -7.0140    -1.1270    -0.2930 C.3   1 <1>  -0.1600 
 22 C       -6.2330    -2.3300    -0.8690 C.3   1 <1>  -0.1600 
 23 C        0.6680     6.1970     0.1510 C.3   1 <1>   0.0160 
 24 C       -7.8230     1.1430     1.6050 C.ar  1 <1>  -0.1500 
 25 C       -6.9180     2.5710    -0.0760 C.ar  1 <1>  -0.1500 
 26 C       -8.5730     2.1960     2.1000 C.ar  1 <1>  -0.1500 
 27 C       -7.6650     3.6270     0.4170 C.ar  1 <1>  -0.1500 
 28 C       -8.4950     3.4410     1.5060 C.ar  1 <1>  -0.1500 
 29 H       -3.7220     1.1220     2.0150 H     1 <1>   0.0800 
 30 H       -4.0800     1.6240     0.3810 H     1 <1>   0.0800 
 31 H       -2.3030    -2.0370     0.2260 H     1 <1>   0.0800 
 32 H       -2.5380    -1.5740     1.9030 H     1 <1>   0.0800 
 33 H       -3.2170     1.7290    -2.0230 H     1 <1>   0.1500 
 34 H       -5.4650    -0.2490     1.9630 H     1 <1>   0.0800 
 35 H       -4.6910    -2.3080     1.5600 H     1 <1>   0.0800 
 36 H        0.5630     1.7120     1.3810 H     1 <1>   0.1500 
 37 H       -3.1820     4.0740    -2.7020 H     1 <1>   0.1500 
 38 H       -4.2120    -1.7800    -1.3630 H     1 <1>   0.0800 
 39 H       -4.3420    -3.3130    -0.5860 H     1 <1>   0.0800 
 40 H       -1.5600     5.6420    -1.6940 H     1 <1>   0.1500 
 41 H        1.7210     4.1130     1.7260 H     1 <1>   0.1500 
 42 H       -5.0200    -0.2940    -1.5040 H     1 <1>   0.4000 
 43 H       -7.4570    -1.4430     0.6330 H     1 <1>   0.0800 
 44 H       -7.8230    -0.8620    -0.9510 H     1 <1>   0.0800 
 45 H       -6.6590    -3.2350    -0.4690 H     1 <1>   0.0800 
 46 H       -6.3710    -2.3640    -1.9370 H     1 <1>   0.0800 
 47 H        1.4800     6.4170     0.8190 H     1 <1>   0.0800 
 48 H       -0.1850     6.7970     0.4100 H     1 <1>   0.0800 
 49 H        0.9660     6.4070    -0.8600 H     1 <1>   0.0800 
 50 H       -7.9040     0.1900     2.0950 H     1 <1>   0.1500 
 51 H       -6.2820     2.7520    -0.9240 H     1 <1>   0.1500 
 52 H       -9.2180     2.0460     2.9480 H     1 <1>   0.1500 
 53 H       -7.5980     4.5940    -0.0500 H     1 <1>   0.1500 
 54 H       -9.0770     4.2610     1.8890 H     1 <1>   0.1500 
@<TRIPOS>BOND
  1   1   2  2   
  2   2   3  am  
  3   2   4  1   
  4   3   5  1   
  5   3   6  1   
  6   4   7  ar  
  7   4   8  ar  
  8   5   9  1   
  9   5  29  1   
 10   5  30  1   
 11   6  10  1   
 12   6  31  1   
 13   6  32  1   
 14   7  11  ar  
 15   7  12  1   
 16   8  13  ar  
 17   8  33  1   
 18   9  10  1   
 19   9  14  1   
 20   9  34  1   
 21  10  15  1   
 22  10  35  1   
 23  11  16  1   
 24  11  17  ar  
 25  12  18  2   
 26  12  36  1   
 27  13  17  ar  
 28  13  37  1   
 29  14  19  1   
 30  14  20  1   
 31  14  21  1   
 32  15  22  1   
 33  15  38  1   
 34  15  39  1   
 35  16  18  1   
 36  16  23  1   
 37  17  40  1   
 38  18  41  1   
 39  19  42  1   
 40  20  24  ar  
 41  20  25  ar  
 42  21  22  1   
 43  21  43  1   
 44  21  44  1   
 45  22  45  1   
 46  22  46  1   
 47  23  47  1   
 48  23  48  1   
 49  23  49  1   
 50  24  26  ar  
 51  24  50  1   
 52  25  27  ar  
 53  25  51  1   
 54  26  28  ar  
 55  26  52  1   
 56  27  28  ar  
 57  27  53  1   
 58  28  54  1   
@<TRIPOS>SUBSTRUCTURE
  1 ****   5 GROUP 4 **** **** 0

# MOE 2024.06 (io_trps.svl 2023.06)
