@<TRIPOS>MOLECULE
NONAME
42 44 1 0 0 
SMALL
USER_CHARGES


@<TRIPOS>ATOM
  1 O       -0.1770     0.6530     0.9390 O.2   1 <1>  -0.5700 
  2 C        0.0270     1.8160     0.6450 C.2   1 <1>   0.6900 
  3 N       -0.9940     2.7330     0.6780 N.am  1 <1>  -0.6600 
  4 N        1.2760     2.2500     0.3020 N.am  1 <1>  -0.5470 
  5 C       -2.3160     2.3730     1.2690 C.3   1 <1>   0.1400 
  6 C       -0.9780     4.0020    -0.1120 C.3   1 <1>   0.1400 
  7 C        2.4680     1.5550     0.0530 C.ar  1 <1>   0.1170 
  8 C       -3.3710     2.1490     0.1610 C.3   1 <1>   0.0000 
  9 C       -2.3860     4.3960    -0.5940 C.3   1 <1>  -0.1600 
 10 C        2.4950     0.2230    -0.3500 C.ar  1 <1>  -0.1500 
 11 C        3.6770     2.2260     0.1930 C.ar  1 <1>  -0.1500 
 12 C       -4.7820     2.1860     0.7780 C.3   1 <1>   0.2000 
 13 C       -3.1860     3.1550    -1.0210 C.3   1 <1>  -0.1600 
 14 C       -3.3350     0.7130    -0.3860 C.3   1 <1>  -0.1600 
 15 C        3.6940    -0.4190    -0.6010 C.ar  1 <1>  -0.1500 
 16 C        4.8790     1.5890    -0.0570 C.ar  1 <1>  -0.1500 
 17 O       -5.2650     3.4740     0.9250 O.3   1 <1>  -0.6800 
 18 C       -5.6810     1.3730    -0.1540 C.3   1 <1>  -0.1600 
 19 C       -4.7370     0.4630    -0.9530 C.3   1 <1>  -0.1600 
 20 C        4.8900     0.2630    -0.4550 C.ar  1 <1>  -0.1500 
 21 H        1.3580     3.2570     0.3460 H     1 <1>   0.3700 
 22 H       -2.2310     1.5000     1.8930 H     1 <1>   0.0800 
 23 H       -2.6310     3.1840     1.9030 H     1 <1>   0.0800 
 24 H       -0.5660     4.7940     0.4890 H     1 <1>   0.0800 
 25 H       -0.3510     3.8650    -0.9760 H     1 <1>   0.0800 
 26 H       -2.9030     4.9110     0.1970 H     1 <1>   0.0800 
 27 H       -2.2970     5.0800    -1.4190 H     1 <1>   0.0800 
 28 H        1.5740    -0.3170    -0.4710 H     1 <1>   0.1500 
 29 H        3.6820     3.2540     0.5050 H     1 <1>   0.1500 
 30 H       -4.7710     1.7240     1.7520 H     1 <1>   0.0800 
 31 H       -2.6310     2.6830    -1.8120 H     1 <1>   0.0800 
 32 H       -4.1310     3.4450    -1.4430 H     1 <1>   0.0800 
 33 H       -2.5600     0.5580    -1.1160 H     1 <1>   0.0800 
 34 H       -3.1630     0.0230     0.4230 H     1 <1>   0.0800 
 35 H        3.6950    -1.4490    -0.9100 H     1 <1>   0.1500 
 36 H        5.8080     2.1210     0.0580 H     1 <1>   0.1500 
 37 H       -5.2520     3.9230     0.0600 H     1 <1>   0.4000 
 38 H       -6.3730     0.7880     0.4250 H     1 <1>   0.0800 
 39 H       -6.2290     2.0100    -0.8260 H     1 <1>   0.0800 
 40 H       -5.0120    -0.5740    -0.8640 H     1 <1>   0.0800 
 41 H       -4.7620     0.7410    -1.9930 H     1 <1>   0.0800 
 42 H        5.8230    -0.2360    -0.6500 H     1 <1>   0.1500 
@<TRIPOS>BOND
  1   1   2  2   
  2   2   3  am  
  3   2   4  am  
  4   3   5  1   
  5   3   6  1   
  6   4   7  1   
  7   4  21  1   
  8   5   8  1   
  9   5  22  1   
 10   5  23  1   
 11   6   9  1   
 12   6  24  1   
 13   6  25  1   
 14   7  10  ar  
 15   7  11  ar  
 16   8  12  1   
 17   8  13  1   
 18   8  14  1   
 19   9  13  1   
 20   9  26  1   
 21   9  27  1   
 22  10  15  ar  
 23  10  28  1   
 24  11  16  ar  
 25  11  29  1   
 26  12  17  1   
 27  12  18  1   
 28  12  30  1   
 29  13  31  1   
 30  13  32  1   
 31  14  19  1   
 32  14  33  1   
 33  14  34  1   
 34  15  20  ar  
 35  15  35  1   
 36  16  20  ar  
 37  16  36  1   
 38  17  37  1   
 39  18  19  1   
 40  18  38  1   
 41  18  39  1   
 42  19  40  1   
 43  19  41  1   
 44  20  42  1   
@<TRIPOS>SUBSTRUCTURE
  1 ****   2 GROUP 4 **** **** 0

# MOE 2024.06 (io_trps.svl 2023.06)
