@<TRIPOS>MOLECULE
NONAME
54 56 1 0 0 
SMALL
USER_CHARGES


@<TRIPOS>ATOM
  1 O       -1.9850     0.1390     2.1990 O.2   1 <1>  -0.5700 
  2 C       -2.2840     0.5470     1.1030 C.2   1 <1>   0.5690 
  3 N       -2.5720    -0.2990     0.0660 N.am  1 <1>  -0.6600 
  4 C       -2.2940     2.0530     0.9170 C.3   1 <1>  -0.0990 
  5 C       -2.4920    -1.7880     0.2680 C.3   1 <1>   0.3640 
  6 C       -3.0220     0.1550    -1.2890 C.3   1 <1>   0.1400 
  7 C       -0.9000     2.5600     0.5320 C.3   1 <1>  -0.0170 
  8 C       -1.1310    -2.3570    -0.1720 C.ar  1 <1>  -0.1440 
  9 C       -3.6720    -2.5340    -0.4360 C.3   1 <1>   0.2000 
 10 C       -3.3040    -1.0190    -2.2390 C.3   1 <1>   0.1200 
 11 C       -0.9210     4.0640     0.3090 C.ar  1 <1>  -0.1440 
 12 C       -0.8400    -3.6750     0.1610 C.ar  1 <1>  -0.1500 
 13 C       -0.1730    -1.6280    -0.8720 C.ar  1 <1>  -0.1500 
 14 O       -4.1590    -1.9220    -1.6130 O.3   1 <1>  -0.5600 
 15 C       -4.8730    -2.6840     0.5050 C.3   1 <1>   0.1200 
 16 C       -0.9970     4.5960    -0.9710 C.ar  1 <1>   0.1600 
 17 C       -0.8700     4.9280     1.3830 C.ar  1 <1>  -0.1500 
 18 C        0.3550    -4.2670    -0.2120 C.ar  1 <1>   0.0830 
 19 C        1.0340    -2.2030    -1.2320 C.ar  1 <1>  -0.1500 
 20 O       -4.5850    -3.6050     1.5090 O.3   1 <1>  -0.6800 
 21 N       -1.0290     5.8880    -1.2570 N.ar  1 <1>  -0.6200 
 22 C       -0.9000     6.2780     1.1050 C.ar  1 <1>  -0.1500 
 23 O        0.5290    -5.5720     0.1120 O.3   1 <1>  -0.3630 
 24 C        1.3140    -3.5140    -0.8960 C.ar  1 <1>   0.0830 
 25 C       -0.9790     6.6980    -0.2120 C.ar  1 <1>   0.1600 
 26 C        0.6660    -6.4770    -0.9620 C.3   1 <1>   0.0400 
 27 O        2.5290    -4.0040    -1.2440 O.3   1 <1>  -0.3630 
 28 C        3.4050    -4.3010    -0.1790 C.3   1 <1>   0.0400 
 29 H       -3.0160     2.3470     0.1810 H     1 <1>   0.0800 
 30 H       -2.5880     2.5030     1.8480 H     1 <1>   0.0800 
 31 H       -2.5670    -1.9980     1.3220 H     1 <1>   0.0800 
 32 H       -3.9280     0.7270    -1.1860 H     1 <1>   0.0800 
 33 H       -2.2720     0.7890    -1.7260 H     1 <1>   0.0800 
 34 H       -0.5620     2.0620    -0.3590 H     1 <1>   0.0800 
 35 H       -0.2030     2.3220     1.3190 H     1 <1>   0.0800 
 36 H       -3.3520    -3.5190    -0.7240 H     1 <1>   0.0800 
 37 H       -2.4000    -1.5310    -2.5210 H     1 <1>   0.0800 
 38 H       -3.7920    -0.6680    -3.1300 H     1 <1>   0.0800 
 39 H       -1.5450    -4.2660     0.7180 H     1 <1>   0.1500 
 40 H       -0.3440    -0.6030    -1.1380 H     1 <1>   0.1500 
 41 H       -5.7370    -3.0360    -0.0320 H     1 <1>   0.0800 
 42 H       -5.0970    -1.7410     0.9730 H     1 <1>   0.0800 
 43 H       -1.0340     3.9240    -1.8100 H     1 <1>   0.1500 
 44 H       -0.8090     4.5690     2.3970 H     1 <1>   0.1500 
 45 H        1.7700    -1.6320    -1.7680 H     1 <1>   0.1500 
 46 H       -4.6670    -4.5210     1.1770 H     1 <1>   0.4000 
 47 H       -0.8620     7.0010     1.8990 H     1 <1>   0.1500 
 48 H       -1.0010     7.7540    -0.4160 H     1 <1>   0.1500 
 49 H        0.6440    -7.4760    -0.5640 H     1 <1>   0.0800 
 50 H        1.6020    -6.3030    -1.4600 H     1 <1>   0.0800 
 51 H       -0.1530    -6.3340    -1.6440 H     1 <1>   0.0800 
 52 H        4.3510    -4.5970    -0.5940 H     1 <1>   0.0800 
 53 H        2.9950    -5.1030     0.4070 H     1 <1>   0.0800 
 54 H        3.5250    -3.4200     0.4270 H     1 <1>   0.0800 
@<TRIPOS>BOND
  1   1   2  2   
  2   2   3  am  
  3   2   4  1   
  4   3   5  1   
  5   3   6  1   
  6   4   7  1   
  7   4  29  1   
  8   4  30  1   
  9   5   8  1   
 10   5   9  1   
 11   5  31  1   
 12   6  10  1   
 13   6  32  1   
 14   6  33  1   
 15   7  11  1   
 16   7  34  1   
 17   7  35  1   
 18   8  12  ar  
 19   8  13  ar  
 20   9  14  1   
 21   9  15  1   
 22   9  36  1   
 23  10  14  1   
 24  10  37  1   
 25  10  38  1   
 26  11  16  ar  
 27  11  17  ar  
 28  12  18  ar  
 29  12  39  1   
 30  13  19  ar  
 31  13  40  1   
 32  15  20  1   
 33  15  41  1   
 34  15  42  1   
 35  16  21  ar  
 36  16  43  1   
 37  17  22  ar  
 38  17  44  1   
 39  18  23  1   
 40  18  24  ar  
 41  19  24  ar  
 42  19  45  1   
 43  20  46  1   
 44  21  25  ar  
 45  22  25  ar  
 46  22  47  1   
 47  23  26  1   
 48  24  27  1   
 49  25  48  1   
 50  26  49  1   
 51  26  50  1   
 52  26  51  1   
 53  27  28  1   
 54  28  52  1   
 55  28  53  1   
 56  28  54  1   
@<TRIPOS>SUBSTRUCTURE
  1 ****   3 GROUP 4 **** **** 0

# MOE 2024.06 (io_trps.svl 2023.06)
