@<TRIPOS>MOLECULE
NONAME
47 49 1 0 0 
SMALL
USER_CHARGES


@<TRIPOS>ATOM
  1 O       -2.4110     0.1380     2.3580 O.2   1 <1>  -0.5700 
  2 C       -2.5570     0.7130     1.3070 C.2   1 <1>   0.5690 
  3 N       -2.6480     0.0540     0.1120 N.am  1 <1>  -0.6600 
  4 C       -2.5900     2.2240     1.3540 C.3   1 <1>  -0.0990 
  5 C       -2.4130    -1.4310     0.0730 C.3   1 <1>   0.3640 
  6 C       -2.9960     0.7350    -1.1800 C.3   1 <1>   0.1400 
  7 C       -1.2050     2.7670     0.9830 C.3   1 <1>   0.0960 
  8 C       -0.9120    -1.7370    -0.0240 C.ar  1 <1>  -0.1440 
  9 C       -3.1860    -2.1850    -1.0540 C.3   1 <1>   0.2000 
 10 C       -3.1170    -0.2350    -2.3610 C.3   1 <1>   0.1200 
 11 N       -1.3290     4.0410     0.2570 N.pl3 1 <1>   0.3140 
 12 C       -0.4210    -2.8440     0.6540 C.ar  1 <1>  -0.1500 
 13 C       -0.0240    -0.9620    -0.7620 C.ar  1 <1>  -0.1500 
 14 O       -3.8510    -1.3480    -1.9680 O.3   1 <1>  -0.5600 
 15 C       -4.2430    -3.1380    -0.4810 C.3   1 <1>   0.1200 
 16 N       -1.6970     4.0790    -1.0390 N.2   1 <1>  -0.7070 
 17 C       -1.1250     5.2790     0.7450 C.2   1 <1>  -0.3020 
 18 C        0.9210    -3.1780     0.5920 C.ar  1 <1>  -0.1500 
 19 C        1.3180    -1.2930    -0.8270 C.ar  1 <1>  -0.1500 
 20 O       -3.6360    -4.1720     0.2280 O.3   1 <1>  -0.6800 
 21 C       -1.7120     5.3420    -1.3400 C.2   1 <1>   0.1390 
 22 C       -1.3620     6.1450    -0.2610 C.2   1 <1>  -0.1810 
 23 C        1.7920    -2.4030    -0.1510 C.ar  1 <1>  -0.1500 
 24 C       -1.2760     7.6570    -0.2460 C.3   1 <1>  -0.0590 
 25 H       -3.3480     2.5910     0.6880 H     1 <1>   0.0800 
 26 H       -2.8460     2.5420     2.3480 H     1 <1>   0.0800 
 27 H       -2.7460    -1.8370     1.0130 H     1 <1>   0.0800 
 28 H       -3.9400     1.2390    -1.0660 H     1 <1>   0.0800 
 29 H       -2.2540     1.4780    -1.4150 H     1 <1>   0.0800 
 30 H       -0.6920     2.0790     0.3360 H     1 <1>   0.0800 
 31 H       -0.6080     2.9100     1.8640 H     1 <1>   0.0800 
 32 H       -2.4890    -2.7680    -1.6290 H     1 <1>   0.0800 
 33 H       -2.1510    -0.5550    -2.7120 H     1 <1>   0.0800 
 34 H       -3.6380     0.2380    -3.1750 H     1 <1>   0.0800 
 35 H       -1.0860    -3.4550     1.2420 H     1 <1>   0.1500 
 36 H       -0.3620    -0.0920    -1.2910 H     1 <1>   0.1500 
 37 H       -4.8280    -3.5740    -1.2720 H     1 <1>   0.0800 
 38 H       -4.8920    -2.6080     0.1960 H     1 <1>   0.0800 
 39 H       -0.8280     5.4700     1.7600 H     1 <1>   0.1500 
 40 H        1.2850    -4.0390     1.1240 H     1 <1>   0.1500 
 41 H        1.9950    -0.6860    -1.4020 H     1 <1>   0.1500 
 42 H       -3.2050    -4.8040    -0.3810 H     1 <1>   0.4000 
 43 H       -1.9680     5.7150    -2.3180 H     1 <1>   0.1500 
 44 H        2.8360    -2.6600    -0.2000 H     1 <1>   0.1500 
 45 H       -2.2330     8.0820    -0.4880 H     1 <1>   0.0800 
 46 H       -0.5510     7.9900    -0.9660 H     1 <1>   0.0800 
 47 H       -0.9800     8.0020     0.7290 H     1 <1>   0.0800 
@<TRIPOS>BOND
  1   1   2  2   
  2   2   3  am  
  3   2   4  1   
  4   3   5  1   
  5   3   6  1   
  6   4   7  1   
  7   4  25  1   
  8   4  26  1   
  9   5   8  1   
 10   5   9  1   
 11   5  27  1   
 12   6  10  1   
 13   6  28  1   
 14   6  29  1   
 15   7  11  1   
 16   7  30  1   
 17   7  31  1   
 18   8  12  ar  
 19   8  13  ar  
 20   9  14  1   
 21   9  15  1   
 22   9  32  1   
 23  10  14  1   
 24  10  33  1   
 25  10  34  1   
 26  11  16  1   
 27  11  17  1   
 28  12  18  ar  
 29  12  35  1   
 30  13  19  ar  
 31  13  36  1   
 32  15  20  1   
 33  15  37  1   
 34  15  38  1   
 35  16  21  2   
 36  17  22  2   
 37  17  39  1   
 38  18  23  ar  
 39  18  40  1   
 40  19  23  ar  
 41  19  41  1   
 42  20  42  1   
 43  21  22  1   
 44  21  43  1   
 45  22  24  1   
 46  23  44  1   
 47  24  45  1   
 48  24  46  1   
 49  24  47  1   
@<TRIPOS>SUBSTRUCTURE
  1 ****   3 GROUP 4 **** **** 0

# MOE 2024.06 (io_trps.svl 2023.06)
