@<TRIPOS>MOLECULE
NONAME
58 61 1 0 0 
SMALL
USER_CHARGES


@<TRIPOS>ATOM
  1 O        1.7070     0.2290    -0.9880 O.2   1 <1>  -0.5700 
  2 C        2.1650    -0.5060    -0.1480 C.2   1 <1>   0.6300 
  3 N        2.8420     0.0020     0.9320 N.am  1 <1>  -0.6600 
  4 C        2.0630    -2.0130    -0.3640 C.3   1 <1>  -0.1000 
  5 C        4.0250    -0.6800     1.5200 C.3   1 <1>   0.1400 
  6 C        2.6320     1.4120     1.3520 C.3   1 <1>   0.1400 
  7 C        0.7270    -2.6920    -0.4330 C.3   1 <1>  -0.1900 
  8 C        1.6200    -2.9480     0.7380 C.3   1 <1>  -0.2000 
  9 C        5.2260    -0.5810     0.5550 C.3   1 <1>   0.3430 
 10 C        3.8400     2.2890     1.0050 C.3   1 <1>  -0.1600 
 11 C       -0.6030    -1.9840    -0.1730 C.3   1 <1>  -0.0650 
 12 C        0.4160    -3.8600    -1.3590 C.3   1 <1>  -0.0650 
 13 N        5.7160     0.8200     0.2760 N.4   1 <1>  -0.9590 
 14 C        4.6540     1.7790    -0.1870 C.3   1 <1>   0.3430 
 15 C       -1.6840    -3.0430    -0.4220 C.3   1 <1>  -0.1600 
 16 C       -0.9660    -4.3120    -0.8970 C.3   1 <1>  -0.1600 
 17 C        6.8410     0.7740    -0.7030 C.3   1 <1>   0.4860 
 18 C        7.5440     2.1160    -0.7330 C.ar  1 <1>  -0.1440 
 19 C        8.4110     2.4740     0.2890 C.ar  1 <1>   0.1600 
 20 C        7.3380     3.0040    -1.7730 C.ar  1 <1>  -0.1500 
 21 N        9.0480     3.6250     0.3720 N.ar  1 <1>  -0.6200 
 22 C        8.0050     4.2060    -1.7060 C.ar  1 <1>  -0.1500 
 23 C        8.8370     4.4740    -0.6300 C.ar  1 <1>   0.3930 
 24 O        9.4560     5.6710    -0.6200 O.3   1 <1>  -0.3620 
 25 C       10.3490     6.0210     0.4160 C.3   1 <1>   0.1200 
 26 C       10.8830     7.4220     0.1310 C.3   1 <1>  -0.2400 
 27 H        2.7930    -2.3590    -1.0710 H     1 <1>   0.1000 
 28 H        3.7950    -1.7170     1.6920 H     1 <1>   0.0800 
 29 H        4.2720    -0.2450     2.4720 H     1 <1>   0.0800 
 30 H        2.4350     1.4500     2.4100 H     1 <1>   0.0800 
 31 H        1.7570     1.8040     0.8560 H     1 <1>   0.0800 
 32 H        1.3380    -2.5410     1.6930 H     1 <1>   0.1000 
 33 H        2.0920    -3.9110     0.8280 H     1 <1>   0.1000 
 34 H        4.9400    -1.0490    -0.3730 H     1 <1>   0.0800 
 35 H        6.0340    -1.1600     0.9700 H     1 <1>   0.0800 
 36 H        4.4680     2.4190     1.8670 H     1 <1>   0.0800 
 37 H        3.4590     3.2640     0.7570 H     1 <1>   0.0800 
 38 H       -0.7230    -1.1820    -0.8820 H     1 <1>   0.0800 
 39 H       -0.6640    -1.5780     0.8210 H     1 <1>   0.0800 
 40 H        1.1420    -4.6530    -1.3010 H     1 <1>   0.0800 
 41 H        0.3590    -3.5030    -2.3730 H     1 <1>   0.0800 
 42 H        6.0930     1.2160     1.1460 H     1 <1>   0.4500 
 43 H        5.1190     2.6330    -0.6510 H     1 <1>   0.0800 
 44 H        4.0050     1.3180    -0.9160 H     1 <1>   0.0800 
 45 H       -2.3580    -2.6930    -1.1850 H     1 <1>   0.0800 
 46 H       -2.2460    -3.2400     0.4740 H     1 <1>   0.0800 
 47 H       -0.8530    -4.9850    -0.0650 H     1 <1>   0.0800 
 48 H       -1.5060    -4.8130    -1.6820 H     1 <1>   0.0800 
 49 H        6.4680     0.5340    -1.6850 H     1 <1>   0.0800 
 50 H        7.5510     0.0140    -0.4170 H     1 <1>   0.0800 
 51 H        8.5980     1.7820     1.0940 H     1 <1>   0.1500 
 52 H        6.6920     2.7860    -2.6080 H     1 <1>   0.1500 
 53 H        7.8980     4.9490    -2.4760 H     1 <1>   0.1500 
 54 H       11.1490     5.3000     0.4330 H     1 <1>   0.0800 
 55 H        9.8150     5.9950     1.3500 H     1 <1>   0.0800 
 56 H       11.4030     7.4350    -0.8090 H     1 <1>   0.0800 
 57 H       11.5680     7.7130     0.9070 H     1 <1>   0.0800 
 58 H       10.0720     8.1280     0.1060 H     1 <1>   0.0800 
@<TRIPOS>BOND
  1   1   2  2   
  2   2   3  am  
  3   2   4  1   
  4   3   5  1   
  5   3   6  1   
  6   4   7  1   
  7   4   8  1   
  8   4  27  1   
  9   5   9  1   
 10   5  28  1   
 11   5  29  1   
 12   6  10  1   
 13   6  30  1   
 14   6  31  1   
 15   7   8  1   
 16   7  11  1   
 17   7  12  1   
 18   8  32  1   
 19   8  33  1   
 20   9  13  1   
 21   9  34  1   
 22   9  35  1   
 23  10  14  1   
 24  10  36  1   
 25  10  37  1   
 26  11  15  1   
 27  11  38  1   
 28  11  39  1   
 29  12  16  1   
 30  12  40  1   
 31  12  41  1   
 32  13  14  1   
 33  13  17  1   
 34  13  42  1   
 35  14  43  1   
 36  14  44  1   
 37  15  16  1   
 38  15  45  1   
 39  15  46  1   
 40  16  47  1   
 41  16  48  1   
 42  17  18  1   
 43  17  49  1   
 44  17  50  1   
 45  18  19  ar  
 46  18  20  ar  
 47  19  21  ar  
 48  19  51  1   
 49  20  22  ar  
 50  20  52  1   
 51  21  23  ar  
 52  22  23  ar  
 53  22  53  1   
 54  23  24  1   
 55  24  25  1   
 56  25  26  1   
 57  25  54  1   
 58  25  55  1   
 59  26  56  1   
 60  26  57  1   
 61  26  58  1   
@<TRIPOS>SUBSTRUCTURE
  1 ****  14 GROUP 4 **** **** 0

# MOE 2024.06 (io_trps.svl 2023.06)
