@<TRIPOS>MOLECULE
NONAME
42 43 1 0 0 
SMALL
USER_CHARGES


@<TRIPOS>ATOM
  1 S        0.1190     0.3470     0.1990 S.o2  1 <1>   1.0900 
  2 O        1.0490     0.9920     1.0890 O.2   1 <1>  -0.6500 
  3 O       -0.1140     0.7640    -1.1620 O.2   1 <1>  -0.6500 
  4 C        0.4910    -1.3750     0.1030 C.3   1 <1>  -0.0550 
  5 C       -1.4600     0.0800     0.9810 C.3   1 <1>  -0.0550 
  6 C       -0.8510    -1.9930    -0.2700 C.3   1 <1>   0.4230 
  7 C       -1.8940    -1.3690     0.6800 C.3   1 <1>  -0.1600 
  8 N       -0.8570    -3.4910    -0.1840 N.4   1 <1>  -0.9590 
  9 C        0.2190    -4.1020    -1.0130 C.3   1 <1>   0.4810 
 10 C       -2.1890    -4.0840    -0.5220 C.3   1 <1>   0.3430 
 11 C        1.2620    -4.6020    -0.0430 C.2   1 <1>  -0.2880 
 12 C       -2.2760    -5.5240    -0.0140 C.3   1 <1>  -0.1600 
 13 C        2.5060    -4.1270     0.0820 C.2   1 <1>  -0.3000 
 14 C       -3.6650    -6.1240    -0.2740 C.3   1 <1>   0.0960 
 15 N       -3.6870    -7.5160     0.2050 N.pl3 1 <1>   0.0480 
 16 C       -3.3180    -8.6160    -0.5020 C.2   1 <1>  -0.3020 
 17 C       -4.0160    -7.9330     1.4560 C.2   1 <1>  -0.3020 
 18 C       -3.4140    -9.7160     0.2900 C.2   1 <1>  -0.1500 
 19 C       -3.8590    -9.2790     1.5400 C.2   1 <1>  -0.1500 
 20 H        0.8230    -1.7330     1.0590 H     1 <1>   0.0800 
 21 H        1.2410    -1.5490    -0.6430 H     1 <1>   0.0800 
 22 H       -2.1810     0.7850     0.6090 H     1 <1>   0.0800 
 23 H       -1.3720     0.2190     2.0430 H     1 <1>   0.0800 
 24 H       -1.0850    -1.6870    -1.2800 H     1 <1>   0.0800 
 25 H       -2.8700    -1.3640     0.2270 H     1 <1>   0.0800 
 26 H       -1.9340    -1.9120     1.6090 H     1 <1>   0.0800 
 27 H       -0.6260    -3.7530     0.7830 H     1 <1>   0.4500 
 28 H        0.6470    -3.3770    -1.6860 H     1 <1>   0.0800 
 29 H       -0.1570    -4.9270    -1.5980 H     1 <1>   0.0800 
 30 H       -2.3500    -4.0560    -1.5880 H     1 <1>   0.0800 
 31 H       -2.9750    -3.5140    -0.0520 H     1 <1>   0.0800 
 32 H        0.9100    -5.4230     0.5610 H     1 <1>   0.1500 
 33 H       -2.0920    -5.5440     1.0470 H     1 <1>   0.0800 
 34 H       -1.5490    -6.1420    -0.5090 H     1 <1>   0.0800 
 35 H        3.2260    -4.5190     0.7850 H     1 <1>   0.1500 
 36 H        2.9320    -3.3230    -0.4960 H     1 <1>   0.1500 
 37 H       -3.8930    -6.1260    -1.3260 H     1 <1>   0.0800 
 38 H       -4.4280    -5.5730     0.2460 H     1 <1>   0.0800 
 39 H       -3.0090    -8.5720    -1.5310 H     1 <1>   0.1500 
 40 H       -4.3460    -7.2610     2.2280 H     1 <1>   0.1500 
 41 H       -3.1970   -10.7390     0.0330 H     1 <1>   0.1500 
 42 H       -4.0370    -9.9160     2.3910 H     1 <1>   0.1500 
@<TRIPOS>BOND
  1   1   2  2   
  2   1   3  2   
  3   1   4  1   
  4   1   5  1   
  5   4   6  1   
  6   4  20  1   
  7   4  21  1   
  8   5   7  1   
  9   5  22  1   
 10   5  23  1   
 11   6   7  1   
 12   6   8  1   
 13   6  24  1   
 14   7  25  1   
 15   7  26  1   
 16   8   9  1   
 17   8  10  1   
 18   8  27  1   
 19   9  11  1   
 20   9  28  1   
 21   9  29  1   
 22  10  12  1   
 23  10  30  1   
 24  10  31  1   
 25  11  13  2   
 26  11  32  1   
 27  12  14  1   
 28  12  33  1   
 29  12  34  1   
 30  13  35  1   
 31  13  36  1   
 32  14  15  1   
 33  14  37  1   
 34  14  38  1   
 35  15  16  1   
 36  15  17  1   
 37  16  18  2   
 38  16  39  1   
 39  17  19  2   
 40  17  40  1   
 41  18  19  1   
 42  18  41  1   
 43  19  42  1   
@<TRIPOS>SUBSTRUCTURE
  1 ****   8 GROUP 4 **** **** 0

# MOE 2024.06 (io_trps.svl 2023.06)
