@<TRIPOS>MOLECULE
NONAME
44 47 1 0 0 
SMALL
USER_CHARGES


@<TRIPOS>ATOM
  1 F        2.2840     0.5910    -1.4000 F     1 <1>  -0.1900 
  2 C        3.2960     0.1110    -0.7300 C.ar  1 <1>   0.1900 
  3 C        3.4070     0.4060     0.6150 C.ar  1 <1>  -0.1500 
  4 C        4.2190    -0.6780    -1.3870 C.ar  1 <1>  -0.1500 
  5 C        4.4880    -0.0970     1.3170 C.ar  1 <1>  -0.1500 
  6 C        5.2940    -1.1740    -0.6700 C.ar  1 <1>  -0.1500 
  7 C        5.4590    -0.8770     0.6840 C.ar  1 <1>   0.0540 
  8 C        6.6210    -1.3590     1.3970 C.2   1 <1>   0.2350 
  9 N        6.9470    -2.6190     1.4840 N.2   1 <1>  -0.7070 
 10 C        7.5660    -0.5590     2.0480 C.2   1 <1>  -0.1810 
 11 N        8.0720    -2.6550     2.2170 N.pl3 1 <1>   0.3000 
 12 C        8.4720    -1.4170     2.5640 C.2   1 <1>  -0.3020 
 13 C        7.5460     0.9510     2.1030 C.3   1 <1>   0.5240 
 14 N        8.4820     1.4610     1.0710 N.4   1 <1>  -0.9590 
 15 C        8.8930     2.8910     1.3180 C.3   1 <1>   0.3430 
 16 C        8.0400     1.1210    -0.3260 C.3   1 <1>   0.3430 
 17 C       10.0680     3.4070     0.4400 C.3   1 <1>   0.2200 
 18 C        9.1330     1.2790    -1.3910 C.3   1 <1>  -0.0190 
 19 N        9.6070     3.6580    -0.9440 N.am  1 <1>  -0.7300 
 20 C       11.3010     2.4680     0.4380 C.3   1 <1>   0.1200 
 21 C        9.1860     2.7220    -1.8120 C.2   1 <1>   0.5690 
 22 C       10.5350     0.7380    -1.0340 C.3   1 <1>   0.1200 
 23 O       10.9630     1.1170     0.2480 O.3   1 <1>  -0.5600 
 24 O        8.8220     3.0340    -2.9120 O.2   1 <1>  -0.5700 
 25 H        2.6550     1.0080     1.0940 H     1 <1>   0.1500 
 26 H        4.0890    -0.9020    -2.4320 H     1 <1>   0.1500 
 27 H        4.5720     0.1020     2.3710 H     1 <1>   0.1500 
 28 H        6.0140    -1.8100    -1.1570 H     1 <1>   0.1500 
 29 H        8.5400    -3.5400     2.4570 H     1 <1>   0.2700 
 30 H        9.3630    -1.2400     3.1420 H     1 <1>   0.1500 
 31 H        7.8680     1.2670     3.0820 H     1 <1>   0.0800 
 32 H        6.5510     1.3260     1.9290 H     1 <1>   0.0800 
 33 H        9.3600     0.9140     1.1780 H     1 <1>   0.4500 
 34 H        8.0470     3.5430     1.1750 H     1 <1>   0.0800 
 35 H        9.1990     2.9810     2.3470 H     1 <1>   0.0800 
 36 H        7.7300     0.0900    -0.3480 H     1 <1>   0.0800 
 37 H        7.1860     1.7210    -0.5990 H     1 <1>   0.0800 
 38 H       10.3840     4.3560     0.8390 H     1 <1>   0.0800 
 39 H        8.8030     0.7350    -2.2580 H     1 <1>   0.0800 
 40 H        9.6710     4.6140    -1.3120 H     1 <1>   0.3700 
 41 H       11.7930     2.5290     1.3940 H     1 <1>   0.0800 
 42 H       12.0110     2.7640    -0.3160 H     1 <1>   0.0800 
 43 H       11.2680     1.0620    -1.7550 H     1 <1>   0.0800 
 44 H       10.5140    -0.3390    -1.0470 H     1 <1>   0.0800 
@<TRIPOS>BOND
  1   1   2  1   
  2   2   3  ar  
  3   2   4  ar  
  4   3   5  ar  
  5   3  25  1   
  6   4   6  ar  
  7   4  26  1   
  8   5   7  ar  
  9   5  27  1   
 10   6   7  ar  
 11   6  28  1   
 12   7   8  1   
 13   8   9  2   
 14   8  10  1   
 15   9  11  1   
 16  10  12  2   
 17  10  13  1   
 18  11  12  1   
 19  11  29  1   
 20  12  30  1   
 21  13  14  1   
 22  13  31  1   
 23  13  32  1   
 24  14  15  1   
 25  14  16  1   
 26  14  33  1   
 27  15  17  1   
 28  15  34  1   
 29  15  35  1   
 30  16  18  1   
 31  16  36  1   
 32  16  37  1   
 33  17  19  1   
 34  17  20  1   
 35  17  38  1   
 36  18  21  1   
 37  18  22  1   
 38  18  39  1   
 39  19  21  am  
 40  19  40  1   
 41  20  23  1   
 42  20  41  1   
 43  20  42  1   
 44  21  24  2   
 45  22  23  1   
 46  22  43  1   
 47  22  44  1   
@<TRIPOS>SUBSTRUCTURE
  1 ****  16 GROUP 4 **** **** 0

# MOE 2024.06 (io_trps.svl 2023.06)
