@<TRIPOS>MOLECULE
NONAME
43 45 1 0 0 
SMALL
USER_CHARGES


@<TRIPOS>ATOM
  1 F       -1.0660    -0.1610    -1.3920 F     1 <1>  -0.1900 
  2 C       -1.7940    -0.7820    -0.4980 C.ar  1 <1>   0.1900 
  3 C       -2.4810    -0.0830     0.5020 C.ar  1 <1>   0.0830 
  4 C       -1.8470    -2.1570    -0.6010 C.ar  1 <1>  -0.1500 
  5 O       -2.5050     1.2610     0.6990 O.3   1 <1>  -0.3630 
  6 C       -3.2230    -0.8330     1.4020 C.ar  1 <1>  -0.1500 
  7 C       -2.6040    -2.9070     0.2970 C.ar  1 <1>   0.0860 
  8 C       -1.7690     2.1750    -0.0830 C.3   1 <1>   0.0400 
  9 C       -3.2800    -2.2130     1.3030 C.ar  1 <1>  -0.1500 
 10 C       -2.6700    -4.3510     0.1830 C.2   1 <1>   0.5440 
 11 O       -1.6520    -4.9870    -0.0130 O.2   1 <1>  -0.5700 
 12 N       -3.8620    -5.0350     0.2720 N.am  1 <1>  -0.6600 
 13 C       -5.1960    -4.4440    -0.0090 C.3   1 <1>   0.1400 
 14 C       -3.9220    -6.5160     0.1920 C.3   1 <1>   0.1400 
 15 C       -6.0320    -5.6090    -0.5350 C.3   1 <1>   0.2000 
 16 C       -5.4080    -6.8600     0.0760 C.3   1 <1>  -0.0800 
 17 O       -7.3600    -5.5000    -0.1550 O.3   1 <1>  -0.6800 
 18 C       -5.6820    -8.1310    -0.7420 C.3   1 <1>   0.0200 
 19 C       -4.9830    -9.3290    -0.1310 C.2   1 <1>  -0.0400 
 20 O       -5.3100    -9.7370     1.0660 O.3   1 <1>  -0.0190 
 21 C       -4.0090   -10.1300    -0.5880 C.2   1 <1>  -0.1500 
 22 N       -4.6050   -10.7660     1.4360 N.2   1 <1>  -0.4100 
 23 C       -3.8130   -11.0260     0.4590 C.2   1 <1>   0.1080 
 24 C       -2.8050   -12.1540     0.4580 C.3   1 <1>  -0.0590 
 25 H       -1.2980    -2.6580    -1.3790 H     1 <1>   0.1500 
 26 H       -3.7550    -0.3220     2.1860 H     1 <1>   0.1500 
 27 H       -1.9460     3.1630     0.3020 H     1 <1>   0.0800 
 28 H       -2.1060     2.1150    -1.1020 H     1 <1>   0.0800 
 29 H       -0.7220     1.9370    -0.0070 H     1 <1>   0.0800 
 30 H       -3.8520    -2.7690     2.0250 H     1 <1>   0.1500 
 31 H       -5.6120    -4.0610     0.9060 H     1 <1>   0.0800 
 32 H       -5.1230    -3.6620    -0.7450 H     1 <1>   0.0800 
 33 H       -3.3810    -6.8410    -0.6810 H     1 <1>   0.0800 
 34 H       -3.4800    -6.9620     1.0670 H     1 <1>   0.0800 
 35 H       -5.9870    -5.6300    -1.6110 H     1 <1>   0.0800 
 36 H       -5.7800    -6.9940     1.0780 H     1 <1>   0.0800 
 37 H       -7.4460    -5.5680     0.8150 H     1 <1>   0.4000 
 38 H       -5.3390    -7.9980    -1.7530 H     1 <1>   0.0800 
 39 H       -6.7410    -8.3200    -0.7710 H     1 <1>   0.0800 
 40 H       -3.4830   -10.1150    -1.5240 H     1 <1>   0.1500 
 41 H       -3.0090   -12.8250    -0.3560 H     1 <1>   0.0800 
 42 H       -2.8640   -12.6990     1.3820 H     1 <1>   0.0800 
 43 H       -1.8130   -11.7560     0.3510 H     1 <1>   0.0800 
@<TRIPOS>BOND
  1   1   2  1   
  2   2   3  ar  
  3   2   4  ar  
  4   3   5  1   
  5   3   6  ar  
  6   4   7  ar  
  7   4  25  1   
  8   5   8  1   
  9   6   9  ar  
 10   6  26  1   
 11   7   9  ar  
 12   7  10  1   
 13   8  27  1   
 14   8  28  1   
 15   8  29  1   
 16   9  30  1   
 17  10  11  2   
 18  10  12  am  
 19  12  13  1   
 20  12  14  1   
 21  13  15  1   
 22  13  31  1   
 23  13  32  1   
 24  14  16  1   
 25  14  33  1   
 26  14  34  1   
 27  15  16  1   
 28  15  17  1   
 29  15  35  1   
 30  16  18  1   
 31  16  36  1   
 32  17  37  1   
 33  18  19  1   
 34  18  38  1   
 35  18  39  1   
 36  19  20  1   
 37  19  21  2   
 38  20  22  1   
 39  21  23  1   
 40  21  40  1   
 41  22  23  2   
 42  23  24  1   
 43  24  41  1   
 44  24  42  1   
 45  24  43  1   
@<TRIPOS>SUBSTRUCTURE
  1 ****  12 GROUP 4 **** **** 0

# MOE 2024.06 (io_trps.svl 2023.06)
