@<TRIPOS>MOLECULE
NONAME
43 45 1 0 0 
SMALL
USER_CHARGES


@<TRIPOS>ATOM
  1 CL      -0.2270    -2.4890     1.2560 Cl    1 <1>  -0.1770 
  2 C       -1.8360    -2.3010     0.6110 C.ar  1 <1>   0.1770 
  3 C       -2.7920    -1.6360     1.3530 C.ar  1 <1>  -0.1500 
  4 C       -2.1350    -2.8210    -0.6330 C.ar  1 <1>  -0.1500 
  5 C       -4.0710    -1.4960     0.8370 C.ar  1 <1>  -0.1500 
  6 C       -3.4160    -2.6700    -1.1380 C.ar  1 <1>  -0.1500 
  7 C       -4.4050    -2.0070    -0.4150 C.ar  1 <1>  -0.0090 
  8 S       -6.0850    -1.8180    -1.0800 S.o2  1 <1>   1.4470 
  9 O       -6.0470    -1.9050    -2.5240 O.2   1 <1>  -0.6500 
 10 O       -6.6870    -0.6470    -0.4770 O.2   1 <1>  -0.6500 
 11 N       -6.9510    -3.1610    -0.5140 N.am  1 <1>  -0.8490 
 12 C       -6.4930    -4.4330    -1.1110 C.3   1 <1>   0.1960 
 13 C       -8.3880    -2.9730    -0.7750 C.3   1 <1>   0.1960 
 14 C       -7.1560    -5.6830    -0.4740 C.3   1 <1>  -0.1060 
 15 C       -9.2320    -4.2190    -0.4700 C.3   1 <1>  -0.1600 
 16 C       -7.4680    -6.6180    -1.6510 C.2   1 <1>   0.9060 
 17 C       -8.4250    -5.2510     0.3080 C.3   1 <1>   0.2000 
 18 C       -6.1830    -6.4560     0.4590 C.3   1 <1>  -0.0650 
 19 O       -6.5780    -6.8180    -2.4860 O.co2 1 <1>  -0.9000 
 20 O       -8.5750    -7.1670    -1.7540 O.co2 1 <1>  -0.9000 
 21 O       -9.2420    -6.3300     0.5770 O.3   1 <1>  -0.6800 
 22 C       -5.5790    -5.6670     1.6320 C.3   1 <1>  -0.1950 
 23 C       -4.2390    -5.0120     1.5320 C.3   1 <1>  -0.2000 
 24 C       -4.4110    -6.2460     2.3650 C.3   1 <1>  -0.2000 
 25 H       -2.5390    -1.2370     2.3190 H     1 <1>   0.1500 
 26 H       -1.3770    -3.3370    -1.1950 H     1 <1>   0.1500 
 27 H       -4.8240    -0.9830     1.4120 H     1 <1>   0.1500 
 28 H       -3.6540    -3.0740    -2.1100 H     1 <1>   0.1500 
 29 H       -6.7110    -4.4010    -2.1680 H     1 <1>   0.0800 
 30 H       -5.4260    -4.5280    -1.0210 H     1 <1>   0.0800 
 31 H       -8.7420    -2.1580    -0.1650 H     1 <1>   0.0800 
 32 H       -8.5390    -2.6980    -1.8070 H     1 <1>   0.0800 
 33 H       -9.5640    -4.6490    -1.3990 H     1 <1>   0.0800 
 34 H      -10.0990    -3.9320     0.0940 H     1 <1>   0.0800 
 35 H       -8.1590    -4.8160     1.2530 H     1 <1>   0.0800 
 36 H       -6.7130    -7.3020     0.8630 H     1 <1>   0.0800 
 37 H       -5.3790    -6.8570    -0.1360 H     1 <1>   0.0800 
 38 H       -9.2500    -6.8670    -0.2730 H     1 <1>   0.4000 
 39 H       -6.3210    -5.1940     2.2500 H     1 <1>   0.1000 
 40 H       -3.6820    -5.0880     0.6150 H     1 <1>   0.1000 
 41 H       -4.0900    -4.0740     2.0340 H     1 <1>   0.1000 
 42 H       -4.3840    -6.1600     3.4370 H     1 <1>   0.1000 
 43 H       -3.9820    -7.1690     2.0140 H     1 <1>   0.1000 
@<TRIPOS>BOND
  1   1   2  1   
  2   2   3  ar  
  3   2   4  ar  
  4   3   5  ar  
  5   3  25  1   
  6   4   6  ar  
  7   4  26  1   
  8   5   7  ar  
  9   5  27  1   
 10   6   7  ar  
 11   6  28  1   
 12   7   8  1   
 13   8   9  2   
 14   8  10  2   
 15   8  11  am  
 16  11  12  1   
 17  11  13  1   
 18  12  14  1   
 19  12  29  1   
 20  12  30  1   
 21  13  15  1   
 22  13  31  1   
 23  13  32  1   
 24  14  16  1   
 25  14  17  1   
 26  14  18  1   
 27  15  17  1   
 28  15  33  1   
 29  15  34  1   
 30  16  19  ar  
 31  16  20  ar  
 32  17  21  1   
 33  17  35  1   
 34  18  22  1   
 35  18  36  1   
 36  18  37  1   
 37  21  38  1   
 38  22  23  1   
 39  22  24  1   
 40  22  39  1   
 41  23  24  1   
 42  23  40  1   
 43  23  41  1   
 44  24  42  1   
 45  24  43  1   
@<TRIPOS>SUBSTRUCTURE
  1 ****  12 GROUP 4 **** **** 0

# MOE 2024.06 (io_trps.svl 2023.06)
