@<TRIPOS>MOLECULE
NONAME
48 50 1 0 0 
SMALL
USER_CHARGES


@<TRIPOS>ATOM
  1 O       -1.5130    -0.3620     2.2750 O.2   1 <1>  -0.5700 
  2 C       -1.9520     0.0210     1.2220 C.2   1 <1>   0.4230 
  3 C       -3.2210    -0.4190     0.7130 C.ar  1 <1>   0.0860 
  4 C       -1.0650     0.9460     0.4130 C.3   1 <1>  -0.1790 
  5 C       -4.1870     0.3780     0.1010 C.ar  1 <1>   0.1660 
  6 C       -3.5600    -1.7580     0.8220 C.ar  1 <1>   0.1600 
  7 N       -5.2930    -0.1160    -0.3920 N.ar  1 <1>  -0.6200 
  8 C       -4.0530     1.8870    -0.0210 C.3   1 <1>  -0.0960 
  9 N       -4.6620    -2.2740     0.3430 N.ar  1 <1>  -0.6200 
 10 C       -5.4820    -1.4280    -0.2740 C.ar  1 <1>   0.7200 
 11 N       -6.6440    -1.9160    -0.7870 N.pl3 1 <1>  -0.8380 
 12 C       -6.7870    -3.2330    -1.4770 C.3   1 <1>   0.2890 
 13 C       -7.9100    -1.5210    -0.1040 C.3   1 <1>   0.2090 
 14 C       -7.1700    -4.3420    -0.4700 C.3   1 <1>   0.2090 
 15 C       -5.5620    -3.5860    -2.3280 C.3   1 <1>  -0.2400 
 16 C       -8.3710    -2.5990     0.9030 C.3   1 <1>   0.2090 
 17 N       -8.3890    -3.9850     0.3290 N.pl3 1 <1>  -0.8380 
 18 C       -9.6100    -4.5420    -0.0510 C.ar  1 <1>   0.1000 
 19 C      -10.1300    -5.6490     0.6210 C.ar  1 <1>  -0.1440 
 20 C      -10.3290    -4.0050    -1.1130 C.ar  1 <1>  -0.1500 
 21 C      -11.3420    -6.1920     0.2270 C.ar  1 <1>  -0.1500 
 22 C       -9.3720    -6.2640     1.7900 C.3   1 <1>  -0.0970 
 23 C      -11.5380    -4.5490    -1.5030 C.ar  1 <1>  -0.1500 
 24 C      -12.0470    -5.6460    -0.8320 C.ar  1 <1>  -0.1500 
 25 H       -1.3460     0.9390    -0.6240 H     1 <1>   0.0800 
 26 H       -0.0450     0.6150     0.4900 H     1 <1>   0.0800 
 27 H       -1.1270     1.9450     0.8010 H     1 <1>   0.0800 
 28 H       -2.8750    -2.4200     1.3260 H     1 <1>   0.1500 
 29 H       -3.5570     2.3010     0.8370 H     1 <1>   0.0800 
 30 H       -5.0290     2.3370    -0.0840 H     1 <1>   0.0800 
 31 H       -3.5100     2.1380    -0.9130 H     1 <1>   0.0800 
 32 H       -7.6100    -3.1420    -2.1640 H     1 <1>   0.0800 
 33 H       -8.6770    -1.3670    -0.8420 H     1 <1>   0.0800 
 34 H       -7.7720    -0.5900     0.4180 H     1 <1>   0.0800 
 35 H       -6.3470    -4.5070     0.2020 H     1 <1>   0.0800 
 36 H       -7.3520    -5.2590    -1.0020 H     1 <1>   0.0800 
 37 H       -4.7220    -3.8490    -1.7130 H     1 <1>   0.0800 
 38 H       -5.3020    -2.7530    -2.9550 H     1 <1>   0.0800 
 39 H       -5.7910    -4.4280    -2.9550 H     1 <1>   0.0800 
 40 H       -9.3540    -2.3510     1.2650 H     1 <1>   0.0800 
 41 H       -7.7010    -2.5890     1.7440 H     1 <1>   0.0800 
 42 H       -9.9350    -3.1560    -1.6370 H     1 <1>   0.1500 
 43 H      -11.7460    -7.0450     0.7420 H     1 <1>   0.1500 
 44 H       -9.2080    -5.5170     2.5450 H     1 <1>   0.0800 
 45 H       -8.4180    -6.6240     1.4510 H     1 <1>   0.0800 
 46 H       -9.9180    -7.0810     2.2240 H     1 <1>   0.0800 
 47 H      -12.0820    -4.1220    -2.3270 H     1 <1>   0.1500 
 48 H      -12.9870    -6.0750    -1.1310 H     1 <1>   0.1500 
@<TRIPOS>BOND
  1   1   2  2   
  2   2   3  1   
  3   2   4  1   
  4   3   5  ar  
  5   3   6  ar  
  6   4  25  1   
  7   4  26  1   
  8   4  27  1   
  9   5   7  ar  
 10   5   8  1   
 11   6   9  ar  
 12   6  28  1   
 13   7  10  ar  
 14   8  29  1   
 15   8  30  1   
 16   8  31  1   
 17   9  10  ar  
 18  10  11  1   
 19  11  12  1   
 20  11  13  1   
 21  12  14  1   
 22  12  15  1   
 23  12  32  1   
 24  13  16  1   
 25  13  33  1   
 26  13  34  1   
 27  14  17  1   
 28  14  35  1   
 29  14  36  1   
 30  15  37  1   
 31  15  38  1   
 32  15  39  1   
 33  16  17  1   
 34  16  40  1   
 35  16  41  1   
 36  17  18  1   
 37  18  19  ar  
 38  18  20  ar  
 39  19  21  ar  
 40  19  22  1   
 41  20  23  ar  
 42  20  42  1   
 43  21  24  ar  
 44  21  43  1   
 45  22  44  1   
 46  22  45  1   
 47  22  46  1   
 48  23  24  ar  
 49  23  47  1   
 50  24  48  1   
@<TRIPOS>SUBSTRUCTURE
  1 ****  11 GROUP 4 **** **** 0

# MOE 2024.06 (io_trps.svl 2023.06)
