@<TRIPOS>MOLECULE
NONAME
52 56 1 0 0 
SMALL
USER_CHARGES


@<TRIPOS>ATOM
  1 O        0.2630     0.0810     0.2990 O.2   1 <1>  -0.5700 
  2 C       -0.9000     0.4300     0.3540 C.2   1 <1>   0.7160 
  3 N       -1.8630    -0.5180     0.2190 N.am  1 <1>  -0.7300 
  4 C       -1.2730     1.8010     0.5500 C.2   1 <1>  -0.0860 
  5 C       -1.6930    -1.9390    -0.1190 C.3   1 <1>   0.2200 
  6 C       -2.5680     2.2710     0.8200 C.2   1 <1>   0.3720 
  7 C       -0.5300     2.9430     0.5380 C.2   1 <1>   0.0870 
  8 C       -2.3020    -2.2920    -1.4920 C.3   1 <1>  -0.0800 
  9 C       -2.4870    -2.8320     0.8470 C.3   1 <1>  -0.1600 
 10 N       -2.5830     3.5490     0.9610 N.2   1 <1>  -0.4100 
 11 N       -3.7180     1.4810     0.9510 N.pl3 1 <1>  -0.8210 
 12 O       -1.3480     3.9330     0.7920 O.3   1 <1>  -0.0190 
 13 C        0.8640     3.2340     0.3090 C.ar  1 <1>   0.0530 
 14 C       -2.5460    -3.7840    -1.3200 C.3   1 <1>  -0.1600 
 15 C       -3.7540    -1.7820    -1.6070 C.3   1 <1>  -0.1600 
 16 C       -3.4210    -3.6230    -0.0870 C.3   1 <1>  -0.0800 
 17 C       -4.9330     2.0390     0.2780 C.3   1 <1>   0.2090 
 18 C       -4.0350     1.1660     2.3760 C.3   1 <1>   0.2090 
 19 C        1.6010     2.6000    -0.6910 C.ar  1 <1>  -0.1500 
 20 C        1.5220     4.1910     1.0810 C.ar  1 <1>  -0.1500 
 21 C       -4.5120    -2.6740    -0.6080 C.3   1 <1>  -0.1600 
 22 C       -6.1330     1.0910     0.4510 C.3   1 <1>   0.1200 
 23 C       -5.2750     0.2590     2.4780 C.3   1 <1>   0.1200 
 24 C        2.9330     2.8990    -0.9050 C.ar  1 <1>  -0.1500 
 25 C        2.8540     4.4980     0.8720 C.ar  1 <1>  -0.1500 
 26 O       -6.3690     0.8220     1.8060 O.3   1 <1>  -0.5600 
 27 C        3.5640     3.8500    -0.1240 C.ar  1 <1>  -0.1500 
 28 H       -2.8300    -0.1780     0.2940 H     1 <1>   0.3700 
 29 H       -0.6490    -2.2080    -0.0970 H     1 <1>   0.0800 
 30 H       -1.6680    -2.0350    -2.3230 H     1 <1>   0.0800 
 31 H       -1.8130    -3.5060     1.3450 H     1 <1>   0.0800 
 32 H       -3.0330    -2.2700     1.5840 H     1 <1>   0.0800 
 33 H       -3.0730    -4.2220    -2.1510 H     1 <1>   0.0800 
 34 H       -1.6430    -4.3370    -1.1220 H     1 <1>   0.0800 
 35 H       -3.8560    -0.7350    -1.3860 H     1 <1>   0.0800 
 36 H       -4.1220    -1.9560    -2.6040 H     1 <1>   0.0800 
 37 H       -3.7970    -4.5390     0.3370 H     1 <1>   0.0800 
 38 H       -5.1800     2.9990     0.6990 H     1 <1>   0.0800 
 39 H       -4.7300     2.1760    -0.7690 H     1 <1>   0.0800 
 40 H       -3.1940     0.6710     2.8300 H     1 <1>   0.0800 
 41 H       -4.2170     2.0790     2.9180 H     1 <1>   0.0800 
 42 H        1.1240     1.8610    -1.3090 H     1 <1>   0.1500 
 43 H        0.9800     4.7010     1.8580 H     1 <1>   0.1500 
 44 H       -5.2800    -3.2310    -1.1170 H     1 <1>   0.0800 
 45 H       -4.9610    -2.1040     0.1860 H     1 <1>   0.0800 
 46 H       -5.9560     0.1610    -0.0590 H     1 <1>   0.0800 
 47 H       -7.0220     1.5430     0.0480 H     1 <1>   0.0800 
 48 H       -5.5560     0.1300     3.5080 H     1 <1>   0.0800 
 49 H       -5.0700    -0.7070     2.0530 H     1 <1>   0.0800 
 50 H        3.4800     2.3910    -1.6800 H     1 <1>   0.1500 
 51 H        3.3400     5.2390     1.4820 H     1 <1>   0.1500 
 52 H        4.6010     4.0840    -0.2890 H     1 <1>   0.1500 
@<TRIPOS>BOND
  1   1   2  2   
  2   2   3  am  
  3   2   4  1   
  4   3   5  1   
  5   3  28  1   
  6   4   6  1   
  7   4   7  2   
  8   5   8  1   
  9   5   9  1   
 10   5  29  1   
 11   6  10  2   
 12   6  11  1   
 13   7  12  1   
 14   7  13  1   
 15   8  14  1   
 16   8  15  1   
 17   8  30  1   
 18   9  16  1   
 19   9  31  1   
 20   9  32  1   
 21  10  12  1   
 22  11  17  1   
 23  11  18  1   
 24  13  19  ar  
 25  13  20  ar  
 26  14  16  1   
 27  14  33  1   
 28  14  34  1   
 29  15  21  1   
 30  15  35  1   
 31  15  36  1   
 32  16  21  1   
 33  16  37  1   
 34  17  22  1   
 35  17  38  1   
 36  17  39  1   
 37  18  23  1   
 38  18  40  1   
 39  18  41  1   
 40  19  24  ar  
 41  19  42  1   
 42  20  25  ar  
 43  20  43  1   
 44  21  44  1   
 45  21  45  1   
 46  22  26  1   
 47  22  46  1   
 48  22  47  1   
 49  23  26  1   
 50  23  48  1   
 51  23  49  1   
 52  24  27  ar  
 53  24  50  1   
 54  25  27  ar  
 55  25  51  1   
 56  27  52  1   
@<TRIPOS>SUBSTRUCTURE
  1 ****   2 GROUP 4 **** **** 0

# MOE 2024.06 (io_trps.svl 2023.06)
