@<TRIPOS>MOLECULE
NONAME
45 46 1 0 0 
SMALL
USER_CHARGES


@<TRIPOS>ATOM
  1 F        3.5140     2.0110    -1.3040 F     1 <1>  -0.1900 
  2 C        4.5570     1.3320    -0.9060 C.ar  1 <1>   0.1900 
  3 C        4.8990     1.2440     0.4520 C.ar  1 <1>   0.0830 
  4 C        5.3040     0.7240    -1.8960 C.ar  1 <1>  -0.1500 
  5 O        4.2330     1.7990     1.5070 O.3   1 <1>  -0.3630 
  6 C        6.0380     0.5250     0.7920 C.ar  1 <1>  -0.1500 
  7 C        6.4240     0.0170    -1.5070 C.ar  1 <1>   0.1900 
  8 C        2.9270     2.3710     1.4380 C.3   1 <1>   0.2610 
  9 C        6.8070    -0.0930    -0.1830 C.ar  1 <1>  -0.1500 
 10 F        7.1520    -0.5620    -2.4230 F     1 <1>  -0.1900 
 11 C        2.9830     3.8330     0.9680 C.2   1 <1>   0.5690 
 12 C        2.3290     2.2480     2.8440 C.3   1 <1>  -0.2400 
 13 O        1.9490     4.4030     0.7060 O.2   1 <1>  -0.5700 
 14 N        4.2140     4.4230     0.8640 N.am  1 <1>  -0.4940 
 15 C        4.5710     5.7220     0.4350 C.2   1 <1>  -0.0880 
 16 N        5.5800     5.9860    -0.4380 N.pl3 1 <1>   0.3140 
 17 C        4.0400     6.9210     0.7720 C.2   1 <1>  -0.1810 
 18 N        5.7150     7.3120    -0.6590 N.2   1 <1>  -0.7070 
 19 C        6.3900     5.0000    -1.1830 C.3   1 <1>   0.0960 
 20 C        4.7870     7.8570     0.0660 C.2   1 <1>   0.1390 
 21 C        2.8870     7.2290     1.7080 C.3   1 <1>  -0.0590 
 22 C        7.4670     4.3660    -0.2910 C.3   1 <1>  -0.1600 
 23 C        8.3130     3.3600    -1.0800 C.3   1 <1>  -0.1600 
 24 C        9.3380     2.6740    -0.1750 C.3   1 <1>  -0.2400 
 25 H        5.0270     0.7980    -2.9320 H     1 <1>   0.1500 
 26 H        6.3210     0.4450     1.8280 H     1 <1>   0.1500 
 27 H        2.3300     1.7900     0.7590 H     1 <1>   0.0800 
 28 H        7.6890    -0.6530     0.0760 H     1 <1>   0.1500 
 29 H        2.9150     2.8090     3.5500 H     1 <1>   0.0800 
 30 H        2.2910     1.2170     3.1430 H     1 <1>   0.0800 
 31 H        1.3280     2.6410     2.8440 H     1 <1>   0.0800 
 32 H        4.9850     3.7900     1.0820 H     1 <1>   0.3700 
 33 H        6.8510     5.5080    -2.0110 H     1 <1>   0.0800 
 34 H        5.7290     4.2470    -1.5710 H     1 <1>   0.0800 
 35 H        4.6230     8.9200     0.1090 H     1 <1>   0.1500 
 36 H        2.7550     6.4280     2.4130 H     1 <1>   0.0800 
 37 H        1.9800     7.3380     1.1400 H     1 <1>   0.0800 
 38 H        3.0770     8.1370     2.2500 H     1 <1>   0.0800 
 39 H        7.0020     3.8640     0.5390 H     1 <1>   0.0800 
 40 H        8.1060     5.1440     0.0940 H     1 <1>   0.0800 
 41 H        8.8290     3.8680    -1.8780 H     1 <1>   0.0800 
 42 H        7.6760     2.6130    -1.5210 H     1 <1>   0.0800 
 43 H       10.0080     3.4000     0.2520 H     1 <1>   0.0800 
 44 H        9.9180     1.9690    -0.7450 H     1 <1>   0.0800 
 45 H        8.8470     2.1450     0.6230 H     1 <1>   0.0800 
@<TRIPOS>BOND
  1   1   2  1   
  2   2   3  ar  
  3   2   4  ar  
  4   3   5  1   
  5   3   6  ar  
  6   4   7  ar  
  7   4  25  1   
  8   5   8  1   
  9   6   9  ar  
 10   6  26  1   
 11   7   9  ar  
 12   7  10  1   
 13   8  11  1   
 14   8  12  1   
 15   8  27  1   
 16   9  28  1   
 17  11  13  2   
 18  11  14  am  
 19  12  29  1   
 20  12  30  1   
 21  12  31  1   
 22  14  15  1   
 23  14  32  1   
 24  15  16  1   
 25  15  17  2   
 26  16  18  1   
 27  16  19  1   
 28  17  20  1   
 29  17  21  1   
 30  18  20  2   
 31  19  22  1   
 32  19  33  1   
 33  19  34  1   
 34  20  35  1   
 35  21  36  1   
 36  21  37  1   
 37  21  38  1   
 38  22  23  1   
 39  22  39  1   
 40  22  40  1   
 41  23  24  1   
 42  23  41  1   
 43  23  42  1   
 44  24  43  1   
 45  24  44  1   
 46  24  45  1   
@<TRIPOS>SUBSTRUCTURE
  1 ****  14 GROUP 4 **** **** 0

# MOE 2024.06 (io_trps.svl 2023.06)
