@<TRIPOS>MOLECULE
NONAME
41 42 1 0 0 
SMALL
USER_CHARGES


@<TRIPOS>ATOM
  1 S       -1.5410     0.5150     1.4660 S.3   1 <1>  -0.0800 
  2 C       -1.9270    -0.3680    -0.0140 C.2   1 <1>  -0.0450 
  3 C        0.0960     0.8380     0.9370 C.2   1 <1>  -0.1400 
  4 C       -3.2510    -0.9240    -0.1500 C.2   1 <1>   0.7150 
  5 C       -0.8310    -0.3650    -0.8170 C.2   1 <1>  -0.1500 
  6 C        0.3050     0.3080    -0.2810 C.2   1 <1>  -0.1500 
  7 C        0.9880     1.6260     1.8730 C.3   1 <1>  -0.0600 
  8 O       -4.2180    -0.3460     0.3150 O.2   1 <1>  -0.5700 
  9 N       -3.4860    -2.1170    -0.8010 N.am  1 <1>  -0.6600 
 10 C       -2.4410    -3.1780    -0.8960 C.3   1 <1>   0.3200 
 11 C       -4.8790    -2.4720    -1.2280 C.3   1 <1>   0.1400 
 12 C       -2.9980    -4.4650    -0.3240 C.2   1 <1>  -0.3320 
 13 C       -5.7080    -2.9770    -0.0250 C.3   1 <1>   0.3430 
 14 N       -3.2620    -5.5780    -1.0390 N.pl3 1 <1>   0.0330 
 15 C       -3.3470    -4.7400     0.9520 C.2   1 <1>   0.0770 
 16 N       -7.1050    -2.4290     0.0330 N.4   1 <1>  -0.9590 
 17 C       -3.7970    -6.4420    -0.1510 C.2   1 <1>   0.0360 
 18 N       -3.8830    -5.9680     1.0490 N.2   1 <1>  -0.5650 
 19 C       -7.0870    -0.9660     0.3670 C.3   1 <1>   0.2630 
 20 C       -7.8870    -3.1760     1.0630 C.3   1 <1>   0.2630 
 21 H       -0.7810    -0.8140    -1.7920 H     1 <1>   0.1500 
 22 H        1.2270     0.3690    -0.8330 H     1 <1>   0.1500 
 23 H        0.5560     2.5930     2.0620 H     1 <1>   0.0800 
 24 H        1.9600     1.7600     1.4350 H     1 <1>   0.0800 
 25 H        1.0940     1.1030     2.8060 H     1 <1>   0.0800 
 26 H       -1.5660    -2.9040    -0.3310 H     1 <1>   0.0800 
 27 H       -2.1520    -3.3090    -1.9250 H     1 <1>   0.0800 
 28 H       -4.8440    -3.2300    -1.9900 H     1 <1>   0.0800 
 29 H       -5.3350    -1.5960    -1.6540 H     1 <1>   0.0800 
 30 H       -5.1920    -2.6980     0.8790 H     1 <1>   0.0800 
 31 H       -5.7400    -4.0540    -0.0620 H     1 <1>   0.0800 
 32 H       -3.0850    -5.7610    -2.0330 H     1 <1>   0.2700 
 33 H       -3.2550    -4.1030     1.8190 H     1 <1>   0.1500 
 34 H       -7.5580    -2.5580    -0.8840 H     1 <1>   0.4500 
 35 H       -4.1150    -7.4330    -0.4330 H     1 <1>   0.1500 
 36 H       -6.5800    -0.8030     1.3050 H     1 <1>   0.0800 
 37 H       -8.0910    -0.5810     0.4430 H     1 <1>   0.0800 
 38 H       -6.5630    -0.4090    -0.3930 H     1 <1>   0.0800 
 39 H       -7.4350    -3.0560     2.0350 H     1 <1>   0.0800 
 40 H       -7.9130    -4.2280     0.8250 H     1 <1>   0.0800 
 41 H       -8.9000    -2.8080     1.1070 H     1 <1>   0.0800 
@<TRIPOS>BOND
  1   1   2  1   
  2   1   3  1   
  3   2   4  1   
  4   2   5  2   
  5   3   6  2   
  6   3   7  1   
  7   4   8  2   
  8   4   9  am  
  9   5   6  1   
 10   5  21  1   
 11   6  22  1   
 12   7  23  1   
 13   7  24  1   
 14   7  25  1   
 15   9  10  1   
 16   9  11  1   
 17  10  12  1   
 18  10  26  1   
 19  10  27  1   
 20  11  13  1   
 21  11  28  1   
 22  11  29  1   
 23  12  14  1   
 24  12  15  2   
 25  13  16  1   
 26  13  30  1   
 27  13  31  1   
 28  14  17  1   
 29  14  32  1   
 30  15  18  1   
 31  15  33  1   
 32  16  19  1   
 33  16  20  1   
 34  16  34  1   
 35  17  18  2   
 36  17  35  1   
 37  19  36  1   
 38  19  37  1   
 39  19  38  1   
 40  20  39  1   
 41  20  40  1   
 42  20  41  1   
@<TRIPOS>SUBSTRUCTURE
  1 ****   9 GROUP 4 **** **** 0

# MOE 2024.06 (io_trps.svl 2023.06)
