@<TRIPOS>MOLECULE
NONAME
51 53 1 0 0 
SMALL
USER_CHARGES


@<TRIPOS>ATOM
  1 O       -2.2910     0.7380    -2.0140 O.2   1 <1>  -0.5700 
  2 C       -1.9440     0.6640    -0.8600 C.2   1 <1>   0.5690 
  3 N       -1.8050    -0.5350    -0.2430 N.am  1 <1>  -0.7300 
  4 C       -1.6790     1.9350    -0.0550 C.3   1 <1>  -0.0190 
  5 C       -2.0240    -1.8500    -0.8890 C.3   1 <1>   0.2200 
  6 C       -2.9870     2.6970     0.2200 C.3   1 <1>  -0.1600 
  7 C       -0.6620     2.8540    -0.7570 C.3   1 <1>  -0.1600 
  8 C       -3.3630    -2.4510    -0.4810 C.3   1 <1>  -0.0800 
  9 C       -1.0660    -2.8620    -0.2760 C.3   1 <1>   0.1200 
 10 C       -2.7320     3.9770     1.0290 C.3   1 <1>  -0.1600 
 11 C       -0.4080     4.1380     0.0460 C.3   1 <1>  -0.1600 
 12 C       -3.0410    -3.1410     0.8500 C.3   1 <1>   0.1200 
 13 C       -4.5500    -1.4720    -0.4190 C.3   1 <1>  -0.0170 
 14 O       -1.6470    -3.2140     0.9430 O.3   1 <1>  -0.5600 
 15 C       -1.7170     4.9000     0.3310 C.3   1 <1>  -0.0800 
 16 C       -5.8430    -2.2060    -0.1000 C.ar  1 <1>  -0.1440 
 17 C       -1.4840     6.1560     1.1920 C.3   1 <1>  -0.1600 
 18 C       -6.3630    -2.2570     1.1780 C.ar  1 <1>  -0.1500 
 19 C       -6.5620    -2.8630    -1.0770 C.ar  1 <1>  -0.1500 
 20 C       -0.6210     7.2190     0.5000 C.3   1 <1>  -0.2400 
 21 C       -7.5410    -2.9480     1.4100 C.ar  1 <1>   0.1600 
 22 C       -7.7310    -3.5250    -0.7390 C.ar  1 <1>   0.1600 
 23 N       -8.2360    -3.5860     0.4830 N.ar  1 <1>  -0.6200 
 24 H       -1.5450    -0.5960     0.7430 H     1 <1>   0.3700 
 25 H       -1.2580     1.6460     0.8910 H     1 <1>   0.0800 
 26 H       -1.9100    -1.7720    -1.9580 H     1 <1>   0.0800 
 27 H       -3.4500     2.9550    -0.7170 H     1 <1>   0.0800 
 28 H       -3.6690     2.0620     0.7590 H     1 <1>   0.0800 
 29 H        0.2650     2.3260    -0.8960 H     1 <1>   0.0800 
 30 H       -1.0370     3.1170    -1.7330 H     1 <1>   0.0800 
 31 H       -3.6030    -3.2220    -1.1910 H     1 <1>   0.0800 
 32 H       -0.0820    -2.4600    -0.1100 H     1 <1>   0.0800 
 33 H       -1.0060    -3.7480    -0.8820 H     1 <1>   0.0800 
 34 H       -2.3650     3.7120     2.0050 H     1 <1>   0.0800 
 35 H       -3.6640     4.5000     1.1590 H     1 <1>   0.0800 
 36 H        0.2660     4.7600    -0.5160 H     1 <1>   0.0800 
 37 H        0.0720     3.8870     0.9760 H     1 <1>   0.0800 
 38 H       -3.4480    -4.1370     0.8900 H     1 <1>   0.0800 
 39 H       -3.3930    -2.5700     1.6920 H     1 <1>   0.0800 
 40 H       -4.6490    -0.9710    -1.3670 H     1 <1>   0.0800 
 41 H       -4.3770    -0.7160     0.3270 H     1 <1>   0.0800 
 42 H       -2.1410     5.2080    -0.6110 H     1 <1>   0.0800 
 43 H       -2.4370     6.6000     1.4210 H     1 <1>   0.0800 
 44 H       -1.0230     5.8780     2.1250 H     1 <1>   0.0800 
 45 H       -5.8660    -1.7670     1.9950 H     1 <1>   0.1500 
 46 H       -6.2260    -2.8660    -2.0970 H     1 <1>   0.1500 
 47 H       -1.0350     7.4730    -0.4600 H     1 <1>   0.0800 
 48 H        0.3870     6.8710     0.3640 H     1 <1>   0.0800 
 49 H       -0.5880     8.1100     1.1020 H     1 <1>   0.0800 
 50 H       -7.9320    -2.9780     2.4130 H     1 <1>   0.1500 
 51 H       -8.2790    -4.0320    -1.5150 H     1 <1>   0.1500 
@<TRIPOS>BOND
  1   1   2  2   
  2   2   3  am  
  3   2   4  1   
  4   3   5  1   
  5   3  24  1   
  6   4   6  1   
  7   4   7  1   
  8   4  25  1   
  9   5   8  1   
 10   5   9  1   
 11   5  26  1   
 12   6  10  1   
 13   6  27  1   
 14   6  28  1   
 15   7  11  1   
 16   7  29  1   
 17   7  30  1   
 18   8  12  1   
 19   8  13  1   
 20   8  31  1   
 21   9  14  1   
 22   9  32  1   
 23   9  33  1   
 24  10  15  1   
 25  10  34  1   
 26  10  35  1   
 27  11  15  1   
 28  11  36  1   
 29  11  37  1   
 30  12  14  1   
 31  12  38  1   
 32  12  39  1   
 33  13  16  1   
 34  13  40  1   
 35  13  41  1   
 36  15  17  1   
 37  15  42  1   
 38  16  18  ar  
 39  16  19  ar  
 40  17  20  1   
 41  17  43  1   
 42  17  44  1   
 43  18  21  ar  
 44  18  45  1   
 45  19  22  ar  
 46  19  46  1   
 47  20  47  1   
 48  20  48  1   
 49  20  49  1   
 50  21  23  ar  
 51  21  50  1   
 52  22  23  ar  
 53  22  51  1   
@<TRIPOS>SUBSTRUCTURE
  1 ****   3 GROUP 4 **** **** 0

# MOE 2024.06 (io_trps.svl 2023.06)
