@<TRIPOS>MOLECULE
NONAME
44 46 1 0 0 
SMALL
USER_CHARGES


@<TRIPOS>ATOM
  1 O        0.2830    -0.2640     1.0800 O.2   1 <1>  -0.5700 
  2 C        1.2390    -0.7540     0.5080 C.2   1 <1>   0.5440 
  3 N        2.2520     0.0570     0.0490 N.am  1 <1>  -0.4940 
  4 C        1.3190    -2.1850     0.3010 C.ar  1 <1>   0.0860 
  5 C        2.3860     1.4640     0.1250 C.2   1 <1>  -0.0880 
  6 C        2.5380    -2.8660     0.2460 C.ar  1 <1>  -0.1500 
  7 C        0.1650    -2.9530     0.1400 C.ar  1 <1>  -0.1500 
  8 N        3.5190     2.1080     0.5160 N.pl3 1 <1>   0.3140 
  9 C        1.4850     2.4340    -0.1650 C.2   1 <1>  -0.1810 
 10 C        2.5980    -4.2280     0.0290 C.ar  1 <1>  -0.1500 
 11 C        0.2250    -4.3150    -0.0780 C.ar  1 <1>  -0.1500 
 12 N        3.3720     3.4500     0.4750 N.2   1 <1>  -0.7070 
 13 C        4.7680     1.4940     1.0110 C.3   1 <1>   0.0960 
 14 C        2.1520     3.6300     0.0730 C.2   1 <1>   0.1390 
 15 C        0.0530     2.3010    -0.6480 C.3   1 <1>  -0.0590 
 16 C        1.4420    -4.9890    -0.1360 C.ar  1 <1>   0.1000 
 17 C        5.7050     1.1260    -0.1470 C.3   1 <1>  -0.2400 
 18 N        1.4850    -6.3660    -0.3600 N.pl3 1 <1>  -0.8380 
 19 C        0.3940    -7.2700     0.0830 C.3   1 <1>   0.2090 
 20 C        2.7380    -7.1340    -0.5520 C.3   1 <1>   0.2090 
 21 C        1.0610    -8.6180     0.3230 C.3   1 <1>  -0.1600 
 22 C        2.3040    -8.5930    -0.5590 C.3   1 <1>  -0.1600 
 23 H        2.9860    -0.4250    -0.4670 H     1 <1>   0.3700 
 24 H        3.4570    -2.3280     0.3860 H     1 <1>   0.1500 
 25 H       -0.7930    -2.4630     0.1840 H     1 <1>   0.1500 
 26 H        3.5560    -4.7070    -0.0080 H     1 <1>   0.1500 
 27 H       -0.6880    -4.8620    -0.2140 H     1 <1>   0.1500 
 28 H        4.5170     0.6240     1.5870 H     1 <1>   0.0800 
 29 H        5.2510     2.2030     1.6600 H     1 <1>   0.0800 
 30 H        1.7140     4.6050    -0.0600 H     1 <1>   0.1500 
 31 H       -0.0900     1.3530    -1.1330 H     1 <1>   0.0800 
 32 H       -0.1810     3.0850    -1.3460 H     1 <1>   0.0800 
 33 H       -0.6170     2.3620     0.1910 H     1 <1>   0.0800 
 34 H        5.2380     0.4150    -0.8040 H     1 <1>   0.0800 
 35 H        6.6110     0.6950     0.2400 H     1 <1>   0.0800 
 36 H        5.9600     2.0110    -0.7050 H     1 <1>   0.0800 
 37 H       -0.3350    -7.3480    -0.7060 H     1 <1>   0.0800 
 38 H       -0.0760    -6.9020     0.9790 H     1 <1>   0.0800 
 39 H        3.3990    -6.9530     0.2780 H     1 <1>   0.0800 
 40 H        3.2190    -6.8580    -1.4750 H     1 <1>   0.0800 
 41 H        0.4050    -9.4370     0.0870 H     1 <1>   0.0800 
 42 H        1.3480    -8.6830     1.3580 H     1 <1>   0.0800 
 43 H        3.0800    -9.2440    -0.1990 H     1 <1>   0.0800 
 44 H        2.0460    -8.8730    -1.5650 H     1 <1>   0.0800 
@<TRIPOS>BOND
  1   1   2  2   
  2   2   3  am  
  3   2   4  1   
  4   3   5  1   
  5   3  23  1   
  6   4   6  ar  
  7   4   7  ar  
  8   5   8  1   
  9   5   9  2   
 10   6  10  ar  
 11   6  24  1   
 12   7  11  ar  
 13   7  25  1   
 14   8  12  1   
 15   8  13  1   
 16   9  14  1   
 17   9  15  1   
 18  10  16  ar  
 19  10  26  1   
 20  11  16  ar  
 21  11  27  1   
 22  12  14  2   
 23  13  17  1   
 24  13  28  1   
 25  13  29  1   
 26  14  30  1   
 27  15  31  1   
 28  15  32  1   
 29  15  33  1   
 30  16  18  1   
 31  17  34  1   
 32  17  35  1   
 33  17  36  1   
 34  18  19  1   
 35  18  20  1   
 36  19  21  1   
 37  19  37  1   
 38  19  38  1   
 39  20  22  1   
 40  20  39  1   
 41  20  40  1   
 42  21  22  1   
 43  21  41  1   
 44  21  42  1   
 45  22  43  1   
 46  22  44  1   
@<TRIPOS>SUBSTRUCTURE
  1 ****   4 GROUP 4 **** **** 0

# MOE 2024.06 (io_trps.svl 2023.06)
