@<TRIPOS>MOLECULE
NONAME
53 57 1 0 0 
SMALL
USER_CHARGES


@<TRIPOS>ATOM
  1 S       -0.6370    -0.4010     2.0350 S.3   1 <1>  -0.0800 
  2 C       -0.4110    -1.9820     1.2670 C.ar  1 <1>   0.0400 
  3 C       -1.6970     0.1510     0.7260 C.ar  1 <1>   0.0400 
  4 C       -1.1210    -2.0540     0.0780 C.ar  1 <1>   0.0000 
  5 C        0.3580    -3.0170     1.7560 C.ar  1 <1>  -0.1500 
  6 C       -1.8470    -0.8420    -0.2320 C.ar  1 <1>   0.0000 
  7 C       -2.3020     1.3900     0.6430 C.ar  1 <1>  -0.1500 
  8 C       -1.0520    -3.2420    -0.6430 C.ar  1 <1>  -0.1500 
  9 C        0.4110    -4.1890     1.0240 C.ar  1 <1>  -0.1500 
 10 C       -2.6510    -0.5570    -1.3330 C.ar  1 <1>  -0.1500 
 11 C       -3.0980     1.6490    -0.4590 C.ar  1 <1>  -0.1500 
 12 C       -0.3000    -4.3110    -0.1710 C.ar  1 <1>  -0.1430 
 13 C       -3.2690     0.6790    -1.4410 C.ar  1 <1>  -0.1500 
 14 C       -0.2810    -5.6220    -0.9580 C.3   1 <1>   0.4600 
 15 N       -1.0850    -6.6620    -0.1950 N.4   1 <1>  -0.9590 
 16 C        1.1490    -6.1390    -1.2380 C.2   1 <1>   0.9060 
 17 C       -1.1910    -7.9050    -1.0080 C.3   1 <1>   0.3430 
 18 C       -2.3620    -6.1660     0.3810 C.3   1 <1>   0.3430 
 19 O        1.6680    -6.8360    -0.3500 O.co2 1 <1>  -0.9000 
 20 O        1.6290    -6.0150    -2.3660 O.co2 1 <1>  -0.9000 
 21 C       -1.8240    -9.0070    -0.1680 C.3   1 <1>  -0.1600 
 22 C       -3.0330    -7.2710     1.1930 C.3   1 <1>  -0.1600 
 23 C       -3.1860    -8.5640     0.3800 C.3   1 <1>   0.3000 
 24 N       -3.7730    -9.6000     1.2460 N.am  1 <1>  -0.6600 
 25 C       -4.2430    -8.4130    -0.7420 C.3   1 <1>  -0.1600 
 26 C       -5.0760    -9.8410     0.9640 C.2   1 <1>   0.5690 
 27 C       -3.0260   -10.2900     2.3370 C.3   1 <1>   0.0600 
 28 C       -5.5490    -8.9880    -0.1750 C.3   1 <1>  -0.0990 
 29 O       -5.7920   -10.6240     1.5340 O.2   1 <1>  -0.5700 
 30 H        0.9020    -2.9070     2.6780 H     1 <1>   0.1500 
 31 H       -2.1530     2.1250     1.4130 H     1 <1>   0.1500 
 32 H       -1.5890    -3.3160    -1.5710 H     1 <1>   0.1500 
 33 H        1.0180    -5.0060     1.3850 H     1 <1>   0.1500 
 34 H       -2.7890    -1.2950    -2.1020 H     1 <1>   0.1500 
 35 H       -3.5860     2.6040    -0.5580 H     1 <1>   0.1500 
 36 H       -3.8900     0.8940    -2.2940 H     1 <1>   0.1500 
 37 H       -0.7340    -5.4520    -1.9170 H     1 <1>   0.0800 
 38 H       -0.4120    -6.8930     0.5590 H     1 <1>   0.4500 
 39 H       -0.2090    -8.2220    -1.3260 H     1 <1>   0.0800 
 40 H       -1.7880    -7.7190    -1.8860 H     1 <1>   0.0800 
 41 H       -3.0150    -5.8480    -0.4150 H     1 <1>   0.0800 
 42 H       -2.1760    -5.3180     1.0200 H     1 <1>   0.0800 
 43 H       -1.1490    -9.2390     0.6350 H     1 <1>   0.0800 
 44 H       -1.9360    -9.8910    -0.7700 H     1 <1>   0.0800 
 45 H       -3.9970    -6.9280     1.5220 H     1 <1>   0.0800 
 46 H       -2.4340    -7.4530     2.0670 H     1 <1>   0.0800 
 47 H       -3.9590    -9.0110    -1.5910 H     1 <1>   0.0800 
 48 H       -4.3740    -7.4010    -1.0790 H     1 <1>   0.0800 
 49 H       -2.5710    -9.5710     2.9940 H     1 <1>   0.0800 
 50 H       -2.2660   -10.9260     1.9180 H     1 <1>   0.0800 
 51 H       -3.6990   -10.9010     2.9140 H     1 <1>   0.0800 
 52 H       -6.0820    -9.5790    -0.8980 H     1 <1>   0.0800 
 53 H       -6.1870    -8.2150     0.2120 H     1 <1>   0.0800 
@<TRIPOS>BOND
  1   1   2  1   
  2   1   3  1   
  3   2   4  ar  
  4   2   5  ar  
  5   3   6  ar  
  6   3   7  ar  
  7   4   6  1   
  8   4   8  ar  
  9   5   9  ar  
 10   5  30  1   
 11   6  10  ar  
 12   7  11  ar  
 13   7  31  1   
 14   8  12  ar  
 15   8  32  1   
 16   9  12  ar  
 17   9  33  1   
 18  10  13  ar  
 19  10  34  1   
 20  11  13  ar  
 21  11  35  1   
 22  12  14  1   
 23  13  36  1   
 24  14  15  1   
 25  14  16  1   
 26  14  37  1   
 27  15  17  1   
 28  15  18  1   
 29  15  38  1   
 30  16  19  ar  
 31  16  20  ar  
 32  17  21  1   
 33  17  39  1   
 34  17  40  1   
 35  18  22  1   
 36  18  41  1   
 37  18  42  1   
 38  21  23  1   
 39  21  43  1   
 40  21  44  1   
 41  22  23  1   
 42  22  45  1   
 43  22  46  1   
 44  23  24  1   
 45  23  25  1   
 46  24  26  am  
 47  24  27  1   
 48  25  28  1   
 49  25  47  1   
 50  25  48  1   
 51  26  28  1   
 52  26  29  2   
 53  27  49  1   
 54  27  50  1   
 55  27  51  1   
 56  28  52  1   
 57  28  53  1   
@<TRIPOS>SUBSTRUCTURE
  1 ****  18 GROUP 4 **** **** 0

# MOE 2024.06 (io_trps.svl 2023.06)
