@<TRIPOS>MOLECULE
NONAME
50 52 1 0 0 
SMALL
USER_CHARGES


@<TRIPOS>ATOM
  1 O       -0.6750     0.2200     1.6950 O.2   1 <1>  -0.5700 
  2 C       -1.5810     0.8980     1.2470 C.2   1 <1>   0.5440 
  3 N       -2.7610     0.2820     0.8940 N.am  1 <1>  -0.6600 
  4 C       -1.3990     2.3260     1.0740 C.ar  1 <1>   0.0860 
  5 C       -3.7330     0.8440    -0.0800 C.3   1 <1>   0.1400 
  6 C       -2.9890    -1.1730     1.0350 C.3   1 <1>   0.1400 
  7 C       -0.3050     2.8260     0.3750 C.ar  1 <1>  -0.1500 
  8 C       -2.3100     3.2450     1.5950 C.ar  1 <1>  -0.1500 
  9 C       -4.5810    -0.3420    -0.5650 C.3   1 <1>   0.2000 
 10 C       -3.7210    -1.5680    -0.2470 C.3   1 <1>  -0.0800 
 11 C       -0.1120     4.1850     0.1770 C.ar  1 <1>   0.1000 
 12 C       -2.1370     4.6050     1.4110 C.ar  1 <1>  -0.1500 
 13 O       -5.7670    -0.4180     0.1770 O.3   1 <1>  -0.5600 
 14 C       -4.4970    -2.8920    -0.1300 C.3   1 <1>   0.0200 
 15 N        1.0060     4.6230    -0.5330 N.pl3 1 <1>  -0.8380 
 16 C       -1.0450     5.0710     0.7050 C.ar  1 <1>  -0.1500 
 17 C       -6.8160     0.3650    -0.2990 C.3   1 <1>   0.0400 
 18 C       -3.5880    -4.1030     0.0080 C.2   1 <1>  -0.0400 
 19 C        0.8990     5.7960    -1.4390 C.3   1 <1>   0.1290 
 20 C        2.3370     4.4390     0.1040 C.3   1 <1>   0.1290 
 21 O       -4.1290    -5.2770     0.1960 O.3   1 <1>  -0.0190 
 22 C       -2.2560    -4.2690    -0.0250 C.2   1 <1>  -0.1500 
 23 N       -3.2340    -6.2170     0.2940 N.2   1 <1>  -0.4100 
 24 C       -2.0950    -5.6380     0.1660 C.2   1 <1>   0.1080 
 25 C       -0.7640    -6.3550     0.2180 C.3   1 <1>  -0.0590 
 26 H       -4.3430     1.6000     0.3830 H     1 <1>   0.0800 
 27 H       -3.1920     1.2710    -0.9070 H     1 <1>   0.0800 
 28 H       -2.0650    -1.7110     1.1540 H     1 <1>   0.0800 
 29 H       -3.6140    -1.3430     1.8960 H     1 <1>   0.0800 
 30 H        0.4150     2.1390    -0.0290 H     1 <1>   0.1500 
 31 H       -3.1550     2.8820     2.1540 H     1 <1>   0.1500 
 32 H       -4.8200    -0.2810    -1.6130 H     1 <1>   0.0800 
 33 H       -2.9870    -1.6640    -1.0280 H     1 <1>   0.0800 
 34 H       -2.8490     5.3000     1.8210 H     1 <1>   0.1500 
 35 H       -5.1080    -3.0260    -1.0050 H     1 <1>   0.0800 
 36 H       -5.1530    -2.8570     0.7230 H     1 <1>   0.0800 
 37 H       -0.9060     6.1270     0.5710 H     1 <1>   0.1500 
 38 H       -7.6560     0.2330     0.3610 H     1 <1>   0.0800 
 39 H       -7.0820     0.0390    -1.2900 H     1 <1>   0.0800 
 40 H       -6.5230     1.4000    -0.3060 H     1 <1>   0.0800 
 41 H        1.5990     5.6920    -2.2490 H     1 <1>   0.0800 
 42 H        1.1120     6.7020    -0.8980 H     1 <1>   0.0800 
 43 H       -0.0950     5.8530    -1.8490 H     1 <1>   0.0800 
 44 H        3.0530     4.1300    -0.6370 H     1 <1>   0.0800 
 45 H        2.2830     3.6840     0.8700 H     1 <1>   0.0800 
 46 H        2.6620     5.3620     0.5510 H     1 <1>   0.0800 
 47 H       -1.4660    -3.5540    -0.1620 H     1 <1>   0.1500 
 48 H       -0.1410    -5.9120     0.9730 H     1 <1>   0.0800 
 49 H       -0.2750    -6.2820    -0.7350 H     1 <1>   0.0800 
 50 H       -0.9150    -7.3920     0.4550 H     1 <1>   0.0800 
@<TRIPOS>BOND
  1   1   2  2   
  2   2   3  am  
  3   2   4  1   
  4   3   5  1   
  5   3   6  1   
  6   4   7  ar  
  7   4   8  ar  
  8   5   9  1   
  9   5  26  1   
 10   5  27  1   
 11   6  10  1   
 12   6  28  1   
 13   6  29  1   
 14   7  11  ar  
 15   7  30  1   
 16   8  12  ar  
 17   8  31  1   
 18   9  10  1   
 19   9  13  1   
 20   9  32  1   
 21  10  14  1   
 22  10  33  1   
 23  11  15  1   
 24  11  16  ar  
 25  12  16  ar  
 26  12  34  1   
 27  13  17  1   
 28  14  18  1   
 29  14  35  1   
 30  14  36  1   
 31  15  19  1   
 32  15  20  1   
 33  16  37  1   
 34  17  38  1   
 35  17  39  1   
 36  17  40  1   
 37  18  21  1   
 38  18  22  2   
 39  19  41  1   
 40  19  42  1   
 41  19  43  1   
 42  20  44  1   
 43  20  45  1   
 44  20  46  1   
 45  21  23  1   
 46  22  24  1   
 47  22  47  1   
 48  23  24  2   
 49  24  25  1   
 50  25  48  1   
 51  25  49  1   
 52  25  50  1   
@<TRIPOS>SUBSTRUCTURE
  1 ****   3 GROUP 4 **** **** 0

# MOE 2024.06 (io_trps.svl 2023.06)
