@<TRIPOS>MOLECULE
NONAME
56 59 1 0 0 
SMALL
USER_CHARGES


@<TRIPOS>ATOM
  1 O        2.3100     0.4860     2.2400 O.2   1 <1>  -0.5700 
  2 C        2.4850     0.0520     1.1110 C.2   1 <1>   0.5440 
  3 N        3.1500     0.8800     0.2070 N.am  1 <1>  -0.6600 
  4 C        1.9640    -1.2760     0.7680 C.ar  1 <1>   0.3960 
  5 C        3.6220     2.2330     0.6500 C.3   1 <1>   0.1400 
  6 C        3.6490     0.3870    -1.1110 C.3   1 <1>   0.1400 
  7 N        2.8370    -2.2690     0.5100 N.ar  1 <1>  -0.6200 
  8 C        0.5760    -1.4850     0.7090 C.ar  1 <1>  -0.1440 
  9 C        5.1320     2.2870     1.0190 C.3   1 <1>   0.4230 
 10 C        5.1790     0.5010    -1.2830 C.3   1 <1>  -0.0800 
 11 C        2.3370    -3.4540     0.2240 C.ar  1 <1>   0.1600 
 12 C        0.0790    -2.7340     0.3970 C.ar  1 <1>  -0.1500 
 13 C       -0.4130    -0.3570     0.9900 C.3   1 <1>  -0.0960 
 14 N        6.0620     2.5610    -0.1390 N.4   1 <1>  -0.9590 
 15 C        5.6420     1.0320     1.7720 C.3   1 <1>   0.1200 
 16 C        6.0340    -0.3030    -0.2740 C.3   1 <1>   0.1200 
 17 C        5.6130     1.9620    -1.4270 C.3   1 <1>   0.3430 
 18 C        0.9870    -3.7380     0.1530 C.ar  1 <1>  -0.1500 
 19 C        6.4140     4.0040    -0.2620 C.3   1 <1>   0.4810 
 20 O        5.6170    -0.1760     1.0520 O.3   1 <1>  -0.5600 
 21 C        5.1620     4.8140    -0.5120 C.2   1 <1>  -0.2880 
 22 C        4.5620     5.6020     0.3960 C.2   1 <1>  -0.1780 
 23 C        3.3500     6.3710     0.2250 C.ar  1 <1>   0.0280 
 24 C        2.6420     6.8110     1.3420 C.ar  1 <1>  -0.1500 
 25 C        2.8410     6.6960    -1.0310 C.ar  1 <1>  -0.1500 
 26 C        1.4700     7.5330     1.2130 C.ar  1 <1>  -0.1500 
 27 C        1.6690     7.4180    -1.1670 C.ar  1 <1>  -0.1500 
 28 C        0.9800     7.8360    -0.0440 C.ar  1 <1>  -0.1500 
 29 H        3.3850     2.9550    -0.1080 H     1 <1>   0.0800 
 30 H        3.0680     2.5370     1.5200 H     1 <1>   0.0800 
 31 H        3.3720    -0.6400    -1.2590 H     1 <1>   0.0800 
 32 H        3.1570     0.9480    -1.8870 H     1 <1>   0.0800 
 33 H        5.2320     3.1080     1.7080 H     1 <1>   0.0800 
 34 H        5.3790     0.0620    -2.2440 H     1 <1>   0.0800 
 35 H        3.0400    -4.2480     0.0350 H     1 <1>   0.1500 
 36 H       -0.9790    -2.9290     0.3480 H     1 <1>   0.1500 
 37 H       -1.4220    -0.6630     0.7790 H     1 <1>   0.0800 
 38 H       -0.1870     0.5010     0.3820 H     1 <1>   0.0800 
 39 H       -0.3560    -0.0710     2.0260 H     1 <1>   0.0800 
 40 H        6.9220     2.0620     0.1130 H     1 <1>   0.4500 
 41 H        5.0240     0.8760     2.6400 H     1 <1>   0.0800 
 42 H        6.6480     1.1870     2.1160 H     1 <1>   0.0800 
 43 H        7.0780    -0.0500    -0.3340 H     1 <1>   0.0800 
 44 H        5.9390    -1.3510    -0.5060 H     1 <1>   0.0800 
 45 H        4.7920     2.5300    -1.8320 H     1 <1>   0.0800 
 46 H        6.4250     2.0120    -2.1340 H     1 <1>   0.0800 
 47 H        0.6550    -4.7310    -0.0890 H     1 <1>   0.1500 
 48 H        6.8740     4.3400     0.6540 H     1 <1>   0.0800 
 49 H        7.1170     4.1560    -1.0650 H     1 <1>   0.0800 
 50 H        4.7800     4.6920    -1.5090 H     1 <1>   0.1500 
 51 H        4.9800     5.7020     1.3840 H     1 <1>   0.1500 
 52 H        3.0050     6.5860     2.3280 H     1 <1>   0.1500 
 53 H        3.3620     6.3950    -1.9200 H     1 <1>   0.1500 
 54 H        0.9370     7.8620     2.0890 H     1 <1>   0.1500 
 55 H        1.2910     7.6590    -2.1460 H     1 <1>   0.1500 
 56 H        0.0670     8.3980    -0.1470 H     1 <1>   0.1500 
@<TRIPOS>BOND
  1   1   2  2   
  2   2   3  am  
  3   2   4  1   
  4   3   5  1   
  5   3   6  1   
  6   4   7  ar  
  7   4   8  ar  
  8   5   9  1   
  9   5  29  1   
 10   5  30  1   
 11   6  10  1   
 12   6  31  1   
 13   6  32  1   
 14   7  11  ar  
 15   8  12  ar  
 16   8  13  1   
 17   9  14  1   
 18   9  15  1   
 19   9  33  1   
 20  10  16  1   
 21  10  17  1   
 22  10  34  1   
 23  11  18  ar  
 24  11  35  1   
 25  12  18  ar  
 26  12  36  1   
 27  13  37  1   
 28  13  38  1   
 29  13  39  1   
 30  14  17  1   
 31  14  19  1   
 32  14  40  1   
 33  15  20  1   
 34  15  41  1   
 35  15  42  1   
 36  16  20  1   
 37  16  43  1   
 38  16  44  1   
 39  17  45  1   
 40  17  46  1   
 41  18  47  1   
 42  19  21  1   
 43  19  48  1   
 44  19  49  1   
 45  21  22  2   
 46  21  50  1   
 47  22  23  1   
 48  22  51  1   
 49  23  24  ar  
 50  23  25  ar  
 51  24  26  ar  
 52  24  52  1   
 53  25  27  ar  
 54  25  53  1   
 55  26  28  ar  
 56  26  54  1   
 57  27  28  ar  
 58  27  55  1   
 59  28  56  1   
@<TRIPOS>SUBSTRUCTURE
  1 ****   5 GROUP 4 **** **** 0

# MOE 2024.06 (io_trps.svl 2023.06)
