@<TRIPOS>MOLECULE
NONAME
52 56 1 0 0 
SMALL
USER_CHARGES


@<TRIPOS>ATOM
  1 O       -1.4270    -0.1730     1.6530 O.3   1 <1>  -0.6800 
  2 C       -1.7660    -1.3070     0.9560 C.3   1 <1>   0.2800 
  3 C       -3.2960    -1.4340     0.9320 C.3   1 <1>  -0.1600 
  4 C       -1.1420    -2.5250     1.6470 C.3   1 <1>  -0.1600 
  5 C       -1.2300    -1.1790    -0.4750 C.3   1 <1>  -0.1600 
  6 C       -3.7220    -2.6990     0.1380 C.3   1 <1>   0.0000 
  7 C       -1.5230    -3.7920     0.8610 C.3   1 <1>  -0.0800 
  8 C       -1.6070    -2.4410    -1.2710 C.3   1 <1>  -0.0800 
  9 C       -5.2750    -2.8600     0.1570 C.3   1 <1>   0.2890 
 10 C       -3.0570    -3.9260     0.8260 C.3   1 <1>  -0.1600 
 11 C       -3.1420    -2.5810    -1.3000 C.3   1 <1>  -0.1600 
 12 C       -0.9960    -3.6750    -0.5820 C.3   1 <1>  -0.1600 
 13 N       -5.6780    -4.0900    -0.5580 N.pl3 1 <1>  -0.8690 
 14 C       -6.0660    -1.7140    -0.4810 C.3   1 <1>  -0.2400 
 15 C       -6.3740    -5.1450    -0.0910 C.ar  1 <1>   0.7710 
 16 N       -7.4350    -4.9110     0.7330 N.ar  1 <1>  -0.1790 
 17 N       -6.0050    -6.3330    -0.4690 N.ar  1 <1>  -0.5670 
 18 C       -8.1830    -5.8940     1.2520 C.ar  1 <1>   0.4610 
 19 C       -6.7350    -7.3580     0.0400 C.ar  1 <1>   0.1050 
 20 N       -9.2210    -5.6140     2.0570 N.pl3 1 <1>  -0.9000 
 21 C       -7.8050    -7.1920     0.8880 C.ar  1 <1>   0.0000 
 22 N       -6.5940    -8.6940    -0.1510 N.pl3 1 <1>   0.3140 
 23 C       -8.2370    -8.5010     1.1510 C.2   1 <1>   0.1390 
 24 N       -7.5280    -9.3900     0.5430 N.2   1 <1>  -0.7070 
 25 C       -5.5920    -9.3840    -0.9780 C.3   1 <1>   0.0160 
 26 H       -1.6210    -0.2960     2.5990 H     1 <1>   0.4000 
 27 H       -3.6930    -0.5490     0.4670 H     1 <1>   0.0800 
 28 H       -3.6670    -1.4890     1.9390 H     1 <1>   0.0800 
 29 H       -1.4980    -2.6060     2.6580 H     1 <1>   0.0800 
 30 H       -0.0710    -2.4220     1.6680 H     1 <1>   0.0800 
 31 H       -0.1600    -1.0690    -0.4530 H     1 <1>   0.0800 
 32 H       -1.6480    -0.3080    -0.9470 H     1 <1>   0.0800 
 33 H       -1.0900    -4.6570     1.3350 H     1 <1>   0.0800 
 34 H       -1.2280    -2.3600    -2.2760 H     1 <1>   0.0800 
 35 H       -5.5740    -2.9360     1.1890 H     1 <1>   0.0800 
 36 H       -3.3010    -4.8320     0.3000 H     1 <1>   0.0800 
 37 H       -3.4230    -4.0290     1.8320 H     1 <1>   0.0800 
 38 H       -3.5500    -1.7200    -1.7990 H     1 <1>   0.0800 
 39 H       -3.3960    -3.4450    -1.8850 H     1 <1>   0.0800 
 40 H       -1.2430    -4.5640    -1.1360 H     1 <1>   0.0800 
 41 H        0.0770    -3.5890    -0.5710 H     1 <1>   0.0800 
 42 H       -5.0010    -4.3380    -1.2880 H     1 <1>   0.4000 
 43 H       -5.8030    -1.5910    -1.5150 H     1 <1>   0.0800 
 44 H       -5.8760    -0.7880     0.0290 H     1 <1>   0.0800 
 45 H       -7.1220    -1.9030    -0.4210 H     1 <1>   0.0800 
 46 H       -7.6590    -3.9400     0.8880 H     1 <1>   0.4570 
 47 H       -9.8090    -6.3560     2.4620 H     1 <1>   0.4000 
 48 H       -9.5470    -4.6860     2.3500 H     1 <1>   0.4000 
 49 H       -9.0690    -8.7480     1.7900 H     1 <1>   0.1500 
 50 H       -5.0040    -8.6650    -1.5160 H     1 <1>   0.0800 
 51 H       -6.0980   -10.0310    -1.6710 H     1 <1>   0.0800 
 52 H       -4.9570    -9.9710    -0.3400 H     1 <1>   0.0800 
@<TRIPOS>BOND
  1   1   2  1   
  2   1  26  1   
  3   2   3  1   
  4   2   4  1   
  5   2   5  1   
  6   3   6  1   
  7   3  27  1   
  8   3  28  1   
  9   4   7  1   
 10   4  29  1   
 11   4  30  1   
 12   5   8  1   
 13   5  31  1   
 14   5  32  1   
 15   6   9  1   
 16   6  10  1   
 17   6  11  1   
 18   7  10  1   
 19   7  12  1   
 20   7  33  1   
 21   8  11  1   
 22   8  12  1   
 23   8  34  1   
 24   9  13  1   
 25   9  14  1   
 26   9  35  1   
 27  10  36  1   
 28  10  37  1   
 29  11  38  1   
 30  11  39  1   
 31  12  40  1   
 32  12  41  1   
 33  13  15  1   
 34  13  42  1   
 35  14  43  1   
 36  14  44  1   
 37  14  45  1   
 38  15  16  ar  
 39  15  17  ar  
 40  16  18  ar  
 41  16  46  1   
 42  17  19  ar  
 43  18  20  1   
 44  18  21  ar  
 45  19  21  ar  
 46  19  22  1   
 47  20  47  1   
 48  20  48  1   
 49  21  23  1   
 50  22  24  1   
 51  22  25  1   
 52  23  24  2   
 53  23  49  1   
 54  25  50  1   
 55  25  51  1   
 56  25  52  1   
@<TRIPOS>SUBSTRUCTURE
  1 ****  13 GROUP 4 **** **** 0

# MOE 2024.06 (io_trps.svl 2023.06)
