@<TRIPOS>MOLECULE
NONAME
50 53 1 0 0 
SMALL
USER_CHARGES


@<TRIPOS>ATOM
  1 O       -1.3270     0.6130    -2.3890 O.2   1 <1>  -0.5700 
  2 C       -1.7440     1.1250    -1.3680 C.2   1 <1>   0.5440 
  3 N       -2.5270     0.3680    -0.5280 N.am  1 <1>  -0.6600 
  4 C       -1.4070     2.4930    -1.0960 C.ar  1 <1>   0.0860 
  5 C       -3.2590     0.8400     0.6750 C.3   1 <1>   0.1400 
  6 C       -2.4590    -1.1100    -0.5100 C.3   1 <1>   0.1400 
  7 C       -0.6430     2.9120    -0.0050 C.ar  1 <1>   0.3100 
  8 C       -1.8340     3.4830    -1.9580 C.ar  1 <1>   0.1600 
  9 C       -3.2460    -0.3390     1.6560 C.3   1 <1>   0.2000 
 10 C       -2.4690    -1.4700     0.9740 C.3   1 <1>  -0.0800 
 11 N       -0.4010     4.1970     0.1990 N.ar  1 <1>  -0.6200 
 12 C       -0.1000     1.9750     0.9620 C.ar  1 <1>   0.0000 
 13 N       -1.5920     4.7560    -1.7710 N.ar  1 <1>  -0.6200 
 14 O       -2.6060     0.0120     2.8320 O.3   1 <1>  -0.6800 
 15 C       -3.0470    -2.8630     1.2650 C.3   1 <1>   0.0210 
 16 C       -0.8920     5.0370    -0.6880 C.ar  1 <1>   0.7200 
 17 C       -0.2690     2.1940     2.3300 C.ar  1 <1>  -0.1500 
 18 C        0.5940     0.8250     0.5810 C.ar  1 <1>  -0.1500 
 19 C       -2.3370    -3.9330     0.4590 C.2   1 <1>   0.1080 
 20 N       -0.6410     6.3250    -0.4770 N.pl3 1 <1>  -0.9000 
 21 C        0.2020     1.2980     3.2710 C.ar  1 <1>  -0.1500 
 22 C        1.0610    -0.0800     1.5170 C.ar  1 <1>  -0.1500 
 23 N       -1.0660    -4.1710     0.5640 N.2   1 <1>  -0.7070 
 24 C       -2.9500    -4.7600    -0.4770 C.2   1 <1>  -0.1500 
 25 C        0.8620     0.1530     2.8650 C.ar  1 <1>  -0.1500 
 26 N       -0.8330    -5.1670    -0.3110 N.pl3 1 <1>   0.3000 
 27 C       -1.9590    -5.5400    -0.9550 C.2   1 <1>  -0.3320 
 28 C       -2.0180    -6.6340    -2.0050 C.3   1 <1>  -0.0600 
 29 H       -2.8090     1.7150     1.1060 H     1 <1>   0.0800 
 30 H       -4.2730     1.0640     0.3960 H     1 <1>   0.0800 
 31 H       -3.3230    -1.5080    -1.0140 H     1 <1>   0.0800 
 32 H       -1.5660    -1.4750    -0.9910 H     1 <1>   0.0800 
 33 H       -2.3970     3.1980    -2.8320 H     1 <1>   0.1500 
 34 H       -4.2540    -0.6260     1.9000 H     1 <1>   0.0800 
 35 H       -1.4440    -1.4560     1.3010 H     1 <1>   0.0800 
 36 H       -1.6610     0.2170     2.6500 H     1 <1>   0.4000 
 37 H       -4.0960    -2.8840     1.0330 H     1 <1>   0.0800 
 38 H       -2.9310    -3.0860     2.3110 H     1 <1>   0.0800 
 39 H       -0.7800     3.0840     2.6580 H     1 <1>   0.1500 
 40 H        0.7710     0.6260    -0.4630 H     1 <1>   0.1500 
 41 H        0.0760     6.5660     0.2020 H     1 <1>   0.4000 
 42 H       -0.8150     6.9730    -1.2400 H     1 <1>   0.4000 
 43 H        0.0550     1.4900     4.3210 H     1 <1>   0.1500 
 44 H        1.5790    -0.9670     1.1960 H     1 <1>   0.1500 
 45 H       -3.9920    -4.7570    -0.7440 H     1 <1>   0.1500 
 46 H        1.2250    -0.5520     3.5940 H     1 <1>   0.1500 
 47 H        0.1030    -5.5700    -0.4450 H     1 <1>   0.2700 
 48 H       -3.0240    -6.7440    -2.3680 H     1 <1>   0.0800 
 49 H       -1.7020    -7.5720    -1.5820 H     1 <1>   0.0800 
 50 H       -1.3790    -6.3890    -2.8340 H     1 <1>   0.0800 
@<TRIPOS>BOND
  1   1   2  2   
  2   2   3  am  
  3   2   4  1   
  4   3   5  1   
  5   3   6  1   
  6   4   7  ar  
  7   4   8  ar  
  8   5   9  1   
  9   5  29  1   
 10   5  30  1   
 11   6  10  1   
 12   6  31  1   
 13   6  32  1   
 14   7  11  ar  
 15   7  12  1   
 16   8  13  ar  
 17   8  33  1   
 18   9  10  1   
 19   9  14  1   
 20   9  34  1   
 21  10  15  1   
 22  10  35  1   
 23  11  16  ar  
 24  12  17  ar  
 25  12  18  ar  
 26  13  16  ar  
 27  14  36  1   
 28  15  19  1   
 29  15  37  1   
 30  15  38  1   
 31  16  20  1   
 32  17  21  ar  
 33  17  39  1   
 34  18  22  ar  
 35  18  40  1   
 36  19  23  2   
 37  19  24  1   
 38  20  41  1   
 39  20  42  1   
 40  21  25  ar  
 41  21  43  1   
 42  22  25  ar  
 43  22  44  1   
 44  23  26  1   
 45  24  27  2   
 46  24  45  1   
 47  25  46  1   
 48  26  27  1   
 49  26  47  1   
 50  27  28  1   
 51  28  48  1   
 52  28  49  1   
 53  28  50  1   
@<TRIPOS>SUBSTRUCTURE
  1 ****   3 GROUP 4 **** **** 0

# MOE 2024.06 (io_trps.svl 2023.06)
