@<TRIPOS>MOLECULE
NONAME
24 25 1 0 0 
SMALL
USER_CHARGES


@<TRIPOS>ATOM
  1 O        6.7350     1.2920    -2.3230 O.2   1 <1>  -0.5700 
  2 C        6.9980     0.9700    -1.2090 C.2   1 <1>   0.4560 
  3 C        6.1490     0.0170    -0.3890 C.3   1 <1>   0.0530 
  4 C        8.2830     1.4070    -0.5470 C.3   1 <1>  -0.0990 
  5 C        6.9960    -1.2020    -0.0030 C.3   1 <1>   0.3430 
  6 C        5.4040     0.6790     0.8040 C.3   1 <1>   0.0000 
  7 C        4.7520    -0.3480    -0.9670 C.3   1 <1>   0.0000 
  8 C        9.0950     0.1660    -0.1860 C.3   1 <1>   0.3430 
  9 N        8.2820    -0.7770     0.6480 N.4   1 <1>  -0.9060 
 10 C        4.2040    -0.2510     0.4810 C.3   1 <1>   0.0000 
 11 H        8.0710     1.9950     0.3270 H     1 <1>   0.0800 
 12 H        8.8440     2.0180    -1.2310 H     1 <1>   0.0800 
 13 H        7.2140    -1.7660    -0.8970 H     1 <1>   0.0800 
 14 H        6.4350    -1.8380     0.6630 H     1 <1>   0.0800 
 15 H        5.1740     1.7160     0.6290 H     1 <1>   0.0000 
 16 H        5.8490     0.4960     1.7660 H     1 <1>   0.0000 
 17 H        4.6910    -1.3360    -1.3890 H     1 <1>   0.0000 
 18 H        4.3370     0.4150    -1.6040 H     1 <1>   0.0000 
 19 H        9.9860     0.4600     0.3470 H     1 <1>   0.0800 
 20 H        9.4000    -0.3290    -1.0960 H     1 <1>   0.0800 
 21 H        8.8460    -1.6150     0.8570 H     1 <1>   0.4500 
 22 H        8.0780    -0.3430     1.5600 H     1 <1>   0.4500 
 23 H        3.2470     0.2360     0.5520 H     1 <1>   0.0000 
 24 H        4.2490    -1.1880     1.0090 H     1 <1>   0.0000 
@<TRIPOS>BOND
  1   1   2  2   
  2   2   3  1   
  3   2   4  1   
  4   3   5  1   
  5   3   6  1   
  6   3   7  1   
  7   4   8  1   
  8   4  11  1   
  9   4  12  1   
 10   5   9  1   
 11   5  13  1   
 12   5  14  1   
 13   6  10  1   
 14   6  15  1   
 15   6  16  1   
 16   7  10  1   
 17   7  17  1   
 18   7  18  1   
 19   8   9  1   
 20   8  19  1   
 21   8  20  1   
 22   9  21  1   
 23   9  22  1   
 24  10  23  1   
 25  10  24  1   
@<TRIPOS>SUBSTRUCTURE
  1 ****   3 GROUP 4 **** **** 0

# MOE 2024.06 (io_trps.svl 2023.06)
