@<TRIPOS>MOLECULE
NONAME
49 52 1 0 0 
SMALL
USER_CHARGES


@<TRIPOS>ATOM
  1 O       -1.2720    -1.9260    -0.0010 O.2   1 <1>  -0.5700 
  2 C       -0.2170    -2.3800     0.3710 C.2   1 <1>   0.5690 
  3 N        0.5880    -3.1830    -0.3510 N.am  1 <1>  -0.6600 
  4 C        0.3590    -2.1380     1.7370 C.3   1 <1>  -0.0990 
  5 C        1.7720    -3.6420     0.3920 C.3   1 <1>   0.1400 
  6 C        0.3330    -3.6450    -1.7490 C.3   1 <1>   0.2010 
  7 C        1.5240    -3.1420     1.8230 C.3   1 <1>  -0.1600 
  8 C       -0.0090    -5.1350    -1.8380 C.2   1 <1>   0.5690 
  9 O        0.8610    -5.8970    -2.1920 O.2   1 <1>  -0.5700 
 10 N       -1.2640    -5.5880    -1.5280 N.am  1 <1>  -0.6600 
 11 C       -2.4020    -4.7620    -1.0470 C.3   1 <1>   0.1400 
 12 C       -1.6270    -7.0230    -1.5530 C.3   1 <1>   0.1400 
 13 C       -3.5770    -5.7360    -0.9610 C.3   1 <1>   0.2000 
 14 C       -2.9460    -7.1150    -0.7850 C.3   1 <1>  -0.0800 
 15 O       -4.4050    -5.4540     0.1140 O.3   1 <1>  -0.6800 
 16 C       -3.8570    -8.2580    -1.2630 C.3   1 <1>  -0.0170 
 17 C       -3.1960    -9.6140    -1.0420 C.ar  1 <1>  -0.1440 
 18 C       -3.1430   -10.2310     0.2310 C.ar  1 <1>   0.0000 
 19 C       -2.6190   -10.2750    -2.0870 C.ar  1 <1>  -0.1500 
 20 C       -2.4790   -11.4780     0.3300 C.ar  1 <1>   0.3100 
 21 C       -3.7090    -9.6860     1.4080 C.ar  1 <1>  -0.1500 
 22 C       -1.9940   -11.5100    -1.8810 C.ar  1 <1>   0.1600 
 23 N       -1.9130   -12.1030    -0.7320 N.ar  1 <1>  -0.6200 
 24 C       -2.3970   -12.1060     1.5830 C.ar  1 <1>  -0.1500 
 25 C       -3.6130   -10.3270     2.6140 C.ar  1 <1>  -0.1500 
 26 C       -2.9480   -11.5510     2.7060 C.ar  1 <1>  -0.1500 
 27 H        0.7130    -1.1250     1.7910 H     1 <1>   0.0800 
 28 H       -0.3800    -2.3120     2.4970 H     1 <1>   0.0800 
 29 H        1.8520    -4.7170     0.3580 H     1 <1>   0.0800 
 30 H        2.6570    -3.1950    -0.0280 H     1 <1>   0.0800 
 31 H       -0.4720    -3.0750    -2.1740 H     1 <1>   0.0800 
 32 H        1.2110    -3.4600    -2.3410 H     1 <1>   0.0800 
 33 H        1.2390    -3.9780     2.4380 H     1 <1>   0.0800 
 34 H        2.4100    -2.6950     2.2400 H     1 <1>   0.0800 
 35 H       -2.1640    -4.3670    -0.0750 H     1 <1>   0.0800 
 36 H       -2.6130    -3.9600    -1.7330 H     1 <1>   0.0800 
 37 H       -1.7510    -7.3300    -2.5780 H     1 <1>   0.0800 
 38 H       -0.8590    -7.6230    -1.0930 H     1 <1>   0.0800 
 39 H       -4.1620    -5.6850    -1.8640 H     1 <1>   0.0800 
 40 H       -2.6940    -7.2580     0.2500 H     1 <1>   0.0800 
 41 H       -3.8810    -5.3660     0.9330 H     1 <1>   0.4000 
 42 H       -4.0730    -8.1270    -2.3090 H     1 <1>   0.0800 
 43 H       -4.7990    -8.2200    -0.7460 H     1 <1>   0.0800 
 44 H       -2.6240    -9.8720    -3.0830 H     1 <1>   0.1500 
 45 H       -4.2290    -8.7480     1.3600 H     1 <1>   0.1500 
 46 H       -1.5500   -11.9970    -2.7330 H     1 <1>   0.1500 
 47 H       -1.8830   -13.0480     1.6290 H     1 <1>   0.1500 
 48 H       -4.0480    -9.9000     3.5020 H     1 <1>   0.1500 
 49 H       -2.8780   -12.0450     3.6600 H     1 <1>   0.1500 
@<TRIPOS>BOND
  1   1   2  2   
  2   2   3  am  
  3   2   4  1   
  4   3   5  1   
  5   3   6  1   
  6   4   7  1   
  7   4  27  1   
  8   4  28  1   
  9   5   7  1   
 10   5  29  1   
 11   5  30  1   
 12   6   8  1   
 13   6  31  1   
 14   6  32  1   
 15   7  33  1   
 16   7  34  1   
 17   8   9  2   
 18   8  10  am  
 19  10  11  1   
 20  10  12  1   
 21  11  13  1   
 22  11  35  1   
 23  11  36  1   
 24  12  14  1   
 25  12  37  1   
 26  12  38  1   
 27  13  14  1   
 28  13  15  1   
 29  13  39  1   
 30  14  16  1   
 31  14  40  1   
 32  15  41  1   
 33  16  17  1   
 34  16  42  1   
 35  16  43  1   
 36  17  18  ar  
 37  17  19  ar  
 38  18  20  ar  
 39  18  21  ar  
 40  19  22  ar  
 41  19  44  1   
 42  20  23  ar  
 43  20  24  ar  
 44  21  25  ar  
 45  21  45  1   
 46  22  23  ar  
 47  22  46  1   
 48  24  26  ar  
 49  24  47  1   
 50  25  26  ar  
 51  25  48  1   
 52  26  49  1   
@<TRIPOS>SUBSTRUCTURE
  1 ****  12 GROUP 4 **** **** 0

# MOE 2024.06 (io_trps.svl 2023.06)
