@<TRIPOS>MOLECULE
NONAME
49 53 1 0 0 
SMALL
USER_CHARGES


@<TRIPOS>ATOM
  1 O        0.5860     0.9260     1.2670 O.3   1 <1>  -0.0190 
  2 N        1.3120    -0.1420     1.1090 N.2   1 <1>  -0.4100 
  3 C        0.7420     1.7740     0.2850 C.2   1 <1>  -0.0400 
  4 C        1.9440     0.0160     0.0030 C.2   1 <1>   0.1080 
  5 C        1.6190     1.2370    -0.5800 C.2   1 <1>  -0.1500 
  6 C       -0.0330     3.0800     0.3160 C.3   1 <1>   0.0200 
  7 C        2.9060    -0.9970    -0.5770 C.3   1 <1>  -0.0590 
  8 C        0.5600     4.1430    -0.6270 C.3   1 <1>  -0.0800 
  9 C       -0.2410     5.4450    -0.7240 C.3   1 <1>   0.2000 
 10 C        1.9810     4.5840    -0.2380 C.3   1 <1>   0.2090 
 11 O       -0.6380     5.8390     0.5440 O.3   1 <1>  -0.6800 
 12 C        0.8010     6.4420    -1.2200 C.3   1 <1>   0.2090 
 13 N        2.0400     6.0610    -0.4680 N.pl3 1 <1>  -0.8380 
 14 C        3.0850     6.8700    -0.1390 C.ar  1 <1>   0.1000 
 15 C        2.9530     8.2520     0.2120 C.ar  1 <1>   0.0000 
 16 C        4.3830     6.3510    -0.1920 C.ar  1 <1>  -0.1500 
 17 C        4.1150     9.0680     0.2200 C.ar  1 <1>   0.3610 
 18 C        1.7380     8.8510     0.6200 C.ar  1 <1>  -0.1500 
 19 C        5.4920     7.1500    -0.1030 C.ar  1 <1>   0.2180 
 20 N        5.3470     8.4770     0.0550 N.ar  1 <1>  -0.1790 
 21 C        4.0310    10.4490     0.4550 C.ar  1 <1>  -0.1500 
 22 C        1.6920    10.1960     0.8630 C.ar  1 <1>   0.0820 
 23 C        6.8990     6.5820    -0.1980 C.3   1 <1>  -0.0970 
 24 C        2.8120    10.9840     0.7650 C.ar  1 <1>   0.0820 
 25 O        0.6440    10.9430     1.2200 O.3   1 <1>  -0.3620 
 26 O        2.5030    12.2460     1.0380 O.3   1 <1>  -0.3620 
 27 C        1.1090    12.2870     1.3410 C.3   1 <1>   0.4000 
 28 H        2.0020     1.6120    -1.5100 H     1 <1>   0.1500 
 29 H       -1.0550     2.8800     0.0460 H     1 <1>   0.0800 
 30 H       -0.0330     3.4480     1.3280 H     1 <1>   0.0800 
 31 H        2.5670    -1.3080    -1.5480 H     1 <1>   0.0800 
 32 H        2.9610    -1.8590     0.0640 H     1 <1>   0.0800 
 33 H        3.8850    -0.5650    -0.6630 H     1 <1>   0.0800 
 34 H        0.6080     3.7260    -1.6170 H     1 <1>   0.0800 
 35 H       -1.1100     5.3770    -1.3570 H     1 <1>   0.0800 
 36 H        2.7070     4.0710    -0.8440 H     1 <1>   0.0800 
 37 H        2.1750     4.3790     0.8030 H     1 <1>   0.0800 
 38 H        0.1710     6.0330     1.0620 H     1 <1>   0.4000 
 39 H        0.4840     7.4580    -1.0900 H     1 <1>   0.0800 
 40 H        0.9730     6.2790    -2.2700 H     1 <1>   0.0800 
 41 H        4.5120     5.2970    -0.3460 H     1 <1>   0.1500 
 42 H        0.8480     8.2680     0.7620 H     1 <1>   0.1500 
 43 H        6.1690     9.0810     0.0960 H     1 <1>   0.4570 
 44 H        4.8920    11.0900     0.4150 H     1 <1>   0.1500 
 45 H        6.8700     5.5140    -0.3210 H     1 <1>   0.0800 
 46 H        7.4540     6.7990     0.6980 H     1 <1>   0.0800 
 47 H        7.4180     7.0000    -1.0430 H     1 <1>   0.0800 
 48 H        0.9650    12.6320     2.3500 H     1 <1>   0.0800 
 49 H        0.6000    12.9120     0.6280 H     1 <1>   0.0800 
@<TRIPOS>BOND
  1   1   2  1   
  2   1   3  1   
  3   2   4  2   
  4   3   5  2   
  5   3   6  1   
  6   4   5  1   
  7   4   7  1   
  8   5  28  1   
  9   6   8  1   
 10   6  29  1   
 11   6  30  1   
 12   7  31  1   
 13   7  32  1   
 14   7  33  1   
 15   8   9  1   
 16   8  10  1   
 17   8  34  1   
 18   9  11  1   
 19   9  12  1   
 20   9  35  1   
 21  10  13  1   
 22  10  36  1   
 23  10  37  1   
 24  11  38  1   
 25  12  13  1   
 26  12  39  1   
 27  12  40  1   
 28  13  14  1   
 29  14  15  ar  
 30  14  16  ar  
 31  15  17  ar  
 32  15  18  ar  
 33  16  19  ar  
 34  16  41  1   
 35  17  20  ar  
 36  17  21  ar  
 37  18  22  ar  
 38  18  42  1   
 39  19  20  ar  
 40  19  23  1   
 41  20  43  1   
 42  21  24  ar  
 43  21  44  1   
 44  22  24  ar  
 45  22  25  1   
 46  23  45  1   
 47  23  46  1   
 48  23  47  1   
 49  24  26  1   
 50  25  27  1   
 51  26  27  1   
 52  27  48  1   
 53  27  49  1   
@<TRIPOS>SUBSTRUCTURE
  1 ****  13 GROUP 4 **** **** 0

# MOE 2024.06 (io_trps.svl 2023.06)
