@<TRIPOS>MOLECULE
NONAME
55 57 1 0 0 
SMALL
USER_CHARGES


@<TRIPOS>ATOM
  1 O       -0.7540    -1.8460     2.3980 O.2   1 <1>  -0.5700 
  2 C        0.0360    -2.4620     1.7240 C.2   1 <1>   0.5690 
  3 N       -0.2820    -3.0340     0.5230 N.am  1 <1>  -0.6600 
  4 C        1.4570    -2.6220     2.2220 C.3   1 <1>  -0.0990 
  5 C        0.7380    -3.7980    -0.2390 C.3   1 <1>   0.1400 
  6 C       -1.6510    -2.9780    -0.0550 C.3   1 <1>   0.0600 
  7 C        2.4560    -2.3500     1.0840 C.3   1 <1>  -0.0800 
  8 C        2.0770    -3.0340    -0.2510 C.3   1 <1>  -0.0800 
  9 C        3.8860    -2.7950     1.4180 C.3   1 <1>  -0.1600 
 10 C        3.2700    -3.9280    -0.6170 C.3   1 <1>  -0.1600 
 11 C        4.4570    -3.2740     0.0890 C.3   1 <1>   0.2200 
 12 N        5.6500    -4.1570     0.2730 N.am  1 <1>  -0.6600 
 13 C        6.9420    -3.7240     0.0780 C.2   1 <1>   0.5690 
 14 C        5.4100    -5.5720     0.6980 C.3   1 <1>   0.0600 
 15 O        7.8780    -4.4880     0.1350 O.2   1 <1>  -0.5700 
 16 C        7.2330    -2.2570    -0.2140 C.3   1 <1>  -0.0990 
 17 C        8.7160    -1.8750    -0.0900 C.3   1 <1>  -0.0170 
 18 C        8.8910    -0.3780    -0.3230 C.ar  1 <1>  -0.1440 
 19 C        8.8640     0.5540     0.7120 C.ar  1 <1>  -0.1440 
 20 C        9.0760     0.0620    -1.6250 C.ar  1 <1>  -0.1500 
 21 C        9.0220     1.9010     0.4210 C.ar  1 <1>  -0.1500 
 22 C        8.6700     0.1430     2.1650 C.3   1 <1>  -0.0970 
 23 C        9.2320     1.4070    -1.9050 C.ar  1 <1>  -0.1500 
 24 C        9.2040     2.3360    -0.8810 C.ar  1 <1>  -0.1440 
 25 C        9.3780     3.8150    -1.1770 C.3   1 <1>  -0.0970 
 26 H        1.6310    -1.9440     3.0380 H     1 <1>   0.0800 
 27 H        1.5630    -3.6260     2.5890 H     1 <1>   0.0800 
 28 H        0.8590    -4.7570     0.2350 H     1 <1>   0.0800 
 29 H        0.4040    -3.9600    -1.2490 H     1 <1>   0.0800 
 30 H       -1.6230    -2.4900    -1.0130 H     1 <1>   0.0800 
 31 H       -2.3120    -2.4260     0.5920 H     1 <1>   0.0800 
 32 H       -2.0380    -3.9750    -0.1720 H     1 <1>   0.0800 
 33 H        2.4640    -1.2860     0.9060 H     1 <1>   0.0800 
 34 H        2.0010    -2.2620    -0.9990 H     1 <1>   0.0800 
 35 H        3.8670    -3.6080     2.1210 H     1 <1>   0.0800 
 36 H        4.4650    -1.9860     1.8260 H     1 <1>   0.0800 
 37 H        3.4220    -3.9720    -1.6810 H     1 <1>   0.0800 
 38 H        3.0950    -4.9170    -0.2380 H     1 <1>   0.0800 
 39 H        4.7230    -2.4070    -0.4920 H     1 <1>   0.0800 
 40 H        4.6220    -5.6210     1.4280 H     1 <1>   0.0800 
 41 H        6.2970    -5.9940     1.1390 H     1 <1>   0.0800 
 42 H        5.1410    -6.1650    -0.1580 H     1 <1>   0.0800 
 43 H        6.9020    -2.0370    -1.2110 H     1 <1>   0.0800 
 44 H        6.6730    -1.6510     0.4710 H     1 <1>   0.0800 
 45 H        9.2890    -2.4230    -0.8180 H     1 <1>   0.0800 
 46 H        9.0890    -2.1580     0.8770 H     1 <1>   0.0800 
 47 H        9.1010    -0.6470    -2.4340 H     1 <1>   0.1500 
 48 H        9.0060     2.6250     1.2160 H     1 <1>   0.1500 
 49 H        8.5750     1.0040     2.8010 H     1 <1>   0.0800 
 50 H        9.5180    -0.4290     2.4980 H     1 <1>   0.0800 
 51 H        7.7820    -0.4520     2.2720 H     1 <1>   0.0800 
 52 H        9.3770     1.7240    -2.9220 H     1 <1>   0.1500 
 53 H        9.0910     4.0350    -2.1890 H     1 <1>   0.0800 
 54 H       10.4070     4.0930    -1.0390 H     1 <1>   0.0800 
 55 H        8.7670     4.4020    -0.5150 H     1 <1>   0.0800 
@<TRIPOS>BOND
  1   1   2  2   
  2   2   3  am  
  3   2   4  1   
  4   3   5  1   
  5   3   6  1   
  6   4   7  1   
  7   4  26  1   
  8   4  27  1   
  9   5   8  1   
 10   5  28  1   
 11   5  29  1   
 12   6  30  1   
 13   6  31  1   
 14   6  32  1   
 15   7   8  1   
 16   7   9  1   
 17   7  33  1   
 18   8  10  1   
 19   8  34  1   
 20   9  11  1   
 21   9  35  1   
 22   9  36  1   
 23  10  11  1   
 24  10  37  1   
 25  10  38  1   
 26  11  12  1   
 27  11  39  1   
 28  12  13  am  
 29  12  14  1   
 30  13  15  2   
 31  13  16  1   
 32  14  40  1   
 33  14  41  1   
 34  14  42  1   
 35  16  17  1   
 36  16  43  1   
 37  16  44  1   
 38  17  18  1   
 39  17  45  1   
 40  17  46  1   
 41  18  19  ar  
 42  18  20  ar  
 43  19  21  ar  
 44  19  22  1   
 45  20  23  ar  
 46  20  47  1   
 47  21  24  ar  
 48  21  48  1   
 49  22  49  1   
 50  22  50  1   
 51  22  51  1   
 52  23  24  ar  
 53  23  52  1   
 54  24  25  1   
 55  25  53  1   
 56  25  54  1   
 57  25  55  1   
@<TRIPOS>SUBSTRUCTURE
  1 ****  11 GROUP 4 **** **** 0

# MOE 2024.06 (io_trps.svl 2023.06)
