@<TRIPOS>MOLECULE
NONAME
54 56 1 0 0 
SMALL
USER_CHARGES


@<TRIPOS>ATOM
  1 O        0.4210     0.6810    -1.2270 O.2   1 <1>  -0.5700 
  2 C        0.2750     1.8230    -0.8580 C.2   1 <1>   0.5690 
  3 N       -0.9120     2.2860    -0.3570 N.am  1 <1>  -0.6600 
  4 C        1.4660     2.7740    -0.9930 C.3   1 <1>   0.1810 
  5 C       -1.0720     3.7100     0.0920 C.3   1 <1>   0.3640 
  6 C       -2.0790     1.3860    -0.1200 C.3   1 <1>   0.0600 
  7 O        1.3690     3.9100    -0.1710 O.3   1 <1>  -0.5600 
  8 C       -2.3560     4.2890    -0.5270 C.ar  1 <1>  -0.1430 
  9 C        0.1410     4.6050    -0.2820 C.3   1 <1>   0.2610 
 10 C       -3.4050     4.8000     0.2380 C.ar  1 <1>  -0.1430 
 11 C       -2.4730     4.2960    -1.9140 C.ar  1 <1>  -0.1500 
 12 C        0.1850     5.8940     0.5570 C.2   1 <1>   0.5690 
 13 C       -4.5210     5.3280    -0.3950 C.ar  1 <1>  -0.1500 
 14 C       -3.3930     4.8040     1.7620 C.3   1 <1>  -0.0960 
 15 C       -3.5900     4.8200    -2.5360 C.ar  1 <1>  -0.1500 
 16 O       -0.2380     5.8640     1.6920 O.2   1 <1>  -0.5700 
 17 N        0.7100     7.0540     0.0300 N.am  1 <1>  -0.6600 
 18 C       -4.6160     5.3420    -1.7740 C.ar  1 <1>  -0.1500 
 19 C        0.6880     8.3240     0.8040 C.3   1 <1>   0.1400 
 20 C        1.4950     7.1060    -1.2400 C.3   1 <1>   0.1400 
 21 C        2.1130     8.7120     1.2340 C.3   1 <1>  -0.1600 
 22 C        2.5950     8.1800    -1.1830 C.3   1 <1>  -0.1600 
 23 C        3.2230     8.3140     0.2240 C.3   1 <1>   0.0000 
 24 C        3.8720     6.9820     0.6910 C.3   1 <1>   0.1200 
 25 C        4.2940     9.4210     0.1970 C.3   1 <1>  -0.2400 
 26 O        4.8490     6.5540    -0.2000 O.3   1 <1>  -0.6800 
 27 H        1.5500     3.0970    -2.0140 H     1 <1>   0.0800 
 28 H        2.3650     2.2520    -0.7210 H     1 <1>   0.0800 
 29 H       -1.1490     3.6890     1.1620 H     1 <1>   0.0800 
 30 H       -2.4230     1.4930     0.8930 H     1 <1>   0.0800 
 31 H       -1.8060     0.3570    -0.2830 H     1 <1>   0.0800 
 32 H       -2.8800     1.6390    -0.7930 H     1 <1>   0.0800 
 33 H        0.0380     4.8920    -1.3100 H     1 <1>   0.0800 
 34 H       -1.6910     3.8820    -2.5260 H     1 <1>   0.1500 
 35 H       -5.3310     5.7340     0.1840 H     1 <1>   0.1500 
 36 H       -4.3660     5.0420     2.1530 H     1 <1>   0.0800 
 37 H       -2.7030     5.5420     2.1280 H     1 <1>   0.0800 
 38 H       -3.1170     3.8390     2.1440 H     1 <1>   0.0800 
 39 H       -3.6640     4.8190    -3.6100 H     1 <1>   0.1500 
 40 H       -5.4880     5.7550    -2.2500 H     1 <1>   0.1500 
 41 H        0.2780     9.0960     0.1760 H     1 <1>   0.0800 
 42 H        0.0530     8.2430     1.6700 H     1 <1>   0.0800 
 43 H        1.9650     6.1530    -1.4070 H     1 <1>   0.0800 
 44 H        0.8320     7.3080    -2.0640 H     1 <1>   0.0800 
 45 H        2.1130     9.7760     1.3910 H     1 <1>   0.0800 
 46 H        2.3120     8.2660     2.1940 H     1 <1>   0.0800 
 47 H        3.3490     7.9560    -1.9160 H     1 <1>   0.0800 
 48 H        2.1640     9.1240    -1.4670 H     1 <1>   0.0800 
 49 H        3.1410     6.1970     0.7850 H     1 <1>   0.0800 
 50 H        4.3460     7.1140     1.6480 H     1 <1>   0.0800 
 51 H        3.8680    10.3610    -0.1060 H     1 <1>   0.0800 
 52 H        5.0820     9.1730    -0.4930 H     1 <1>   0.0800 
 53 H        4.7320     9.5430     1.1720 H     1 <1>   0.0800 
 54 H        4.4500     6.3610    -1.0660 H     1 <1>   0.4000 
@<TRIPOS>BOND
  1   1   2  2   
  2   2   3  am  
  3   2   4  1   
  4   3   5  1   
  5   3   6  1   
  6   4   7  1   
  7   4  27  1   
  8   4  28  1   
  9   5   8  1   
 10   5   9  1   
 11   5  29  1   
 12   6  30  1   
 13   6  31  1   
 14   6  32  1   
 15   7   9  1   
 16   8  10  ar  
 17   8  11  ar  
 18   9  12  1   
 19   9  33  1   
 20  10  13  ar  
 21  10  14  1   
 22  11  15  ar  
 23  11  34  1   
 24  12  16  2   
 25  12  17  am  
 26  13  18  ar  
 27  13  35  1   
 28  14  36  1   
 29  14  37  1   
 30  14  38  1   
 31  15  18  ar  
 32  15  39  1   
 33  17  19  1   
 34  17  20  1   
 35  18  40  1   
 36  19  21  1   
 37  19  41  1   
 38  19  42  1   
 39  20  22  1   
 40  20  43  1   
 41  20  44  1   
 42  21  23  1   
 43  21  45  1   
 44  21  46  1   
 45  22  23  1   
 46  22  47  1   
 47  22  48  1   
 48  23  24  1   
 49  23  25  1   
 50  24  26  1   
 51  24  49  1   
 52  24  50  1   
 53  25  51  1   
 54  25  52  1   
 55  25  53  1   
 56  26  54  1   
@<TRIPOS>SUBSTRUCTURE
  1 ****   9 GROUP 4 **** **** 0

# MOE 2024.06 (io_trps.svl 2023.06)
