@<TRIPOS>MOLECULE
NONAME
57 61 1 0 0 
SMALL
USER_CHARGES


@<TRIPOS>ATOM
  1 O       -2.7480     5.9910     1.5620 O.2   1 <1>  -0.5700 
  2 C       -1.9000     5.2420     1.1140 C.2   1 <1>   0.7800 
  3 O       -1.4250     5.3470    -0.1280 O.3   1 <1>  -0.2330 
  4 N       -1.3410     4.1800     1.7600 N.am  1 <1>  -0.4770 
  5 C       -0.5690     4.3200    -0.3040 C.ar  1 <1>   0.0830 
  6 C       -0.5060     3.5700     0.8500 C.ar  1 <1>   0.1170 
  7 C       -1.6940     3.6870     3.1180 C.3   1 <1>   0.2010 
  8 C        0.1610     3.9920    -1.4320 C.ar  1 <1>  -0.1500 
  9 C        0.2940     2.4390     0.9070 C.ar  1 <1>  -0.1500 
 10 C       -2.4880     2.3830     3.0800 C.2   1 <1>   0.5690 
 11 C        0.9680     2.8660    -1.3760 C.ar  1 <1>  -0.1500 
 12 C        1.0320     2.0950    -0.2160 C.ar  1 <1>  -0.1500 
 13 O       -1.9140     1.3640     3.3870 O.2   1 <1>  -0.5700 
 14 N       -3.8070     2.3740     2.7160 N.am  1 <1>  -0.6600 
 15 C       -4.5730     1.1160     2.5180 C.3   1 <1>   0.1400 
 16 C       -4.6270     3.5430     2.3100 C.3   1 <1>   0.1400 
 17 C       -5.9400     1.5570     1.9950 C.3   1 <1>   0.2800 
 18 C       -6.0790     3.0430     2.3100 C.3   1 <1>  -0.0800 
 19 O       -6.0210     1.5790     0.6140 O.3   1 <1>  -0.5600 
 20 C       -7.1970     0.7660     2.3600 C.3   1 <1>  -0.1600 
 21 C       -7.0460     3.5010     1.1950 C.3   1 <1>  -0.0800 
 22 C       -7.2540     2.1750     0.4470 C.3   1 <1>   0.2000 
 23 C       -8.1500     1.2230     1.2500 C.3   1 <1>  -0.1600 
 24 C       -6.5210     4.6110     0.2730 C.3   1 <1>   0.1400 
 25 N       -7.5520     4.9800    -0.7230 N.am  1 <1>  -0.7300 
 26 C       -8.6200     5.7840    -0.4740 C.2   1 <1>   0.5690 
 27 O       -8.8400     6.2250     0.6280 O.2   1 <1>  -0.5700 
 28 C       -9.5740     6.1260    -1.6200 C.3   1 <1>  -0.0190 
 29 C      -10.2800     4.8760    -2.1720 C.3   1 <1>  -0.2400 
 30 C       -8.8630     6.8800    -2.7570 C.3   1 <1>  -0.2400 
 31 H       -0.7870     3.5210     3.6700 H     1 <1>   0.0800 
 32 H       -2.2650     4.4340     3.6370 H     1 <1>   0.0800 
 33 H        0.0960     4.5970    -2.3190 H     1 <1>   0.1500 
 34 H        0.3320     1.8430     1.8020 H     1 <1>   0.1500 
 35 H        1.5510     2.5810    -2.2350 H     1 <1>   0.1500 
 36 H        1.6590     1.2200    -0.1930 H     1 <1>   0.1500 
 37 H       -4.0800     0.4660     1.8160 H     1 <1>   0.0800 
 38 H       -4.6760     0.6190     3.4660 H     1 <1>   0.0800 
 39 H       -4.5000     4.3720     2.9860 H     1 <1>   0.0800 
 40 H       -4.3120     3.8300     1.3240 H     1 <1>   0.0800 
 41 H       -6.5030     3.1860     3.2880 H     1 <1>   0.0800 
 42 H       -7.0040    -0.2900     2.2940 H     1 <1>   0.0800 
 43 H       -7.5540     1.0100     3.3450 H     1 <1>   0.0800 
 44 H       -7.9710     3.8340     1.6320 H     1 <1>   0.0800 
 45 H       -7.5110     2.2640    -0.5950 H     1 <1>   0.0800 
 46 H       -9.0260     1.7200     1.6280 H     1 <1>   0.0800 
 47 H       -8.4480     0.3930     0.6340 H     1 <1>   0.0800 
 48 H       -5.6380     4.2840    -0.2500 H     1 <1>   0.0800 
 49 H       -6.2730     5.4820     0.8580 H     1 <1>   0.0800 
 50 H       -7.3990     4.6430    -1.6730 H     1 <1>   0.3700 
 51 H      -10.3290     6.7790    -1.2150 H     1 <1>   0.0800 
 52 H       -9.5720     4.2000    -2.6180 H     1 <1>   0.0800 
 53 H      -11.0070     5.1550    -2.9150 H     1 <1>   0.0800 
 54 H      -10.7890     4.3630    -1.3740 H     1 <1>   0.0800 
 55 H       -8.1170     6.2610    -3.2220 H     1 <1>   0.0800 
 56 H       -8.3810     7.7600    -2.3650 H     1 <1>   0.0800 
 57 H       -9.5730     7.1860    -3.5040 H     1 <1>   0.0800 
@<TRIPOS>BOND
  1   1   2  2   
  2   2   3  1   
  3   2   4  am  
  4   3   5  1   
  5   4   6  1   
  6   4   7  1   
  7   5   6  ar  
  8   5   8  ar  
  9   6   9  ar  
 10   7  10  1   
 11   7  31  1   
 12   7  32  1   
 13   8  11  ar  
 14   8  33  1   
 15   9  12  ar  
 16   9  34  1   
 17  10  13  2   
 18  10  14  am  
 19  11  12  ar  
 20  11  35  1   
 21  12  36  1   
 22  14  15  1   
 23  14  16  1   
 24  15  17  1   
 25  15  37  1   
 26  15  38  1   
 27  16  18  1   
 28  16  39  1   
 29  16  40  1   
 30  17  18  1   
 31  17  19  1   
 32  17  20  1   
 33  18  21  1   
 34  18  41  1   
 35  19  22  1   
 36  20  23  1   
 37  20  42  1   
 38  20  43  1   
 39  21  22  1   
 40  21  24  1   
 41  21  44  1   
 42  22  23  1   
 43  22  45  1   
 44  23  46  1   
 45  23  47  1   
 46  24  25  1   
 47  24  48  1   
 48  24  49  1   
 49  25  26  am  
 50  25  50  1   
 51  26  27  2   
 52  26  28  1   
 53  28  29  1   
 54  28  30  1   
 55  28  51  1   
 56  29  52  1   
 57  29  53  1   
 58  29  54  1   
 59  30  55  1   
 60  30  56  1   
 61  30  57  1   
@<TRIPOS>SUBSTRUCTURE
  1 ****  16 GROUP 4 **** **** 0

# MOE 2024.06 (io_trps.svl 2023.06)
