@<TRIPOS>MOLECULE
NONAME
50 52 1 0 0 
SMALL
USER_CHARGES


@<TRIPOS>ATOM
  1 S       -0.2280    -0.3120     0.5240 S.o2  1 <1>   1.4470 
  2 O        0.2670    -1.4770     1.2210 O.2   1 <1>  -0.6500 
  3 O       -1.4270     0.3330     1.0070 O.2   1 <1>  -0.6500 
  4 N       -0.6700    -0.7710    -1.0320 N.am  1 <1>  -0.9140 
  5 C        1.1320     0.8700     0.2500 C.ar  1 <1>  -0.0090 
  6 C       -1.0620    -2.1600    -1.3000 C.3   1 <1>   0.2760 
  7 C        0.9490     2.1750    -0.2190 C.ar  1 <1>  -0.1440 
  8 C        2.4340     0.4480     0.4960 C.ar  1 <1>  -0.1500 
  9 C       -2.0940    -2.7630    -0.3390 C.3   1 <1>  -0.0800 
 10 C        0.0910    -3.1680    -1.3050 C.3   1 <1>   0.1200 
 11 C        2.0420     3.0060    -0.4160 C.ar  1 <1>  -0.1500 
 12 C       -0.4320     2.7410    -0.5270 C.3   1 <1>  -0.0970 
 13 C        3.5310     1.2780     0.2990 C.ar  1 <1>   0.0820 
 14 C       -1.4040    -4.0470     0.1350 C.3   1 <1>   0.1200 
 15 C       -3.4280    -3.0490    -1.0510 C.3   1 <1>  -0.0160 
 16 O       -0.4750    -4.3550    -0.8510 O.3   1 <1>  -0.5600 
 17 C        3.3300     2.5710    -0.1620 C.ar  1 <1>  -0.1440 
 18 O        4.8100     0.8830     0.5390 O.3   1 <1>  -0.3630 
 19 C       -4.4590    -3.6350    -0.0980 C.ar  1 <1>  -0.1440 
 20 C        4.5090     3.5080    -0.3880 C.3   1 <1>  -0.0970 
 21 C        5.1130    -0.3970     1.0490 C.3   1 <1>   0.0400 
 22 C       -4.8620    -4.9530    -0.1750 C.ar  1 <1>  -0.1500 
 23 C       -5.0460    -2.8760     0.8950 C.ar  1 <1>  -0.1500 
 24 C       -5.8030    -5.4350     0.7190 C.ar  1 <1>   0.1600 
 25 C       -5.9790    -3.4570     1.7390 C.ar  1 <1>   0.1600 
 26 N       -6.3720    -4.7180     1.6740 N.ar  1 <1>  -0.6200 
 27 H       -1.4890    -0.1920    -1.2010 H     1 <1>   0.4200 
 28 H       -1.4670    -2.1800    -2.2970 H     1 <1>   0.0800 
 29 H        2.5790    -0.5550     0.8500 H     1 <1>   0.1500 
 30 H       -2.2890    -2.1430     0.5160 H     1 <1>   0.0800 
 31 H        0.8840    -2.8980    -0.6320 H     1 <1>   0.0800 
 32 H        0.4830    -3.3280    -2.2940 H     1 <1>   0.0800 
 33 H        1.8920     4.0100    -0.7730 H     1 <1>   0.1500 
 34 H       -0.3600     3.7120    -0.9830 H     1 <1>   0.0800 
 35 H       -1.0000     2.8440     0.3810 H     1 <1>   0.0800 
 36 H       -0.9630     2.0990    -1.2050 H     1 <1>   0.0800 
 37 H       -2.0750    -4.8780     0.2620 H     1 <1>   0.0800 
 38 H       -0.8660    -3.8750     1.0530 H     1 <1>   0.0800 
 39 H       -3.2650    -3.7280    -1.8710 H     1 <1>   0.0800 
 40 H       -3.8220    -2.1340    -1.4580 H     1 <1>   0.0800 
 41 H        4.1830     4.4680    -0.7450 H     1 <1>   0.0800 
 42 H        5.1780     3.0810    -1.1120 H     1 <1>   0.0800 
 43 H        5.0430     3.6470     0.5340 H     1 <1>   0.0800 
 44 H        6.1790    -0.4630     1.1700 H     1 <1>   0.0800 
 45 H        4.7790    -1.1410     0.3470 H     1 <1>   0.0800 
 46 H        4.6280    -0.5180     2.0010 H     1 <1>   0.0800 
 47 H       -4.4520    -5.6120    -0.9200 H     1 <1>   0.1500 
 48 H       -4.7880    -1.8410     1.0230 H     1 <1>   0.1500 
 49 H       -6.1050    -6.4660     0.6430 H     1 <1>   0.1500 
 50 H       -6.4250    -2.8490     2.5080 H     1 <1>   0.1500 
@<TRIPOS>BOND
  1   1   2  2   
  2   1   3  2   
  3   1   4  am  
  4   1   5  1   
  5   4   6  1   
  6   4  27  1   
  7   5   7  ar  
  8   5   8  ar  
  9   6   9  1   
 10   6  10  1   
 11   6  28  1   
 12   7  11  ar  
 13   7  12  1   
 14   8  13  ar  
 15   8  29  1   
 16   9  14  1   
 17   9  15  1   
 18   9  30  1   
 19  10  16  1   
 20  10  31  1   
 21  10  32  1   
 22  11  17  ar  
 23  11  33  1   
 24  12  34  1   
 25  12  35  1   
 26  12  36  1   
 27  13  17  ar  
 28  13  18  1   
 29  14  16  1   
 30  14  37  1   
 31  14  38  1   
 32  15  19  1   
 33  15  39  1   
 34  15  40  1   
 35  17  20  1   
 36  18  21  1   
 37  19  22  ar  
 38  19  23  ar  
 39  20  41  1   
 40  20  42  1   
 41  20  43  1   
 42  21  44  1   
 43  21  45  1   
 44  21  46  1   
 45  22  24  ar  
 46  22  47  1   
 47  23  25  ar  
 48  23  48  1   
 49  24  26  ar  
 50  24  49  1   
 51  25  26  ar  
 52  25  50  1   
@<TRIPOS>SUBSTRUCTURE
  1 ****   1 GROUP 4 **** **** 0

# MOE 2024.06 (io_trps.svl 2023.06)
