@<TRIPOS>MOLECULE
NONAME
52 54 1 0 0 
SMALL
USER_CHARGES


@<TRIPOS>ATOM
  1 F       -2.3410    -0.4660    -1.5040 F     1 <1>  -0.3400 
  2 C       -1.9470     0.1260    -0.3830 C.3   1 <1>   1.1640 
  3 F       -0.8500     0.8020    -0.7080 F     1 <1>  -0.3400 
  4 F       -1.5450    -0.8290     0.4400 F     1 <1>  -0.3400 
  5 C       -3.0470     1.0300     0.1980 C.ar  1 <1>  -0.1440 
  6 C       -4.1940     0.4680     0.7780 C.ar  1 <1>   0.0860 
  7 C       -2.9180     2.4170     0.1450 C.ar  1 <1>  -0.1500 
  8 C       -4.4330    -0.9590     0.8650 C.2   1 <1>   0.5440 
  9 C       -5.1610     1.3260     1.3010 C.ar  1 <1>  -0.1500 
 10 C       -3.8970     3.2450     0.6620 C.ar  1 <1>  -0.1500 
 11 O       -4.1800    -1.5320     1.9040 O.2   1 <1>  -0.5700 
 12 N       -4.9700    -1.6590    -0.1910 N.am  1 <1>  -0.6600 
 13 C       -5.0210     2.6980     1.2450 C.ar  1 <1>  -0.1500 
 14 C       -5.1110    -3.1560    -0.0850 C.3   1 <1>   0.3640 
 15 C       -5.6290    -0.9490    -1.3320 C.3   1 <1>   0.1400 
 16 C       -3.7500    -3.8090    -0.3430 C.ar  1 <1>  -0.1430 
 17 C       -6.1820    -3.8050    -1.0140 C.3   1 <1>   0.2000 
 18 C       -6.2660    -1.8930    -2.3550 C.3   1 <1>   0.1200 
 19 C       -3.2320    -4.6970     0.5900 C.ar  1 <1>  -0.1500 
 20 C       -3.0190    -3.5410    -1.4940 C.ar  1 <1>  -0.1500 
 21 O       -6.9880    -2.8750    -1.6890 O.3   1 <1>  -0.5600 
 22 C       -7.1280    -4.7400    -0.2480 C.3   1 <1>   0.1200 
 23 C       -2.0110    -5.3160     0.3820 C.ar  1 <1>   0.0830 
 24 C       -1.7890    -4.1400    -1.7030 C.ar  1 <1>  -0.1500 
 25 O       -6.4210    -5.7670     0.3720 O.3   1 <1>  -0.6800 
 26 O       -1.5900    -6.2020     1.3180 O.3   1 <1>  -0.3630 
 27 C       -1.2690    -5.0140    -0.7650 C.ar  1 <1>   0.0830 
 28 C       -1.4900    -7.5470     0.9090 C.3   1 <1>   0.0400 
 29 O       -0.0410    -5.5340    -1.0050 O.3   1 <1>  -0.3630 
 30 C        0.9830    -5.1160    -0.1300 C.3   1 <1>   0.0400 
 31 H       -2.0500     2.8770    -0.3000 H     1 <1>   0.1500 
 32 H       -6.0350     0.8990     1.7650 H     1 <1>   0.1500 
 33 H       -3.7810     4.3150     0.6140 H     1 <1>   0.1500 
 34 H       -5.7830     3.3390     1.6560 H     1 <1>   0.1500 
 35 H       -5.3930    -3.3830     0.9290 H     1 <1>   0.0800 
 36 H       -6.4010    -0.3110    -0.9390 H     1 <1>   0.0800 
 37 H       -4.9110    -0.3240    -1.8330 H     1 <1>   0.0800 
 38 H       -5.6880    -4.3860    -1.7730 H     1 <1>   0.0800 
 39 H       -5.5220    -2.3600    -2.9780 H     1 <1>   0.0800 
 40 H       -6.9480    -1.3500    -2.9840 H     1 <1>   0.0800 
 41 H       -3.7750    -4.9190     1.4920 H     1 <1>   0.1500 
 42 H       -3.3960    -2.8550    -2.2290 H     1 <1>   0.1500 
 43 H       -7.8420    -5.1840    -0.9190 H     1 <1>   0.0800 
 44 H       -7.6490    -4.1920     0.5180 H     1 <1>   0.0800 
 45 H       -1.2200    -3.9220    -2.5890 H     1 <1>   0.1500 
 46 H       -5.9660    -6.3310    -0.2840 H     1 <1>   0.4000 
 47 H       -1.2560    -8.1440     1.7710 H     1 <1>   0.0800 
 48 H       -0.7100    -7.6400     0.1760 H     1 <1>   0.0800 
 49 H       -2.4340    -7.8540     0.4930 H     1 <1>   0.0800 
 50 H        1.9160    -5.5130    -0.4880 H     1 <1>   0.0800 
 51 H        0.7810    -5.4860     0.8580 H     1 <1>   0.0800 
 52 H        1.0160    -4.0400    -0.1240 H     1 <1>   0.0800 
@<TRIPOS>BOND
  1   1   2  1   
  2   2   3  1   
  3   2   4  1   
  4   2   5  1   
  5   5   6  ar  
  6   5   7  ar  
  7   6   8  1   
  8   6   9  ar  
  9   7  10  ar  
 10   7  31  1   
 11   8  11  2   
 12   8  12  am  
 13   9  13  ar  
 14   9  32  1   
 15  10  13  ar  
 16  10  33  1   
 17  12  14  1   
 18  12  15  1   
 19  13  34  1   
 20  14  16  1   
 21  14  17  1   
 22  14  35  1   
 23  15  18  1   
 24  15  36  1   
 25  15  37  1   
 26  16  19  ar  
 27  16  20  ar  
 28  17  21  1   
 29  17  22  1   
 30  17  38  1   
 31  18  21  1   
 32  18  39  1   
 33  18  40  1   
 34  19  23  ar  
 35  19  41  1   
 36  20  24  ar  
 37  20  42  1   
 38  22  25  1   
 39  22  43  1   
 40  22  44  1   
 41  23  26  1   
 42  23  27  ar  
 43  24  27  ar  
 44  24  45  1   
 45  25  46  1   
 46  26  28  1   
 47  27  29  1   
 48  28  47  1   
 49  28  48  1   
 50  28  49  1   
 51  29  30  1   
 52  30  50  1   
 53  30  51  1   
 54  30  52  1   
@<TRIPOS>SUBSTRUCTURE
  1 ****  12 GROUP 4 **** **** 0

# MOE 2024.06 (io_trps.svl 2023.06)
