@<TRIPOS>MOLECULE
NONAME
51 53 1 0 0 
SMALL
USER_CHARGES


@<TRIPOS>ATOM
  1 O        0.9730    -0.1190    -0.7340 O.2   1 <1>  -0.5700 
  2 C        1.9650    -0.8080    -0.5870 C.2   1 <1>   0.5440 
  3 N        3.1990    -0.1920    -0.5260 N.am  1 <1>  -0.6600 
  4 C        1.8080    -2.2410    -0.4660 C.ar  1 <1>   0.0860 
  5 C        4.3940    -0.8140     0.1330 C.3   1 <1>   0.1400 
  6 C        3.3710     1.2040    -1.0210 C.3   1 <1>   0.1400 
  7 C        0.8440    -2.7710     0.3870 C.ar  1 <1>   0.1600 
  8 C        2.5810    -3.1460    -1.1820 C.ar  1 <1>  -0.1500 
  9 C        4.8940     0.0010     1.3340 C.3   1 <1>   0.1400 
 10 C        3.2930     2.1940     0.1470 C.3   1 <1>  -0.1600 
 11 N        0.6200    -4.0590     0.6000 N.ar  1 <1>  -0.6200 
 12 C        2.3580    -4.4910    -0.9810 C.ar  1 <1>  -0.1500 
 13 N        5.5300     1.2780     0.8910 N.am  1 <1>  -0.6600 
 14 C        4.6330     2.4690     0.8460 C.3   1 <1>   0.1400 
 15 C        1.3780    -4.8960    -0.0870 C.ar  1 <1>   0.1670 
 16 C        6.8520     1.2720     0.5170 C.2   1 <1>   0.5690 
 17 C        1.1190    -6.3680     0.1500 C.3   1 <1>  -0.0970 
 18 O        7.4750     0.2370     0.4480 O.2   1 <1>  -0.5700 
 19 C        7.5660     2.5750     0.1680 C.3   1 <1>  -0.0990 
 20 C        9.0940     2.4380     0.0130 C.3   1 <1>  -0.1600 
 21 C        9.7660     3.7790    -0.3110 C.3   1 <1>   0.0210 
 22 C       11.2720     3.6440    -0.4670 C.2   1 <1>  -0.1810 
 23 C       12.1520     4.6890    -0.7380 C.2   1 <1>   0.1390 
 24 C       12.0620     2.5520    -0.3850 C.2   1 <1>  -0.3020 
 25 N       13.3850     4.2900    -0.8200 N.2   1 <1>  -0.7070 
 26 N       13.3260     2.9640    -0.6000 N.pl3 1 <1>   0.3000 
 27 H        5.1900    -0.9190    -0.5840 H     1 <1>   0.0800 
 28 H        4.1470    -1.7960     0.4910 H     1 <1>   0.0800 
 29 H        2.5840     1.4270    -1.7230 H     1 <1>   0.0800 
 30 H        4.3070     1.2980    -1.5440 H     1 <1>   0.0800 
 31 H        0.2240    -2.0760     0.9280 H     1 <1>   0.1500 
 32 H        3.3290    -2.7990    -1.8730 H     1 <1>   0.1500 
 33 H        5.6220    -0.5850     1.8670 H     1 <1>   0.0800 
 34 H        4.0810     0.1990     2.0110 H     1 <1>   0.0800 
 35 H        2.5660     1.8470     0.8610 H     1 <1>   0.0800 
 36 H        2.9250     3.1320    -0.2280 H     1 <1>   0.0800 
 37 H        2.9390    -5.2190    -1.5160 H     1 <1>   0.1500 
 38 H        4.4480     2.8080     1.8510 H     1 <1>   0.0800 
 39 H        5.1170     3.2700     0.3190 H     1 <1>   0.0800 
 40 H        1.2740    -6.5970     1.1880 H     1 <1>   0.0800 
 41 H        1.7730    -6.9800    -0.4430 H     1 <1>   0.0800 
 42 H        0.1000    -6.5980    -0.1060 H     1 <1>   0.0800 
 43 H        7.3640     3.2880     0.9460 H     1 <1>   0.0800 
 44 H        7.1540     2.9450    -0.7520 H     1 <1>   0.0800 
 45 H        9.3070     1.7360    -0.7750 H     1 <1>   0.0800 
 46 H        9.5080     2.0450     0.9260 H     1 <1>   0.0800 
 47 H        9.5630     4.4830     0.4770 H     1 <1>   0.0800 
 48 H        9.3600     4.1730    -1.2260 H     1 <1>   0.0800 
 49 H       11.8560     5.7160    -0.8690 H     1 <1>   0.1500 
 50 H       11.8050     1.5260    -0.1900 H     1 <1>   0.1500 
 51 H       14.1640     2.3700    -0.6030 H     1 <1>   0.2700 
@<TRIPOS>BOND
  1   1   2  2   
  2   2   3  am  
  3   2   4  1   
  4   3   5  1   
  5   3   6  1   
  6   4   7  ar  
  7   4   8  ar  
  8   5   9  1   
  9   5  27  1   
 10   5  28  1   
 11   6  10  1   
 12   6  29  1   
 13   6  30  1   
 14   7  11  ar  
 15   7  31  1   
 16   8  12  ar  
 17   8  32  1   
 18   9  13  1   
 19   9  33  1   
 20   9  34  1   
 21  10  14  1   
 22  10  35  1   
 23  10  36  1   
 24  11  15  ar  
 25  12  15  ar  
 26  12  37  1   
 27  13  14  1   
 28  13  16  am  
 29  14  38  1   
 30  14  39  1   
 31  15  17  1   
 32  16  18  2   
 33  16  19  1   
 34  17  40  1   
 35  17  41  1   
 36  17  42  1   
 37  19  20  1   
 38  19  43  1   
 39  19  44  1   
 40  20  21  1   
 41  20  45  1   
 42  20  46  1   
 43  21  22  1   
 44  21  47  1   
 45  21  48  1   
 46  22  23  1   
 47  22  24  2   
 48  23  25  2   
 49  23  49  1   
 50  24  26  1   
 51  24  50  1   
 52  25  26  1   
 53  26  51  1   
@<TRIPOS>SUBSTRUCTURE
  1 ****  13 GROUP 4 **** **** 0

# MOE 2024.06 (io_trps.svl 2023.06)
