@<TRIPOS>MOLECULE
NONAME
48 51 1 0 0 
SMALL
USER_CHARGES


@<TRIPOS>ATOM
  1 O       -0.0630     0.2220    -0.6390 O.2   1 <1>  -0.5700 
  2 C       -0.0910     1.3850    -0.3100 C.2   1 <1>   0.5690 
  3 N       -1.2630     2.0780    -0.1620 N.am  1 <1>  -0.6600 
  4 C        1.2460     2.0960    -0.0850 C.3   1 <1>   0.1810 
  5 C       -1.2730     3.5220     0.2490 C.3   1 <1>   0.3640 
  6 C       -2.5950     1.4160    -0.2830 C.3   1 <1>   0.0600 
  7 O        1.1320     3.2640     0.6920 O.3   1 <1>  -0.5600 
  8 C       -2.2130     4.3040    -0.6840 C.ar  1 <1>  -0.1440 
  9 C        0.1400     4.1640     0.2380 C.3   1 <1>   0.2610 
 10 C       -3.3290     5.0040    -0.2230 C.ar  1 <1>  -0.1440 
 11 C       -1.9410     4.3010    -2.0490 C.ar  1 <1>  -0.1500 
 12 C        0.1890     5.4550     1.0630 C.2   1 <1>   0.5690 
 13 C       -4.1220     5.6990    -1.1250 C.ar  1 <1>  -0.1500 
 14 C       -3.7350     5.0380     1.2460 C.3   1 <1>  -0.0960 
 15 C       -2.7380     4.9940    -2.9400 C.ar  1 <1>  -0.1500 
 16 O       -0.5160     5.5840     2.0390 O.2   1 <1>  -0.5700 
 17 N        1.0480     6.4470     0.6900 N.am  1 <1>  -0.5100 
 18 C       -3.8300     5.6980    -2.4760 C.ar  1 <1>  -0.1500 
 19 C        1.5600     7.5250     1.6030 C.3   1 <1>   0.2250 
 20 C        2.4110     6.2790     0.0810 C.3   1 <1>   0.2250 
 21 C        2.7710     7.6720     0.6520 C.3   1 <1>   0.2250 
 22 N        4.0990     7.7740     1.2980 N.am  1 <1>  -0.6550 
 23 C        2.7290     8.8540    -0.3360 C.3   1 <1>   0.1400 
 24 C        4.7260     8.8830     0.8790 C.2   1 <1>   0.6900 
 25 N        4.0540     9.4800    -0.1200 N.am  1 <1>  -0.7300 
 26 O        5.7140     9.3420     1.4020 O.2   1 <1>  -0.5700 
 27 H        1.6760     2.3570    -1.0340 H     1 <1>   0.0800 
 28 H        1.9170     1.4300     0.4270 H     1 <1>   0.0800 
 29 H       -1.6390     3.5540     1.2580 H     1 <1>   0.0800 
 30 H       -3.1870     1.6220     0.5910 H     1 <1>   0.0800 
 31 H       -2.4840     0.3500    -0.3790 H     1 <1>   0.0800 
 32 H       -3.1100     1.7860    -1.1530 H     1 <1>   0.0800 
 33 H        0.3940     4.4210    -0.7730 H     1 <1>   0.0800 
 34 H       -1.1050     3.7430    -2.4340 H     1 <1>   0.1500 
 35 H       -4.9810     6.2480    -0.7810 H     1 <1>   0.1500 
 36 H       -4.7110     5.4730     1.3650 H     1 <1>   0.0800 
 37 H       -3.0400     5.6290     1.8120 H     1 <1>   0.0800 
 38 H       -3.7710     4.0440     1.6530 H     1 <1>   0.0800 
 39 H       -2.5110     4.9820    -3.9920 H     1 <1>   0.1500 
 40 H       -4.4550     6.2420    -3.1630 H     1 <1>   0.1500 
 41 H        0.9000     8.3740     1.6190 H     1 <1>   0.0000 
 42 H        1.8070     7.1290     2.5720 H     1 <1>   0.0000 
 43 H        2.9430     5.4640     0.5410 H     1 <1>   0.0000 
 44 H        2.3610     6.2350    -0.9920 H     1 <1>   0.0000 
 45 H        4.2770     7.4310     2.2410 H     1 <1>   0.3700 
 46 H        1.9380     9.5440    -0.0940 H     1 <1>   0.0800 
 47 H        2.6290     8.5210    -1.3540 H     1 <1>   0.0800 
 48 H        4.2590    10.4530    -0.3520 H     1 <1>   0.3700 
@<TRIPOS>BOND
  1   1   2  2   
  2   2   3  am  
  3   2   4  1   
  4   3   5  1   
  5   3   6  1   
  6   4   7  1   
  7   4  27  1   
  8   4  28  1   
  9   5   8  1   
 10   5   9  1   
 11   5  29  1   
 12   6  30  1   
 13   6  31  1   
 14   6  32  1   
 15   7   9  1   
 16   8  10  ar  
 17   8  11  ar  
 18   9  12  1   
 19   9  33  1   
 20  10  13  ar  
 21  10  14  1   
 22  11  15  ar  
 23  11  34  1   
 24  12  16  2   
 25  12  17  am  
 26  13  18  ar  
 27  13  35  1   
 28  14  36  1   
 29  14  37  1   
 30  14  38  1   
 31  15  18  ar  
 32  15  39  1   
 33  17  19  1   
 34  17  20  1   
 35  18  40  1   
 36  19  21  1   
 37  19  41  1   
 38  19  42  1   
 39  20  21  1   
 40  20  43  1   
 41  20  44  1   
 42  21  22  1   
 43  21  23  1   
 44  22  24  am  
 45  22  45  1   
 46  23  25  1   
 47  23  46  1   
 48  23  47  1   
 49  24  25  am  
 50  24  26  2   
 51  25  48  1   
@<TRIPOS>SUBSTRUCTURE
  1 ****  12 GROUP 4 **** **** 0

# MOE 2024.06 (io_trps.svl 2023.06)
