@<TRIPOS>MOLECULE
NONAME
45 48 1 0 0 
SMALL
USER_CHARGES


@<TRIPOS>ATOM
  1 O        0.9230    -0.4850     1.0070 O.3   1 <1>  -0.5600 
  2 C        1.9000    -1.0390     0.1570 C.3   1 <1>   0.4240 
  3 C       -0.4120    -0.7870     0.7400 C.3   1 <1>   0.1200 
  4 C        1.5470    -2.4840    -0.2600 C.ar  1 <1>  -0.1440 
  5 C        2.0400    -0.1240    -1.0720 C.3   1 <1>  -0.1600 
  6 C        3.1980    -1.0300     0.9790 C.3   1 <1>  -0.1600 
  7 C       -0.6330    -2.2790     0.9670 C.3   1 <1>  -0.0160 
  8 C        0.3480    -3.0740     0.1290 C.ar  1 <1>  -0.1440 
  9 C        2.4250    -3.2260    -1.0440 C.ar  1 <1>  -0.1500 
 10 C        2.4920     1.2840    -0.6860 C.3   1 <1>   0.2090 
 11 C        3.6230     0.3920     1.3390 C.3   1 <1>   0.2090 
 12 C        0.0430    -4.3730    -0.2440 C.ar  1 <1>  -0.1500 
 13 C        2.1210    -4.5210    -1.4190 C.ar  1 <1>  -0.1500 
 14 N        3.7620     1.1780     0.0820 N.pl3 1 <1>  -0.8380 
 15 C        0.9330    -5.1060    -1.0220 C.ar  1 <1>   0.0820 
 16 C        4.8900     1.8750    -0.2640 C.2   1 <1>   0.2000 
 17 O        0.7120    -6.3810    -1.4300 O.3   1 <1>  -0.3630 
 18 N        6.0820     1.3020     0.0270 N.pl3 1 <1>  -0.5500 
 19 C        4.9390     3.0830    -0.8890 C.2   1 <1>  -0.1360 
 20 C       -0.4580    -7.0760    -1.0620 C.3   1 <1>   0.0400 
 21 C        7.2660     1.9060    -0.2860 C.2   1 <1>   0.4400 
 22 C        6.1780     3.6670    -1.1940 C.2   1 <1>   0.7670 
 23 N        7.3550     3.0400    -0.8700 N.2   1 <1>  -0.6610 
 24 O        6.2400     4.7530    -1.7610 O.2   1 <1>  -0.5700 
 25 H       -0.6440    -0.5110    -0.2730 H     1 <1>   0.0800 
 26 H       -1.0220    -0.2100     1.4120 H     1 <1>   0.0800 
 27 H        1.1110    -0.0790    -1.6070 H     1 <1>   0.0800 
 28 H        2.7720    -0.5320    -1.7430 H     1 <1>   0.0800 
 29 H        3.9930    -1.4880     0.4230 H     1 <1>   0.0800 
 30 H        3.0500    -1.6070     1.8730 H     1 <1>   0.0800 
 31 H       -1.6430    -2.5310     0.6990 H     1 <1>   0.0800 
 32 H       -0.4900    -2.5080     2.0080 H     1 <1>   0.0800 
 33 H        3.3580    -2.8030    -1.3720 H     1 <1>   0.1500 
 34 H        1.7430     1.7640    -0.0770 H     1 <1>   0.0800 
 35 H        2.6370     1.8680    -1.5770 H     1 <1>   0.0800 
 36 H        4.5460     0.3790     1.8900 H     1 <1>   0.0800 
 37 H        2.8750     0.8520     1.9630 H     1 <1>   0.0800 
 38 H       -0.8870    -4.8010     0.0760 H     1 <1>   0.1500 
 39 H        2.8050    -5.0890    -2.0240 H     1 <1>   0.1500 
 40 H        6.0660     0.3750     0.4420 H     1 <1>   0.4000 
 41 H        4.0580     3.6250    -1.1580 H     1 <1>   0.1500 
 42 H       -0.4080    -8.0620    -1.4880 H     1 <1>   0.0800 
 43 H       -1.3120    -6.5520    -1.4520 H     1 <1>   0.0800 
 44 H       -0.5010    -7.1440     0.0110 H     1 <1>   0.0800 
 45 H        8.1630     1.3740    -0.0190 H     1 <1>   0.0600 
@<TRIPOS>BOND
  1   1   2  1   
  2   1   3  1   
  3   2   4  1   
  4   2   5  1   
  5   2   6  1   
  6   3   7  1   
  7   3  25  1   
  8   3  26  1   
  9   4   8  ar  
 10   4   9  ar  
 11   5  10  1   
 12   5  27  1   
 13   5  28  1   
 14   6  11  1   
 15   6  29  1   
 16   6  30  1   
 17   7   8  1   
 18   7  31  1   
 19   7  32  1   
 20   8  12  ar  
 21   9  13  ar  
 22   9  33  1   
 23  10  14  1   
 24  10  34  1   
 25  10  35  1   
 26  11  14  1   
 27  11  36  1   
 28  11  37  1   
 29  12  15  ar  
 30  12  38  1   
 31  13  15  ar  
 32  13  39  1   
 33  14  16  1   
 34  15  17  1   
 35  16  18  1   
 36  16  19  2   
 37  17  20  1   
 38  18  21  1   
 39  18  40  1   
 40  19  22  1   
 41  19  41  1   
 42  20  42  1   
 43  20  43  1   
 44  20  44  1   
 45  21  23  2   
 46  21  45  1   
 47  22  23  1   
 48  22  24  2   
@<TRIPOS>SUBSTRUCTURE
  1 ****   2 GROUP 4 **** **** 0

# MOE 2024.06 (io_trps.svl 2023.06)
