@<TRIPOS>MOLECULE
NONAME
46 48 1 0 0 
SMALL
USER_CHARGES


@<TRIPOS>ATOM
  1 CL       1.0130    -1.6570     2.7310 Cl    1 <1>  -0.1230 
  2 C        0.5670    -2.7410     1.4270 C.2   1 <1>   0.1230 
  3 C        1.0540    -2.7320     0.1640 C.2   1 <1>  -0.3020 
  4 C       -0.3600    -3.7660     1.5360 C.2   1 <1>  -0.1500 
  5 N        0.4540    -3.7310    -0.5320 N.pl3 1 <1>   0.0480 
  6 C       -0.4330    -4.3750     0.3050 C.2   1 <1>  -0.2370 
  7 C        0.7310    -4.0550    -1.9450 C.3   1 <1>   0.0160 
  8 C       -1.2510    -5.4930    -0.0930 C.2   1 <1>   0.7150 
  9 O       -0.7950    -6.3410    -0.8410 O.2   1 <1>  -0.5700 
 10 N       -2.5530    -5.6240     0.3350 N.am  1 <1>  -0.6600 
 11 C       -3.2500    -6.9420     0.2650 C.3   1 <1>   0.1400 
 12 C       -3.4310    -4.4530     0.6030 C.3   1 <1>   0.1400 
 13 C       -4.2620    -6.9990    -0.8870 C.3   1 <1>   0.1400 
 14 C       -4.1380    -4.0400    -0.6910 C.3   1 <1>  -0.1600 
 15 N       -5.4890    -6.2010    -0.5730 N.am  1 <1>  -0.6600 
 16 C       -5.4760    -4.7500    -0.9380 C.3   1 <1>   0.1400 
 17 C       -6.6250    -6.7830    -0.0220 C.2   1 <1>   0.5440 
 18 O       -7.6080    -6.0770     0.1390 O.2   1 <1>  -0.5700 
 19 C       -6.6990    -8.2060     0.3350 C.ar  1 <1>   0.3960 
 20 N       -5.8570    -8.6770     1.2730 N.ar  1 <1>  -0.6200 
 21 C       -7.6250    -9.0470    -0.3070 C.ar  1 <1>  -0.1430 
 22 C       -5.9460    -9.9550     1.5820 C.ar  1 <1>   0.1600 
 23 C       -7.6950   -10.3830     0.0320 C.ar  1 <1>  -0.1500 
 24 C       -8.5720    -8.5240    -1.3840 C.3   1 <1>  -0.0970 
 25 C       -6.8330   -10.8400     1.0020 C.ar  1 <1>  -0.1500 
 26 H        1.7890    -2.0720    -0.2590 H     1 <1>   0.1500 
 27 H       -0.9020    -4.0180     2.4310 H     1 <1>   0.1500 
 28 H        1.3580    -3.2970    -2.3770 H     1 <1>   0.0800 
 29 H       -0.1950    -4.1090    -2.4880 H     1 <1>   0.0800 
 30 H        1.2300    -5.0060    -1.9970 H     1 <1>   0.0800 
 31 H       -3.7470    -7.1320     1.1990 H     1 <1>   0.0800 
 32 H       -2.5250    -7.7250     0.1250 H     1 <1>   0.0800 
 33 H       -2.8460    -3.6250     0.9570 H     1 <1>   0.0800 
 34 H       -4.1500    -4.6970     1.3690 H     1 <1>   0.0800 
 35 H       -4.5330    -8.0260    -1.0540 H     1 <1>   0.0800 
 36 H       -3.8030    -6.6410    -1.7920 H     1 <1>   0.0800 
 37 H       -3.4830    -4.1830    -1.5320 H     1 <1>   0.0800 
 38 H       -4.3450    -2.9860    -0.6400 H     1 <1>   0.0800 
 39 H       -5.7490    -4.6510    -1.9740 H     1 <1>   0.0800 
 40 H       -6.2260    -4.2370    -0.3600 H     1 <1>   0.0800 
 41 H       -5.2760   -10.3220     2.3410 H     1 <1>   0.1500 
 42 H       -8.3960   -11.0520    -0.4370 H     1 <1>   0.1500 
 43 H       -8.0270    -7.9670    -2.1250 H     1 <1>   0.0800 
 44 H       -9.3080    -7.8770    -0.9400 H     1 <1>   0.0800 
 45 H       -9.0830    -9.3300    -1.8780 H     1 <1>   0.0800 
 46 H       -6.8470   -11.8710     1.3070 H     1 <1>   0.1500 
@<TRIPOS>BOND
  1   1   2  1   
  2   2   3  2   
  3   2   4  1   
  4   3   5  1   
  5   3  26  1   
  6   4   6  2   
  7   4  27  1   
  8   5   6  1   
  9   5   7  1   
 10   6   8  1   
 11   7  28  1   
 12   7  29  1   
 13   7  30  1   
 14   8   9  2   
 15   8  10  am  
 16  10  11  1   
 17  10  12  1   
 18  11  13  1   
 19  11  31  1   
 20  11  32  1   
 21  12  14  1   
 22  12  33  1   
 23  12  34  1   
 24  13  15  1   
 25  13  35  1   
 26  13  36  1   
 27  14  16  1   
 28  14  37  1   
 29  14  38  1   
 30  15  16  1   
 31  15  17  am  
 32  16  39  1   
 33  16  40  1   
 34  17  18  2   
 35  17  19  1   
 36  19  20  ar  
 37  19  21  ar  
 38  20  22  ar  
 39  21  23  ar  
 40  21  24  1   
 41  22  25  ar  
 42  22  41  1   
 43  23  25  ar  
 44  23  42  1   
 45  24  43  1   
 46  24  44  1   
 47  24  45  1   
 48  25  46  1   
@<TRIPOS>SUBSTRUCTURE
  1 ****  11 GROUP 4 **** **** 0

# MOE 2024.06 (io_trps.svl 2023.06)
