@<TRIPOS>MOLECULE
NONAME
43 44 1 0 0 
SMALL
USER_CHARGES


@<TRIPOS>ATOM
  1 O        1.9770    -0.6790    -2.1710 O.2   1 <1>  -0.5700 
  2 C        2.0350    -0.8250    -0.9720 C.2   1 <1>   0.5690 
  3 N        2.1130     0.2740    -0.1420 N.am  1 <1>  -0.6600 
  4 C        1.9630    -2.3150    -0.5260 C.3   1 <1>   0.4840 
  5 C        2.4390     1.6160    -0.7220 C.3   1 <1>   0.3210 
  6 C        2.0320     0.2880     1.3480 C.3   1 <1>   0.0600 
  7 N        0.5560    -2.8590    -0.5870 N.4   1 <1>  -0.9590 
  8 C        2.6650    -2.6980     0.7860 C.3   1 <1>  -0.2400 
  9 C        3.8310     2.0240    -0.2830 C.2   1 <1>  -0.1810 
 10 C       -0.4210    -2.2260     0.3270 C.3   1 <1>   0.3430 
 11 C        0.4100    -4.3240    -0.4190 C.3   1 <1>   0.3430 
 12 C        4.2230     2.9190     0.6390 C.2   1 <1>  -0.0400 
 13 C        5.0380     1.5210    -0.7720 C.2   1 <1>   0.1080 
 14 C       -1.6180    -3.1660     0.2980 C.3   1 <1>  -0.1600 
 15 C       -1.0790    -4.5220    -0.1730 C.3   1 <1>  -0.1600 
 16 O        5.5280     2.9100     0.6780 O.3   1 <1>  -0.0190 
 17 C        3.4700     3.8560     1.5620 C.3   1 <1>  -0.0600 
 18 N        6.0330     2.0650    -0.1710 N.2   1 <1>  -0.4100 
 19 C        5.1990     0.4850    -1.8640 C.3   1 <1>  -0.0590 
 20 H        2.5180    -2.8260    -1.2950 H     1 <1>   0.0800 
 21 H        1.7190     2.3370    -0.3780 H     1 <1>   0.0800 
 22 H        2.3940     1.6080    -1.7980 H     1 <1>   0.0800 
 23 H        1.3040    -0.4170     1.7020 H     1 <1>   0.0800 
 24 H        1.7360     1.2630     1.6950 H     1 <1>   0.0800 
 25 H        2.9980     0.0620     1.7690 H     1 <1>   0.0800 
 26 H        0.2290    -2.6360    -1.5400 H     1 <1>   0.4500 
 27 H        2.0840    -2.4540     1.6540 H     1 <1>   0.0800 
 28 H        3.6090    -2.1830     0.8480 H     1 <1>   0.0800 
 29 H        2.8810    -3.7510     0.7990 H     1 <1>   0.0800 
 30 H       -0.6850    -1.2300     0.0050 H     1 <1>   0.0800 
 31 H       -0.0220    -2.1890     1.3270 H     1 <1>   0.0800 
 32 H        0.9600    -4.6560     0.4470 H     1 <1>   0.0800 
 33 H        0.7480    -4.8640    -1.2900 H     1 <1>   0.0800 
 34 H       -2.3550    -2.7950    -0.3940 H     1 <1>   0.0800 
 35 H       -2.0700    -3.2320     1.2730 H     1 <1>   0.0800 
 36 H       -1.2380    -5.2920     0.5630 H     1 <1>   0.0800 
 37 H       -1.5640    -4.8220    -1.0870 H     1 <1>   0.0800 
 38 H        2.4100     3.7680     1.4170 H     1 <1>   0.0800 
 39 H        3.7650     4.8700     1.3630 H     1 <1>   0.0800 
 40 H        3.7060     3.6230     2.5850 H     1 <1>   0.0800 
 41 H        4.5090     0.6740    -2.6650 H     1 <1>   0.0800 
 42 H        5.0230    -0.4950    -1.4650 H     1 <1>   0.0800 
 43 H        6.2000     0.5240    -2.2570 H     1 <1>   0.0800 
@<TRIPOS>BOND
  1   1   2  2   
  2   2   3  am  
  3   2   4  1   
  4   3   5  1   
  5   3   6  1   
  6   4   7  1   
  7   4   8  1   
  8   4  20  1   
  9   5   9  1   
 10   5  21  1   
 11   5  22  1   
 12   6  23  1   
 13   6  24  1   
 14   6  25  1   
 15   7  10  1   
 16   7  11  1   
 17   7  26  1   
 18   8  27  1   
 19   8  28  1   
 20   8  29  1   
 21   9  12  2   
 22   9  13  1   
 23  10  14  1   
 24  10  30  1   
 25  10  31  1   
 26  11  15  1   
 27  11  32  1   
 28  11  33  1   
 29  12  16  1   
 30  12  17  1   
 31  13  18  2   
 32  13  19  1   
 33  14  15  1   
 34  14  34  1   
 35  14  35  1   
 36  15  36  1   
 37  15  37  1   
 38  16  18  1   
 39  17  38  1   
 40  17  39  1   
 41  17  40  1   
 42  19  41  1   
 43  19  42  1   
 44  19  43  1   
@<TRIPOS>SUBSTRUCTURE
  1 ****   3 GROUP 4 **** **** 0

# MOE 2024.06 (io_trps.svl 2023.06)
