@<TRIPOS>MOLECULE
NONAME
49 50 1 0 0 
SMALL
USER_CHARGES


@<TRIPOS>ATOM
  1 O       -0.5250     0.3990     1.3840 O.2   1 <1>  -0.5700 
  2 C       -1.2750     0.8380     0.5440 C.2   1 <1>   0.5690 
  3 N       -2.1010     0.0170    -0.1820 N.am  1 <1>  -0.6600 
  4 C       -1.2730     2.3410     0.2940 C.3   1 <1>  -0.0990 
  5 C       -2.0990    -1.4530     0.0700 C.3   1 <1>   0.3200 
  6 C       -2.9760     0.4780    -1.3020 C.3   1 <1>   0.1400 
  7 C       -0.4800     3.1470     1.3330 C.3   1 <1>  -0.0170 
  8 C       -3.3870    -1.8580     0.7590 C.2   1 <1>  -0.3320 
  9 C       -4.3600     0.9170    -0.8040 C.3   1 <1>   0.1200 
 10 C       -0.5720     4.6320     1.0190 C.ar  1 <1>  -0.1440 
 11 N       -4.4660    -2.4220     0.1750 N.pl3 1 <1>   0.0480 
 12 C       -3.6830    -1.7320     2.0710 C.2   1 <1>   0.0770 
 13 O       -5.1820     1.1280    -1.9030 O.3   1 <1>  -0.6800 
 14 C        0.3610     5.2330     0.1900 C.ar  1 <1>  -0.1500 
 15 C       -1.5960     5.3950     1.5540 C.ar  1 <1>  -0.1500 
 16 C       -5.3480    -2.5940     1.1860 C.2   1 <1>   0.0360 
 17 C       -4.6880    -2.7630    -1.2420 C.3   1 <1>   0.0160 
 18 N       -4.9180    -2.1950     2.3380 N.2   1 <1>  -0.5650 
 19 C        0.2750     6.5910    -0.1080 C.ar  1 <1>   0.0830 
 20 C       -1.6890     6.7440     1.2620 C.ar  1 <1>  -0.1500 
 21 O        1.1660     7.2270    -0.9160 O.3   1 <1>  -0.3630 
 22 C       -0.7600     7.3500     0.4320 C.ar  1 <1>  -0.1430 
 23 C        2.2970     6.5650    -1.4380 C.3   1 <1>   0.0400 
 24 C       -0.8760     8.8350     0.1220 C.3   1 <1>  -0.0970 
 25 H       -2.2850     2.6960     0.3000 H     1 <1>   0.0800 
 26 H       -0.8540     2.5230    -0.6780 H     1 <1>   0.0800 
 27 H       -1.2720    -1.7260     0.7030 H     1 <1>   0.0800 
 28 H       -1.9750    -1.9830    -0.8570 H     1 <1>   0.0800 
 29 H       -3.0950    -0.3260    -2.0060 H     1 <1>   0.0800 
 30 H       -2.5060     1.2960    -1.8180 H     1 <1>   0.0800 
 31 H        0.5510     2.8360     1.3290 H     1 <1>   0.0800 
 32 H       -0.8720     2.9570     2.3170 H     1 <1>   0.0800 
 33 H       -4.3100     1.8280    -0.2350 H     1 <1>   0.0800 
 34 H       -4.8170     0.1530    -0.2020 H     1 <1>   0.0800 
 35 H       -3.0580    -1.3210     2.8470 H     1 <1>   0.1500 
 36 H       -5.0040     1.9980    -2.3140 H     1 <1>   0.4000 
 37 H        1.1490     4.6300    -0.2160 H     1 <1>   0.1500 
 38 H       -2.3270     4.9430     2.2020 H     1 <1>   0.1500 
 39 H       -6.3200    -3.0250     1.0270 H     1 <1>   0.1500 
 40 H       -3.8020    -3.2160    -1.6480 H     1 <1>   0.0800 
 41 H       -4.9260    -1.8690    -1.7900 H     1 <1>   0.0800 
 42 H       -5.5060    -3.4550    -1.3210 H     1 <1>   0.0800 
 43 H       -2.4910     7.3210     1.6880 H     1 <1>   0.1500 
 44 H        2.8650     7.2770    -2.0090 H     1 <1>   0.0800 
 45 H        1.9690     5.7640    -2.0750 H     1 <1>   0.0800 
 46 H        2.8900     6.1930    -0.6210 H     1 <1>   0.0800 
 47 H        0.0150     9.3430     0.4440 H     1 <1>   0.0800 
 48 H       -1.7210     9.2740     0.6200 H     1 <1>   0.0800 
 49 H       -0.9890     8.9770    -0.9380 H     1 <1>   0.0800 
@<TRIPOS>BOND
  1   1   2  2   
  2   2   3  am  
  3   2   4  1   
  4   3   5  1   
  5   3   6  1   
  6   4   7  1   
  7   4  25  1   
  8   4  26  1   
  9   5   8  1   
 10   5  27  1   
 11   5  28  1   
 12   6   9  1   
 13   6  29  1   
 14   6  30  1   
 15   7  10  1   
 16   7  31  1   
 17   7  32  1   
 18   8  11  1   
 19   8  12  2   
 20   9  13  1   
 21   9  33  1   
 22   9  34  1   
 23  10  14  ar  
 24  10  15  ar  
 25  11  16  1   
 26  11  17  1   
 27  12  18  1   
 28  12  35  1   
 29  13  36  1   
 30  14  19  ar  
 31  14  37  1   
 32  15  20  ar  
 33  15  38  1   
 34  16  18  2   
 35  16  39  1   
 36  17  40  1   
 37  17  41  1   
 38  17  42  1   
 39  19  21  1   
 40  19  22  ar  
 41  20  22  ar  
 42  20  43  1   
 43  21  23  1   
 44  22  24  1   
 45  23  44  1   
 46  23  45  1   
 47  23  46  1   
 48  24  47  1   
 49  24  48  1   
 50  24  49  1   
@<TRIPOS>SUBSTRUCTURE
  1 ****   4 GROUP 4 **** **** 0

# MOE 2024.06 (io_trps.svl 2023.06)
