@<TRIPOS>MOLECULE
NONAME
54 57 1 0 0 
SMALL
USER_CHARGES


@<TRIPOS>ATOM
  1 O       -1.5410     0.1660    -2.7460 O.2   1 <1>  -0.5700 
  2 C       -1.8580    -0.4430    -1.7510 C.2   1 <1>   0.5690 
  3 N       -2.0300     0.1720    -0.5470 N.am  1 <1>  -0.6600 
  4 C       -2.0510    -1.9360    -1.8710 C.3   1 <1>  -0.0190 
  5 C       -2.5040    -0.5740     0.6520 C.3   1 <1>   0.2200 
  6 C       -1.8390     1.6410    -0.3760 C.3   1 <1>   0.0600 
  7 C       -1.0370    -2.6860    -0.9870 C.3   1 <1>   0.1200 
  8 C       -3.5400    -2.3170    -1.7530 C.3   1 <1>   0.1400 
  9 C       -1.4730    -1.6320     1.1140 C.3   1 <1>   0.1200 
 10 C       -3.9460    -1.0890     0.4480 C.3   1 <1>   0.1400 
 11 O       -1.4370    -2.8010     0.3430 O.3   1 <1>  -0.5600 
 12 N       -4.1260    -2.3280    -0.3770 N.am  1 <1>  -0.6600 
 13 C       -5.2930    -3.0180    -0.1510 C.2   1 <1>   0.5690 
 14 O       -6.3280    -2.3880    -0.1790 O.2   1 <1>  -0.5700 
 15 C       -5.3090    -4.5410     0.2140 C.3   1 <1>   0.2040 
 16 C       -6.7660    -5.0140     0.5210 C.ar  1 <1>  -0.1440 
 17 C       -4.8270    -5.4360    -0.9720 C.3   1 <1>  -0.1600 
 18 C       -4.3530    -4.7470     1.4320 C.3   1 <1>  -0.1600 
 19 C       -7.7180    -4.9320    -0.4930 C.ar  1 <1>  -0.1500 
 20 C       -7.1860    -5.5320     1.7460 C.ar  1 <1>  -0.1500 
 21 C       -3.3450    -5.8390    -0.9040 C.3   1 <1>  -0.1600 
 22 C       -3.8810    -6.2030     1.5830 C.3   1 <1>  -0.1600 
 23 C       -9.0240    -5.3500    -0.3030 C.ar  1 <1>  -0.1500 
 24 C       -8.4910    -5.9510     1.9430 C.ar  1 <1>  -0.1500 
 25 C       -3.0410    -6.6430     0.3710 C.3   1 <1>  -0.1600 
 26 C       -9.4130    -5.8630     0.9190 C.ar  1 <1>  -0.1500 
 27 H       -1.7740    -2.1720    -2.8830 H     1 <1>   0.0800 
 28 H       -2.5620     0.1410     1.4540 H     1 <1>   0.0800 
 29 H       -1.1150     1.8280     0.3980 H     1 <1>   0.0800 
 30 H       -2.7740     2.1020    -0.1100 H     1 <1>   0.0800 
 31 H       -1.4840     2.0900    -1.2880 H     1 <1>   0.0800 
 32 H       -0.0750    -2.2030    -1.0160 H     1 <1>   0.0800 
 33 H       -0.9160    -3.6880    -1.3580 H     1 <1>   0.0800 
 34 H       -3.6640    -3.2890    -2.1900 H     1 <1>   0.0800 
 35 H       -4.1160    -1.6330    -2.3530 H     1 <1>   0.0800 
 36 H       -1.7240    -1.9420     2.1120 H     1 <1>   0.0800 
 37 H       -0.4850    -1.2060     1.1360 H     1 <1>   0.0800 
 38 H       -4.5390    -0.3010     0.0170 H     1 <1>   0.0800 
 39 H       -4.3570    -1.2900     1.4220 H     1 <1>   0.0800 
 40 H       -5.3890    -6.3550    -0.9690 H     1 <1>   0.0800 
 41 H       -5.0440    -4.9530    -1.9060 H     1 <1>   0.0800 
 42 H       -3.4670    -4.1520     1.3030 H     1 <1>   0.0800 
 43 H       -4.8090    -4.3860     2.3350 H     1 <1>   0.0800 
 44 H       -7.4480    -4.5260    -1.4510 H     1 <1>   0.1500 
 45 H       -6.5190    -5.6290     2.5800 H     1 <1>   0.1500 
 46 H       -3.0770    -6.4190    -1.7700 H     1 <1>   0.0800 
 47 H       -2.7400    -4.9540    -0.9020 H     1 <1>   0.0800 
 48 H       -3.2990    -6.3100     2.4820 H     1 <1>   0.0800 
 49 H       -4.7360    -6.8510     1.6690 H     1 <1>   0.0800 
 50 H       -9.7350    -5.2700    -1.1060 H     1 <1>   0.1500 
 51 H       -8.7880    -6.3470     2.8980 H     1 <1>   0.1500 
 52 H       -1.9950    -6.5310     0.6020 H     1 <1>   0.0800 
 53 H       -3.2210    -7.6890     0.1900 H     1 <1>   0.0800 
 54 H      -10.4270    -6.1870     1.0710 H     1 <1>   0.1500 
@<TRIPOS>BOND
  1   1   2  2   
  2   2   3  am  
  3   2   4  1   
  4   3   5  1   
  5   3   6  1   
  6   4   7  1   
  7   4   8  1   
  8   4  27  1   
  9   5   9  1   
 10   5  10  1   
 11   5  28  1   
 12   6  29  1   
 13   6  30  1   
 14   6  31  1   
 15   7  11  1   
 16   7  32  1   
 17   7  33  1   
 18   8  12  1   
 19   8  34  1   
 20   8  35  1   
 21   9  11  1   
 22   9  36  1   
 23   9  37  1   
 24  10  12  1   
 25  10  38  1   
 26  10  39  1   
 27  12  13  am  
 28  13  14  2   
 29  13  15  1   
 30  15  16  1   
 31  15  17  1   
 32  15  18  1   
 33  16  19  ar  
 34  16  20  ar  
 35  17  21  1   
 36  17  40  1   
 37  17  41  1   
 38  18  22  1   
 39  18  42  1   
 40  18  43  1   
 41  19  23  ar  
 42  19  44  1   
 43  20  24  ar  
 44  20  45  1   
 45  21  25  1   
 46  21  46  1   
 47  21  47  1   
 48  22  25  1   
 49  22  48  1   
 50  22  49  1   
 51  23  26  ar  
 52  23  50  1   
 53  24  26  ar  
 54  24  51  1   
 55  25  52  1   
 56  25  53  1   
 57  26  54  1   
@<TRIPOS>SUBSTRUCTURE
  1 ****  13 GROUP 4 **** **** 0

# MOE 2024.06 (io_trps.svl 2023.06)
