@<TRIPOS>MOLECULE
NONAME
36 38 1 0 0 
SMALL
USER_CHARGES


@<TRIPOS>ATOM
  1 F        2.4430    -0.0170    -1.7530 F     1 <1>  -0.1900 
  2 C        2.6350    -0.4690    -0.5370 C.ar  1 <1>   0.1900 
  3 C        2.6100    -1.8360    -0.3130 C.ar  1 <1>   0.1900 
  4 C        2.8500     0.4240     0.5040 C.ar  1 <1>  -0.1440 
  5 F        2.4110    -2.6660    -1.3060 F     1 <1>  -0.1900 
  6 C        2.7880    -2.3540     0.9560 C.ar  1 <1>  -0.1500 
  7 C        3.0180    -0.1020     1.7820 C.ar  1 <1>  -0.1500 
  8 C        2.8800     1.9340     0.2750 C.3   1 <1>   0.2540 
  9 C        2.9910    -1.4720     2.0070 C.ar  1 <1>  -0.1500 
 10 N        4.2370     2.4600     0.0330 N.3   1 <1>  -0.8100 
 11 C        5.1490     2.2880     1.1930 C.3   1 <1>   0.1100 
 12 C        4.7920     2.0070    -1.2610 C.3   1 <1>   0.1100 
 13 C        6.4770     3.0920     1.1400 C.3   1 <1>   0.2200 
 14 C        6.0380     2.7860    -1.7330 C.3   1 <1>  -0.0190 
 15 N        6.4110     4.2600     0.2250 N.am  1 <1>  -0.7300 
 16 C        7.6810     2.1960     0.7760 C.3   1 <1>   0.1200 
 17 C        6.1640     4.1580    -1.0980 C.2   1 <1>   0.5690 
 18 C        7.3440     1.9920    -1.5680 C.3   1 <1>   0.1200 
 19 O        7.4370     1.3650    -0.3230 O.3   1 <1>  -0.5600 
 20 O        6.0770     5.1500    -1.7800 O.2   1 <1>  -0.5700 
 21 H        2.7670    -3.4170     1.1140 H     1 <1>   0.1500 
 22 H        3.1730     0.5610     2.6160 H     1 <1>   0.1500 
 23 H        2.4660     2.4310     1.1360 H     1 <1>   0.0800 
 24 H        2.2510     2.1910    -0.5600 H     1 <1>   0.0800 
 25 H        3.1280    -1.8540     3.0050 H     1 <1>   0.1500 
 26 H        4.6250     2.6060     2.0770 H     1 <1>   0.0800 
 27 H        5.3750     1.2420     1.3190 H     1 <1>   0.0800 
 28 H        5.0160     0.9540    -1.2150 H     1 <1>   0.0800 
 29 H        4.0320     2.1420    -2.0120 H     1 <1>   0.0800 
 30 H        6.6690     3.4690     2.1290 H     1 <1>   0.0800 
 31 H        5.9260     2.9500    -2.7890 H     1 <1>   0.0800 
 32 H        6.3390     5.1920     0.6310 H     1 <1>   0.3700 
 33 H        7.8930     1.5450     1.6060 H     1 <1>   0.0800 
 34 H        8.5580     2.7900     0.5840 H     1 <1>   0.0800 
 35 H        8.2050     2.6230    -1.7100 H     1 <1>   0.0800 
 36 H        7.3750     1.2090    -2.3060 H     1 <1>   0.0800 
@<TRIPOS>BOND
  1   1   2  1   
  2   2   3  ar  
  3   2   4  ar  
  4   3   5  1   
  5   3   6  ar  
  6   4   7  ar  
  7   4   8  1   
  8   6   9  ar  
  9   6  21  1   
 10   7   9  ar  
 11   7  22  1   
 12   8  10  1   
 13   8  23  1   
 14   8  24  1   
 15   9  25  1   
 16  10  11  1   
 17  10  12  1   
 18  11  13  1   
 19  11  26  1   
 20  11  27  1   
 21  12  14  1   
 22  12  28  1   
 23  12  29  1   
 24  13  15  1   
 25  13  16  1   
 26  13  30  1   
 27  14  17  1   
 28  14  18  1   
 29  14  31  1   
 30  15  17  am  
 31  15  32  1   
 32  16  19  1   
 33  16  33  1   
 34  16  34  1   
 35  17  20  2   
 36  18  19  1   
 37  18  35  1   
 38  18  36  1   
@<TRIPOS>SUBSTRUCTURE
  1 ****  10 GROUP 4 **** **** 0

# MOE 2024.06 (io_trps.svl 2023.06)
