@<TRIPOS>MOLECULE
NONAME
55 59 1 0 0 
SMALL
USER_CHARGES


@<TRIPOS>ATOM
  1 S        1.2320     0.5280    -1.5920 S.3   1 <1>  -0.0800 
  2 C        1.0910    -0.0840     0.0380 C.2   1 <1>   0.1980 
  3 C        2.6580    -0.4350    -1.8000 C.2   1 <1>  -0.1100 
  4 N        2.0020    -0.9040     0.3720 N.2   1 <1>  -0.5650 
  5 C       -0.0730     0.4120     0.8640 C.3   1 <1>  -0.0600 
  6 C        2.9230    -1.1260    -0.6700 C.2   1 <1>   0.1410 
  7 C        4.0400    -2.0390    -0.4750 C.2   1 <1>   0.7160 
  8 O        4.8380    -2.2790    -1.3640 O.2   1 <1>  -0.5700 
  9 N        4.2000    -2.6600     0.7310 N.am  1 <1>  -0.7300 
 10 C        5.2880    -3.5870     1.1010 C.3   1 <1>   0.1400 
 11 C        4.7450    -5.0130     1.2730 C.3   1 <1>  -0.0800 
 12 C        4.1320    -5.5710    -0.0240 C.3   1 <1>   0.2000 
 13 C        5.8180    -6.0920     1.5630 C.3   1 <1>  -0.0800 
 14 O        5.2360    -6.1690    -0.5930 O.3   1 <1>  -0.5600 
 15 C        3.2550    -6.7980     0.2630 C.3   1 <1>  -0.1600 
 16 C        5.5880    -7.0540     0.4050 C.3   1 <1>   0.2800 
 17 C        7.3160    -5.7320     1.4500 C.3   1 <1>   0.3430 
 18 C        4.3080    -7.8740     0.5590 C.3   1 <1>  -0.1600 
 19 C        6.9400    -7.6970     0.1180 C.3   1 <1>   0.3430 
 20 N        7.9320    -6.6120     0.3970 N.4   1 <1>  -0.9590 
 21 C        8.2070    -5.8330    -0.8490 C.3   1 <1>   0.5240 
 22 C        9.2770    -4.8090    -0.5520 C.2   1 <1>  -0.1810 
 23 C       10.5100    -4.9590    -0.0350 C.2   1 <1>  -0.0400 
 24 C        9.1840    -3.4320    -0.7710 C.2   1 <1>   0.1080 
 25 O       11.0460    -3.7740     0.0630 O.3   1 <1>  -0.0190 
 26 C       11.3340    -6.1520     0.4090 C.3   1 <1>  -0.0600 
 27 N       10.2530    -2.8440    -0.3770 N.2   1 <1>  -0.4100 
 28 C        8.0360    -2.6640    -1.3980 C.3   1 <1>  -0.0590 
 29 H        3.1690    -0.3980    -2.7450 H     1 <1>   0.1500 
 30 H       -0.0440    -0.0360     1.8400 H     1 <1>   0.0800 
 31 H       -0.9980     0.1500     0.3850 H     1 <1>   0.0800 
 32 H       -0.0170     1.4800     0.9680 H     1 <1>   0.0800 
 33 H        3.5080    -2.4050     1.4450 H     1 <1>   0.3700 
 34 H        6.0340    -3.5750     0.3280 H     1 <1>   0.0800 
 35 H        5.7390    -3.2440     2.0170 H     1 <1>   0.0800 
 36 H        4.0050    -5.0000     2.0540 H     1 <1>   0.0800 
 37 H        3.6880    -4.8490    -0.6890 H     1 <1>   0.0800 
 38 H        5.6390    -6.5740     2.5080 H     1 <1>   0.0800 
 39 H        2.5830    -6.6300     1.0860 H     1 <1>   0.0800 
 40 H        2.6830    -7.0510    -0.6130 H     1 <1>   0.0800 
 41 H        7.7940    -5.9110     2.4000 H     1 <1>   0.0800 
 42 H        7.4580    -4.6940     1.2000 H     1 <1>   0.0800 
 43 H        4.2670    -8.6600    -0.1760 H     1 <1>   0.0800 
 44 H        4.2050    -8.2940     1.5450 H     1 <1>   0.0800 
 45 H        6.9920    -8.0580    -0.8960 H     1 <1>   0.0800 
 46 H        7.0910    -8.5160     0.8010 H     1 <1>   0.0800 
 47 H        8.8280    -6.9870     0.7270 H     1 <1>   0.4500 
 48 H        8.5490    -6.4890    -1.6320 H     1 <1>   0.0800 
 49 H        7.3080    -5.3430    -1.1850 H     1 <1>   0.0800 
 50 H       10.8380    -7.0770     0.1890 H     1 <1>   0.0800 
 51 H       11.5280    -6.0900     1.4650 H     1 <1>   0.0800 
 52 H       12.2780    -6.1430    -0.1080 H     1 <1>   0.0800 
 53 H        7.3020    -3.3180    -1.8280 H     1 <1>   0.0800 
 54 H        8.4170    -2.0270    -2.1760 H     1 <1>   0.0800 
 55 H        7.5660    -2.0410    -0.6590 H     1 <1>   0.0800 
@<TRIPOS>BOND
  1   1   2  1   
  2   1   3  1   
  3   2   4  2   
  4   2   5  1   
  5   3   6  2   
  6   3  29  1   
  7   4   6  1   
  8   5  30  1   
  9   5  31  1   
 10   5  32  1   
 11   6   7  1   
 12   7   8  2   
 13   7   9  am  
 14   9  10  1   
 15   9  33  1   
 16  10  11  1   
 17  10  34  1   
 18  10  35  1   
 19  11  12  1   
 20  11  13  1   
 21  11  36  1   
 22  12  14  1   
 23  12  15  1   
 24  12  37  1   
 25  13  16  1   
 26  13  17  1   
 27  13  38  1   
 28  14  16  1   
 29  15  18  1   
 30  15  39  1   
 31  15  40  1   
 32  16  18  1   
 33  16  19  1   
 34  17  20  1   
 35  17  41  1   
 36  17  42  1   
 37  18  43  1   
 38  18  44  1   
 39  19  20  1   
 40  19  45  1   
 41  19  46  1   
 42  20  21  1   
 43  20  47  1   
 44  21  22  1   
 45  21  48  1   
 46  21  49  1   
 47  22  23  2   
 48  22  24  1   
 49  23  25  1   
 50  23  26  1   
 51  24  27  2   
 52  24  28  1   
 53  25  27  1   
 54  26  50  1   
 55  26  51  1   
 56  26  52  1   
 57  28  53  1   
 58  28  54  1   
 59  28  55  1   
@<TRIPOS>SUBSTRUCTURE
  1 ****  10 GROUP 4 **** **** 0

# MOE 2024.06 (io_trps.svl 2023.06)
