@<TRIPOS>MOLECULE
NONAME
41 42 1 0 0 
SMALL
USER_CHARGES


@<TRIPOS>ATOM
  1 O        0.3870    -0.4940    -1.5900 O.2   1 <1>  -0.5700 
  2 C        1.1710    -0.8490    -0.7320 C.2   1 <1>   0.5440 
  3 N        1.9540     0.0690    -0.0800 N.am  1 <1>  -0.4930 
  4 C        1.2700    -2.2490    -0.3890 C.ar  1 <1>   0.0860 
  5 C        2.0990     1.4620    -0.3040 C.2   1 <1>   0.0630 
  6 C        2.4930    -2.8380    -0.0750 C.ar  1 <1>   0.1600 
  7 C        0.1530    -3.0760    -0.3570 C.ar  1 <1>  -0.1500 
  8 C        1.1270     2.4460    -0.5120 C.2   1 <1>   0.1080 
  9 C        3.2740     2.1300    -0.3220 C.2   1 <1>  -0.3320 
 10 N        2.6830    -4.0940     0.2810 N.ar  1 <1>  -0.6200 
 11 C        0.3260    -4.3940     0.0010 C.ar  1 <1>  -0.1500 
 12 N        1.6480     3.6260    -0.6490 N.2   1 <1>  -0.7070 
 13 C       -0.3700     2.2390    -0.5640 C.3   1 <1>  -0.0590 
 14 N        2.9730     3.4360    -0.5370 N.pl3 1 <1>   0.3140 
 15 C        4.6900     1.5960    -0.1560 C.3   1 <1>  -0.0600 
 16 C        1.6020    -4.8600     0.3160 C.ar  1 <1>   0.3930 
 17 C        3.9100     4.5730    -0.6530 C.3   1 <1>   0.0960 
 18 O        1.8370    -6.1330     0.6810 O.3   1 <1>  -0.3630 
 19 C        4.2150     5.1770     0.7260 C.3   1 <1>  -0.1600 
 20 C        0.8330    -7.1220     0.7430 C.3   1 <1>   0.0400 
 21 C        5.2010     6.3460     0.6190 C.3   1 <1>  -0.2400 
 22 H        2.5540    -0.2800     0.6630 H     1 <1>   0.3700 
 23 H        3.3780    -2.2280    -0.1270 H     1 <1>   0.1500 
 24 H       -0.8170    -2.6830    -0.6100 H     1 <1>   0.1500 
 25 H       -0.5260    -5.0440     0.0320 H     1 <1>   0.1500 
 26 H       -0.6580     1.4390     0.0900 H     1 <1>   0.0800 
 27 H       -0.6610     1.9970    -1.5690 H     1 <1>   0.0800 
 28 H       -0.8740     3.1380    -0.2610 H     1 <1>   0.0800 
 29 H        4.6820     0.5300    -0.0220 H     1 <1>   0.0800 
 30 H        5.1590     2.0440     0.7020 H     1 <1>   0.0800 
 31 H        5.2730     1.8190    -1.0310 H     1 <1>   0.0800 
 32 H        3.4540     5.3150    -1.2840 H     1 <1>   0.0800 
 33 H        4.8110     4.2320    -1.1250 H     1 <1>   0.0800 
 34 H        4.6310     4.4210     1.3690 H     1 <1>   0.0800 
 35 H        3.2960     5.5280     1.1650 H     1 <1>   0.0800 
 36 H        1.2950    -8.0450     1.0460 H     1 <1>   0.0800 
 37 H        0.3940    -7.2370    -0.2320 H     1 <1>   0.0800 
 38 H        0.0960    -6.8290     1.4690 H     1 <1>   0.0800 
 39 H        6.1350     6.0170     0.1970 H     1 <1>   0.0800 
 40 H        5.3920     6.7550     1.5950 H     1 <1>   0.0800 
 41 H        4.7940     7.1250    -0.0020 H     1 <1>   0.0800 
@<TRIPOS>BOND
  1   1   2  2   
  2   2   3  am  
  3   2   4  1   
  4   3   5  1   
  5   3  22  1   
  6   4   6  ar  
  7   4   7  ar  
  8   5   8  1   
  9   5   9  2   
 10   6  10  ar  
 11   6  23  1   
 12   7  11  ar  
 13   7  24  1   
 14   8  12  2   
 15   8  13  1   
 16   9  14  1   
 17   9  15  1   
 18  10  16  ar  
 19  11  16  ar  
 20  11  25  1   
 21  12  14  1   
 22  13  26  1   
 23  13  27  1   
 24  13  28  1   
 25  14  17  1   
 26  15  29  1   
 27  15  30  1   
 28  15  31  1   
 29  16  18  1   
 30  17  19  1   
 31  17  32  1   
 32  17  33  1   
 33  18  20  1   
 34  19  21  1   
 35  19  34  1   
 36  19  35  1   
 37  20  36  1   
 38  20  37  1   
 39  20  38  1   
 40  21  39  1   
 41  21  40  1   
 42  21  41  1   
@<TRIPOS>SUBSTRUCTURE
  1 ****   3 GROUP 4 **** **** 0

# MOE 2024.06 (io_trps.svl 2023.06)
