@<TRIPOS>MOLECULE
NONAME
48 50 1 0 0 
SMALL
USER_CHARGES


@<TRIPOS>ATOM
  1 CL       0.2040    -0.5110    -0.4300 Cl    1 <1>  -0.1770 
  2 C       -0.4390    -2.0250     0.1540 C.ar  1 <1>   0.1770 
  3 C       -0.7890    -3.0060    -0.7410 C.ar  1 <1>  -0.1500 
  4 C       -0.5810    -2.1990     1.5340 C.ar  1 <1>  -0.1500 
  5 C       -1.3020    -4.2120    -0.2460 C.ar  1 <1>  -0.1520 
  6 C       -1.0850    -3.3820     2.0220 C.ar  1 <1>  -0.1500 
  7 N       -1.7290    -5.3530    -0.8850 N.pl3 1 <1>   0.0480 
  8 C       -1.4490    -4.3960     1.1250 C.ar  1 <1>   0.0000 
  9 C       -2.1530    -6.2620     0.0700 C.2   1 <1>  -0.2370 
 10 C       -1.6990    -5.5600    -2.3500 C.3   1 <1>   0.0160 
 11 C       -1.9810    -5.6820     1.2960 C.2   1 <1>  -0.1500 
 12 C       -2.6760    -7.5760    -0.2200 C.2   1 <1>   0.7150 
 13 O       -2.9280    -7.9470    -1.3500 O.2   1 <1>  -0.5700 
 14 N       -2.9250    -8.4300     0.8060 N.am  1 <1>  -0.7300 
 15 C       -3.4920    -9.7880     0.6620 C.3   1 <1>   0.2200 
 16 C       -5.0200    -9.6940     0.6200 C.3   1 <1>  -0.0800 
 17 C       -3.2280   -10.6180     1.9160 C.3   1 <1>   0.1200 
 18 C       -5.4680   -10.4300     1.8880 C.3   1 <1>   0.1200 
 19 C       -5.6290   -10.1670    -0.7200 C.3   1 <1>  -0.0550 
 20 O       -4.3510   -10.4320     2.7140 O.3   1 <1>  -0.5600 
 21 S       -5.4950   -11.9150    -1.1280 S.o2  1 <1>   1.3330 
 22 O       -5.8210   -12.0950    -2.5240 O.2   1 <1>  -0.6500 
 23 O       -4.2440   -12.4280    -0.6160 O.2   1 <1>  -0.6500 
 24 N       -6.7550   -12.6240    -0.2330 N.am  1 <1>  -0.8490 
 25 C       -6.4670   -14.0170     0.1230 C.3   1 <1>   0.1160 
 26 C       -8.0610   -12.5460    -0.9000 C.3   1 <1>   0.1160 
 27 H       -0.6690    -2.8410    -1.7950 H     1 <1>   0.1500 
 28 H       -0.2910    -1.4000     2.1920 H     1 <1>   0.1500 
 29 H       -1.2070    -3.5460     3.0780 H     1 <1>   0.1500 
 30 H       -1.1490    -6.4570    -2.5700 H     1 <1>   0.0800 
 31 H       -1.2270    -4.7290    -2.8380 H     1 <1>   0.0800 
 32 H       -2.7050    -5.6630    -2.7130 H     1 <1>   0.0800 
 33 H       -2.2040    -6.0980     2.2620 H     1 <1>   0.1500 
 34 H       -2.8510    -8.0860     1.7630 H     1 <1>   0.3700 
 35 H       -3.0660   -10.2650    -0.2060 H     1 <1>   0.0800 
 36 H       -5.3110    -8.6660     0.7430 H     1 <1>   0.0800 
 37 H       -2.3450   -10.3120     2.4480 H     1 <1>   0.0800 
 38 H       -3.1660   -11.6650     1.6710 H     1 <1>   0.0800 
 39 H       -5.7290   -11.4570     1.7100 H     1 <1>   0.0800 
 40 H       -6.2770    -9.9300     2.3910 H     1 <1>   0.0800 
 41 H       -5.1440    -9.6090    -1.4990 H     1 <1>   0.0800 
 42 H       -6.6630    -9.8880    -0.7420 H     1 <1>   0.0800 
 43 H       -7.2790   -14.4330     0.6950 H     1 <1>   0.0800 
 44 H       -5.5740   -14.0680     0.7250 H     1 <1>   0.0800 
 45 H       -6.3180   -14.6080    -0.7660 H     1 <1>   0.0800 
 46 H       -8.8310   -12.9220    -0.2490 H     1 <1>   0.0800 
 47 H       -8.0560   -13.1270    -1.8080 H     1 <1>   0.0800 
 48 H       -8.2930   -11.5250    -1.1470 H     1 <1>   0.0800 
@<TRIPOS>BOND
  1   1   2  1   
  2   2   3  ar  
  3   2   4  ar  
  4   3   5  ar  
  5   3  27  1   
  6   4   6  ar  
  7   4  28  1   
  8   5   7  1   
  9   5   8  ar  
 10   6   8  ar  
 11   6  29  1   
 12   7   9  1   
 13   7  10  1   
 14   8  11  1   
 15   9  11  2   
 16   9  12  1   
 17  10  30  1   
 18  10  31  1   
 19  10  32  1   
 20  11  33  1   
 21  12  13  2   
 22  12  14  am  
 23  14  15  1   
 24  14  34  1   
 25  15  16  1   
 26  15  17  1   
 27  15  35  1   
 28  16  18  1   
 29  16  19  1   
 30  16  36  1   
 31  17  20  1   
 32  17  37  1   
 33  17  38  1   
 34  18  20  1   
 35  18  39  1   
 36  18  40  1   
 37  19  21  1   
 38  19  41  1   
 39  19  42  1   
 40  21  22  2   
 41  21  23  2   
 42  21  24  am  
 43  24  25  1   
 44  24  26  1   
 45  25  43  1   
 46  25  44  1   
 47  25  45  1   
 48  26  46  1   
 49  26  47  1   
 50  26  48  1   
@<TRIPOS>SUBSTRUCTURE
  1 ****  12 GROUP 4 **** **** 0

# MOE 2024.06 (io_trps.svl 2023.06)
