@<TRIPOS>MOLECULE
NONAME
49 50 1 0 0 
SMALL
USER_CHARGES


@<TRIPOS>ATOM
  1 S        0.7180     1.2050    -1.4070 S.o2  1 <1>   1.3330 
  2 O        1.1250     2.5750    -1.6510 O.2   1 <1>  -0.6500 
  3 O        0.7610     0.2240    -2.4600 O.2   1 <1>  -0.6500 
  4 N        1.7130     0.6530    -0.1480 N.am  1 <1>  -0.8490 
  5 C       -0.9260     1.2460    -0.6660 C.3   1 <1>  -0.0550 
  6 C        3.1350     0.8420    -0.4780 C.3   1 <1>   0.1160 
  7 C        1.5250    -0.7800     0.1460 C.3   1 <1>   0.1160 
  8 C       -1.2370     2.4150     0.3060 C.3   1 <1>  -0.0800 
  9 C       -1.5580     3.7180    -0.4470 C.3   1 <1>   0.2000 
 10 C       -0.0950     2.7860     1.2640 C.3   1 <1>   0.3430 
 11 O       -2.8510     4.1210    -0.1520 O.3   1 <1>  -0.6800 
 12 C       -0.5370     4.7620     0.0230 C.3   1 <1>   0.3430 
 13 N        0.5550     3.9670     0.6510 N.4   1 <1>  -0.9590 
 14 C        1.4460     4.7360     1.5470 C.3   1 <1>   0.5230 
 15 C        1.8500     6.0090     0.8380 C.2   1 <1>  -0.3320 
 16 N        2.6880     6.0830    -0.2370 N.pl3 1 <1>   0.0480 
 17 C        1.4420     7.2620     1.1670 C.2   1 <1>  -0.1500 
 18 C        2.7860     7.3880    -0.5720 C.2   1 <1>  -0.3020 
 19 C        3.3910     4.9910    -0.9390 C.3   1 <1>   0.0160 
 20 C        2.0320     8.1700     0.2690 C.2   1 <1>  -0.0860 
 21 C        1.8360     9.5960     0.2970 C.2   1 <1>   0.5950 
 22 O        1.0930    10.1430     1.0720 O.2   1 <1>  -0.5700 
 23 C        2.5880    10.4590    -0.6910 C.3   1 <1>  -0.1790 
 24 H       -1.6520     1.2750    -1.4580 H     1 <1>   0.0800 
 25 H       -1.0940     0.3210    -0.1510 H     1 <1>   0.0800 
 26 H        3.7580     0.5020     0.3320 H     1 <1>   0.0800 
 27 H        3.3460     1.8830    -0.6490 H     1 <1>   0.0800 
 28 H        3.3910     0.2920    -1.3700 H     1 <1>   0.0800 
 29 H        2.1690    -1.0820     0.9550 H     1 <1>   0.0800 
 30 H        1.7590    -1.3810    -0.7200 H     1 <1>   0.0800 
 31 H        0.5100    -0.9840     0.4380 H     1 <1>   0.0800 
 32 H       -2.0850     2.1130     0.8970 H     1 <1>   0.0800 
 33 H       -1.4910     3.5980    -1.5160 H     1 <1>   0.0800 
 34 H        0.6000     1.9760     1.4130 H     1 <1>   0.0800 
 35 H       -0.5120     3.0650     2.2190 H     1 <1>   0.0800 
 36 H       -3.0150     4.2460     0.8040 H     1 <1>   0.4000 
 37 H       -0.9850     5.4180     0.7500 H     1 <1>   0.0800 
 38 H       -0.1610     5.3420    -0.8050 H     1 <1>   0.0800 
 39 H        1.1280     3.6290    -0.1480 H     1 <1>   0.4500 
 40 H        0.9230     4.9890     2.4550 H     1 <1>   0.0800 
 41 H        2.3190     4.1580     1.8020 H     1 <1>   0.0800 
 42 H        0.7860     7.5760     1.9640 H     1 <1>   0.1500 
 43 H        3.3910     7.7210    -1.3970 H     1 <1>   0.1500 
 44 H        4.2830     5.3790    -1.3980 H     1 <1>   0.0800 
 45 H        2.7530     4.5860    -1.7030 H     1 <1>   0.0800 
 46 H        3.6650     4.2230    -0.2410 H     1 <1>   0.0800 
 47 H        3.6420    10.2670    -0.6140 H     1 <1>   0.0800 
 48 H        2.4070    11.4970    -0.4820 H     1 <1>   0.0800 
 49 H        2.2550    10.2400    -1.6880 H     1 <1>   0.0800 
@<TRIPOS>BOND
  1   1   2  2   
  2   1   3  2   
  3   1   4  am  
  4   1   5  1   
  5   4   6  1   
  6   4   7  1   
  7   5   8  1   
  8   5  24  1   
  9   5  25  1   
 10   6  26  1   
 11   6  27  1   
 12   6  28  1   
 13   7  29  1   
 14   7  30  1   
 15   7  31  1   
 16   8   9  1   
 17   8  10  1   
 18   8  32  1   
 19   9  11  1   
 20   9  12  1   
 21   9  33  1   
 22  10  13  1   
 23  10  34  1   
 24  10  35  1   
 25  11  36  1   
 26  12  13  1   
 27  12  37  1   
 28  12  38  1   
 29  13  14  1   
 30  13  39  1   
 31  14  15  1   
 32  14  40  1   
 33  14  41  1   
 34  15  16  1   
 35  15  17  2   
 36  16  18  1   
 37  16  19  1   
 38  17  20  1   
 39  17  42  1   
 40  18  20  2   
 41  18  43  1   
 42  19  44  1   
 43  19  45  1   
 44  19  46  1   
 45  20  21  1   
 46  21  22  2   
 47  21  23  1   
 48  23  47  1   
 49  23  48  1   
 50  23  49  1   
@<TRIPOS>SUBSTRUCTURE
  1 ****  13 GROUP 4 **** **** 0

# MOE 2024.06 (io_trps.svl 2023.06)
