@<TRIPOS>MOLECULE
NONAME
59 61 1 0 0 
SMALL
USER_CHARGES


@<TRIPOS>ATOM
  1 F       -0.0230    -2.5320    -1.9910 F     1 <1>  -0.1900 
  2 C       -1.1240    -2.5060    -1.2900 C.ar  1 <1>   0.1900 
  3 C       -2.0750    -1.5460    -1.5780 C.ar  1 <1>  -0.1500 
  4 C       -1.2980    -3.4390    -0.2870 C.ar  1 <1>  -0.1500 
  5 C       -3.2420    -1.5220    -0.8320 C.ar  1 <1>  -0.1500 
  6 C       -2.4690    -3.4050     0.4510 C.ar  1 <1>  -0.1500 
  7 C       -3.4430    -2.4490     0.1840 C.ar  1 <1>  -0.1430 
  8 C       -4.7240    -2.4220     1.0110 C.3   1 <1>   0.2540 
  9 N       -5.3760    -3.7420     1.0400 N.3   1 <1>  -0.8100 
 10 C       -6.4630    -3.7900     2.0630 C.3   1 <1>   0.1710 
 11 C       -5.7950    -4.1920    -0.2950 C.3   1 <1>   0.0300 
 12 C       -7.0840    -5.1760     2.3390 C.2   1 <1>   0.5690 
 13 O       -6.5170    -5.8670     3.1560 O.2   1 <1>  -0.5700 
 14 N       -8.2520    -5.6080     1.7340 N.am  1 <1>  -0.6600 
 15 C       -9.0190    -4.7980     0.7390 C.3   1 <1>   0.2200 
 16 C       -8.7790    -6.9670     2.0820 C.3   1 <1>   0.0600 
 17 C      -10.3010    -4.2190     1.3230 C.3   1 <1>  -0.1600 
 18 C       -9.4930    -5.5680    -0.4920 C.3   1 <1>  -0.1600 
 19 C      -11.1490    -3.8480     0.0970 C.3   1 <1>  -0.0800 
 20 C      -10.6210    -4.7010    -1.0700 C.3   1 <1>  -0.0800 
 21 C      -12.6400    -4.1810     0.2470 C.3   1 <1>  -0.1600 
 22 C      -11.8160    -5.5060    -1.5980 C.3   1 <1>  -0.1600 
 23 C      -12.8030    -5.5390    -0.4350 C.3   1 <1>   0.4230 
 24 N      -14.2010    -5.8610    -0.8620 N.4   1 <1>  -0.9590 
 25 C      -14.8430    -4.8630    -1.7820 C.3   1 <1>   0.2630 
 26 C      -15.0770    -6.0910     0.3290 C.3   1 <1>   0.2630 
 27 H       -1.9010    -0.8370    -2.3680 H     1 <1>   0.1500 
 28 H       -0.5390    -4.1740    -0.0910 H     1 <1>   0.1500 
 29 H       -3.9900    -0.7800    -1.0470 H     1 <1>   0.1500 
 30 H       -2.6340    -4.1260     1.2350 H     1 <1>   0.1500 
 31 H       -5.4070    -1.6890     0.6170 H     1 <1>   0.0800 
 32 H       -4.4640    -2.1330     2.0150 H     1 <1>   0.0800 
 33 H       -6.0440    -3.4680     3.0000 H     1 <1>   0.0800 
 34 H       -7.2310    -3.0840     1.8140 H     1 <1>   0.0800 
 35 H       -4.9410    -4.2520    -0.9480 H     1 <1>   0.0800 
 36 H       -6.5100    -3.5100    -0.7190 H     1 <1>   0.0800 
 37 H       -6.2260    -5.1770    -0.2340 H     1 <1>   0.0800 
 38 H       -8.4210    -3.9800     0.3840 H     1 <1>   0.0800 
 39 H       -9.8530    -6.9680     2.1030 H     1 <1>   0.0800 
 40 H       -8.4300    -7.2760     3.0530 H     1 <1>   0.0800 
 41 H       -8.4340    -7.6820     1.3570 H     1 <1>   0.0800 
 42 H      -10.8000    -4.9600     1.9190 H     1 <1>   0.0800 
 43 H      -10.0930    -3.3570     1.9330 H     1 <1>   0.0800 
 44 H       -8.6930    -5.6980    -1.1990 H     1 <1>   0.0800 
 45 H       -9.8800    -6.5310    -0.2170 H     1 <1>   0.0800 
 46 H      -11.0170    -2.8000    -0.1240 H     1 <1>   0.0800 
 47 H      -10.2200    -4.0630    -1.8420 H     1 <1>   0.0800 
 48 H      -13.1990    -3.4200    -0.2650 H     1 <1>   0.0800 
 49 H      -12.9420    -4.2080     1.2790 H     1 <1>   0.0800 
 50 H      -11.5280    -6.4940    -1.9110 H     1 <1>   0.0800 
 51 H      -12.2240    -4.9750    -2.4380 H     1 <1>   0.0800 
 52 H      -12.4600    -6.2940     0.2550 H     1 <1>   0.0800 
 53 H      -14.1420    -6.7530    -1.3770 H     1 <1>   0.4500 
 54 H      -14.9560    -3.9120    -1.2890 H     1 <1>   0.0800 
 55 H      -15.8190    -5.2080    -2.0810 H     1 <1>   0.0800 
 56 H      -14.2480    -4.7250    -2.6690 H     1 <1>   0.0800 
 57 H      -15.1780    -5.1830     0.9010 H     1 <1>   0.0800 
 58 H      -14.6550    -6.8540     0.9640 H     1 <1>   0.0800 
 59 H      -16.0580    -6.4110     0.0160 H     1 <1>   0.0800 
@<TRIPOS>BOND
  1   1   2  1   
  2   2   3  ar  
  3   2   4  ar  
  4   3   5  ar  
  5   3  27  1   
  6   4   6  ar  
  7   4  28  1   
  8   5   7  ar  
  9   5  29  1   
 10   6   7  ar  
 11   6  30  1   
 12   7   8  1   
 13   8   9  1   
 14   8  31  1   
 15   8  32  1   
 16   9  10  1   
 17   9  11  1   
 18  10  12  1   
 19  10  33  1   
 20  10  34  1   
 21  11  35  1   
 22  11  36  1   
 23  11  37  1   
 24  12  13  2   
 25  12  14  am  
 26  14  15  1   
 27  14  16  1   
 28  15  17  1   
 29  15  18  1   
 30  15  38  1   
 31  16  39  1   
 32  16  40  1   
 33  16  41  1   
 34  17  19  1   
 35  17  42  1   
 36  17  43  1   
 37  18  20  1   
 38  18  44  1   
 39  18  45  1   
 40  19  20  1   
 41  19  21  1   
 42  19  46  1   
 43  20  22  1   
 44  20  47  1   
 45  21  23  1   
 46  21  48  1   
 47  21  49  1   
 48  22  23  1   
 49  22  50  1   
 50  22  51  1   
 51  23  24  1   
 52  23  52  1   
 53  24  25  1   
 54  24  26  1   
 55  24  53  1   
 56  25  54  1   
 57  25  55  1   
 58  25  56  1   
 59  26  57  1   
 60  26  58  1   
 61  26  59  1   
@<TRIPOS>SUBSTRUCTURE
  1 ****  15 GROUP 4 **** **** 0

# MOE 2024.06 (io_trps.svl 2023.06)
