@<TRIPOS>MOLECULE
NONAME
43 45 1 0 0 
SMALL
USER_CHARGES


@<TRIPOS>ATOM
  1 S       -0.8470    -0.5200    -1.0660 S.3   1 <1>  -0.0800 
  2 C       -1.7420    -0.9340     0.3930 C.2   1 <1>  -0.1400 
  3 C       -1.0710     1.1950    -0.7730 C.2   1 <1>  -0.1100 
  4 C       -2.1550     0.1850     1.0190 C.2   1 <1>  -0.1500 
  5 C       -1.9210    -2.4050     0.7390 C.3   1 <1>   0.3800 
  6 C       -1.7750     1.3950     0.3560 C.2   1 <1>  -0.1500 
  7 O       -0.6580    -2.9370     0.8940 O.3   1 <1>  -0.6800 
  8 C       -2.6880    -3.2030    -0.3380 C.3   1 <1>  -0.0800 
  9 C       -4.0920    -2.6100    -0.5780 C.3   1 <1>  -0.1600 
 10 C       -2.8180    -4.6940     0.0400 C.3   1 <1>  -0.1600 
 11 C       -4.8850    -3.4190    -1.6070 C.3   1 <1>   0.1400 
 12 C       -3.6340    -5.4860    -0.9860 C.3   1 <1>   0.1400 
 13 N       -4.9610    -4.8400    -1.1730 N.am  1 <1>  -0.6600 
 14 C       -6.1730    -5.4770    -0.9460 C.2   1 <1>   0.5440 
 15 O       -7.1760    -4.7830    -0.8800 O.2   1 <1>  -0.5700 
 16 C       -6.3060    -6.9240    -0.7460 C.ar  1 <1>   0.3960 
 17 N       -5.6820    -7.7890    -1.5700 N.ar  1 <1>  -0.6200 
 18 C       -7.0970    -7.3750     0.3070 C.ar  1 <1>  -0.1500 
 19 C       -5.8540    -9.0760    -1.3330 C.ar  1 <1>   0.1600 
 20 C       -7.2610    -8.7200     0.5490 C.ar  1 <1>   0.0830 
 21 C       -6.6170    -9.5940    -0.3050 C.ar  1 <1>  -0.1500 
 22 O       -8.0340    -9.0910     1.5920 O.3   1 <1>  -0.3620 
 23 C       -8.2780   -10.4480     1.8860 C.3   1 <1>   0.0400 
 24 H       -0.6470     1.8790    -1.4860 H     1 <1>   0.1500 
 25 H       -2.7190     0.2170     1.9350 H     1 <1>   0.1500 
 26 H       -2.4260    -2.4990     1.6840 H     1 <1>   0.0800 
 27 H       -2.0480     2.3540     0.7600 H     1 <1>   0.1500 
 28 H       -0.0700    -2.5010     0.2480 H     1 <1>   0.4000 
 29 H       -2.1420    -3.1360    -1.2630 H     1 <1>   0.0800 
 30 H       -4.0110    -1.5980    -0.9340 H     1 <1>   0.0800 
 31 H       -4.6500    -2.5900     0.3420 H     1 <1>   0.0800 
 32 H       -3.2920    -4.7880     1.0010 H     1 <1>   0.0800 
 33 H       -1.8420    -5.1400     0.1160 H     1 <1>   0.0800 
 34 H       -4.3970    -3.3730    -2.5650 H     1 <1>   0.0800 
 35 H       -5.8690    -2.9970    -1.7180 H     1 <1>   0.0800 
 36 H       -3.7370    -6.4970    -0.6370 H     1 <1>   0.0800 
 37 H       -3.1190    -5.5090    -1.9310 H     1 <1>   0.0800 
 38 H       -7.5900    -6.6610     0.9400 H     1 <1>   0.1500 
 39 H       -5.3560    -9.7620    -1.9990 H     1 <1>   0.1500 
 40 H       -6.6940   -10.6580    -0.1910 H     1 <1>   0.1500 
 41 H       -8.9230   -10.4930     2.7450 H     1 <1>   0.0800 
 42 H       -7.3430   -10.9330     2.1050 H     1 <1>   0.0800 
 43 H       -8.7620   -10.9070     1.0410 H     1 <1>   0.0800 
@<TRIPOS>BOND
  1   1   2  1   
  2   1   3  1   
  3   2   4  2   
  4   2   5  1   
  5   3   6  2   
  6   3  24  1   
  7   4   6  1   
  8   4  25  1   
  9   5   7  1   
 10   5   8  1   
 11   5  26  1   
 12   6  27  1   
 13   7  28  1   
 14   8   9  1   
 15   8  10  1   
 16   8  29  1   
 17   9  11  1   
 18   9  30  1   
 19   9  31  1   
 20  10  12  1   
 21  10  32  1   
 22  10  33  1   
 23  11  13  1   
 24  11  34  1   
 25  11  35  1   
 26  12  13  1   
 27  12  36  1   
 28  12  37  1   
 29  13  14  am  
 30  14  15  2   
 31  14  16  1   
 32  16  17  ar  
 33  16  18  ar  
 34  17  19  ar  
 35  18  20  ar  
 36  18  38  1   
 37  19  21  ar  
 38  19  39  1   
 39  20  21  ar  
 40  20  22  1   
 41  21  40  1   
 42  22  23  1   
 43  23  41  1   
 44  23  42  1   
 45  23  43  1   
@<TRIPOS>SUBSTRUCTURE
  1 ****  13 GROUP 4 **** **** 0

# MOE 2024.06 (io_trps.svl 2023.06)
