@<TRIPOS>MOLECULE
NONAME
48 52 1 0 0 
SMALL
USER_CHARGES


@<TRIPOS>ATOM
  1 S       -2.1860     0.6000     2.2240 S.3   1 <1>  -0.0800 
  2 C       -2.3450    -0.3260     0.7400 C.2   1 <1>  -0.1400 
  3 C       -1.5790    -0.8030     3.0860 C.2   1 <1>  -0.1100 
  4 C       -1.9490    -1.5980     0.9340 C.2   1 <1>  -0.1500 
  5 C       -2.8810     0.4080    -0.4810 C.3   1 <1>   0.0810 
  6 C       -1.5150    -1.8710     2.2700 C.2   1 <1>  -0.1500 
  7 C       -3.4520    -0.5390    -1.5280 C.2   1 <1>   0.5690 
  8 O       -2.8150    -0.6850    -2.5460 O.2   1 <1>  -0.5700 
  9 N       -4.6420    -1.2000    -1.3230 N.am  1 <1>  -0.6600 
 10 C       -5.4600    -1.1430    -0.0770 C.3   1 <1>   0.1400 
 11 C       -5.2090    -2.1160    -2.3510 C.3   1 <1>   0.1400 
 12 C       -5.5350    -2.5430     0.5340 C.3   1 <1>  -0.1600 
 13 C       -5.2820    -3.5300    -1.7730 C.3   1 <1>  -0.1600 
 14 C       -6.0850    -3.5660    -0.4690 C.3   1 <1>   0.4600 
 15 O       -7.4090    -3.2110    -0.8090 O.3   1 <1>  -0.5600 
 16 C       -6.0740    -4.9720     0.1200 C.2   1 <1>  -0.3320 
 17 C       -8.4450    -3.5890     0.0660 C.3   1 <1>   0.1200 
 18 N       -4.9690    -5.7110     0.4380 N.pl3 1 <1>   0.0330 
 19 C       -7.1820    -5.6840     0.4060 C.2   1 <1>  -0.1810 
 20 C       -8.5600    -5.1200     0.1660 C.3   1 <1>   0.0210 
 21 C       -5.3940    -6.9200     0.9320 C.ar  1 <1>  -0.1520 
 22 C       -6.7870    -6.9350     0.9220 C.ar  1 <1>   0.0000 
 23 C       -4.6700    -8.0220     1.3940 C.ar  1 <1>  -0.1500 
 24 C       -7.4700    -8.0670     1.3780 C.ar  1 <1>  -0.1500 
 25 C       -5.3550    -9.1280     1.8410 C.ar  1 <1>  -0.1500 
 26 C       -6.7550    -9.1510     1.8330 C.ar  1 <1>  -0.1500 
 27 H       -1.3310    -0.6760     4.1250 H     1 <1>   0.1500 
 28 H       -1.9410    -2.3690     0.1820 H     1 <1>   0.1500 
 29 H       -2.0830     0.9770    -0.9210 H     1 <1>   0.0800 
 30 H       -3.6470     1.1000    -0.1890 H     1 <1>   0.0800 
 31 H       -1.1750    -2.8520     2.5520 H     1 <1>   0.1500 
 32 H       -6.4510    -0.8000    -0.3240 H     1 <1>   0.0800 
 33 H       -5.0440    -0.4620     0.6420 H     1 <1>   0.0800 
 34 H       -4.6020    -2.1200    -3.2410 H     1 <1>   0.0800 
 35 H       -6.1950    -1.7780    -2.6230 H     1 <1>   0.0800 
 36 H       -6.1420    -2.5290     1.4180 H     1 <1>   0.0800 
 37 H       -4.5480    -2.8370     0.8350 H     1 <1>   0.0800 
 38 H       -4.2810    -3.8760    -1.5970 H     1 <1>   0.0800 
 39 H       -5.7370    -4.1940    -2.4840 H     1 <1>   0.0800 
 40 H       -9.3610    -3.1730    -0.3110 H     1 <1>   0.0800 
 41 H       -8.2460    -3.1670     1.0350 H     1 <1>   0.0800 
 42 H       -3.9900    -5.4340     0.3210 H     1 <1>   0.2700 
 43 H       -8.9620    -5.5190    -0.7470 H     1 <1>   0.0800 
 44 H       -9.2150    -5.3820     0.9760 H     1 <1>   0.0800 
 45 H       -3.5950    -7.9970     1.3960 H     1 <1>   0.1500 
 46 H       -8.5440    -8.0700     1.3650 H     1 <1>   0.1500 
 47 H       -4.8200    -9.9900     2.2010 H     1 <1>   0.1500 
 48 H       -7.2670   -10.0290     2.1870 H     1 <1>   0.1500 
@<TRIPOS>BOND
  1   1   2  1   
  2   1   3  1   
  3   2   4  2   
  4   2   5  1   
  5   3   6  2   
  6   3  27  1   
  7   4   6  1   
  8   4  28  1   
  9   5   7  1   
 10   5  29  1   
 11   5  30  1   
 12   6  31  1   
 13   7   8  2   
 14   7   9  am  
 15   9  10  1   
 16   9  11  1   
 17  10  12  1   
 18  10  32  1   
 19  10  33  1   
 20  11  13  1   
 21  11  34  1   
 22  11  35  1   
 23  12  14  1   
 24  12  36  1   
 25  12  37  1   
 26  13  14  1   
 27  13  38  1   
 28  13  39  1   
 29  14  15  1   
 30  14  16  1   
 31  15  17  1   
 32  16  18  1   
 33  16  19  2   
 34  17  20  1   
 35  17  40  1   
 36  17  41  1   
 37  18  21  1   
 38  18  42  1   
 39  19  20  1   
 40  19  22  1   
 41  20  43  1   
 42  20  44  1   
 43  21  22  ar  
 44  21  23  ar  
 45  22  24  ar  
 46  23  25  ar  
 47  23  45  1   
 48  24  26  ar  
 49  24  46  1   
 50  25  26  ar  
 51  25  47  1   
 52  26  48  1   
@<TRIPOS>SUBSTRUCTURE
  1 ****  12 GROUP 4 **** **** 0

# MOE 2024.06 (io_trps.svl 2023.06)
