@<TRIPOS>MOLECULE
NONAME
48 51 1 0 0 
SMALL
USER_CHARGES


@<TRIPOS>ATOM
  1 O       -0.5200     0.6140     1.1920 O.2   1 <1>  -0.5700 
  2 C       -1.4490     1.0950     0.5860 C.2   1 <1>   0.5690 
  3 N       -2.5010     0.3250     0.1790 N.am  1 <1>  -0.6600 
  4 C       -1.4480     2.5800     0.2700 C.3   1 <1>  -0.0990 
  5 C       -3.7100     0.7840    -0.5530 C.3   1 <1>   0.1400 
  6 C       -2.5730    -1.1340     0.4380 C.3   1 <1>   0.1400 
  7 C       -0.1420     3.2920     0.6600 C.3   1 <1>   0.0200 
  8 C       -4.7200    -0.3440    -0.3500 C.3   1 <1>   0.2000 
  9 C       -3.8490    -1.6030    -0.2730 C.3   1 <1>  -0.0800 
 10 C       -0.1660     4.7750     0.3190 C.2   1 <1>   0.0060 
 11 O       -5.3520    -0.1410     0.8670 O.3   1 <1>  -0.6800 
 12 C       -4.5230    -2.8190     0.3920 C.3   1 <1>   0.0200 
 13 N       -1.1420     5.3910    -0.2550 N.2   1 <1>  -0.5650 
 14 N        0.8880     5.5790     0.6100 N.pl3 1 <1>   0.0330 
 15 C       -3.6830    -4.0830     0.3170 C.2   1 <1>  -0.0400 
 16 C       -0.7200     6.6820    -0.3530 C.ar  1 <1>   0.2270 
 17 C        0.5460     6.8190     0.1820 C.ar  1 <1>  -0.1520 
 18 O       -4.0940    -5.1460     0.9560 O.3   1 <1>  -0.0190 
 19 C       -2.5310    -4.4000    -0.2990 C.2   1 <1>  -0.1500 
 20 C       -1.3710     7.7920    -0.8900 C.ar  1 <1>  -0.1500 
 21 C        1.1990     8.0540     0.1980 C.ar  1 <1>  -0.1500 
 22 N       -3.2820    -6.1520     0.8050 N.2   1 <1>  -0.4100 
 23 C       -2.3290    -5.7310     0.0540 C.2   1 <1>   0.1080 
 24 C       -0.7360     9.0150    -0.8790 C.ar  1 <1>  -0.1500 
 25 C        0.5480     9.1450    -0.3350 C.ar  1 <1>  -0.1500 
 26 C       -1.1530    -6.5750    -0.3810 C.3   1 <1>  -0.0590 
 27 H       -1.6080     2.7080    -0.7840 H     1 <1>   0.0800 
 28 H       -2.2640     3.0420     0.7950 H     1 <1>   0.0800 
 29 H       -4.0820     1.7220    -0.1790 H     1 <1>   0.0800 
 30 H       -3.4700     0.8790    -1.5970 H     1 <1>   0.0800 
 31 H       -1.6950    -1.6270     0.0570 H     1 <1>   0.0800 
 32 H       -2.6370    -1.2980     1.5000 H     1 <1>   0.0800 
 33 H        0.6800     2.8270     0.1440 H     1 <1>   0.0800 
 34 H        0.0180     3.1790     1.7180 H     1 <1>   0.0800 
 35 H       -5.4700    -0.3860    -1.1220 H     1 <1>   0.0800 
 36 H       -3.5820    -1.8710    -1.2800 H     1 <1>   0.0800 
 37 H       -4.6740     0.0510     1.5470 H     1 <1>   0.4000 
 38 H       -5.4660    -3.0100    -0.0880 H     1 <1>   0.0800 
 39 H       -4.7240    -2.6080     1.4270 H     1 <1>   0.0800 
 40 H        1.7660     5.3120     1.0620 H     1 <1>   0.2700 
 41 H       -1.8860    -3.8100    -0.9220 H     1 <1>   0.1500 
 42 H       -2.3540     7.6620    -1.3010 H     1 <1>   0.1500 
 43 H        2.1850     8.1430     0.6190 H     1 <1>   0.1500 
 44 H       -1.2240     9.8830    -1.2900 H     1 <1>   0.1500 
 45 H        1.0220    10.1110    -0.3380 H     1 <1>   0.1500 
 46 H       -0.2370    -6.1280    -0.0420 H     1 <1>   0.0800 
 47 H       -1.1360    -6.6530    -1.4520 H     1 <1>   0.0800 
 48 H       -1.2340    -7.5620     0.0390 H     1 <1>   0.0800 
@<TRIPOS>BOND
  1   1   2  2   
  2   2   3  am  
  3   2   4  1   
  4   3   5  1   
  5   3   6  1   
  6   4   7  1   
  7   4  27  1   
  8   4  28  1   
  9   5   8  1   
 10   5  29  1   
 11   5  30  1   
 12   6   9  1   
 13   6  31  1   
 14   6  32  1   
 15   7  10  1   
 16   7  33  1   
 17   7  34  1   
 18   8   9  1   
 19   8  11  1   
 20   8  35  1   
 21   9  12  1   
 22   9  36  1   
 23  10  13  2   
 24  10  14  1   
 25  11  37  1   
 26  12  15  1   
 27  12  38  1   
 28  12  39  1   
 29  13  16  1   
 30  14  17  1   
 31  14  40  1   
 32  15  18  1   
 33  15  19  2   
 34  16  17  ar  
 35  16  20  ar  
 36  17  21  ar  
 37  18  22  1   
 38  19  23  1   
 39  19  41  1   
 40  20  24  ar  
 41  20  42  1   
 42  21  25  ar  
 43  21  43  1   
 44  22  23  2   
 45  23  26  1   
 46  24  25  ar  
 47  24  44  1   
 48  25  45  1   
 49  26  46  1   
 50  26  47  1   
 51  26  48  1   
@<TRIPOS>SUBSTRUCTURE
  1 ****   2 GROUP 4 **** **** 0

# MOE 2024.06 (io_trps.svl 2023.06)
