@<TRIPOS>MOLECULE
NONAME
47 49 1 0 0 
SMALL
USER_CHARGES


@<TRIPOS>ATOM
  1 N        0.3900    -0.5670    -0.7720 N.ar  1 <1>  -0.6200 
  2 C        1.3490     0.2720    -0.4050 C.ar  1 <1>   0.7710 
  3 C        0.5860    -1.8520    -0.5970 C.ar  1 <1>   0.4100 
  4 N        2.4980    -0.1730     0.1370 N.ar  1 <1>  -0.1790 
  5 N        1.1750     1.6110    -0.5710 N.pl3 1 <1>  -0.8380 
  6 N       -0.4330    -2.6300    -0.9890 N.pl3 1 <1>  -0.8690 
  7 C        1.7760    -2.3600    -0.0460 C.ar  1 <1>  -0.1500 
  8 C        2.7450    -1.4900     0.3270 C.ar  1 <1>   0.2170 
  9 C       -0.1490     2.1890    -0.9820 C.3   1 <1>   0.2090 
 10 C        2.1940     2.6900    -0.3740 C.3   1 <1>   0.2090 
 11 C       -0.6490    -4.0850    -0.8620 C.3   1 <1>   0.2090 
 12 C        4.0710    -1.9110     0.9380 C.3   1 <1>  -0.0970 
 13 C       -0.6580     3.1140     0.1290 C.3   1 <1>  -0.1600 
 14 C        1.7390     3.6080     0.7640 C.3   1 <1>  -0.1600 
 15 C       -2.1120    -4.3180    -0.4980 C.3   1 <1>  -0.1600 
 16 C        0.3590     4.2140     0.4720 C.3   1 <1>  -0.1600 
 17 C       -2.4180    -5.8140    -0.3510 C.3   1 <1>   0.0960 
 18 N       -3.8510    -6.0220    -0.0770 N.pl3 1 <1>   0.3140 
 19 N       -4.7670    -5.9900    -1.0620 N.2   1 <1>  -0.7070 
 20 C       -4.4260    -6.2550     1.1190 C.2   1 <1>  -0.3020 
 21 C       -5.9010    -6.2040    -0.4680 C.2   1 <1>   0.1390 
 22 C       -5.7530    -6.3780     0.9020 C.2   1 <1>  -0.1500 
 23 H        3.1520     0.5470     0.4120 H     1 <1>   0.4570 
 24 H       -1.2150    -2.1320    -1.4300 H     1 <1>   0.4000 
 25 H        1.8920    -3.4200     0.0630 H     1 <1>   0.1500 
 26 H       -0.8880     1.4290    -1.1670 H     1 <1>   0.0800 
 27 H       -0.0260     2.7490    -1.8940 H     1 <1>   0.0800 
 28 H        2.2750     3.2650    -1.2830 H     1 <1>   0.0800 
 29 H        3.1680     2.2940    -0.1560 H     1 <1>   0.0800 
 30 H       -0.0130    -4.4960    -0.0980 H     1 <1>   0.0800 
 31 H       -0.4220    -4.5600    -1.8030 H     1 <1>   0.0800 
 32 H        4.1830    -1.4910     1.9220 H     1 <1>   0.0800 
 33 H        4.8900    -1.5860     0.3200 H     1 <1>   0.0800 
 34 H        4.1230    -2.9830     1.0240 H     1 <1>   0.0800 
 35 H       -0.8650     2.5230     1.0050 H     1 <1>   0.0800 
 36 H       -1.5830     3.5660    -0.1830 H     1 <1>   0.0800 
 37 H        2.4540     4.4020     0.8910 H     1 <1>   0.0800 
 38 H        1.7010     3.0500     1.6830 H     1 <1>   0.0800 
 39 H       -2.7370    -3.9130    -1.2760 H     1 <1>   0.0800 
 40 H       -2.3340    -3.8170     0.4280 H     1 <1>   0.0800 
 41 H        0.0160     4.7740     1.3250 H     1 <1>   0.0800 
 42 H        0.4360     4.8950    -0.3590 H     1 <1>   0.0800 
 43 H       -1.8490    -6.2420     0.4540 H     1 <1>   0.0800 
 44 H       -2.1790    -6.3340    -1.2610 H     1 <1>   0.0800 
 45 H       -3.8750    -6.3180     2.0390 H     1 <1>   0.1500 
 46 H       -6.8440    -6.2400    -0.9880 H     1 <1>   0.1500 
 47 H       -6.5420    -6.5670     1.6070 H     1 <1>   0.1500 
@<TRIPOS>BOND
  1   1   2  ar  
  2   1   3  ar  
  3   2   4  ar  
  4   2   5  1   
  5   3   6  1   
  6   3   7  ar  
  7   4   8  ar  
  8   4  23  1   
  9   5   9  1   
 10   5  10  1   
 11   6  11  1   
 12   6  24  1   
 13   7   8  ar  
 14   7  25  1   
 15   8  12  1   
 16   9  13  1   
 17   9  26  1   
 18   9  27  1   
 19  10  14  1   
 20  10  28  1   
 21  10  29  1   
 22  11  15  1   
 23  11  30  1   
 24  11  31  1   
 25  12  32  1   
 26  12  33  1   
 27  12  34  1   
 28  13  16  1   
 29  13  35  1   
 30  13  36  1   
 31  14  16  1   
 32  14  37  1   
 33  14  38  1   
 34  15  17  1   
 35  15  39  1   
 36  15  40  1   
 37  16  41  1   
 38  16  42  1   
 39  17  18  1   
 40  17  43  1   
 41  17  44  1   
 42  18  19  1   
 43  18  20  1   
 44  19  21  2   
 45  20  22  2   
 46  20  45  1   
 47  21  22  1   
 48  21  46  1   
 49  22  47  1   
@<TRIPOS>SUBSTRUCTURE
  1 ****   6 GROUP 4 **** **** 0

# MOE 2024.06 (io_trps.svl 2023.06)
