@<TRIPOS>MOLECULE
NONAME
41 42 1 0 0 
SMALL
USER_CHARGES


@<TRIPOS>ATOM
  1 O        1.9400     0.1380     1.5830 O.2   1 <1>  -0.5700 
  2 C        1.8790     0.6180     0.4650 C.2   1 <1>   0.5440 
  3 N        1.2420     1.8210     0.3060 N.am  1 <1>  -0.7300 
  4 C        2.4570    -0.0510    -0.6780 C.ar  1 <1>   0.0860 
  5 C        0.6020     2.6090     1.3910 C.3   1 <1>   0.0600 
  6 C        2.3240    -1.4420    -0.8600 C.ar  1 <1>   0.4100 
  7 C        3.1600     0.6620    -1.6410 C.ar  1 <1>  -0.1500 
  8 N        2.8250    -2.1040    -1.9010 N.ar  1 <1>  -0.6200 
  9 N        1.6370    -2.1940     0.0600 N.pl3 1 <1>  -0.8690 
 10 C        3.6750    -0.0260    -2.7160 C.ar  1 <1>  -0.1500 
 11 C        3.4790    -1.3920    -2.7960 C.ar  1 <1>   0.1600 
 12 C        1.6760    -3.6660     0.1650 C.3   1 <1>   0.4330 
 13 C        0.3550    -4.2250    -0.3520 C.ar  1 <1>  -0.1430 
 14 C        1.9570    -4.0740     1.6340 C.3   1 <1>  -0.0800 
 15 C       -0.8560    -3.7910     0.1690 C.ar  1 <1>   0.1600 
 16 C        0.3390    -5.1790    -1.3510 C.ar  1 <1>  -0.1500 
 17 C        3.2810    -3.4890     2.1590 C.3   1 <1>  -0.2400 
 18 C        1.9920    -5.6040     1.8040 C.3   1 <1>  -0.2400 
 19 N       -2.0490    -4.2350    -0.2000 N.ar  1 <1>  -0.6200 
 20 C       -0.8930    -5.6470    -1.7550 C.ar  1 <1>  -0.1500 
 21 C       -2.0370    -5.1500    -1.1540 C.ar  1 <1>   0.1600 
 22 H        1.0670     2.1550    -0.6440 H     1 <1>   0.3700 
 23 H        0.8740     2.2140     2.3550 H     1 <1>   0.0800 
 24 H       -0.4680     2.5650     1.2880 H     1 <1>   0.0800 
 25 H        0.9230     3.6340     1.3350 H     1 <1>   0.0800 
 26 H        3.3030     1.7230    -1.5450 H     1 <1>   0.1500 
 27 H        1.4960    -1.7250     0.9660 H     1 <1>   0.4000 
 28 H        4.2250     0.4850    -3.4860 H     1 <1>   0.1500 
 29 H        3.8840    -1.9240    -3.6410 H     1 <1>   0.1500 
 30 H        2.4780    -4.0500    -0.4420 H     1 <1>   0.0800 
 31 H        1.1560    -3.6970     2.2460 H     1 <1>   0.0800 
 32 H       -0.8420    -3.0340     0.9330 H     1 <1>   0.1500 
 33 H        1.2480    -5.5410    -1.8000 H     1 <1>   0.1500 
 34 H        4.1050    -3.8100     1.5470 H     1 <1>   0.0800 
 35 H        3.4590    -3.8070     3.1710 H     1 <1>   0.0800 
 36 H        3.2550    -2.4130     2.1540 H     1 <1>   0.0800 
 37 H        2.7620    -6.0360     1.1900 H     1 <1>   0.0800 
 38 H        1.0470    -6.0400     1.5300 H     1 <1>   0.0800 
 39 H        2.1870    -5.8610     2.8310 H     1 <1>   0.0800 
 40 H       -0.9680    -6.3880    -2.5290 H     1 <1>   0.1500 
 41 H       -2.9930    -5.5240    -1.4780 H     1 <1>   0.1500 
@<TRIPOS>BOND
  1   1   2  2   
  2   2   3  am  
  3   2   4  1   
  4   3   5  1   
  5   3  22  1   
  6   4   6  ar  
  7   4   7  ar  
  8   5  23  1   
  9   5  24  1   
 10   5  25  1   
 11   6   8  ar  
 12   6   9  1   
 13   7  10  ar  
 14   7  26  1   
 15   8  11  ar  
 16   9  12  1   
 17   9  27  1   
 18  10  11  ar  
 19  10  28  1   
 20  11  29  1   
 21  12  13  1   
 22  12  14  1   
 23  12  30  1   
 24  13  15  ar  
 25  13  16  ar  
 26  14  17  1   
 27  14  18  1   
 28  14  31  1   
 29  15  19  ar  
 30  15  32  1   
 31  16  20  ar  
 32  16  33  1   
 33  17  34  1   
 34  17  35  1   
 35  17  36  1   
 36  18  37  1   
 37  18  38  1   
 38  18  39  1   
 39  19  21  ar  
 40  20  21  ar  
 41  20  40  1   
 42  21  41  1   
@<TRIPOS>SUBSTRUCTURE
  1 ****   9 GROUP 4 **** **** 0

# MOE 2024.06 (io_trps.svl 2023.06)
