@<TRIPOS>MOLECULE
NONAME
48 49 1 0 0 
SMALL
USER_CHARGES


@<TRIPOS>ATOM
  1 S       -1.0050    -0.7910     1.6120 S.o2  1 <1>   1.3330 
  2 O       -2.0440     0.2060     1.6440 O.2   1 <1>  -0.6500 
  3 O       -0.9350    -1.8340     2.6070 O.2   1 <1>  -0.6500 
  4 N       -1.1730    -1.5060     0.1080 N.am  1 <1>  -0.9140 
  5 C        0.5810     0.0040     1.4860 C.3   1 <1>  -0.1350 
  6 C       -1.8490    -2.8000     0.1630 C.3   1 <1>   0.1960 
  7 C       -1.9920    -3.3940    -1.2410 C.3   1 <1>   0.1400 
  8 N       -2.6080    -4.7410    -1.1660 N.am  1 <1>  -0.7300 
  9 C       -3.9410    -4.9950    -1.0720 C.2   1 <1>   0.5690 
 10 O       -4.7390    -4.0890    -1.0380 O.2   1 <1>  -0.5700 
 11 C       -4.4190    -6.4500    -0.9820 C.3   1 <1>   0.2610 
 12 O       -3.3350    -7.3260    -1.2670 O.3   1 <1>  -0.5600 
 13 C       -5.0310    -6.7050     0.4230 C.3   1 <1>   0.3640 
 14 C       -3.6490    -8.6930    -1.1670 C.3   1 <1>   0.1810 
 15 N       -4.8480    -8.1000     0.9440 N.am  1 <1>  -0.6600 
 16 C       -6.5130    -6.2930     0.4810 C.ar  1 <1>  -0.1430 
 17 C       -4.2130    -9.0610     0.2040 C.2   1 <1>   0.5690 
 18 C       -5.3630    -8.3610     2.3190 C.3   1 <1>   0.0600 
 19 C       -7.5710    -7.0280    -0.0670 C.ar  1 <1>  -0.1430 
 20 C       -6.8000    -5.0970     1.1310 C.ar  1 <1>  -0.1500 
 21 O       -4.0970   -10.2030     0.5820 O.2   1 <1>  -0.5700 
 22 C       -8.8690    -6.5540     0.0590 C.ar  1 <1>  -0.1500 
 23 C       -7.3910    -8.3520    -0.8020 C.3   1 <1>  -0.0970 
 24 C       -8.0960    -4.6350     1.2480 C.ar  1 <1>  -0.1500 
 25 C       -9.1360    -5.3660     0.7120 C.ar  1 <1>  -0.1500 
 26 H       -1.8020    -0.8620    -0.3750 H     1 <1>   0.4200 
 27 H        0.5840     0.7030     0.6730 H     1 <1>   0.0800 
 28 H        1.3470    -0.7270     1.3180 H     1 <1>   0.0800 
 29 H        0.8000     0.5300     2.3940 H     1 <1>   0.0800 
 30 H       -1.2720    -3.4800     0.7680 H     1 <1>   0.0800 
 31 H       -2.8250    -2.6820     0.6070 H     1 <1>   0.0800 
 32 H       -1.0250    -3.4730    -1.7050 H     1 <1>   0.0800 
 33 H       -2.6180    -2.7540    -1.8400 H     1 <1>   0.0800 
 34 H       -1.9830    -5.5540    -1.2280 H     1 <1>   0.3700 
 35 H       -5.1660    -6.5940    -1.7390 H     1 <1>   0.0800 
 36 H       -4.4920    -6.0690     1.1040 H     1 <1>   0.0800 
 37 H       -4.3570    -8.9430    -1.9350 H     1 <1>   0.0800 
 38 H       -2.7440    -9.2480    -1.3360 H     1 <1>   0.0800 
 39 H       -4.9620    -7.6340     3.0040 H     1 <1>   0.0800 
 40 H       -5.0770    -9.3430     2.6530 H     1 <1>   0.0800 
 41 H       -6.4370    -8.2950     2.3260 H     1 <1>   0.0800 
 42 H       -6.0080    -4.5010     1.5510 H     1 <1>   0.1500 
 43 H       -9.6930    -7.1110    -0.3520 H     1 <1>   0.1500 
 44 H       -8.2970    -8.6380    -1.3040 H     1 <1>   0.0800 
 45 H       -7.1420    -9.1310    -0.1040 H     1 <1>   0.0800 
 46 H       -6.6210    -8.2790    -1.5440 H     1 <1>   0.0800 
 47 H       -8.2940    -3.7050     1.7530 H     1 <1>   0.1500 
 48 H      -10.1480    -5.0120     0.8000 H     1 <1>   0.1500 
@<TRIPOS>BOND
  1   1   2  2   
  2   1   3  2   
  3   1   4  am  
  4   1   5  1   
  5   4   6  1   
  6   4  26  1   
  7   5  27  1   
  8   5  28  1   
  9   5  29  1   
 10   6   7  1   
 11   6  30  1   
 12   6  31  1   
 13   7   8  1   
 14   7  32  1   
 15   7  33  1   
 16   8   9  am  
 17   8  34  1   
 18   9  10  2   
 19   9  11  1   
 20  11  12  1   
 21  11  13  1   
 22  11  35  1   
 23  12  14  1   
 24  13  15  1   
 25  13  16  1   
 26  13  36  1   
 27  14  17  1   
 28  14  37  1   
 29  14  38  1   
 30  15  17  am  
 31  15  18  1   
 32  16  19  ar  
 33  16  20  ar  
 34  17  21  2   
 35  18  39  1   
 36  18  40  1   
 37  18  41  1   
 38  19  22  ar  
 39  19  23  1   
 40  20  24  ar  
 41  20  42  1   
 42  22  25  ar  
 43  22  43  1   
 44  23  44  1   
 45  23  45  1   
 46  23  46  1   
 47  24  25  ar  
 48  24  47  1   
 49  25  48  1   
@<TRIPOS>SUBSTRUCTURE
  1 ****   9 GROUP 4 **** **** 0

# MOE 2024.06 (io_trps.svl 2023.06)
