@<TRIPOS>MOLECULE
NONAME
46 48 1 0 0 
SMALL
USER_CHARGES


@<TRIPOS>ATOM
  1 O        0.8550    -0.0510    -2.1010 O.2   1 <1>  -0.5700 
  2 C        1.4790     0.4890    -1.2030 C.2   1 <1>   0.5440 
  3 N        0.9380     1.6050    -0.6020 N.am  1 <1>  -0.6600 
  4 C        2.7520    -0.0440    -0.7850 C.ar  1 <1>   0.0860 
  5 C        1.3570     2.1100     0.7250 C.3   1 <1>   0.1400 
  6 C       -0.3840     2.1540    -0.9810 C.3   1 <1>   0.1400 
  7 C        2.8600    -1.3740    -0.3410 C.ar  1 <1>   0.4100 
  8 C        3.9030     0.7310    -0.8050 C.ar  1 <1>  -0.1500 
  9 C        0.3230     3.1710     1.0890 C.3   1 <1>  -0.1600 
 10 C       -0.9220     2.7880     0.2950 C.3   1 <1>  -0.1600 
 11 N        3.9970    -1.9220     0.0870 N.ar  1 <1>  -0.6200 
 12 N        1.7530    -2.1900    -0.3300 N.pl3 1 <1>  -0.8690 
 13 C        5.0780     0.1610    -0.3710 C.ar  1 <1>  -0.1500 
 14 C        5.0670    -1.1530     0.0620 C.ar  1 <1>   0.1600 
 15 C        1.8180    -3.6530    -0.1730 C.3   1 <1>   0.2090 
 16 C        0.4010    -4.2130    -0.2610 C.3   1 <1>  -0.1600 
 17 C        0.3940    -5.7390    -0.1190 C.3   1 <1>   0.0210 
 18 C       -1.0240    -6.2720    -0.1910 C.2   1 <1>  -0.1810 
 19 C       -1.8580    -6.2780    -1.3040 C.2   1 <1>   0.1390 
 20 C       -1.7620    -6.8380     0.7860 C.2   1 <1>  -0.3020 
 21 N       -3.0170    -6.8030    -1.0480 N.2   1 <1>  -0.7070 
 22 N       -2.9570    -7.1490     0.2480 N.pl3 1 <1>   0.3140 
 23 C       -4.0940    -7.7790     0.9250 C.3   1 <1>   0.0160 
 24 H        2.3460     2.5300     0.6870 H     1 <1>   0.0800 
 25 H        1.3300     1.3000     1.4360 H     1 <1>   0.0800 
 26 H       -1.0420     1.3820    -1.3440 H     1 <1>   0.0800 
 27 H       -0.2460     2.8980    -1.7470 H     1 <1>   0.0800 
 28 H        3.8680     1.7480    -1.1540 H     1 <1>   0.1500 
 29 H        0.6810     4.1320     0.7650 H     1 <1>   0.0800 
 30 H        0.1410     3.2040     2.1480 H     1 <1>   0.0800 
 31 H       -1.4890     2.0510     0.8370 H     1 <1>   0.0800 
 32 H       -1.5540     3.6330     0.0860 H     1 <1>   0.0800 
 33 H        0.9880    -1.8630    -0.9390 H     1 <1>   0.4000 
 34 H        5.9950     0.7230    -0.3670 H     1 <1>   0.1500 
 35 H        5.9900    -1.5920     0.4040 H     1 <1>   0.1500 
 36 H        2.2570    -3.8880     0.7830 H     1 <1>   0.0800 
 37 H        2.4380    -4.0670    -0.9510 H     1 <1>   0.0800 
 38 H       -0.0290    -3.9440    -1.2100 H     1 <1>   0.0800 
 39 H       -0.1990    -3.7850     0.5230 H     1 <1>   0.0800 
 40 H        0.8280    -6.0170     0.8260 H     1 <1>   0.0800 
 41 H        0.9790    -6.1870    -0.9030 H     1 <1>   0.0800 
 42 H       -1.5850    -5.8940    -2.2730 H     1 <1>   0.1500 
 43 H       -1.5100    -7.0310     1.8120 H     1 <1>   0.1500 
 44 H       -3.7760    -8.1790     1.8690 H     1 <1>   0.0800 
 45 H       -4.4740    -8.5690     0.3040 H     1 <1>   0.0800 
 46 H       -4.8590    -7.0420     1.0770 H     1 <1>   0.0800 
@<TRIPOS>BOND
  1   1   2  2   
  2   2   3  am  
  3   2   4  1   
  4   3   5  1   
  5   3   6  1   
  6   4   7  ar  
  7   4   8  ar  
  8   5   9  1   
  9   5  24  1   
 10   5  25  1   
 11   6  10  1   
 12   6  26  1   
 13   6  27  1   
 14   7  11  ar  
 15   7  12  1   
 16   8  13  ar  
 17   8  28  1   
 18   9  10  1   
 19   9  29  1   
 20   9  30  1   
 21  10  31  1   
 22  10  32  1   
 23  11  14  ar  
 24  12  15  1   
 25  12  33  1   
 26  13  14  ar  
 27  13  34  1   
 28  14  35  1   
 29  15  16  1   
 30  15  36  1   
 31  15  37  1   
 32  16  17  1   
 33  16  38  1   
 34  16  39  1   
 35  17  18  1   
 36  17  40  1   
 37  17  41  1   
 38  18  19  1   
 39  18  20  2   
 40  19  21  2   
 41  19  42  1   
 42  20  22  1   
 43  20  43  1   
 44  21  22  1   
 45  22  23  1   
 46  23  44  1   
 47  23  45  1   
 48  23  46  1   
@<TRIPOS>SUBSTRUCTURE
  1 ****  12 GROUP 4 **** **** 0

# MOE 2024.06 (io_trps.svl 2023.06)
