@<TRIPOS>MOLECULE
NONAME
52 54 1 0 0 
SMALL
USER_CHARGES


@<TRIPOS>ATOM
  1 O       -0.4170    -1.3640     0.4400 O.2   1 <1>  -0.5700 
  2 C        0.7030    -1.8140     0.3070 C.2   1 <1>   0.6900 
  3 N        1.1110    -2.9760     0.9410 N.am  1 <1>  -0.4690 
  4 N        1.5870    -1.1700    -0.4960 N.am  1 <1>  -0.4900 
  5 C        2.3960    -3.4720     0.7460 C.2   1 <1>  -0.0410 
  6 C        0.1500    -3.7130     1.8200 C.3   1 <1>   0.2010 
  7 C        2.8520    -1.6150    -0.7200 C.2   1 <1>   0.6160 
  8 C        3.2650    -2.8210    -0.0630 C.2   1 <1>  -0.1240 
  9 C       -0.6900    -4.7450     1.0630 C.2   1 <1>   0.5690 
 10 O        3.5600    -0.9710    -1.4670 O.2   1 <1>  -0.5700 
 11 C        4.6800    -3.3320    -0.3010 C.3   1 <1>  -0.1020 
 12 O       -0.9700    -5.7930     1.6000 O.2   1 <1>  -0.5700 
 13 N       -1.1950    -4.4880    -0.1820 N.am  1 <1>  -0.6600 
 14 C       -2.4160    -3.6280    -0.2630 C.3   1 <1>   0.1400 
 15 C       -1.2180    -5.6000    -1.1860 C.3   1 <1>   0.1400 
 16 C       -3.7030    -4.4650    -0.0180 C.3   1 <1>   0.4230 
 17 C       -2.5720    -6.3480    -1.1940 C.3   1 <1>   0.3430 
 18 N       -3.4210    -5.9550    -0.0140 N.4   1 <1>  -0.9590 
 19 C       -4.8080    -4.1140    -1.0400 C.3   1 <1>   0.1200 
 20 C       -4.6930    -6.7250     0.1660 C.3   1 <1>   0.4230 
 21 O       -5.9500    -4.8940    -0.8190 O.3   1 <1>  -0.5600 
 22 C       -5.7550    -6.2820    -0.8700 C.3   1 <1>   0.1200 
 23 C       -4.4190    -8.2370     0.1410 C.3   1 <1>  -0.1600 
 24 C       -5.6040    -9.0570     0.6760 C.3   1 <1>  -0.1600 
 25 C       -5.2630   -10.5490     0.7120 C.3   1 <1>  -0.2400 
 26 H        1.3000    -0.3090    -0.9450 H     1 <1>   0.3700 
 27 H        2.6610    -4.3810     1.2620 H     1 <1>   0.1500 
 28 H        0.7010    -4.2210     2.5910 H     1 <1>   0.0800 
 29 H       -0.5080    -3.0140     2.3020 H     1 <1>   0.0800 
 30 H        5.3940    -2.5900     0.0120 H     1 <1>   0.0800 
 31 H        4.8290    -3.5240    -1.3490 H     1 <1>   0.0800 
 32 H        4.8640    -4.2390     0.2450 H     1 <1>   0.0800 
 33 H       -2.3720    -2.8460     0.4750 H     1 <1>   0.0800 
 34 H       -2.4460    -3.1510    -1.2270 H     1 <1>   0.0800 
 35 H       -1.0120    -5.2050    -2.1660 H     1 <1>   0.0800 
 36 H       -0.4330    -6.3020    -0.9560 H     1 <1>   0.0800 
 37 H       -4.0800    -4.1890     0.9520 H     1 <1>   0.0800 
 38 H       -2.3760    -7.4070    -1.1780 H     1 <1>   0.0800 
 39 H       -3.0940    -6.1260    -2.1100 H     1 <1>   0.0800 
 40 H       -2.8040    -6.1160     0.8070 H     1 <1>   0.4500 
 41 H       -4.4750    -4.2720    -2.0510 H     1 <1>   0.0800 
 42 H       -5.0970    -3.0830    -0.9330 H     1 <1>   0.0800 
 43 H       -5.0900    -6.4890     1.1410 H     1 <1>   0.0800 
 44 H       -6.7020    -6.7430    -0.6530 H     1 <1>   0.0800 
 45 H       -5.4650    -6.5550    -1.8690 H     1 <1>   0.0800 
 46 H       -4.2040    -8.5620    -0.8610 H     1 <1>   0.0800 
 47 H       -3.5650    -8.4460     0.7630 H     1 <1>   0.0800 
 48 H       -5.8550    -8.7350     1.6740 H     1 <1>   0.0800 
 49 H       -6.4730    -8.9210     0.0540 H     1 <1>   0.0800 
 50 H       -4.4190   -10.7320     1.3550 H     1 <1>   0.0800 
 51 H       -5.0320   -10.9120    -0.2740 H     1 <1>   0.0800 
 52 H       -6.1010   -11.1080     1.0890 H     1 <1>   0.0800 
@<TRIPOS>BOND
  1   1   2  2   
  2   2   3  am  
  3   2   4  am  
  4   3   5  1   
  5   3   6  1   
  6   4   7  am  
  7   4  26  1   
  8   5   8  2   
  9   5  27  1   
 10   6   9  1   
 11   6  28  1   
 12   6  29  1   
 13   7   8  1   
 14   7  10  2   
 15   8  11  1   
 16   9  12  2   
 17   9  13  am  
 18  11  30  1   
 19  11  31  1   
 20  11  32  1   
 21  13  14  1   
 22  13  15  1   
 23  14  16  1   
 24  14  33  1   
 25  14  34  1   
 26  15  17  1   
 27  15  35  1   
 28  15  36  1   
 29  16  18  1   
 30  16  19  1   
 31  16  37  1   
 32  17  18  1   
 33  17  38  1   
 34  17  39  1   
 35  18  20  1   
 36  18  40  1   
 37  19  21  1   
 38  19  41  1   
 39  19  42  1   
 40  20  22  1   
 41  20  23  1   
 42  20  43  1   
 43  21  22  1   
 44  22  44  1   
 45  22  45  1   
 46  23  24  1   
 47  23  46  1   
 48  23  47  1   
 49  24  25  1   
 50  24  48  1   
 51  24  49  1   
 52  25  50  1   
 53  25  51  1   
 54  25  52  1   
@<TRIPOS>SUBSTRUCTURE
  1 ****  13 GROUP 4 **** **** 0

# MOE 2024.06 (io_trps.svl 2023.06)
