@<TRIPOS>MOLECULE
NONAME
49 51 1 0 0 
SMALL
USER_CHARGES


@<TRIPOS>ATOM
  1 O       -1.6330     0.2620    -1.8230 O.2   1 <1>  -0.5700 
  2 C       -1.6580     0.5240    -0.6360 C.2   1 <1>   0.5440 
  3 N       -1.8130    -0.5100     0.2420 N.am  1 <1>  -0.7300 
  4 C       -1.5340     1.8930    -0.1650 C.ar  1 <1>   0.0860 
  5 C       -1.9320    -1.9410    -0.1270 C.3   1 <1>   0.2200 
  6 C       -0.9170     2.8650    -0.9540 C.ar  1 <1>  -0.1500 
  7 C       -2.0160     2.2960     1.0830 C.ar  1 <1>  -0.1500 
  8 C       -3.3730    -2.4200    -0.0250 C.3   1 <1>  -0.0800 
  9 C       -1.2820    -2.7830     0.9630 C.3   1 <1>   0.1200 
 10 C       -0.7800     4.1760    -0.5340 C.ar  1 <1>  -0.1440 
 11 C       -1.8930     3.6000     1.5290 C.ar  1 <1>  -0.1440 
 12 C       -3.5190    -2.7630     1.4620 C.3   1 <1>   0.1200 
 13 C       -4.4440    -1.4520    -0.5630 C.3   1 <1>  -0.0160 
 14 O       -2.2260    -2.8360     1.9900 O.3   1 <1>  -0.5600 
 15 C       -1.2850     4.5460     0.7090 C.ar  1 <1>   0.0820 
 16 C       -0.0730     5.1790    -1.4360 C.3   1 <1>  -0.0970 
 17 C       -2.4170     3.9780     2.9080 C.3   1 <1>  -0.0970 
 18 C       -5.8280    -2.0760    -0.4830 C.ar  1 <1>  -0.1440 
 19 O       -1.1740     5.8220     1.1300 O.3   1 <1>  -0.3630 
 20 C       -6.2760    -2.9700    -1.4340 C.ar  1 <1>  -0.1500 
 21 C       -6.7080    -1.7830     0.5400 C.ar  1 <1>  -0.1500 
 22 C       -2.2130     6.7000     0.7620 C.3   1 <1>   0.0400 
 23 C       -7.5420    -3.5190    -1.3160 C.ar  1 <1>   0.1600 
 24 C       -7.9540    -2.3880     0.5650 C.ar  1 <1>   0.1600 
 25 N       -8.3910    -3.2510    -0.3370 N.ar  1 <1>  -0.6200 
 26 H       -1.7930    -0.3440     1.2500 H     1 <1>   0.3700 
 27 H       -1.4990    -2.1230    -1.0970 H     1 <1>   0.0800 
 28 H       -0.5380     2.5720    -1.9180 H     1 <1>   0.1500 
 29 H       -2.5010     1.5750     1.7130 H     1 <1>   0.1500 
 30 H       -3.4500    -3.3410    -0.5750 H     1 <1>   0.0800 
 31 H       -0.3650    -2.3570     1.3300 H     1 <1>   0.0800 
 32 H       -1.1110    -3.7880     0.6180 H     1 <1>   0.0800 
 33 H       -4.0120    -3.7090     1.6060 H     1 <1>   0.0800 
 34 H       -4.0450    -1.9920     1.9980 H     1 <1>   0.0800 
 35 H       -4.2200    -1.2070    -1.5870 H     1 <1>   0.0800 
 36 H       -4.4360    -0.5320    -0.0050 H     1 <1>   0.0800 
 37 H        0.5450     4.6750    -2.1570 H     1 <1>   0.0800 
 38 H        0.5550     5.8270    -0.8510 H     1 <1>   0.0800 
 39 H       -0.7980     5.7740    -1.9600 H     1 <1>   0.0800 
 40 H       -2.6060     3.1050     3.5040 H     1 <1>   0.0800 
 41 H       -3.3310     4.5360     2.8120 H     1 <1>   0.0800 
 42 H       -1.6930     4.5860     3.4220 H     1 <1>   0.0800 
 43 H       -5.6520    -3.2440    -2.2650 H     1 <1>   0.1500 
 44 H       -6.4380    -1.0920     1.3170 H     1 <1>   0.1500 
 45 H       -1.9960     7.6690     1.1740 H     1 <1>   0.0800 
 46 H       -3.1410     6.3280     1.1570 H     1 <1>   0.0800 
 47 H       -2.2610     6.7560    -0.3100 H     1 <1>   0.0800 
 48 H       -7.8740    -4.2150    -2.0670 H     1 <1>   0.1500 
 49 H       -8.6270    -2.1480     1.3710 H     1 <1>   0.1500 
@<TRIPOS>BOND
  1   1   2  2   
  2   2   3  am  
  3   2   4  1   
  4   3   5  1   
  5   3  26  1   
  6   4   6  ar  
  7   4   7  ar  
  8   5   8  1   
  9   5   9  1   
 10   5  27  1   
 11   6  10  ar  
 12   6  28  1   
 13   7  11  ar  
 14   7  29  1   
 15   8  12  1   
 16   8  13  1   
 17   8  30  1   
 18   9  14  1   
 19   9  31  1   
 20   9  32  1   
 21  10  15  ar  
 22  10  16  1   
 23  11  15  ar  
 24  11  17  1   
 25  12  14  1   
 26  12  33  1   
 27  12  34  1   
 28  13  18  1   
 29  13  35  1   
 30  13  36  1   
 31  15  19  1   
 32  16  37  1   
 33  16  38  1   
 34  16  39  1   
 35  17  40  1   
 36  17  41  1   
 37  17  42  1   
 38  18  20  ar  
 39  18  21  ar  
 40  19  22  1   
 41  20  23  ar  
 42  20  43  1   
 43  21  24  ar  
 44  21  44  1   
 45  22  45  1   
 46  22  46  1   
 47  22  47  1   
 48  23  25  ar  
 49  23  48  1   
 50  24  25  ar  
 51  24  49  1   
@<TRIPOS>SUBSTRUCTURE
  1 ****   3 GROUP 4 **** **** 0

# MOE 2024.06 (io_trps.svl 2023.06)
