@<TRIPOS>MOLECULE
NONAME
55 57 1 0 0 
SMALL
USER_CHARGES


@<TRIPOS>ATOM
  1 O       -1.2590    -2.3300     1.5760 O.2   1 <1>  -0.5700 
  2 C       -0.3430    -2.8790     1.0130 C.2   1 <1>   0.5690 
  3 N       -0.4510    -3.4440    -0.2280 N.am  1 <1>  -0.6600 
  4 C        1.0020    -2.9590     1.7060 C.3   1 <1>  -0.0990 
  5 C        0.7140    -4.1260    -0.8460 C.3   1 <1>   0.1400 
  6 C       -1.7260    -3.4640    -0.9930 C.3   1 <1>   0.0600 
  7 C        2.1310    -2.6000     0.7240 C.3   1 <1>  -0.0800 
  8 C        1.9890    -3.2800    -0.6590 C.3   1 <1>  -0.0800 
  9 C        3.5260    -2.9610     1.2530 C.3   1 <1>  -0.1600 
 10 C        3.2760    -4.0900    -0.8630 C.3   1 <1>  -0.1600 
 11 C        4.3080    -3.3820     0.0140 C.3   1 <1>   0.2200 
 12 N        5.5110    -4.2020     0.3550 N.am  1 <1>  -0.6600 
 13 C        6.7970    -3.7120     0.3140 C.2   1 <1>   0.5690 
 14 C        5.2910    -5.6280     0.7580 C.3   1 <1>   0.0600 
 15 O        7.7510    -4.4320     0.4990 O.2   1 <1>  -0.5700 
 16 C        7.0580    -2.2330     0.0320 C.3   1 <1>  -0.0990 
 17 C        8.5100    -1.7810     0.2730 C.3   1 <1>  -0.1600 
 18 C        8.6850    -0.2820    -0.0060 C.3   1 <1>  -0.1600 
 19 C       10.1310     0.1680     0.2290 C.3   1 <1>  -0.0170 
 20 C       10.2730     1.6560    -0.0520 C.ar  1 <1>  -0.1440 
 21 C       10.5900     2.1000    -1.3260 C.ar  1 <1>  -0.1500 
 22 C       10.0820     2.5810     0.9620 C.ar  1 <1>  -0.1500 
 23 C       10.7160     3.4540    -1.5840 C.ar  1 <1>  -0.1500 
 24 C       10.2080     3.9360     0.7060 C.ar  1 <1>  -0.1500 
 25 C       10.5250     4.3730    -0.5670 C.ar  1 <1>  -0.1500 
 26 H        1.0140    -2.2880     2.5450 H     1 <1>   0.0800 
 27 H        1.1210    -3.9610     2.0730 H     1 <1>   0.0800 
 28 H        0.8300    -5.0860    -0.3700 H     1 <1>   0.0800 
 29 H        0.5380    -4.2890    -1.8950 H     1 <1>   0.0800 
 30 H       -1.5950    -2.9560    -1.9320 H     1 <1>   0.0800 
 31 H       -2.5060    -2.9690    -0.4400 H     1 <1>   0.0800 
 32 H       -2.0260    -4.4810    -1.1750 H     1 <1>   0.0800 
 33 H        2.0930    -1.5350     0.5610 H     1 <1>   0.0800 
 34 H        1.9690    -2.5000    -1.4010 H     1 <1>   0.0800 
 35 H        3.4590    -3.7830     1.9420 H     1 <1>   0.0800 
 36 H        3.9890    -2.1250     1.7440 H     1 <1>   0.0800 
 37 H        3.5800    -4.1020    -1.8940 H     1 <1>   0.0800 
 38 H        3.1130    -5.0970    -0.5260 H     1 <1>   0.0800 
 39 H        4.6020    -2.4910    -0.5120 H     1 <1>   0.0800 
 40 H        4.4030    -5.7220     1.3560 H     1 <1>   0.0800 
 41 H        6.1220    -5.9920     1.3380 H     1 <1>   0.0800 
 42 H        5.1960    -6.2400    -0.1210 H     1 <1>   0.0800 
 43 H        6.8010    -2.0400    -0.9930 H     1 <1>   0.0800 
 44 H        6.4130    -1.6500     0.6630 H     1 <1>   0.0800 
 45 H        8.7810    -1.9950     1.2940 H     1 <1>   0.0800 
 46 H        9.1670    -2.3470    -0.3670 H     1 <1>   0.0800 
 47 H        8.0330     0.2850     0.6370 H     1 <1>   0.0800 
 48 H        8.4130    -0.0690    -1.0250 H     1 <1>   0.0800 
 49 H       10.7940    -0.3850    -0.4130 H     1 <1>   0.0800 
 50 H       10.4160    -0.0350     1.2460 H     1 <1>   0.0800 
 51 H       10.7390     1.3930    -2.1230 H     1 <1>   0.1500 
 52 H        9.8340     2.2500     1.9550 H     1 <1>   0.1500 
 53 H       10.9630     3.7930    -2.5750 H     1 <1>   0.1500 
 54 H       10.0590     4.6490     1.4980 H     1 <1>   0.1500 
 55 H       10.6230     5.4260    -0.7670 H     1 <1>   0.1500 
@<TRIPOS>BOND
  1   1   2  2   
  2   2   3  am  
  3   2   4  1   
  4   3   5  1   
  5   3   6  1   
  6   4   7  1   
  7   4  26  1   
  8   4  27  1   
  9   5   8  1   
 10   5  28  1   
 11   5  29  1   
 12   6  30  1   
 13   6  31  1   
 14   6  32  1   
 15   7   8  1   
 16   7   9  1   
 17   7  33  1   
 18   8  10  1   
 19   8  34  1   
 20   9  11  1   
 21   9  35  1   
 22   9  36  1   
 23  10  11  1   
 24  10  37  1   
 25  10  38  1   
 26  11  12  1   
 27  11  39  1   
 28  12  13  am  
 29  12  14  1   
 30  13  15  2   
 31  13  16  1   
 32  14  40  1   
 33  14  41  1   
 34  14  42  1   
 35  16  17  1   
 36  16  43  1   
 37  16  44  1   
 38  17  18  1   
 39  17  45  1   
 40  17  46  1   
 41  18  19  1   
 42  18  47  1   
 43  18  48  1   
 44  19  20  1   
 45  19  49  1   
 46  19  50  1   
 47  20  21  ar  
 48  20  22  ar  
 49  21  23  ar  
 50  21  51  1   
 51  22  24  ar  
 52  22  52  1   
 53  23  25  ar  
 54  23  53  1   
 55  24  25  ar  
 56  24  54  1   
 57  25  55  1   
@<TRIPOS>SUBSTRUCTURE
  1 ****  16 GROUP 4 **** **** 0

# MOE 2024.06 (io_trps.svl 2023.06)
