@<TRIPOS>MOLECULE
NONAME
60 63 1 0 0 
SMALL
USER_CHARGES


@<TRIPOS>ATOM
  1 O        0.0940     2.1260    -2.7140 O.2   1 <1>  -0.5700 
  2 C       -0.2270     3.1110    -2.0920 C.2   1 <1>   0.5690 
  3 N       -0.6010     3.0620    -0.7780 N.am  1 <1>  -0.6600 
  4 C       -0.1800     4.4570    -2.8110 C.3   1 <1>   0.1810 
  5 C       -1.0270     4.2880    -0.0380 C.3   1 <1>   0.3640 
  6 C       -0.6550     1.7810    -0.0140 C.3   1 <1>   0.0600 
  7 O       -1.0440     5.4300    -2.2600 O.3   1 <1>  -0.5600 
  8 C       -2.4090     4.1150     0.6140 C.ar  1 <1>  -0.1430 
  9 C       -0.9550     5.6140    -0.8530 C.3   1 <1>   0.2610 
 10 C       -3.5910     3.8210    -0.0730 C.ar  1 <1>  -0.1430 
 11 C       -2.4640     4.2790     1.9950 C.ar  1 <1>  -0.1500 
 12 C        0.2620     6.4800    -0.4930 C.2   1 <1>   0.5690 
 13 C       -4.7800     3.7020     0.6330 C.ar  1 <1>  -0.1500 
 14 C       -3.6600     3.6150    -1.5820 C.3   1 <1>  -0.0960 
 15 C       -3.6530     4.1580     2.6870 C.ar  1 <1>  -0.1500 
 16 O        0.6910     6.5000     0.6380 O.2   1 <1>  -0.5700 
 17 N        0.8080     7.2640    -1.4680 N.am  1 <1>  -0.5790 
 18 C       -4.8160     3.8690     2.0040 C.ar  1 <1>  -0.1500 
 19 C        2.1210     7.9560    -1.4810 C.3   1 <1>   0.0540 
 20 C        3.0980     7.3990    -2.4650 C.3   1 <1>  -0.2000 
 21 C        2.4300     8.7140    -2.7330 C.3   1 <1>  -0.2000 
 22 C        2.6510     8.4920    -0.1250 C.3   1 <1>   0.4380 
 23 N        1.9710     9.7610     0.2800 N.4   1 <1>  -0.9590 
 24 C        2.8320    10.5420     1.2120 C.3   1 <1>   0.3430 
 25 C        0.6280     9.4940     0.8720 C.3   1 <1>   0.3430 
 26 C        2.1760    11.8890     1.5190 C.3   1 <1>  -0.1600 
 27 C       -0.0770    10.8160     1.1850 C.3   1 <1>  -0.1600 
 28 C        0.7680    11.7120     2.0990 C.3   1 <1>  -0.1600 
 29 H       -0.4680     4.3120    -3.8370 H     1 <1>   0.0800 
 30 H        0.8270     4.8300    -2.7890 H     1 <1>   0.0800 
 31 H       -0.3310     4.3780     0.7760 H     1 <1>   0.0800 
 32 H       -0.1230     1.8850     0.9150 H     1 <1>   0.0800 
 33 H       -0.2070     0.9810    -0.5780 H     1 <1>   0.0800 
 34 H       -1.6790     1.5220     0.1920 H     1 <1>   0.0800 
 35 H       -1.8130     6.2000    -0.5800 H     1 <1>   0.0800 
 36 H       -1.5740     4.5040     2.5570 H     1 <1>   0.1500 
 37 H       -5.6970     3.4760     0.1180 H     1 <1>   0.1500 
 38 H       -4.6530     3.3380    -1.8880 H     1 <1>   0.0800 
 39 H       -3.0000     2.8260    -1.8880 H     1 <1>   0.0800 
 40 H       -3.4030     4.5200    -2.0970 H     1 <1>   0.0800 
 41 H       -3.6750     4.2880     3.7550 H     1 <1>   0.1500 
 42 H        0.3670     7.1760    -2.3930 H     1 <1>   0.3700 
 43 H       -5.7470     3.7730     2.5350 H     1 <1>   0.1500 
 44 H        4.1530     7.4110    -2.2470 H     1 <1>   0.1000 
 45 H        2.8210     6.5490    -3.0650 H     1 <1>   0.1000 
 46 H        1.7010     8.7610    -3.5240 H     1 <1>   0.1000 
 47 H        3.0570     9.5890    -2.7090 H     1 <1>   0.1000 
 48 H        3.7020     8.6920    -0.2500 H     1 <1>   0.0800 
 49 H        2.5570     7.7410     0.6420 H     1 <1>   0.0800 
 50 H        1.8250    10.3160    -0.5700 H     1 <1>   0.4500 
 51 H        2.9680     9.9930     2.1300 H     1 <1>   0.0800 
 52 H        3.8020    10.7100     0.7700 H     1 <1>   0.0800 
 53 H        0.0240     8.9310     0.1810 H     1 <1>   0.0800 
 54 H        0.7350     8.9130     1.7750 H     1 <1>   0.0800 
 55 H        2.7860    12.4240     2.2270 H     1 <1>   0.0800 
 56 H        2.1330    12.4810     0.6210 H     1 <1>   0.0800 
 57 H       -0.2940    11.3300     0.2650 H     1 <1>   0.0800 
 58 H       -1.0180    10.6060     1.6640 H     1 <1>   0.0800 
 59 H        0.2930    12.6720     2.2120 H     1 <1>   0.0800 
 60 H        0.8350    11.2630     3.0770 H     1 <1>   0.0800 
@<TRIPOS>BOND
  1   1   2  2   
  2   2   3  am  
  3   2   4  1   
  4   3   5  1   
  5   3   6  1   
  6   4   7  1   
  7   4  29  1   
  8   4  30  1   
  9   5   8  1   
 10   5   9  1   
 11   5  31  1   
 12   6  32  1   
 13   6  33  1   
 14   6  34  1   
 15   7   9  1   
 16   8  10  ar  
 17   8  11  ar  
 18   9  12  1   
 19   9  35  1   
 20  10  13  ar  
 21  10  14  1   
 22  11  15  ar  
 23  11  36  1   
 24  12  16  2   
 25  12  17  am  
 26  13  18  ar  
 27  13  37  1   
 28  14  38  1   
 29  14  39  1   
 30  14  40  1   
 31  15  18  ar  
 32  15  41  1   
 33  17  19  1   
 34  17  42  1   
 35  18  43  1   
 36  19  20  1   
 37  19  21  1   
 38  19  22  1   
 39  20  21  1   
 40  20  44  1   
 41  20  45  1   
 42  21  46  1   
 43  21  47  1   
 44  22  23  1   
 45  22  48  1   
 46  22  49  1   
 47  23  24  1   
 48  23  25  1   
 49  23  50  1   
 50  24  26  1   
 51  24  51  1   
 52  24  52  1   
 53  25  27  1   
 54  25  53  1   
 55  25  54  1   
 56  26  28  1   
 57  26  55  1   
 58  26  56  1   
 59  27  28  1   
 60  27  57  1   
 61  27  58  1   
 62  28  59  1   
 63  28  60  1   
@<TRIPOS>SUBSTRUCTURE
  1 ****  12 GROUP 4 **** **** 0

# MOE 2024.06 (io_trps.svl 2023.06)
