@<TRIPOS>MOLECULE
NONAME
55 57 1 0 0 
SMALL
USER_CHARGES


@<TRIPOS>ATOM
  1 F       -2.0800    -1.9540     0.0460 F     1 <1>  -0.1900 
  2 C       -3.0400    -1.0650     0.0140 C.ar  1 <1>   0.1900 
  3 C       -3.3140    -0.2310     1.1040 C.ar  1 <1>   0.0820 
  4 C       -3.7650    -0.9850    -1.1600 C.ar  1 <1>  -0.1500 
  5 O       -2.6780    -0.2240     2.3100 O.3   1 <1>  -0.3630 
  6 C       -4.3400     0.6900     0.9680 C.ar  1 <1>  -0.1500 
  7 C       -4.7870    -0.0590    -1.2610 C.ar  1 <1>  -0.1500 
  8 C       -1.7940    -1.2480     2.7100 C.3   1 <1>   0.0400 
  9 C       -5.0990     0.7890    -0.1980 C.ar  1 <1>   0.0530 
 10 C       -6.1870     1.7240    -0.2890 C.2   1 <1>   0.0870 
 11 O       -6.0830     2.9450     0.1680 O.3   1 <1>  -0.0190 
 12 C       -7.4460     1.5870    -0.7720 C.2   1 <1>  -0.0860 
 13 N       -7.1850     3.6350     0.0190 N.2   1 <1>  -0.4100 
 14 C       -8.0220     2.8390    -0.5520 C.2   1 <1>   0.3720 
 15 C       -8.0840     0.4320    -1.3100 C.2   1 <1>   0.7160 
 16 N       -9.3430     3.1810    -0.8790 N.pl3 1 <1>  -0.8210 
 17 O       -7.9430     0.1640    -2.4900 O.2   1 <1>  -0.5700 
 18 N       -8.7930    -0.4360    -0.5040 N.am  1 <1>  -0.6600 
 19 C       -9.9090     4.3420    -0.1370 C.3   1 <1>   0.1290 
 20 C       -9.6060     3.2750    -2.3420 C.3   1 <1>   0.1290 
 21 C       -9.4730    -1.6380    -1.0520 C.3   1 <1>   0.1400 
 22 C       -9.1650    -0.1190     0.9010 C.3   1 <1>   0.1400 
 23 C       -8.6330    -2.9120    -0.8950 C.3   1 <1>  -0.1600 
 24 C       -8.3610    -0.9710     1.8870 C.3   1 <1>  -0.1600 
 25 C       -7.7680    -3.0600     0.3740 C.3   1 <1>   0.2800 
 26 C       -8.4290    -2.5020     1.6610 C.3   1 <1>  -0.1600 
 27 O       -6.6100    -2.3430     0.1490 O.3   1 <1>  -0.6800 
 28 C       -7.3580    -4.5440     0.5480 C.3   1 <1>   0.1200 
 29 O       -6.3000    -4.6590     1.4400 O.3   1 <1>  -0.6800 
 30 H       -3.5310    -1.6400    -1.9800 H     1 <1>   0.1500 
 31 H       -4.5590     1.3410     1.7950 H     1 <1>   0.1500 
 32 H       -5.3500     0.0040    -2.1780 H     1 <1>   0.1500 
 33 H       -1.5350    -1.0830     3.7390 H     1 <1>   0.0800 
 34 H       -0.9090    -1.2040     2.1010 H     1 <1>   0.0800 
 35 H       -2.2880    -2.1990     2.6050 H     1 <1>   0.0800 
 36 H       -9.7220     4.2280     0.9170 H     1 <1>   0.0800 
 37 H      -10.9720     4.3970    -0.2950 H     1 <1>   0.0800 
 38 H       -9.4500     5.2560    -0.4740 H     1 <1>   0.0800 
 39 H       -9.1590     2.4470    -2.8640 H     1 <1>   0.0800 
 40 H       -9.1930     4.1900    -2.7320 H     1 <1>   0.0800 
 41 H      -10.6660     3.2590    -2.5230 H     1 <1>   0.0800 
 42 H       -9.7010    -1.4890    -2.0950 H     1 <1>   0.0800 
 43 H      -10.4140    -1.7710    -0.5450 H     1 <1>   0.0800 
 44 H      -10.2160    -0.3020     1.0410 H     1 <1>   0.0800 
 45 H       -9.0000     0.9230     1.1150 H     1 <1>   0.0800 
 46 H       -8.0010    -3.0140    -1.7600 H     1 <1>   0.0800 
 47 H       -9.3240    -3.7350    -0.9330 H     1 <1>   0.0800 
 48 H       -8.7410    -0.7650     2.8720 H     1 <1>   0.0800 
 49 H       -7.3370    -0.6390     1.8890 H     1 <1>   0.0800 
 50 H       -9.4540    -2.8250     1.6940 H     1 <1>   0.0800 
 51 H       -7.9470    -2.9610     2.5070 H     1 <1>   0.0800 
 52 H       -6.8830    -1.4310    -0.0800 H     1 <1>   0.4000 
 53 H       -7.0320    -4.9470    -0.3950 H     1 <1>   0.0800 
 54 H       -8.1780    -5.1350     0.9150 H     1 <1>   0.0800 
 55 H       -5.7120    -3.8880     1.2720 H     1 <1>   0.4000 
@<TRIPOS>BOND
  1   1   2  1   
  2   2   3  ar  
  3   2   4  ar  
  4   3   5  1   
  5   3   6  ar  
  6   4   7  ar  
  7   4  30  1   
  8   5   8  1   
  9   6   9  ar  
 10   6  31  1   
 11   7   9  ar  
 12   7  32  1   
 13   8  33  1   
 14   8  34  1   
 15   8  35  1   
 16   9  10  1   
 17  10  11  1   
 18  10  12  2   
 19  11  13  1   
 20  12  14  1   
 21  12  15  1   
 22  13  14  2   
 23  14  16  1   
 24  15  17  2   
 25  15  18  am  
 26  16  19  1   
 27  16  20  1   
 28  18  21  1   
 29  18  22  1   
 30  19  36  1   
 31  19  37  1   
 32  19  38  1   
 33  20  39  1   
 34  20  40  1   
 35  20  41  1   
 36  21  23  1   
 37  21  42  1   
 38  21  43  1   
 39  22  24  1   
 40  22  44  1   
 41  22  45  1   
 42  23  25  1   
 43  23  46  1   
 44  23  47  1   
 45  24  26  1   
 46  24  48  1   
 47  24  49  1   
 48  25  26  1   
 49  25  27  1   
 50  25  28  1   
 51  26  50  1   
 52  26  51  1   
 53  27  52  1   
 54  28  29  1   
 55  28  53  1   
 56  28  54  1   
 57  29  55  1   
@<TRIPOS>SUBSTRUCTURE
  1 ****   9 GROUP 4 **** **** 0

# MOE 2024.06 (io_trps.svl 2023.06)
