@<TRIPOS>MOLECULE
NONAME
53 55 1 0 0 
SMALL
USER_CHARGES


@<TRIPOS>ATOM
  1 O        1.0410    -0.5510    -0.6090 O.2   1 <1>  -0.5700 
  2 C        1.6690    -0.7760     0.3990 C.2   1 <1>   0.5690 
  3 N        2.4170     0.1730     1.0310 N.am  1 <1>  -0.4930 
  4 C        1.6440    -2.1810     1.0020 C.3   1 <1>  -0.0190 
  5 C        2.6090     1.5310     0.6750 C.2   1 <1>   0.0630 
  6 C        2.7410    -3.0660     0.3810 C.3   1 <1>  -0.1600 
  7 C        0.2700    -2.8660     0.8520 C.3   1 <1>  -0.1600 
  8 C        2.0770     2.2550    -0.3950 C.2   1 <1>   0.1390 
  9 C        3.3810     2.4200     1.3330 C.2   1 <1>  -0.3020 
 10 C        2.7220    -4.4830     0.9620 C.3   1 <1>   0.1400 
 11 C        0.2800    -4.2830     1.4310 C.3   1 <1>   0.1400 
 12 N        2.4850     3.4900    -0.4060 N.2   1 <1>  -0.7070 
 13 N        3.2920     3.5940     0.6690 N.pl3 1 <1>   0.3140 
 14 N        1.3660    -5.0750     0.7870 N.am  1 <1>  -0.6600 
 15 C        3.9730     4.8530     1.0050 C.3   1 <1>   0.1570 
 16 C        1.1920    -6.2260     0.0490 C.2   1 <1>   0.5690 
 17 C        5.1980     5.0270     0.1370 C.2   1 <1>   0.5690 
 18 O        2.1420    -6.8100    -0.4220 O.2   1 <1>  -0.5700 
 19 C       -0.2090    -6.8040    -0.2070 C.3   1 <1>  -0.0190 
 20 O        6.2240     5.3870     0.6620 O.2   1 <1>  -0.5700 
 21 N        5.1120     4.7900    -1.2010 N.am  1 <1>  -0.7300 
 22 C       -0.2520    -8.2440    -0.7300 C.3   1 <1>  -0.1600 
 23 C       -1.0030    -6.0370    -1.2700 C.3   1 <1>  -0.1600 
 24 C        6.2150     4.9140    -2.1840 C.3   1 <1>   0.0600 
 25 C       -1.6570    -8.4040    -1.3090 C.3   1 <1>  -0.1600 
 26 C       -2.0920    -7.0020    -1.7520 C.3   1 <1>  -0.1600 
 27 H        2.9250    -0.1210     1.8610 H     1 <1>   0.3700 
 28 H        1.8450    -2.0910     2.0550 H     1 <1>   0.0800 
 29 H        3.7080    -2.6290     0.5520 H     1 <1>   0.0800 
 30 H        2.5960    -3.1290    -0.6840 H     1 <1>   0.0800 
 31 H        0.0010    -2.9220    -0.1890 H     1 <1>   0.0800 
 32 H       -0.4820    -2.2810     1.3510 H     1 <1>   0.0800 
 33 H        1.4070     1.8410    -1.1300 H     1 <1>   0.1500 
 34 H        3.9800     2.2900     2.2150 H     1 <1>   0.1500 
 35 H        2.9600    -4.4590     2.0110 H     1 <1>   0.0800 
 36 H        3.4700    -5.0800     0.4690 H     1 <1>   0.0800 
 37 H       -0.6830    -4.7320     1.2820 H     1 <1>   0.0800 
 38 H        0.4620    -4.2440     2.4920 H     1 <1>   0.0800 
 39 H        4.2590     4.8360     2.0390 H     1 <1>   0.0800 
 40 H        3.2970     5.6680     0.8360 H     1 <1>   0.0800 
 41 H       -0.7580    -6.7970     0.7160 H     1 <1>   0.0800 
 42 H        4.2230     4.4000    -1.5530 H     1 <1>   0.3700 
 43 H       -0.0440    -8.9610     0.0450 H     1 <1>   0.0800 
 44 H        0.4680    -8.3670    -1.5220 H     1 <1>   0.0800 
 45 H       -0.3490    -5.8030    -2.0930 H     1 <1>   0.0800 
 46 H       -1.4210    -5.1220    -0.8910 H     1 <1>   0.0800 
 47 H        7.1010     5.2980    -1.7050 H     1 <1>   0.0800 
 48 H        5.9250     5.5870    -2.9720 H     1 <1>   0.0800 
 49 H        6.4360     3.9490    -2.6040 H     1 <1>   0.0800 
 50 H       -2.3240    -8.7620    -0.5430 H     1 <1>   0.0800 
 51 H       -1.6630    -9.1010    -2.1300 H     1 <1>   0.0800 
 52 H       -2.1910    -6.9490    -2.8220 H     1 <1>   0.0800 
 53 H       -3.0380    -6.7550    -1.3020 H     1 <1>   0.0800 
@<TRIPOS>BOND
  1   1   2  2   
  2   2   3  am  
  3   2   4  1   
  4   3   5  1   
  5   3  27  1   
  6   4   6  1   
  7   4   7  1   
  8   4  28  1   
  9   5   8  1   
 10   5   9  2   
 11   6  10  1   
 12   6  29  1   
 13   6  30  1   
 14   7  11  1   
 15   7  31  1   
 16   7  32  1   
 17   8  12  2   
 18   8  33  1   
 19   9  13  1   
 20   9  34  1   
 21  10  14  1   
 22  10  35  1   
 23  10  36  1   
 24  11  14  1   
 25  11  37  1   
 26  11  38  1   
 27  12  13  1   
 28  13  15  1   
 29  14  16  am  
 30  15  17  1   
 31  15  39  1   
 32  15  40  1   
 33  16  18  2   
 34  16  19  1   
 35  17  20  2   
 36  17  21  am  
 37  19  22  1   
 38  19  23  1   
 39  19  41  1   
 40  21  24  1   
 41  21  42  1   
 42  22  25  1   
 43  22  43  1   
 44  22  44  1   
 45  23  26  1   
 46  23  45  1   
 47  23  46  1   
 48  24  47  1   
 49  24  48  1   
 50  24  49  1   
 51  25  26  1   
 52  25  50  1   
 53  25  51  1   
 54  26  52  1   
 55  26  53  1   
@<TRIPOS>SUBSTRUCTURE
  1 ****   2 GROUP 4 **** **** 0

# MOE 2024.06 (io_trps.svl 2023.06)
