@<TRIPOS>MOLECULE
NONAME
55 58 1 0 0 
SMALL
USER_CHARGES


@<TRIPOS>ATOM
  1 O        0.8530    -1.3240    -3.0590 O.2   1 <1>  -0.5700 
  2 C        0.9800    -1.8590    -1.9850 C.2   1 <1>   0.5690 
  3 N        1.6610    -1.2370    -0.9700 N.am  1 <1>  -0.6600 
  4 C        0.3250    -3.2240    -1.8520 C.3   1 <1>  -0.0990 
  5 C        2.1220    -1.9040     0.2870 C.3   1 <1>   0.1400 
  6 C        1.9970     0.2160    -1.1020 C.3   1 <1>   0.2840 
  7 C        0.7620    -4.1260    -0.6990 C.3   1 <1>   0.1200 
  8 C        2.8760    -3.2450     0.0580 C.3   1 <1>   0.2800 
  9 C        1.7280     0.9630     0.1980 C.ar  1 <1>  -0.1440 
 10 O        2.1550    -4.2020    -0.6700 O.3   1 <1>  -0.5600 
 11 C        4.1600    -3.0090    -0.7460 C.3   1 <1>  -0.1600 
 12 C        3.2370    -3.9070     1.3930 C.3   1 <1>  -0.1600 
 13 C        2.7630     1.5790     0.8870 C.ar  1 <1>  -0.1500 
 14 C        0.4400     1.0270     0.7080 C.ar  1 <1>  -0.1500 
 15 C        4.9240    -4.3150    -0.9540 C.3   1 <1>   0.3430 
 16 C        4.0150    -5.2060     1.1650 C.3   1 <1>   0.3430 
 17 C        2.5140     2.2420     2.0760 C.ar  1 <1>  -0.1500 
 18 C        0.1900     1.6900     1.8970 C.ar  1 <1>  -0.1500 
 19 N        5.2500    -4.9690     0.3560 N.4   1 <1>  -0.9590 
 20 C        1.2280     2.2960     2.5820 C.ar  1 <1>  -0.1500 
 21 C        6.3160    -4.2600     1.1210 C.3   1 <1>   0.4860 
 22 C        7.5930    -4.2570     0.3020 C.ar  1 <1>  -0.1440 
 23 C        8.0380    -3.1200    -0.3470 C.ar  1 <1>  -0.1500 
 24 C        8.3740    -5.3890     0.1610 C.ar  1 <1>  -0.1500 
 25 C        9.2020    -3.1730    -1.0960 C.ar  1 <1>   0.1600 
 26 C        9.5210    -5.3340    -0.6120 C.ar  1 <1>   0.1600 
 27 N        9.9440    -4.2550    -1.2460 N.ar  1 <1>  -0.6200 
 28 H        0.4980    -3.7550    -2.7700 H     1 <1>   0.0800 
 29 H       -0.7360    -3.0700    -1.7820 H     1 <1>   0.0800 
 30 H        1.2820    -2.0360     0.9450 H     1 <1>   0.0800 
 31 H        2.8010    -1.2480     0.8030 H     1 <1>   0.0800 
 32 H        1.4070     0.6710    -1.8810 H     1 <1>   0.0800 
 33 H        3.0320     0.3120    -1.3810 H     1 <1>   0.0800 
 34 H        0.3910    -5.1210    -0.8750 H     1 <1>   0.0800 
 35 H        0.3790    -3.7970     0.2500 H     1 <1>   0.0800 
 36 H        4.7840    -2.2830    -0.2590 H     1 <1>   0.0800 
 37 H        3.9040    -2.6060    -1.7110 H     1 <1>   0.0800 
 38 H        2.3340    -4.1290     1.9340 H     1 <1>   0.0800 
 39 H        3.8110    -3.2330     2.0030 H     1 <1>   0.0800 
 40 H        3.7670     1.5520     0.5020 H     1 <1>   0.1500 
 41 H       -0.3720     0.5590     0.1780 H     1 <1>   0.1500 
 42 H        5.8260    -4.1290    -1.5160 H     1 <1>   0.0800 
 43 H        4.3050    -4.9790    -1.5370 H     1 <1>   0.0800 
 44 H        3.3740    -5.8950     0.6360 H     1 <1>   0.0800 
 45 H        4.2690    -5.6520     2.1130 H     1 <1>   0.0800 
 46 H        3.3180     2.7210     2.6070 H     1 <1>   0.1500 
 47 H       -0.8120     1.7360     2.2870 H     1 <1>   0.1500 
 48 H        5.6460    -5.8870     0.1170 H     1 <1>   0.4500 
 49 H        1.0330     2.8130     3.5060 H     1 <1>   0.1500 
 50 H        6.4970    -4.7640     2.0570 H     1 <1>   0.0800 
 51 H        6.0150    -3.2480     1.3340 H     1 <1>   0.0800 
 52 H        7.5050    -2.1890    -0.2840 H     1 <1>   0.1500 
 53 H        8.1180    -6.3170     0.6410 H     1 <1>   0.1500 
 54 H        9.5420    -2.2820    -1.5980 H     1 <1>   0.1500 
 55 H       10.1240    -6.2220    -0.7160 H     1 <1>   0.1500 
@<TRIPOS>BOND
  1   1   2  2   
  2   2   3  am  
  3   2   4  1   
  4   3   5  1   
  5   3   6  1   
  6   4   7  1   
  7   4  28  1   
  8   4  29  1   
  9   5   8  1   
 10   5  30  1   
 11   5  31  1   
 12   6   9  1   
 13   6  32  1   
 14   6  33  1   
 15   7  10  1   
 16   7  34  1   
 17   7  35  1   
 18   8  10  1   
 19   8  11  1   
 20   8  12  1   
 21   9  13  ar  
 22   9  14  ar  
 23  11  15  1   
 24  11  36  1   
 25  11  37  1   
 26  12  16  1   
 27  12  38  1   
 28  12  39  1   
 29  13  17  ar  
 30  13  40  1   
 31  14  18  ar  
 32  14  41  1   
 33  15  19  1   
 34  15  42  1   
 35  15  43  1   
 36  16  19  1   
 37  16  44  1   
 38  16  45  1   
 39  17  20  ar  
 40  17  46  1   
 41  18  20  ar  
 42  18  47  1   
 43  19  21  1   
 44  19  48  1   
 45  20  49  1   
 46  21  22  1   
 47  21  50  1   
 48  21  51  1   
 49  22  23  ar  
 50  22  24  ar  
 51  23  25  ar  
 52  23  52  1   
 53  24  26  ar  
 54  24  53  1   
 55  25  27  ar  
 56  25  54  1   
 57  26  27  ar  
 58  26  55  1   
@<TRIPOS>SUBSTRUCTURE
  1 ****  11 GROUP 4 **** **** 0

# MOE 2024.06 (io_trps.svl 2023.06)
