@<TRIPOS>MOLECULE
NONAME
38 41 1 0 0 
SMALL
USER_CHARGES


@<TRIPOS>ATOM
  1 S       -1.2490    -0.0740    -2.2280 S.3   1 <1>  -0.4600 
  2 C       -2.2500     0.7460    -0.9460 C.3   1 <1>   0.2510 
  3 C       -1.7490    -1.7940    -1.9190 C.3   1 <1>   0.2510 
  4 C       -3.0030    -0.4010    -0.3140 C.2   1 <1>   0.1080 
  5 C       -2.7540    -1.6670    -0.8000 C.2   1 <1>  -0.1810 
  6 N       -3.8740    -0.3850     0.6430 N.2   1 <1>  -0.7070 
  7 C       -3.5390    -2.4950    -0.0720 C.2   1 <1>  -0.0880 
  8 N       -4.2130    -1.6890     0.8060 N.pl3 1 <1>   0.3140 
  9 N       -3.6410    -3.9000    -0.2270 N.am  1 <1>  -0.4940 
 10 C       -5.2590    -2.0520     1.7720 C.3   1 <1>   0.0160 
 11 C       -3.8650    -4.8920     0.6920 C.2   1 <1>   0.5690 
 12 O       -3.9870    -4.6660     1.8740 O.2   1 <1>  -0.5700 
 13 C       -3.9130    -6.3330     0.1710 C.3   1 <1>   0.1240 
 14 C       -5.1800    -6.6980    -0.5820 C.ar  1 <1>  -0.1430 
 15 C       -3.8260    -7.4440     1.2440 C.3   1 <1>  -0.1600 
 16 C       -5.5470    -7.9940    -0.3060 C.ar  1 <1>  -0.1430 
 17 C       -5.9390    -5.9310    -1.4540 C.ar  1 <1>  -0.1500 
 18 C       -4.6030    -8.6410     0.6770 C.3   1 <1>  -0.0170 
 19 C       -6.6630    -8.5610    -0.8910 C.ar  1 <1>  -0.1500 
 20 C       -7.0610    -6.4910    -2.0450 C.ar  1 <1>  -0.1500 
 21 C       -7.4210    -7.8010    -1.7670 C.ar  1 <1>  -0.1500 
 22 H       -2.9090     1.4490    -1.4220 H     1 <1>   0.0800 
 23 H       -1.5890     1.2280    -0.2500 H     1 <1>   0.0800 
 24 H       -0.8760    -2.3480    -1.6250 H     1 <1>   0.0800 
 25 H       -2.1830    -2.1820    -2.8230 H     1 <1>   0.0800 
 26 H       -3.4770    -4.2320    -1.1770 H     1 <1>   0.3700 
 27 H       -5.8810    -1.1960     1.9560 H     1 <1>   0.0800 
 28 H       -4.7950    -2.3630     2.6880 H     1 <1>   0.0800 
 29 H       -5.8540    -2.8520     1.3740 H     1 <1>   0.0800 
 30 H       -3.0890    -6.4670    -0.5060 H     1 <1>   0.0800 
 31 H       -4.3270    -7.1210     2.1410 H     1 <1>   0.0800 
 32 H       -2.8090    -7.6940     1.4850 H     1 <1>   0.0800 
 33 H       -5.6800    -4.9130    -1.6790 H     1 <1>   0.1500 
 34 H       -5.1330    -9.1700     1.4500 H     1 <1>   0.0800 
 35 H       -3.9450    -9.3150     0.1560 H     1 <1>   0.0800 
 36 H       -6.9410    -9.5770    -0.6690 H     1 <1>   0.1500 
 37 H       -7.6580    -5.9060    -2.7230 H     1 <1>   0.1500 
 38 H       -8.2930    -8.2290    -2.2300 H     1 <1>   0.1500 
@<TRIPOS>BOND
  1   1   2  1   
  2   1   3  1   
  3   2   4  1   
  4   2  22  1   
  5   2  23  1   
  6   3   5  1   
  7   3  24  1   
  8   3  25  1   
  9   4   5  1   
 10   4   6  2   
 11   5   7  2   
 12   6   8  1   
 13   7   8  1   
 14   7   9  1   
 15   8  10  1   
 16   9  11  am  
 17   9  26  1   
 18  10  27  1   
 19  10  28  1   
 20  10  29  1   
 21  11  12  2   
 22  11  13  1   
 23  13  14  1   
 24  13  15  1   
 25  13  30  1   
 26  14  16  ar  
 27  14  17  ar  
 28  15  18  1   
 29  15  31  1   
 30  15  32  1   
 31  16  18  1   
 32  16  19  ar  
 33  17  20  ar  
 34  17  33  1   
 35  18  34  1   
 36  18  35  1   
 37  19  21  ar  
 38  19  36  1   
 39  20  21  ar  
 40  20  37  1   
 41  21  38  1   
@<TRIPOS>SUBSTRUCTURE
  1 ****   9 GROUP 4 **** **** 0

# MOE 2024.06 (io_trps.svl 2023.06)
