@<TRIPOS>MOLECULE
NONAME
46 48 1 0 0 
SMALL
USER_CHARGES


@<TRIPOS>ATOM
  1 CL      -2.7210    -0.2640    -2.2130 Cl    1 <1>  -0.1770 
  2 C       -2.6910     0.4550    -0.6150 C.ar  1 <1>   0.1770 
  3 C       -2.4480     1.8130    -0.4980 C.ar  1 <1>   0.1770 
  4 C       -2.9000    -0.3370     0.5150 C.ar  1 <1>   0.0860 
  5 CL      -2.2010     2.8020    -1.9180 Cl    1 <1>  -0.1770 
  6 C       -2.3950     2.4220     0.7420 C.ar  1 <1>  -0.1500 
  7 C       -3.1680    -1.7570     0.4350 C.2   1 <1>   0.5440 
  8 C       -2.8300     0.2950     1.7600 C.ar  1 <1>  -0.1500 
  9 C       -2.5850     1.6520     1.8770 C.ar  1 <1>  -0.1500 
 10 O       -2.5170    -2.5330     1.1090 O.2   1 <1>  -0.5700 
 11 N       -4.1850    -2.2840    -0.3290 N.am  1 <1>  -0.6600 
 12 C       -4.2160    -3.7370    -0.6350 C.3   1 <1>   0.1400 
 13 C       -5.4910    -1.5970    -0.5100 C.3   1 <1>   0.1400 
 14 C       -5.2060    -4.4220     0.3290 C.3   1 <1>   0.4230 
 15 C       -6.5070    -2.2580     0.4340 C.3   1 <1>  -0.1600 
 16 N       -5.1840    -5.9440     0.2600 N.4   1 <1>  -0.9590 
 17 C       -6.6340    -3.8000     0.2410 C.3   1 <1>   0.0000 
 18 C       -6.3920    -6.6010     0.8570 C.3   1 <1>   0.3430 
 19 C       -4.8980    -6.5250    -1.0930 C.3   1 <1>   0.2630 
 20 C       -7.5140    -4.3760     1.3900 C.3   1 <1>  -0.1600 
 21 C       -7.2720    -4.1160    -1.1430 C.3   1 <1>   0.1200 
 22 C       -7.0120    -5.7240     1.9440 C.3   1 <1>  -0.1600 
 23 O       -8.4610    -3.4300    -1.3290 O.3   1 <1>  -0.6800 
 24 H       -2.2040     3.4790     0.8150 H     1 <1>   0.1500 
 25 H       -2.9670    -0.2970     2.6500 H     1 <1>   0.1500 
 26 H       -2.5390     2.1110     2.8520 H     1 <1>   0.1500 
 27 H       -4.5050    -3.8650    -1.6620 H     1 <1>   0.0800 
 28 H       -3.2320    -4.1540    -0.5070 H     1 <1>   0.0800 
 29 H       -5.4070    -0.5500    -0.2750 H     1 <1>   0.0800 
 30 H       -5.8090    -1.6810    -1.5360 H     1 <1>   0.0800 
 31 H       -4.8490    -4.1640     1.3130 H     1 <1>   0.0800 
 32 H       -6.1910    -2.0420     1.4400 H     1 <1>   0.0800 
 33 H       -7.4610    -1.7780     0.3040 H     1 <1>   0.0800 
 34 H       -4.3910    -6.2070     0.8660 H     1 <1>   0.4500 
 35 H       -7.1320    -6.7690     0.0910 H     1 <1>   0.0800 
 36 H       -6.1200    -7.5590     1.2710 H     1 <1>   0.0800 
 37 H       -5.6680    -6.2500    -1.7950 H     1 <1>   0.0800 
 38 H       -4.8570    -7.6020    -1.0350 H     1 <1>   0.0800 
 39 H       -3.9490    -6.1730    -1.4640 H     1 <1>   0.0800 
 40 H       -7.5550    -3.6880     2.2180 H     1 <1>   0.0800 
 41 H       -8.5290    -4.4950     1.0550 H     1 <1>   0.0800 
 42 H       -7.4870    -5.1630    -1.2500 H     1 <1>   0.0800 
 43 H       -6.6250    -3.8190    -1.9490 H     1 <1>   0.0800 
 44 H       -7.8370    -6.2490     2.3940 H     1 <1>   0.0800 
 45 H       -6.2840    -5.5590     2.7200 H     1 <1>   0.0800 
 46 H       -9.1470    -3.6930    -0.6850 H     1 <1>   0.4000 
@<TRIPOS>BOND
  1   1   2  1   
  2   2   3  ar  
  3   2   4  ar  
  4   3   5  1   
  5   3   6  ar  
  6   4   7  1   
  7   4   8  ar  
  8   6   9  ar  
  9   6  24  1   
 10   7  10  2   
 11   7  11  am  
 12   8   9  ar  
 13   8  25  1   
 14   9  26  1   
 15  11  12  1   
 16  11  13  1   
 17  12  14  1   
 18  12  27  1   
 19  12  28  1   
 20  13  15  1   
 21  13  29  1   
 22  13  30  1   
 23  14  16  1   
 24  14  17  1   
 25  14  31  1   
 26  15  17  1   
 27  15  32  1   
 28  15  33  1   
 29  16  18  1   
 30  16  19  1   
 31  16  34  1   
 32  17  20  1   
 33  17  21  1   
 34  18  22  1   
 35  18  35  1   
 36  18  36  1   
 37  19  37  1   
 38  19  38  1   
 39  19  39  1   
 40  20  22  1   
 41  20  40  1   
 42  20  41  1   
 43  21  23  1   
 44  21  42  1   
 45  21  43  1   
 46  22  44  1   
 47  22  45  1   
 48  23  46  1   
@<TRIPOS>SUBSTRUCTURE
  1 ****  11 GROUP 4 **** **** 0

# MOE 2024.06 (io_trps.svl 2023.06)
