@<TRIPOS>MOLECULE
NONAME
58 63 1 0 0 
SMALL
USER_CHARGES


@<TRIPOS>ATOM
  1 O        0.0100     0.3240    -0.9810 O.2   1 <1>  -0.5700 
  2 C       -0.4290     1.4560    -1.0720 C.2   1 <1>   0.5440 
  3 N       -1.7950     1.6350    -1.1840 N.am  1 <1>  -0.6600 
  4 C        0.4880     2.5760    -1.0280 C.ar  1 <1>   0.0860 
  5 C       -2.4700     2.9660    -1.0780 C.3   1 <1>   0.1400 
  6 C       -2.7200     0.4590    -1.2280 C.3   1 <1>   0.1400 
  7 C        1.2860     2.7970     0.0820 C.ar  1 <1>  -0.1500 
  8 C        0.5850     3.4780    -2.1100 C.ar  1 <1>  -0.1500 
  9 C       -3.3180     3.0540     0.2090 C.3   1 <1>   0.1440 
 10 C       -4.1340     0.8130    -0.7300 C.3   1 <1>  -0.1600 
 11 C        2.1310     3.9050     0.1310 C.ar  1 <1>  -0.1520 
 12 C        1.4160     4.5720    -2.0690 C.ar  1 <1>  -0.1500 
 13 C       -4.2460     4.2470     0.0500 C.ar  1 <1>   0.1660 
 14 C       -4.0740     1.7300     0.5030 C.3   1 <1>  -0.1600 
 15 C       -2.4490     3.4870     1.4190 C.3   1 <1>  -0.1600 
 16 N        2.9970     4.3300     1.1100 N.pl3 1 <1>   0.0330 
 17 C        2.1960     4.8010    -0.9320 C.ar  1 <1>   0.0000 
 18 N       -5.3360     4.2780    -0.6850 N.ar  1 <1>  -0.6200 
 19 C       -3.7990     5.3250     0.7550 C.ar  1 <1>  -0.1430 
 20 C       -2.5200     5.0210     1.4930 C.3   1 <1>  -0.0170 
 21 C        3.5920     5.4780     0.6740 C.2   1 <1>  -0.3320 
 22 C        3.1240     5.7930    -0.5540 C.2   1 <1>  -0.1810 
 23 C       -5.9730     5.4400    -0.6720 C.ar  1 <1>   0.4770 
 24 C       -4.5360     6.4820     0.6940 C.ar  1 <1>   0.1600 
 25 C        4.6200     6.2840     1.4450 C.3   1 <1>   0.0200 
 26 C        3.5650     7.0080    -1.3450 C.3   1 <1>   0.0210 
 27 N       -5.6390     6.5490    -0.0240 N.ar  1 <1>  -0.6200 
 28 C       -7.2380     5.5160    -1.4920 C.3   1 <1>  -0.0970 
 29 C        5.3060     7.2930     0.5050 C.3   1 <1>  -0.1600 
 30 C        4.3000     8.0020    -0.4250 C.3   1 <1>  -0.1600 
 31 H       -3.1120     3.0850    -1.9340 H     1 <1>   0.0800 
 32 H       -1.7660     3.7760    -1.0960 H     1 <1>   0.0800 
 33 H       -2.3200    -0.3210    -0.6010 H     1 <1>   0.0800 
 34 H       -2.7670     0.0820    -2.2340 H     1 <1>   0.0800 
 35 H        1.2510     2.1090     0.9080 H     1 <1>   0.1500 
 36 H       -0.0150     3.2880    -2.9820 H     1 <1>   0.1500 
 37 H       -4.6600    -0.0930    -0.4890 H     1 <1>   0.0800 
 38 H       -4.6820     1.3010    -1.5180 H     1 <1>   0.0800 
 39 H        1.4830     5.2580    -2.8930 H     1 <1>   0.1500 
 40 H       -5.0690     1.9410     0.8540 H     1 <1>   0.0800 
 41 H       -3.5640     1.1870     1.2800 H     1 <1>   0.0800 
 42 H       -1.4360     3.1320     1.3450 H     1 <1>   0.0800 
 43 H       -2.8790     3.0980     2.3260 H     1 <1>   0.0800 
 44 H        3.1750     3.8500     1.9960 H     1 <1>   0.2700 
 45 H       -1.6860     5.4670     0.9770 H     1 <1>   0.0800 
 46 H       -2.5500     5.3690     2.5110 H     1 <1>   0.0800 
 47 H       -4.2240     7.3580     1.2340 H     1 <1>   0.1500 
 48 H        5.3600     5.6320     1.8740 H     1 <1>   0.0800 
 49 H        4.1240     6.8110     2.2420 H     1 <1>   0.0800 
 50 H        2.7110     7.4860    -1.7890 H     1 <1>   0.0800 
 51 H        4.2230     6.6840    -2.1310 H     1 <1>   0.0800 
 52 H       -7.2670     4.7190    -2.2110 H     1 <1>   0.0800 
 53 H       -7.2810     6.4560    -2.0090 H     1 <1>   0.0800 
 54 H       -8.0870     5.4330    -0.8400 H     1 <1>   0.0800 
 55 H        6.0230     6.7660    -0.1020 H     1 <1>   0.0800 
 56 H        5.8410     8.0200     1.0900 H     1 <1>   0.0800 
 57 H        3.5740     8.5170     0.1800 H     1 <1>   0.0800 
 58 H        4.8100     8.7350    -1.0250 H     1 <1>   0.0800 
@<TRIPOS>BOND
  1   1   2  2   
  2   2   3  am  
  3   2   4  1   
  4   3   5  1   
  5   3   6  1   
  6   4   7  ar  
  7   4   8  ar  
  8   5   9  1   
  9   5  31  1   
 10   5  32  1   
 11   6  10  1   
 12   6  33  1   
 13   6  34  1   
 14   7  11  ar  
 15   7  35  1   
 16   8  12  ar  
 17   8  36  1   
 18   9  13  1   
 19   9  14  1   
 20   9  15  1   
 21  10  14  1   
 22  10  37  1   
 23  10  38  1   
 24  11  16  1   
 25  11  17  ar  
 26  12  17  ar  
 27  12  39  1   
 28  13  18  ar  
 29  13  19  ar  
 30  14  40  1   
 31  14  41  1   
 32  15  20  1   
 33  15  42  1   
 34  15  43  1   
 35  16  21  1   
 36  16  44  1   
 37  17  22  1   
 38  18  23  ar  
 39  19  20  1   
 40  19  24  ar  
 41  20  45  1   
 42  20  46  1   
 43  21  22  2   
 44  21  25  1   
 45  22  26  1   
 46  23  27  ar  
 47  23  28  1   
 48  24  27  ar  
 49  24  47  1   
 50  25  29  1   
 51  25  48  1   
 52  25  49  1   
 53  26  30  1   
 54  26  50  1   
 55  26  51  1   
 56  28  52  1   
 57  28  53  1   
 58  28  54  1   
 59  29  30  1   
 60  29  55  1   
 61  29  56  1   
 62  30  57  1   
 63  30  58  1   
@<TRIPOS>SUBSTRUCTURE
  1 ****   5 GROUP 4 **** **** 0

# MOE 2024.06 (io_trps.svl 2023.06)
