@<TRIPOS>MOLECULE
NONAME
57 60 1 0 0 
SMALL
USER_CHARGES


@<TRIPOS>ATOM
  1 O        0.1360    -2.3420    -1.2720 O.2   1 <1>  -0.5700 
  2 C       -0.2540    -2.7220    -0.1880 C.2   1 <1>   0.6900 
  3 N       -1.5540    -2.9210     0.1780 N.am  1 <1>  -0.4770 
  4 N        0.5850    -3.0390     0.8100 N.am  1 <1>  -0.7300 
  5 C       -2.7120    -2.6920    -0.5770 C.ar  1 <1>   0.1170 
  6 C       -1.6030    -3.4740     1.5520 C.3   1 <1>   0.1400 
  7 C       -0.1260    -3.6020     1.9660 C.3   1 <1>   0.1400 
  8 C       -3.1260    -1.4060    -0.9290 C.ar  1 <1>  -0.1430 
  9 C       -3.4750    -3.7780    -0.9800 C.ar  1 <1>  -0.1500 
 10 C       -4.2830    -1.2420    -1.6720 C.ar  1 <1>  -0.1500 
 11 C       -2.3250    -0.1750    -0.5240 C.3   1 <1>  -0.0970 
 12 C       -4.6500    -3.6300    -1.7100 C.ar  1 <1>   0.0860 
 13 C       -5.0320    -2.3370    -2.0580 C.ar  1 <1>  -0.1500 
 14 C       -5.4520    -4.7740    -2.1000 C.2   1 <1>   0.5440 
 15 O       -5.7640    -4.9210    -3.2670 O.2   1 <1>  -0.5700 
 16 N       -5.9050    -5.6920    -1.1750 N.am  1 <1>  -0.6600 
 17 C       -6.6170    -6.9300    -1.6160 C.3   1 <1>   0.1400 
 18 C       -6.0600    -5.3830     0.2730 C.3   1 <1>   0.1400 
 19 C       -8.1370    -6.7190    -1.7390 C.3   1 <1>   0.1400 
 20 C       -7.2300    -4.4210     0.5190 C.3   1 <1>  -0.1600 
 21 N       -8.7390    -6.1360    -0.4940 N.am  1 <1>  -0.6600 
 22 C       -8.4780    -4.6780    -0.3370 C.3   1 <1>   0.1400 
 23 C       -9.4530    -6.8200     0.4590 C.2   1 <1>   0.5690 
 24 O       -9.8340    -6.2670     1.4650 O.2   1 <1>  -0.5700 
 25 C       -9.7730    -8.3050     0.2850 C.3   1 <1>  -0.0190 
 26 C      -10.8060    -8.8440     1.2650 C.3   1 <1>   0.1200 
 27 C       -8.5890    -9.2390     0.5290 C.3   1 <1>  -0.1600 
 28 O      -10.5680   -10.2120     1.2990 O.3   1 <1>  -0.5600 
 29 C       -9.2000   -10.4510     1.2310 C.3   1 <1>   0.1200 
 30 H        1.5820    -3.1570     0.6290 H     1 <1>   0.3700 
 31 H       -2.0900    -4.4330     1.5570 H     1 <1>   0.0800 
 32 H       -2.1270    -2.7950     2.2020 H     1 <1>   0.0800 
 33 H        0.0820    -3.0340     2.8560 H     1 <1>   0.0800 
 34 H        0.1460    -4.6340     2.1120 H     1 <1>   0.0800 
 35 H       -3.1430    -4.7690    -0.7320 H     1 <1>   0.1500 
 36 H       -4.6050    -0.2560    -1.9610 H     1 <1>   0.1500 
 37 H       -2.0540    -0.2290     0.5140 H     1 <1>   0.0800 
 38 H       -2.8910     0.7250    -0.6800 H     1 <1>   0.0800 
 39 H       -1.4260    -0.1190    -1.1130 H     1 <1>   0.0800 
 40 H       -5.9260    -2.2000    -2.6420 H     1 <1>   0.1500 
 41 H       -6.4180    -7.7230    -0.9180 H     1 <1>   0.0800 
 42 H       -6.2320    -7.2430    -2.5710 H     1 <1>   0.0800 
 43 H       -5.1540    -4.9620     0.6680 H     1 <1>   0.0800 
 44 H       -6.2470    -6.2980     0.8090 H     1 <1>   0.0800 
 45 H       -8.5980    -7.6570    -1.9840 H     1 <1>   0.0800 
 46 H       -8.3230    -6.0570    -2.5670 H     1 <1>   0.0800 
 47 H       -6.9010    -3.4120     0.3500 H     1 <1>   0.0800 
 48 H       -7.5090    -4.4860     1.5560 H     1 <1>   0.0800 
 49 H       -8.3400    -4.2340    -1.3090 H     1 <1>   0.0800 
 50 H       -9.3310    -4.2010     0.1160 H     1 <1>   0.0800 
 51 H      -10.1720    -8.4660    -0.6990 H     1 <1>   0.0800 
 52 H      -11.8170    -8.6610     0.9460 H     1 <1>   0.0800 
 53 H      -10.6560    -8.4590     2.2600 H     1 <1>   0.0800 
 54 H       -7.8620    -8.7820     1.1780 H     1 <1>   0.0800 
 55 H       -8.1110    -9.5280    -0.3900 H     1 <1>   0.0800 
 56 H       -8.8280   -10.5510     2.2370 H     1 <1>   0.0800 
 57 H       -9.0410   -11.3650     0.6850 H     1 <1>   0.0800 
@<TRIPOS>BOND
  1   1   2  2   
  2   2   3  am  
  3   2   4  am  
  4   3   5  1   
  5   3   6  1   
  6   4   7  1   
  7   4  30  1   
  8   5   8  ar  
  9   5   9  ar  
 10   6   7  1   
 11   6  31  1   
 12   6  32  1   
 13   7  33  1   
 14   7  34  1   
 15   8  10  ar  
 16   8  11  1   
 17   9  12  ar  
 18   9  35  1   
 19  10  13  ar  
 20  10  36  1   
 21  11  37  1   
 22  11  38  1   
 23  11  39  1   
 24  12  13  ar  
 25  12  14  1   
 26  13  40  1   
 27  14  15  2   
 28  14  16  am  
 29  16  17  1   
 30  16  18  1   
 31  17  19  1   
 32  17  41  1   
 33  17  42  1   
 34  18  20  1   
 35  18  43  1   
 36  18  44  1   
 37  19  21  1   
 38  19  45  1   
 39  19  46  1   
 40  20  22  1   
 41  20  47  1   
 42  20  48  1   
 43  21  22  1   
 44  21  23  am  
 45  22  49  1   
 46  22  50  1   
 47  23  24  2   
 48  23  25  1   
 49  25  26  1   
 50  25  27  1   
 51  25  51  1   
 52  26  28  1   
 53  26  52  1   
 54  26  53  1   
 55  27  29  1   
 56  27  54  1   
 57  27  55  1   
 58  28  29  1   
 59  29  56  1   
 60  29  57  1   
@<TRIPOS>SUBSTRUCTURE
  1 ****  18 GROUP 4 **** **** 0

# MOE 2024.06 (io_trps.svl 2023.06)
