@<TRIPOS>MOLECULE
NONAME
55 57 1 0 0 
SMALL
USER_CHARGES


@<TRIPOS>ATOM
  1 O        2.4710    -2.1510     2.1510 O.2   1 <1>  -0.5700 
  2 C        2.7860    -1.8100     1.0350 C.2   1 <1>   0.5690 
  3 N        3.0520    -0.5040     0.7160 N.am  1 <1>  -0.4940 
  4 C        2.9180    -2.8840    -0.0530 C.3   1 <1>   0.2370 
  5 C        3.1020     0.6720     1.4950 C.2   1 <1>  -0.0880 
  6 N        2.5260    -2.3680    -1.3910 N.pl3 1 <1>   0.0480 
  7 C        2.1550    -4.1930     0.2360 C.3   1 <1>  -0.2400 
  8 N        2.3490     1.0100     2.5750 N.pl3 1 <1>   0.3140 
  9 C        3.9270     1.7270     1.2410 C.2   1 <1>  -0.0540 
 10 C        1.3810    -1.7750    -1.8350 C.2   1 <1>   0.0060 
 11 C        3.3090    -2.4550    -2.4840 C.2   1 <1>  -0.3020 
 12 N        2.6550     2.2470     3.0190 N.2   1 <1>  -0.7070 
 13 C        1.2510     0.2670     3.2060 C.3   1 <1>   0.0160 
 14 C        4.9360     1.8500     0.2110 C.ar  1 <1>   0.0540 
 15 C        3.5820     2.6650     2.2220 C.2   1 <1>   0.1080 
 16 N        1.4130    -1.4940    -3.1010 N.2   1 <1>  -0.5650 
 17 C        0.1620    -1.4680    -0.9570 C.3   1 <1>   0.1000 
 18 C        2.6150    -1.9260    -3.5110 C.2   1 <1>   0.0770 
 19 C        4.6560     1.6640    -1.1510 C.ar  1 <1>   0.0830 
 20 C        6.2450     2.1570     0.5720 C.ar  1 <1>  -0.1500 
 21 C        4.1890     4.0420     2.3700 C.3   1 <1>  -0.0590 
 22 C       -1.0700    -2.2170    -1.4760 C.3   1 <1>  -0.2400 
 23 C       -0.1130     0.0400    -0.9150 C.3   1 <1>  -0.2400 
 24 O        3.3790     1.3450    -1.4990 O.3   1 <1>  -0.3630 
 25 C        5.6640     1.8000    -2.1010 C.ar  1 <1>  -0.1500 
 26 C        7.2440     2.2910    -0.3730 C.ar  1 <1>  -0.1500 
 27 C        2.9190     1.4590    -2.8290 C.3   1 <1>   0.0400 
 28 C        6.9530     2.1140    -1.7130 C.ar  1 <1>  -0.1500 
 29 H        3.2930    -0.3180    -0.2680 H     1 <1>   0.3700 
 30 H        3.9630    -3.1280    -0.1010 H     1 <1>   0.0800 
 31 H        1.1020    -4.0080     0.3460 H     1 <1>   0.0800 
 32 H        2.5150    -4.6290     1.1510 H     1 <1>   0.0800 
 33 H        2.3110    -4.8990    -0.5600 H     1 <1>   0.0800 
 34 H        4.2950    -2.8850    -2.4820 H     1 <1>   0.1500 
 35 H        0.6850    -0.2420     2.4500 H     1 <1>   0.0800 
 36 H        0.6160     0.9560     3.7300 H     1 <1>   0.0800 
 37 H        1.6620    -0.4420     3.8980 H     1 <1>   0.0800 
 38 H        0.3360    -1.7950     0.0500 H     1 <1>   0.0800 
 39 H        2.9210    -1.8330    -4.5400 H     1 <1>   0.1500 
 40 H        6.4800     2.2860     1.6140 H     1 <1>   0.1500 
 41 H        4.4840     4.4260     1.4110 H     1 <1>   0.0800 
 42 H        5.0450     3.9920     3.0160 H     1 <1>   0.0800 
 43 H        3.4660     4.7090     2.8020 H     1 <1>   0.0800 
 44 H       -1.3070    -1.8940    -2.4750 H     1 <1>   0.0800 
 45 H       -1.9190    -2.0340    -0.8420 H     1 <1>   0.0800 
 46 H       -0.8750    -3.2740    -1.4990 H     1 <1>   0.0800 
 47 H       -0.3350     0.4040    -1.9020 H     1 <1>   0.0800 
 48 H        0.7480     0.5660    -0.5450 H     1 <1>   0.0800 
 49 H       -0.9470     0.2530    -0.2720 H     1 <1>   0.0800 
 50 H        5.4670     1.6600    -3.1460 H     1 <1>   0.1500 
 51 H        8.2480     2.5320    -0.0670 H     1 <1>   0.1500 
 52 H        1.8630     1.2540    -2.8360 H     1 <1>   0.0800 
 53 H        3.4270     0.7360    -3.4410 H     1 <1>   0.0800 
 54 H        3.1010     2.4590    -3.1780 H     1 <1>   0.0800 
 55 H        7.7300     2.2190    -2.4510 H     1 <1>   0.1500 
@<TRIPOS>BOND
  1   1   2  2   
  2   2   3  am  
  3   2   4  1   
  4   3   5  1   
  5   3  29  1   
  6   4   6  1   
  7   4   7  1   
  8   4  30  1   
  9   5   8  1   
 10   5   9  2   
 11   6  10  1   
 12   6  11  1   
 13   7  31  1   
 14   7  32  1   
 15   7  33  1   
 16   8  12  1   
 17   8  13  1   
 18   9  14  1   
 19   9  15  1   
 20  10  16  2   
 21  10  17  1   
 22  11  18  2   
 23  11  34  1   
 24  12  15  2   
 25  13  35  1   
 26  13  36  1   
 27  13  37  1   
 28  14  19  ar  
 29  14  20  ar  
 30  15  21  1   
 31  16  18  1   
 32  17  22  1   
 33  17  23  1   
 34  17  38  1   
 35  18  39  1   
 36  19  24  1   
 37  19  25  ar  
 38  20  26  ar  
 39  20  40  1   
 40  21  41  1   
 41  21  42  1   
 42  21  43  1   
 43  22  44  1   
 44  22  45  1   
 45  22  46  1   
 46  23  47  1   
 47  23  48  1   
 48  23  49  1   
 49  24  27  1   
 50  25  28  ar  
 51  25  50  1   
 52  26  28  ar  
 53  26  51  1   
 54  27  52  1   
 55  27  53  1   
 56  27  54  1   
 57  28  55  1   
@<TRIPOS>SUBSTRUCTURE
  1 ****   3 GROUP 4 **** **** 0

# MOE 2024.06 (io_trps.svl 2023.06)
