@<TRIPOS>MOLECULE
NONAME
49 51 1 0 0 
SMALL
USER_CHARGES


@<TRIPOS>ATOM
  1 O        1.6330     0.6390     2.2030 O.3   1 <1>  -0.5320 
  2 C        2.0550     1.2330     1.0780 C.ar  1 <1>   0.0830 
  3 C        2.2760     2.5990     1.0800 C.ar  1 <1>  -0.1500 
  4 C        2.2670     0.4850    -0.0690 C.ar  1 <1>  -0.1500 
  5 C        2.7130     3.2370    -0.0700 C.ar  1 <1>  -0.1430 
  6 C        2.7020     1.1170    -1.2200 C.ar  1 <1>  -0.1500 
  7 C        2.9230     2.4850    -1.2200 C.ar  1 <1>  -0.1500 
  8 C        2.9600     4.7400    -0.0560 C.3   1 <1>   0.3430 
  9 O        2.2920     5.2990    -1.1390 O.3   1 <1>  -0.6800 
 10 C        4.4640     5.0790    -0.1250 C.3   1 <1>   0.2090 
 11 N        4.6890     6.5340    -0.3620 N.pl3 1 <1>  -0.8690 
 12 C        5.7010     7.3430    -0.0210 C.ar  1 <1>   0.4100 
 13 N        5.5490     8.6000    -0.3640 N.ar  1 <1>  -0.6200 
 14 C        6.8490     6.8830     0.6480 C.ar  1 <1>  -0.1500 
 15 C        6.5170     9.4550    -0.0650 C.ar  1 <1>   0.7710 
 16 C        7.8260     7.7690     0.9530 C.ar  1 <1>   0.2180 
 17 N        7.6270     9.0570     0.5820 N.ar  1 <1>  -0.1790 
 18 N        6.3910    10.7660    -0.4110 N.pl3 1 <1>  -0.8380 
 19 C        9.1080     7.3980     1.6760 C.3   1 <1>  -0.0970 
 20 C        5.1040    11.3170    -0.9530 C.3   1 <1>   0.2090 
 21 C        7.4350    11.8340    -0.3140 C.3   1 <1>   0.2090 
 22 C        4.5810    12.3970    -0.0010 C.3   1 <1>  -0.1600 
 23 C        6.9640    12.9090     0.6690 C.3   1 <1>  -0.1600 
 24 C        5.6170    13.5060     0.2360 C.3   1 <1>  -0.1600 
 25 H        1.4990    -0.3200     2.1050 H     1 <1>   0.4500 
 26 H        2.0990     3.1450     1.9900 H     1 <1>   0.1500 
 27 H        2.0960    -0.5760    -0.0720 H     1 <1>   0.1500 
 28 H        2.8690     0.5470    -2.1180 H     1 <1>   0.1500 
 29 H        3.2590     2.9640    -2.1250 H     1 <1>   0.1500 
 30 H        2.5410     5.1720     0.8360 H     1 <1>   0.0800 
 31 H        1.4110     4.8830    -1.2070 H     1 <1>   0.4000 
 32 H        4.9100     4.5200    -0.9290 H     1 <1>   0.0800 
 33 H        4.9280     4.7720     0.7950 H     1 <1>   0.0800 
 34 H        3.9250     6.9470    -0.9170 H     1 <1>   0.4000 
 35 H        6.9230     5.8420     0.8980 H     1 <1>   0.1500 
 36 H        8.2900     9.7900     0.7920 H     1 <1>   0.4570 
 37 H        9.1210     6.3460     1.9030 H     1 <1>   0.0800 
 38 H        9.1900     7.9410     2.6020 H     1 <1>   0.0800 
 39 H        9.9640     7.6180     1.0620 H     1 <1>   0.0800 
 40 H        4.3490    10.5570    -1.0670 H     1 <1>   0.0800 
 41 H        5.2810    11.7440    -1.9260 H     1 <1>   0.0800 
 42 H        7.5720    12.2780    -1.2880 H     1 <1>   0.0800 
 43 H        8.3870    11.4460    -0.0020 H     1 <1>   0.0800 
 44 H        4.3180    11.9350     0.9360 H     1 <1>   0.0800 
 45 H        3.6840    12.8260    -0.4120 H     1 <1>   0.0800 
 46 H        7.6980    13.6940     0.7200 H     1 <1>   0.0800 
 47 H        6.8710    12.4820     1.6520 H     1 <1>   0.0800 
 48 H        5.2570    14.1850     0.9900 H     1 <1>   0.0800 
 49 H        5.7500    14.0650    -0.6740 H     1 <1>   0.0800 
@<TRIPOS>BOND
  1   1   2  1   
  2   1  25  1   
  3   2   3  ar  
  4   2   4  ar  
  5   3   5  ar  
  6   3  26  1   
  7   4   6  ar  
  8   4  27  1   
  9   5   7  ar  
 10   5   8  1   
 11   6   7  ar  
 12   6  28  1   
 13   7  29  1   
 14   8   9  1   
 15   8  10  1   
 16   8  30  1   
 17   9  31  1   
 18  10  11  1   
 19  10  32  1   
 20  10  33  1   
 21  11  12  1   
 22  11  34  1   
 23  12  13  ar  
 24  12  14  ar  
 25  13  15  ar  
 26  14  16  ar  
 27  14  35  1   
 28  15  17  ar  
 29  15  18  1   
 30  16  17  ar  
 31  16  19  1   
 32  17  36  1   
 33  18  20  1   
 34  18  21  1   
 35  19  37  1   
 36  19  38  1   
 37  19  39  1   
 38  20  22  1   
 39  20  40  1   
 40  20  41  1   
 41  21  23  1   
 42  21  42  1   
 43  21  43  1   
 44  22  24  1   
 45  22  44  1   
 46  22  45  1   
 47  23  24  1   
 48  23  46  1   
 49  23  47  1   
 50  24  48  1   
 51  24  49  1   
@<TRIPOS>SUBSTRUCTURE
  1 ****  11 GROUP 4 **** **** 0

# MOE 2024.06 (io_trps.svl 2023.06)
