@<TRIPOS>MOLECULE
NONAME
48 49 1 0 0 
SMALL
USER_CHARGES


@<TRIPOS>ATOM
  1 S        0.1120     0.2160     0.8640 S.3   1 <1>  -0.0800 
  2 C        1.4800     1.3040     0.6850 C.2   1 <1>  -0.1400 
  3 C        1.1690    -1.1570     1.1130 C.2   1 <1>  -0.1100 
  4 C        2.6420     0.6230     0.8050 C.2   1 <1>  -0.1810 
  5 C        1.0950     2.7570     0.4340 C.3   1 <1>   0.6030 
  6 C        2.4570    -0.7760     1.0530 C.2   1 <1>  -0.1500 
  7 C        4.0630     1.1560     0.7050 C.3   1 <1>  -0.0590 
  8 N        1.4210     3.1950    -0.9680 N.4   1 <1>  -0.9590 
  9 C        1.7380     3.6870     1.5000 C.3   1 <1>   0.2090 
 10 C        0.4040     4.1570    -1.4810 C.3   1 <1>   0.2630 
 11 C        1.6790     2.1000    -1.9500 C.3   1 <1>   0.2630 
 12 N        1.8910     5.1110     1.0500 N.pl3 1 <1>  -0.8690 
 13 C        3.0570     5.6320     0.5400 C.ar  1 <1>   0.4100 
 14 N        3.7310     4.7910    -0.2410 N.ar  1 <1>  -0.6200 
 15 C        3.4620     6.9520     0.8230 C.ar  1 <1>   0.0860 
 16 C        4.8490     5.2390    -0.7790 C.ar  1 <1>   0.1670 
 17 C        2.7020     7.8190     1.7020 C.2   1 <1>   0.5440 
 18 C        4.6370     7.3880     0.2250 C.ar  1 <1>  -0.1500 
 19 C        5.3450     6.5240    -0.5820 C.ar  1 <1>  -0.1430 
 20 C        5.5960     4.2490    -1.6550 C.3   1 <1>  -0.0970 
 21 O        1.5130     7.6700     1.9050 O.2   1 <1>  -0.5700 
 22 N        3.2740     8.8510     2.3660 N.am  1 <1>  -0.8000 
 23 C        6.6400     7.0050    -1.2270 C.3   1 <1>  -0.0970 
 24 H        0.7110    -2.1160     1.2810 H     1 <1>   0.1500 
 25 H        0.0280     2.8220     0.5630 H     1 <1>   0.0800 
 26 H        3.2990    -1.4360     1.1770 H     1 <1>   0.1500 
 27 H        4.0800     2.1800     0.3880 H     1 <1>   0.0800 
 28 H        4.6230     0.5750    -0.0050 H     1 <1>   0.0800 
 29 H        4.5480     1.0830     1.6620 H     1 <1>   0.0800 
 30 H        2.2930     3.7540    -0.8250 H     1 <1>   0.4500 
 31 H        2.7060     3.3070     1.7710 H     1 <1>   0.0800 
 32 H        1.1360     3.6560     2.3920 H     1 <1>   0.0800 
 33 H       -0.5480     3.6690    -1.6040 H     1 <1>   0.0800 
 34 H        0.7180     4.5550    -2.4320 H     1 <1>   0.0800 
 35 H        0.2890     4.9800    -0.7940 H     1 <1>   0.0800 
 36 H        0.8080     1.4710    -2.0450 H     1 <1>   0.0800 
 37 H        2.5060     1.4920    -1.6240 H     1 <1>   0.0800 
 38 H        1.9190     2.5140    -2.9160 H     1 <1>   0.0800 
 39 H        1.3630     5.8040     1.6180 H     1 <1>   0.4000 
 40 H        4.9890     8.3920     0.3870 H     1 <1>   0.1500 
 41 H        5.0180     3.3560    -1.8020 H     1 <1>   0.0800 
 42 H        6.5260     3.9810    -1.1880 H     1 <1>   0.0800 
 43 H        5.7970     4.6820    -2.6180 H     1 <1>   0.0800 
 44 H        2.6900     9.4210     2.9810 H     1 <1>   0.3700 
 45 H        4.2760     9.0360     2.3970 H     1 <1>   0.3700 
 46 H        7.4530     6.3510    -0.9670 H     1 <1>   0.0800 
 47 H        6.8930     7.9970    -0.8970 H     1 <1>   0.0800 
 48 H        6.5360     7.0260    -2.2970 H     1 <1>   0.0800 
@<TRIPOS>BOND
  1   1   2  1   
  2   1   3  1   
  3   2   4  2   
  4   2   5  1   
  5   3   6  2   
  6   3  24  1   
  7   4   6  1   
  8   4   7  1   
  9   5   8  1   
 10   5   9  1   
 11   5  25  1   
 12   6  26  1   
 13   7  27  1   
 14   7  28  1   
 15   7  29  1   
 16   8  10  1   
 17   8  11  1   
 18   8  30  1   
 19   9  12  1   
 20   9  31  1   
 21   9  32  1   
 22  10  33  1   
 23  10  34  1   
 24  10  35  1   
 25  11  36  1   
 26  11  37  1   
 27  11  38  1   
 28  12  13  1   
 29  12  39  1   
 30  13  14  ar  
 31  13  15  ar  
 32  14  16  ar  
 33  15  17  1   
 34  15  18  ar  
 35  16  19  ar  
 36  16  20  1   
 37  17  21  2   
 38  17  22  am  
 39  18  19  ar  
 40  18  40  1   
 41  19  23  1   
 42  20  41  1   
 43  20  42  1   
 44  20  43  1   
 45  22  44  1   
 46  22  45  1   
 47  23  46  1   
 48  23  47  1   
 49  23  48  1   
@<TRIPOS>SUBSTRUCTURE
  1 ****  14 GROUP 4 **** **** 0

# MOE 2024.06 (io_trps.svl 2023.06)
