@<TRIPOS>MOLECULE
NONAME
52 55 1 0 0 
SMALL
USER_CHARGES


@<TRIPOS>ATOM
  1 O       -0.5040    -0.6910     0.4970 O.3   1 <1>  -0.5600 
  2 C       -1.6440    -1.4720     0.2750 C.3   1 <1>   0.1200 
  3 C        0.6890    -1.3000     0.1070 C.3   1 <1>   0.1200 
  4 C       -1.5570    -2.7890     1.0650 C.3   1 <1>   0.2090 
  5 C        0.9110    -2.6060     0.8940 C.3   1 <1>   0.2090 
  6 N       -0.2720    -3.5280     0.7610 N.pl3 1 <1>  -0.8380 
  7 C       -0.2730    -4.8360     0.3870 C.ar  1 <1>   0.7710 
  8 N       -1.4270    -5.4520     0.1800 N.ar  1 <1>  -0.6200 
  9 N        0.8990    -5.4810     0.2410 N.ar  1 <1>  -0.1790 
 10 C       -1.4120    -6.7150    -0.1980 C.ar  1 <1>   0.4100 
 11 C        0.9670    -6.7790    -0.1420 C.ar  1 <1>   0.2180 
 12 N       -2.5980    -7.3200    -0.4360 N.3   1 <1>  -0.5900 
 13 C       -0.2060    -7.4170    -0.3690 C.ar  1 <1>  -0.1500 
 14 C        2.3320    -7.4390    -0.2950 C.3   1 <1>  -0.0170 
 15 C       -3.9990    -6.8700    -0.1270 C.3   1 <1>   0.2450 
 16 C       -3.0400    -8.7520    -0.3860 C.3   1 <1>   0.2450 
 17 C        3.1680    -6.7880    -1.4050 C.3   1 <1>  -0.2400 
 18 C       -4.2470    -8.2820     0.4530 C.3   1 <1>   0.0850 
 19 N       -5.5040    -8.9240     0.0190 N.pl3 1 <1>   0.4850 
 20 N       -6.4480    -8.2870    -0.7050 N.2   1 <1>  -0.7070 
 21 C       -5.8840   -10.1970     0.2930 C.2   1 <1>  -0.3320 
 22 C       -7.3890    -9.1580    -0.8780 C.2   1 <1>   0.1080 
 23 C       -7.0950   -10.3750    -0.2770 C.2   1 <1>  -0.1500 
 24 C       -5.0770   -11.2020     1.0990 C.3   1 <1>  -0.0600 
 25 C       -8.6480    -8.8450    -1.6510 C.3   1 <1>  -0.0590 
 26 H       -1.7340    -1.6660    -0.7800 H     1 <1>   0.0800 
 27 H       -2.4980    -0.9040     0.5960 H     1 <1>   0.0800 
 28 H        1.4870    -0.6050     0.3040 H     1 <1>   0.0800 
 29 H        0.6490    -1.4880    -0.9520 H     1 <1>   0.0800 
 30 H       -2.4290    -3.3760     0.8370 H     1 <1>   0.0800 
 31 H       -1.5940    -2.5620     2.1170 H     1 <1>   0.0800 
 32 H        1.0520    -2.3560     1.9330 H     1 <1>   0.0800 
 33 H        1.8150    -3.0640     0.5380 H     1 <1>   0.0800 
 34 H        1.7300    -4.9430     0.4410 H     1 <1>   0.4570 
 35 H       -0.2490    -8.4430    -0.6850 H     1 <1>   0.1500 
 36 H        2.1990    -8.4820    -0.5320 H     1 <1>   0.0800 
 37 H        2.8670    -7.3910     0.6390 H     1 <1>   0.0800 
 38 H       -4.5220    -6.6370    -1.0380 H     1 <1>   0.0000 
 39 H       -4.0210    -6.0890     0.6120 H     1 <1>   0.0000 
 40 H       -2.3470    -9.3690     0.1570 H     1 <1>   0.0000 
 41 H       -3.2920    -9.1110    -1.3680 H     1 <1>   0.0000 
 42 H        2.6450    -6.8320    -2.3460 H     1 <1>   0.0800 
 43 H        4.0980    -7.3180    -1.5170 H     1 <1>   0.0800 
 44 H        3.3950    -5.7610    -1.1810 H     1 <1>   0.0800 
 45 H       -4.0870    -8.3490     1.5150 H     1 <1>   0.0000 
 46 H       -7.7200   -11.2500    -0.2790 H     1 <1>   0.1500 
 47 H       -4.8780   -10.8180     2.0840 H     1 <1>   0.0800 
 48 H       -4.1450   -11.4170     0.6090 H     1 <1>   0.0800 
 49 H       -5.6270   -12.1210     1.1980 H     1 <1>   0.0800 
 50 H       -9.1570    -8.0210    -1.1870 H     1 <1>   0.0800 
 51 H       -9.3000    -9.6980    -1.6710 H     1 <1>   0.0800 
 52 H       -8.3910    -8.5730    -2.6580 H     1 <1>   0.0800 
@<TRIPOS>BOND
  1   1   2  1   
  2   1   3  1   
  3   2   4  1   
  4   2  26  1   
  5   2  27  1   
  6   3   5  1   
  7   3  28  1   
  8   3  29  1   
  9   4   6  1   
 10   4  30  1   
 11   4  31  1   
 12   5   6  1   
 13   5  32  1   
 14   5  33  1   
 15   6   7  1   
 16   7   8  ar  
 17   7   9  ar  
 18   8  10  ar  
 19   9  11  ar  
 20   9  34  1   
 21  10  12  1   
 22  10  13  ar  
 23  11  13  ar  
 24  11  14  1   
 25  12  15  1   
 26  12  16  1   
 27  13  35  1   
 28  14  17  1   
 29  14  36  1   
 30  14  37  1   
 31  15  18  1   
 32  15  38  1   
 33  15  39  1   
 34  16  18  1   
 35  16  40  1   
 36  16  41  1   
 37  17  42  1   
 38  17  43  1   
 39  17  44  1   
 40  18  19  1   
 41  18  45  1   
 42  19  20  1   
 43  19  21  1   
 44  20  22  2   
 45  21  23  2   
 46  21  24  1   
 47  22  23  1   
 48  22  25  1   
 49  23  46  1   
 50  24  47  1   
 51  24  48  1   
 52  24  49  1   
 53  25  50  1   
 54  25  51  1   
 55  25  52  1   
@<TRIPOS>SUBSTRUCTURE
  1 ****  10 GROUP 4 **** **** 0

# MOE 2024.06 (io_trps.svl 2023.06)
