@<TRIPOS>MOLECULE
NONAME
54 56 1 0 0 
SMALL
USER_CHARGES


@<TRIPOS>ATOM
  1 S       -0.8090     0.6000    -1.8990 S.3   1 <1>  -0.0800 
  2 C        0.5810     0.3350    -0.8800 C.2   1 <1>   0.1980 
  3 C       -1.0420    -1.1180    -1.9770 C.2   1 <1>  -0.1100 
  4 N        0.8140    -0.8890    -0.6220 N.2   1 <1>  -0.5650 
  5 C        1.3760     1.5490    -0.4140 C.3   1 <1>   0.5230 
  6 C       -0.0980    -1.7590    -1.2490 C.2   1 <1>   0.1410 
  7 N        2.6970     1.1020     0.1480 N.4   1 <1>  -0.9590 
  8 C        0.0390    -3.2070    -1.1090 C.2   1 <1>   0.7160 
  9 C        3.3180     2.1120     1.0540 C.3   1 <1>   0.2630 
 10 C        3.6330     0.6630    -0.9340 C.3   1 <1>   0.2630 
 11 O        1.1490    -3.7080    -1.0860 O.2   1 <1>  -0.5700 
 12 N       -1.0600    -4.0380    -1.0150 N.am  1 <1>  -0.6600 
 13 C       -2.3810    -3.6150    -0.4520 C.3   1 <1>   0.1400 
 14 C       -0.9560    -5.5190    -1.2160 C.3   1 <1>   0.1400 
 15 C       -2.7920    -4.4970     0.7450 C.3   1 <1>   0.2950 
 16 C       -1.4470    -6.2900     0.0280 C.3   1 <1>   0.2000 
 17 O       -2.7250    -5.8480     0.3830 O.3   1 <1>  -0.5600 
 18 C       -4.2190    -4.1560     1.2100 C.3   1 <1>  -0.1950 
 19 C       -1.5550    -7.8030    -0.2040 C.3   1 <1>  -0.1600 
 20 C       -5.0780    -5.1340     1.9520 C.3   1 <1>  -0.2000 
 21 C       -5.4370    -4.7270     0.5500 C.3   1 <1>  -0.2000 
 22 C       -0.1960    -8.4720    -0.4690 C.3   1 <1>  -0.1600 
 23 C       -0.3480    -9.9920    -0.5990 C.3   1 <1>  -0.1600 
 24 C        1.0040   -10.6600    -0.8650 C.3   1 <1>  -0.2400 
 25 H       -1.8570    -1.4920    -2.5700 H     1 <1>   0.1500 
 26 H        0.8050     2.0570     0.3450 H     1 <1>   0.0800 
 27 H        1.5310     2.2230    -1.2390 H     1 <1>   0.0800 
 28 H        2.4620     0.2440     0.6820 H     1 <1>   0.4500 
 29 H        3.5560     3.0110     0.5080 H     1 <1>   0.0800 
 30 H        4.2270     1.7190     1.4810 H     1 <1>   0.0800 
 31 H        2.6450     2.3620     1.8580 H     1 <1>   0.0800 
 32 H        3.8770     1.4880    -1.5840 H     1 <1>   0.0800 
 33 H        3.1820    -0.1220    -1.5220 H     1 <1>   0.0800 
 34 H        4.5450     0.2790    -0.5060 H     1 <1>   0.0800 
 35 H       -2.3450    -2.5930    -0.1230 H     1 <1>   0.0800 
 36 H       -3.1340    -3.6960    -1.2170 H     1 <1>   0.0800 
 37 H       -1.5560    -5.8000    -2.0630 H     1 <1>   0.0800 
 38 H        0.0600    -5.7990    -1.4310 H     1 <1>   0.0800 
 39 H       -2.1130    -4.3380     1.5650 H     1 <1>   0.0800 
 40 H       -0.7840    -6.1050     0.8560 H     1 <1>   0.0800 
 41 H       -4.2860    -3.1340     1.5380 H     1 <1>   0.1000 
 42 H       -1.9910    -8.2440     0.6760 H     1 <1>   0.0800 
 43 H       -2.2150    -7.9880    -1.0330 H     1 <1>   0.0800 
 44 H       -4.7140    -6.1350     2.1140 H     1 <1>   0.1000 
 45 H       -5.6850    -4.7790     2.7670 H     1 <1>   0.1000 
 46 H       -6.2950    -4.0960     0.4000 H     1 <1>   0.1000 
 47 H       -5.3190    -5.4580    -0.2320 H     1 <1>   0.1000 
 48 H        0.2350    -8.0860    -1.3770 H     1 <1>   0.0800 
 49 H        0.4770    -8.2500     0.3420 H     1 <1>   0.0800 
 50 H       -0.7670   -10.3930     0.3080 H     1 <1>   0.0800 
 51 H       -1.0210   -10.2220    -1.4070 H     1 <1>   0.0800 
 52 H        1.6870   -10.4620    -0.0580 H     1 <1>   0.0800 
 53 H        1.4330   -10.2910    -1.7810 H     1 <1>   0.0800 
 54 H        0.8780   -11.7250    -0.9520 H     1 <1>   0.0800 
@<TRIPOS>BOND
  1   1   2  1   
  2   1   3  1   
  3   2   4  2   
  4   2   5  1   
  5   3   6  2   
  6   3  25  1   
  7   4   6  1   
  8   5   7  1   
  9   5  26  1   
 10   5  27  1   
 11   6   8  1   
 12   7   9  1   
 13   7  10  1   
 14   7  28  1   
 15   8  11  2   
 16   8  12  am  
 17   9  29  1   
 18   9  30  1   
 19   9  31  1   
 20  10  32  1   
 21  10  33  1   
 22  10  34  1   
 23  12  13  1   
 24  12  14  1   
 25  13  15  1   
 26  13  35  1   
 27  13  36  1   
 28  14  16  1   
 29  14  37  1   
 30  14  38  1   
 31  15  17  1   
 32  15  18  1   
 33  15  39  1   
 34  16  17  1   
 35  16  19  1   
 36  16  40  1   
 37  18  20  1   
 38  18  21  1   
 39  18  41  1   
 40  19  22  1   
 41  19  42  1   
 42  19  43  1   
 43  20  21  1   
 44  20  44  1   
 45  20  45  1   
 46  21  46  1   
 47  21  47  1   
 48  22  23  1   
 49  22  48  1   
 50  22  49  1   
 51  23  24  1   
 52  23  50  1   
 53  23  51  1   
 54  24  52  1   
 55  24  53  1   
 56  24  54  1   
@<TRIPOS>SUBSTRUCTURE
  1 ****  12 GROUP 4 **** **** 0

# MOE 2024.06 (io_trps.svl 2023.06)
