@<TRIPOS>MOLECULE
NONAME
53 57 1 0 0 
SMALL
USER_CHARGES


@<TRIPOS>ATOM
  1 F       -0.3390     2.0500    -1.6830 F     1 <1>  -0.1900 
  2 C       -1.4150     1.4500    -1.2440 C.ar  1 <1>   0.1900 
  3 C       -2.0590     1.9150    -0.0980 C.ar  1 <1>  -0.1440 
  4 C       -1.8570     0.3500    -1.9620 C.ar  1 <1>  -0.1500 
  5 C       -3.1900     1.2270     0.3260 C.ar  1 <1>  -0.1500 
  6 C       -1.5960     3.1350     0.6970 C.3   1 <1>   0.4330 
  7 C       -2.9850    -0.3270    -1.5290 C.ar  1 <1>  -0.1500 
  8 C       -3.6260     0.1270    -0.3910 C.ar  1 <1>   0.1900 
  9 N       -1.4390     4.3420    -0.1490 N.pl3 1 <1>  -0.7880 
 10 C       -0.2420     2.9410     1.3770 C.3   1 <1>  -0.1600 
 11 F       -4.6890    -0.5070     0.0260 F     1 <1>  -0.1900 
 12 C       -2.5410     5.0220    -0.6410 C.2   1 <1>   0.4860 
 13 C       -0.1420     5.0000     0.1320 C.3   1 <1>   0.2090 
 14 C        0.3770     4.3340     1.4000 C.3   1 <1>  -0.1600 
 15 N       -3.7350     4.6180    -0.3060 N.2   1 <1>  -0.5760 
 16 C       -2.3450     6.1440    -1.5130 C.2   1 <1>  -0.1360 
 17 C       -4.7990     5.3270    -0.8270 C.2   1 <1>  -0.0260 
 18 C       -3.4010     6.8480    -1.9920 C.2   1 <1>  -0.1810 
 19 N       -4.6650     6.4380    -1.6260 N.pl3 1 <1>   0.6010 
 20 C       -6.1370     5.1210    -0.7150 C.2   1 <1>   0.0630 
 21 N       -5.8590     6.9460    -2.0030 N.2   1 <1>  -0.7070 
 22 N       -6.7130     4.0400    -0.0080 N.am  1 <1>  -0.4930 
 23 C       -6.7290     6.1440    -1.4470 C.2   1 <1>   0.1390 
 24 C       -8.0070     3.6370     0.0680 C.2   1 <1>   0.6900 
 25 O       -8.9080     4.3450    -0.3430 O.2   1 <1>  -0.5700 
 26 N       -8.2850     2.4060     0.6040 N.am  1 <1>  -0.6600 
 27 C       -9.6630     1.8440     0.6220 C.3   1 <1>   0.1400 
 28 C       -7.2910     1.3120     0.7530 C.3   1 <1>   0.1400 
 29 C       -9.4730     0.3600     0.3160 C.3   1 <1>   0.2000 
 30 C       -8.1170     0.0380     0.9270 C.3   1 <1>  -0.1600 
 31 O       -9.3630     0.2040    -1.0540 O.3   1 <1>  -0.6800 
 32 H       -1.3240     0.0350    -2.8410 H     1 <1>   0.1500 
 33 H       -3.7320     1.5380     1.2000 H     1 <1>   0.1500 
 34 H       -2.3210     3.3630     1.4610 H     1 <1>   0.0800 
 35 H       -3.3600    -1.1850    -2.0590 H     1 <1>   0.1500 
 36 H        0.3740     2.2810     0.7930 H     1 <1>   0.0800 
 37 H       -0.3540     2.5260     2.3620 H     1 <1>   0.0800 
 38 H       -0.2570     6.0620     0.2750 H     1 <1>   0.0800 
 39 H        0.5290     4.8110    -0.6890 H     1 <1>   0.0800 
 40 H        1.4520     4.3060     1.4240 H     1 <1>   0.0800 
 41 H        0.0200     4.8820     2.2550 H     1 <1>   0.0800 
 42 H       -1.3400     6.4020    -1.7820 H     1 <1>   0.1500 
 43 H       -3.3470     7.6970    -2.6440 H     1 <1>   0.1500 
 44 H       -6.0280     3.4320     0.4310 H     1 <1>   0.3700 
 45 H       -7.7950     6.2640    -1.5520 H     1 <1>   0.1500 
 46 H      -10.3100     2.3180    -0.0980 H     1 <1>   0.0800 
 47 H      -10.0750     1.9690     1.6070 H     1 <1>   0.0800 
 48 H       -6.6560     1.4830     1.6050 H     1 <1>   0.0800 
 49 H       -6.6940     1.2470    -0.1420 H     1 <1>   0.0800 
 50 H      -10.2750    -0.2630     0.6730 H     1 <1>   0.0800 
 51 H       -8.2390    -0.1540     1.9780 H     1 <1>   0.0800 
 52 H       -7.6520    -0.8200     0.4740 H     1 <1>   0.0800 
 53 H       -8.7950     0.9190    -1.4050 H     1 <1>   0.4000 
@<TRIPOS>BOND
  1   1   2  1   
  2   2   3  ar  
  3   2   4  ar  
  4   3   5  ar  
  5   3   6  1   
  6   4   7  ar  
  7   4  32  1   
  8   5   8  ar  
  9   5  33  1   
 10   6   9  1   
 11   6  10  1   
 12   6  34  1   
 13   7   8  ar  
 14   7  35  1   
 15   8  11  1   
 16   9  12  1   
 17   9  13  1   
 18  10  14  1   
 19  10  36  1   
 20  10  37  1   
 21  12  15  2   
 22  12  16  1   
 23  13  14  1   
 24  13  38  1   
 25  13  39  1   
 26  14  40  1   
 27  14  41  1   
 28  15  17  1   
 29  16  18  2   
 30  16  42  1   
 31  17  19  1   
 32  17  20  2   
 33  18  19  1   
 34  18  43  1   
 35  19  21  1   
 36  20  22  1   
 37  20  23  1   
 38  21  23  2   
 39  22  24  am  
 40  22  44  1   
 41  23  45  1   
 42  24  25  2   
 43  24  26  am  
 44  26  27  1   
 45  26  28  1   
 46  27  29  1   
 47  27  46  1   
 48  27  47  1   
 49  28  30  1   
 50  28  48  1   
 51  28  49  1   
 52  29  30  1   
 53  29  31  1   
 54  29  50  1   
 55  30  51  1   
 56  30  52  1   
 57  31  53  1   
@<TRIPOS>SUBSTRUCTURE
  1 ****  15 GROUP 4 **** **** 0

# MOE 2024.06 (io_trps.svl 2023.06)
