@<TRIPOS>MOLECULE
NONAME
48 49 1 0 0 
SMALL
USER_CHARGES


@<TRIPOS>ATOM
  1 S        0.7690    -0.1920     0.0260 S.o2  1 <1>   1.3330 
  2 O        1.4020    -1.3090     0.6900 O.2   1 <1>  -0.6500 
  3 O       -0.5060    -0.3820    -0.6270 O.2   1 <1>  -0.6500 
  4 N        0.5750     1.0470     1.1690 N.am  1 <1>  -0.8490 
  5 C        1.9360     0.4830    -1.1570 C.3   1 <1>  -0.0550 
  6 C       -0.1740     2.2020     0.6580 C.3   1 <1>   0.1160 
  7 C       -0.0460     0.5550     2.4000 C.3   1 <1>   0.1160 
  8 C        3.2610     0.9530    -0.5320 C.3   1 <1>  -0.0800 
  9 C        4.1170     1.7160    -1.5390 C.3   1 <1>   0.2200 
 10 C        4.1690    -0.1820    -0.0560 C.3   1 <1>   0.1200 
 11 N        4.2990     3.1040    -1.0690 N.am  1 <1>  -0.7300 
 12 C        5.4380     0.9490    -1.5500 C.3   1 <1>   0.1200 
 13 O        5.4630     0.2270    -0.3630 O.3   1 <1>  -0.5600 
 14 C        3.3760     4.0920    -1.1950 C.2   1 <1>   0.5690 
 15 O        2.3290     3.9070    -1.7720 O.2   1 <1>  -0.5700 
 16 C        3.6550     5.4600    -0.5850 C.3   1 <1>   0.1810 
 17 O        4.6660     5.3720     0.4090 O.3   1 <1>  -0.3630 
 18 C        5.0600     6.4560     1.1260 C.ar  1 <1>   0.0820 
 19 C        5.9670     6.2460     2.1610 C.ar  1 <1>  -0.1440 
 20 C        4.5970     7.7450     0.8650 C.ar  1 <1>  -0.1500 
 21 C        6.4000     7.3210     2.9210 C.ar  1 <1>  -0.1500 
 22 C        6.4870     4.8480     2.4680 C.3   1 <1>  -0.0970 
 23 C        5.0370     8.8100     1.6300 C.ar  1 <1>  -0.1500 
 24 C        5.9380     8.5990     2.6580 C.ar  1 <1>  -0.1500 
 25 H        2.1380    -0.2520    -1.9110 H     1 <1>   0.0800 
 26 H        1.4760     1.3210    -1.6440 H     1 <1>   0.0800 
 27 H       -0.2310     2.9680     1.4120 H     1 <1>   0.0800 
 28 H       -1.1730     1.9110     0.3770 H     1 <1>   0.0800 
 29 H        0.3220     2.6190    -0.2020 H     1 <1>   0.0800 
 30 H       -0.1270     1.3500     3.1210 H     1 <1>   0.0800 
 31 H        0.5580    -0.2280     2.8290 H     1 <1>   0.0800 
 32 H       -1.0270     0.1610     2.1930 H     1 <1>   0.0800 
 33 H        3.0470     1.5800     0.3170 H     1 <1>   0.0800 
 34 H        3.6850     1.7290    -2.5260 H     1 <1>   0.0800 
 35 H        3.9770    -1.1000    -0.5860 H     1 <1>   0.0800 
 36 H        4.0930    -0.3520     1.0050 H     1 <1>   0.0800 
 37 H        5.0860     3.2620    -0.4300 H     1 <1>   0.3700 
 38 H        6.2980     1.5930    -1.5990 H     1 <1>   0.0800 
 39 H        5.4590     0.2430    -2.3610 H     1 <1>   0.0800 
 40 H        2.7600     5.8380    -0.1270 H     1 <1>   0.0800 
 41 H        3.9910     6.1300    -1.3550 H     1 <1>   0.0800 
 42 H        3.9000     7.9450     0.0740 H     1 <1>   0.1500 
 43 H        7.1010     7.1710     3.7230 H     1 <1>   0.1500 
 44 H        7.1430     4.8560     3.3190 H     1 <1>   0.0800 
 45 H        7.0280     4.4670     1.6210 H     1 <1>   0.0800 
 46 H        5.6630     4.1900     2.6780 H     1 <1>   0.0800 
 47 H        4.6790     9.8050     1.4280 H     1 <1>   0.1500 
 48 H        6.2800     9.4270     3.2530 H     1 <1>   0.1500 
@<TRIPOS>BOND
  1   1   2  2   
  2   1   3  2   
  3   1   4  am  
  4   1   5  1   
  5   4   6  1   
  6   4   7  1   
  7   5   8  1   
  8   5  25  1   
  9   5  26  1   
 10   6  27  1   
 11   6  28  1   
 12   6  29  1   
 13   7  30  1   
 14   7  31  1   
 15   7  32  1   
 16   8   9  1   
 17   8  10  1   
 18   8  33  1   
 19   9  11  1   
 20   9  12  1   
 21   9  34  1   
 22  10  13  1   
 23  10  35  1   
 24  10  36  1   
 25  11  14  am  
 26  11  37  1   
 27  12  13  1   
 28  12  38  1   
 29  12  39  1   
 30  14  15  2   
 31  14  16  1   
 32  16  17  1   
 33  16  40  1   
 34  16  41  1   
 35  17  18  1   
 36  18  19  ar  
 37  18  20  ar  
 38  19  21  ar  
 39  19  22  1   
 40  20  23  ar  
 41  20  42  1   
 42  21  24  ar  
 43  21  43  1   
 44  22  44  1   
 45  22  45  1   
 46  22  46  1   
 47  23  24  ar  
 48  23  47  1   
 49  24  48  1   
@<TRIPOS>SUBSTRUCTURE
  1 ****  11 GROUP 4 **** **** 0

# MOE 2024.06 (io_trps.svl 2023.06)
