@<TRIPOS>MOLECULE
NONAME
60 62 1 0 0 
SMALL
USER_CHARGES


@<TRIPOS>ATOM
  1 O        0.4010     0.0760    -0.5110 O.2   1 <1>  -0.5700 
  2 C        1.3800    -0.5490    -0.8780 C.2   1 <1>   0.7150 
  3 N        2.3810     0.1170    -1.5300 N.am  1 <1>  -0.7300 
  4 C        1.4850    -1.9720    -0.6350 C.2   1 <1>   0.0550 
  5 C        2.4030     1.5670    -1.8180 C.3   1 <1>   0.1400 
  6 O        0.5710    -2.5930     0.1030 O.3   1 <1>  -0.2800 
  7 C        2.3960    -2.9020    -1.0390 C.2   1 <1>  -0.1500 
  8 C        3.5720     2.1990    -1.0690 C.3   1 <1>  -0.1600 
  9 C        0.8540    -3.8720     0.1760 C.2   1 <1>  -0.0400 
 10 C        1.9850    -4.1300    -0.5160 C.2   1 <1>  -0.1500 
 11 C        3.5900     3.7200    -1.2690 C.3   1 <1>   0.0960 
 12 C       -0.0740    -4.7830     0.9620 C.3   1 <1>   0.5230 
 13 N        4.7690     4.3120    -0.6100 N.pl3 1 <1>   0.3140 
 14 N       -1.4620    -4.6530     0.4320 N.4   1 <1>  -0.9590 
 15 N        5.9340     4.4180    -1.2700 N.2   1 <1>  -0.7070 
 16 C        4.8680     4.7880     0.6540 C.2   1 <1>  -0.3320 
 17 C       -2.1500    -3.4460     0.9870 C.3   1 <1>   0.3430 
 18 C       -2.2570    -5.8940     0.6340 C.3   1 <1>   0.3430 
 19 C        6.7480     4.9580    -0.4220 C.2   1 <1>   0.1080 
 20 C        6.1410     5.2150     0.8050 C.2   1 <1>  -0.1810 
 21 C        3.7140     4.7960     1.6470 C.3   1 <1>  -0.0600 
 22 C       -3.5040    -3.2680     0.3020 C.3   1 <1>  -0.1600 
 23 C       -3.6130    -5.7560    -0.0590 C.3   1 <1>  -0.1600 
 24 C        8.1880     5.2580    -0.7690 C.3   1 <1>  -0.0590 
 25 C        6.8220     5.8420     2.0090 C.3   1 <1>  -0.0590 
 26 C       -4.3800    -4.5220     0.4370 C.3   1 <1>  -0.0800 
 27 C       -5.6890    -4.3510    -0.3410 C.3   1 <1>  -0.2400 
 28 H        3.2230    -0.3940    -1.7930 H     1 <1>   0.3700 
 29 H        1.4770     2.0220    -1.5070 H     1 <1>   0.0800 
 30 H        2.5140     1.7170    -2.8790 H     1 <1>   0.0800 
 31 H        3.2710    -2.7540    -1.6490 H     1 <1>   0.1500 
 32 H        4.4980     1.7900    -1.4350 H     1 <1>   0.0800 
 33 H        3.4810     1.9850    -0.0180 H     1 <1>   0.0800 
 34 H        2.4990    -5.0660    -0.6630 H     1 <1>   0.1500 
 35 H        2.7020     4.1680    -0.8640 H     1 <1>   0.0800 
 36 H        3.6470     3.9550    -2.3160 H     1 <1>   0.0800 
 37 H       -0.0470    -4.5190     2.0070 H     1 <1>   0.0800 
 38 H        0.2700    -5.7980     0.8550 H     1 <1>   0.0800 
 39 H       -1.3640    -4.4850    -0.5780 H     1 <1>   0.4500 
 40 H       -1.5560    -2.5610     0.8230 H     1 <1>   0.0800 
 41 H       -2.2960    -3.5620     2.0480 H     1 <1>   0.0800 
 42 H       -2.4100    -6.0630     1.6880 H     1 <1>   0.0800 
 43 H       -1.7330    -6.7430     0.2250 H     1 <1>   0.0800 
 44 H        3.3500     3.7960     1.8020 H     1 <1>   0.0800 
 45 H        2.9110     5.4080     1.2760 H     1 <1>   0.0800 
 46 H        4.0250     5.1890     2.5970 H     1 <1>   0.0800 
 47 H       -3.3450    -3.0300    -0.7360 H     1 <1>   0.0800 
 48 H       -4.0090    -2.4280     0.7480 H     1 <1>   0.0800 
 49 H       -4.1950    -6.6400     0.1360 H     1 <1>   0.0800 
 50 H       -3.4630    -5.6980    -1.1230 H     1 <1>   0.0800 
 51 H        8.4000     4.9210    -1.7670 H     1 <1>   0.0800 
 52 H        8.8400     4.7500    -0.0840 H     1 <1>   0.0800 
 53 H        8.3610     6.3160    -0.7130 H     1 <1>   0.0800 
 54 H        6.1320     5.9670     2.8220 H     1 <1>   0.0800 
 55 H        7.2150     6.8060     1.7420 H     1 <1>   0.0800 
 56 H        7.6290     5.2130     2.3370 H     1 <1>   0.0800 
 57 H       -4.6250    -4.6610     1.4780 H     1 <1>   0.0800 
 58 H       -5.4990    -4.2040    -1.3910 H     1 <1>   0.0800 
 59 H       -6.2360    -3.5000     0.0270 H     1 <1>   0.0800 
 60 H       -6.3120    -5.2210    -0.2260 H     1 <1>   0.0800 
@<TRIPOS>BOND
  1   1   2  2   
  2   2   3  am  
  3   2   4  1   
  4   3   5  1   
  5   3  28  1   
  6   4   6  1   
  7   4   7  2   
  8   5   8  1   
  9   5  29  1   
 10   5  30  1   
 11   6   9  1   
 12   7  10  1   
 13   7  31  1   
 14   8  11  1   
 15   8  32  1   
 16   8  33  1   
 17   9  10  2   
 18   9  12  1   
 19  10  34  1   
 20  11  13  1   
 21  11  35  1   
 22  11  36  1   
 23  12  14  1   
 24  12  37  1   
 25  12  38  1   
 26  13  15  1   
 27  13  16  1   
 28  14  17  1   
 29  14  18  1   
 30  14  39  1   
 31  15  19  2   
 32  16  20  2   
 33  16  21  1   
 34  17  22  1   
 35  17  40  1   
 36  17  41  1   
 37  18  23  1   
 38  18  42  1   
 39  18  43  1   
 40  19  20  1   
 41  19  24  1   
 42  20  25  1   
 43  21  44  1   
 44  21  45  1   
 45  21  46  1   
 46  22  26  1   
 47  22  47  1   
 48  22  48  1   
 49  23  26  1   
 50  23  49  1   
 51  23  50  1   
 52  24  51  1   
 53  24  52  1   
 54  24  53  1   
 55  25  54  1   
 56  25  55  1   
 57  25  56  1   
 58  26  27  1   
 59  26  57  1   
 60  27  58  1   
 61  27  59  1   
 62  27  60  1   
@<TRIPOS>SUBSTRUCTURE
  1 ****   2 GROUP 4 **** **** 0

# MOE 2024.06 (io_trps.svl 2023.06)
