@<TRIPOS>MOLECULE
NONAME
42 43 1 0 0 
SMALL
USER_CHARGES


@<TRIPOS>ATOM
  1 O       -0.2790    -1.8340     0.7260 O.2   1 <1>  -0.5700 
  2 C        0.6360    -1.0690     0.4750 C.2   1 <1>   0.5440 
  3 N        0.4460     0.2700     0.6800 N.am  1 <1>  -0.7300 
  4 C        1.9020    -1.5570    -0.0150 C.ar  1 <1>   0.0860 
  5 C       -0.7980     0.9110     1.1800 C.3   1 <1>   0.0600 
  6 C        1.9750    -2.4850    -1.0720 C.ar  1 <1>   0.4100 
  7 C        3.0960    -1.1240     0.5490 C.ar  1 <1>  -0.1500 
  8 N        3.1150    -2.9910    -1.5360 N.ar  1 <1>  -0.6200 
  9 N        0.8360    -2.9440    -1.6930 N.pl3 1 <1>  -0.8690 
 10 C        4.2740    -1.6320     0.0510 C.ar  1 <1>  -0.1500 
 11 C        4.2270    -2.5520    -0.9800 C.ar  1 <1>   0.1600 
 12 C        0.7680    -3.5440    -3.0430 C.3   1 <1>   0.2090 
 13 C       -0.4380    -4.4830    -3.1570 C.3   1 <1>  -0.1600 
 14 C       -0.3820    -5.7210    -2.2460 C.3   1 <1>   0.3540 
 15 N       -0.6340    -5.3700    -0.8260 N.pl3 1 <1>  -0.4570 
 16 N       -1.8610    -4.9530    -0.4170 N.2   1 <1>  -0.2600 
 17 C        0.2280    -5.2910     0.1740 C.cat 1 <1>   0.6560 
 18 C       -1.6880    -4.6270     0.8130 C.2   1 <1>   0.4850 
 19 N       -0.4170    -4.8450     1.2200 N.pl3 1 <1>  -0.7000 
 20 C        1.7020    -5.6310     0.1630 C.3   1 <1>  -0.0960 
 21 C       -2.7410    -4.0510     1.7300 C.3   1 <1>  -0.0720 
 22 H        1.1810     0.9190     0.3870 H     1 <1>   0.3700 
 23 H       -1.5220     0.1660     1.4630 H     1 <1>   0.0800 
 24 H       -1.2230     1.5310     0.4090 H     1 <1>   0.0800 
 25 H       -0.5740     1.5200     2.0390 H     1 <1>   0.0800 
 26 H        3.0990    -0.4150     1.3590 H     1 <1>   0.1500 
 27 H       -0.0580    -2.5960    -1.3140 H     1 <1>   0.4000 
 28 H        5.2220    -1.3220     0.4540 H     1 <1>   0.1500 
 29 H        5.1550    -2.9450    -1.3630 H     1 <1>   0.1500 
 30 H        1.6740    -4.0850    -3.2600 H     1 <1>   0.0800 
 31 H        0.6770    -2.7510    -3.7670 H     1 <1>   0.0800 
 32 H       -0.4730    -4.8310    -4.1730 H     1 <1>   0.0800 
 33 H       -1.3480    -3.9360    -2.9850 H     1 <1>   0.0800 
 34 H        0.5710    -6.2090    -2.3470 H     1 <1>   0.0800 
 35 H       -1.1420    -6.4180    -2.5550 H     1 <1>   0.0800 
 36 H       -0.0420    -4.6110     2.1360 H     1 <1>   0.4500 
 37 H        2.1150    -5.4910    -0.8180 H     1 <1>   0.0800 
 38 H        1.8430    -6.6520     0.4630 H     1 <1>   0.0800 
 39 H        2.2290    -4.9860     0.8410 H     1 <1>   0.0800 
 40 H       -3.6760    -3.9640     1.2070 H     1 <1>   0.0800 
 41 H       -2.4370    -3.0730     2.0580 H     1 <1>   0.0800 
 42 H       -2.8750    -4.6880     2.5840 H     1 <1>   0.0800 
@<TRIPOS>BOND
  1   1   2  2   
  2   2   3  am  
  3   2   4  1   
  4   3   5  1   
  5   3  22  1   
  6   4   6  ar  
  7   4   7  ar  
  8   5  23  1   
  9   5  24  1   
 10   5  25  1   
 11   6   8  ar  
 12   6   9  1   
 13   7  10  ar  
 14   7  26  1   
 15   8  11  ar  
 16   9  12  1   
 17   9  27  1   
 18  10  11  ar  
 19  10  28  1   
 20  11  29  1   
 21  12  13  1   
 22  12  30  1   
 23  12  31  1   
 24  13  14  1   
 25  13  32  1   
 26  13  33  1   
 27  14  15  1   
 28  14  34  1   
 29  14  35  1   
 30  15  16  1   
 31  15  17  ar  
 32  16  18  2   
 33  17  19  ar  
 34  17  20  1   
 35  18  19  1   
 36  18  21  1   
 37  19  36  1   
 38  20  37  1   
 39  20  38  1   
 40  20  39  1   
 41  21  40  1   
 42  21  41  1   
 43  21  42  1   
@<TRIPOS>SUBSTRUCTURE
  1 ****   9 GROUP 4 **** **** 0

# MOE 2024.06 (io_trps.svl 2023.06)
