@<TRIPOS>MOLECULE
NONAME
52 55 1 0 0 
SMALL
USER_CHARGES


@<TRIPOS>ATOM
  1 O        1.0800    -1.2770     0.7510 O.3   1 <1>  -0.5600 
  2 C        0.3030    -2.3410     0.2550 C.3   1 <1>   0.2800 
  3 C        0.4560    -0.2420     1.4610 C.3   1 <1>   0.1200 
  4 C       -1.2000    -2.2270     0.6550 C.3   1 <1>   0.2000 
  5 C        0.5290    -2.3410    -1.2670 C.3   1 <1>  -0.1600 
  6 C        0.9140    -3.6150     0.8550 C.3   1 <1>  -0.1600 
  7 C       -0.7280     0.2840     0.6480 C.3   1 <1>  -0.1600 
  8 O       -1.9640    -3.2100     0.0170 O.3   1 <1>  -0.6800 
  9 C       -1.8030    -0.8020     0.4700 C.3   1 <1>   0.2800 
 10 C        2.0040    -2.5320    -1.6050 C.3   1 <1>   0.3430 
 11 C        2.3780    -3.7650     0.4600 C.3   1 <1>   0.3430 
 12 O       -2.7240    -0.6370     1.4840 O.3   1 <1>  -0.6800 
 13 C       -2.5920    -0.5730    -0.8280 C.3   1 <1>  -0.2400 
 14 N        2.4910    -3.8170    -1.0250 N.4   1 <1>  -0.9590 
 15 C        3.8890    -4.1280    -1.4620 C.3   1 <1>   0.4860 
 16 C        4.8600    -3.0280    -1.0590 C.ar  1 <1>  -0.1440 
 17 C        5.4900    -3.0670     0.1830 C.ar  1 <1>  -0.1500 
 18 C        5.1320    -1.9820    -1.9400 C.ar  1 <1>  -0.1500 
 19 C        6.3570    -2.0490     0.5270 C.ar  1 <1>  -0.1440 
 20 C        6.0050    -0.9670    -1.5840 C.ar  1 <1>  -0.1500 
 21 C        6.6030    -1.0200    -0.3410 C.ar  1 <1>   0.0820 
 22 C        7.1630    -1.8210     1.7730 C.3   1 <1>  -0.0170 
 23 O        7.4630    -0.1140     0.1460 O.3   1 <1>  -0.3620 
 24 C        7.8860    -0.5010     1.4460 C.3   1 <1>   0.1200 
 25 H        0.1400    -0.6150     2.4210 H     1 <1>   0.0800 
 26 H        1.1850     0.5350     1.6140 H     1 <1>   0.0800 
 27 H       -1.2500    -2.4580     1.7060 H     1 <1>   0.0800 
 28 H       -0.0480    -3.1180    -1.7340 H     1 <1>   0.0800 
 29 H        0.2040    -1.4060    -1.6810 H     1 <1>   0.0800 
 30 H        0.8400    -3.5720     1.9270 H     1 <1>   0.0800 
 31 H        0.3630    -4.4800     0.5310 H     1 <1>   0.0800 
 32 H       -0.3490     0.5950    -0.3090 H     1 <1>   0.0800 
 33 H       -1.1410     1.1550     1.1240 H     1 <1>   0.0800 
 34 H       -2.8920    -3.1250     0.3230 H     1 <1>   0.4000 
 35 H        2.5700    -1.7100    -1.1930 H     1 <1>   0.0800 
 36 H        2.1320    -2.5330    -2.6750 H     1 <1>   0.0800 
 37 H        2.7800    -4.6650     0.8970 H     1 <1>   0.0800 
 38 H        2.9350    -2.9210     0.8380 H     1 <1>   0.0800 
 39 H       -3.2050     0.2040     1.3620 H     1 <1>   0.4000 
 40 H       -1.9750    -0.7610    -1.6850 H     1 <1>   0.0800 
 41 H       -2.9390     0.4430    -0.8870 H     1 <1>   0.0800 
 42 H       -3.4400    -1.2320    -0.8830 H     1 <1>   0.0800 
 43 H        1.8730    -4.5650    -1.3590 H     1 <1>   0.4500 
 44 H        4.2090    -5.0590    -1.0230 H     1 <1>   0.0800 
 45 H        3.9160    -4.2420    -2.5330 H     1 <1>   0.0800 
 46 H        5.3210    -3.8700     0.8780 H     1 <1>   0.1500 
 47 H        4.6730    -1.9440    -2.9130 H     1 <1>   0.1500 
 48 H        6.2280    -0.1490    -2.2470 H     1 <1>   0.1500 
 49 H        7.8700    -2.6150     1.9350 H     1 <1>   0.0800 
 50 H        6.5320    -1.7080     2.6360 H     1 <1>   0.0800 
 51 H        8.9540    -0.6290     1.4260 H     1 <1>   0.0800 
 52 H        7.6160     0.2810     2.1330 H     1 <1>   0.0800 
@<TRIPOS>BOND
  1   1   2  1   
  2   1   3  1   
  3   2   4  1   
  4   2   5  1   
  5   2   6  1   
  6   3   7  1   
  7   3  25  1   
  8   3  26  1   
  9   4   8  1   
 10   4   9  1   
 11   4  27  1   
 12   5  10  1   
 13   5  28  1   
 14   5  29  1   
 15   6  11  1   
 16   6  30  1   
 17   6  31  1   
 18   7   9  1   
 19   7  32  1   
 20   7  33  1   
 21   8  34  1   
 22   9  12  1   
 23   9  13  1   
 24  10  14  1   
 25  10  35  1   
 26  10  36  1   
 27  11  14  1   
 28  11  37  1   
 29  11  38  1   
 30  12  39  1   
 31  13  40  1   
 32  13  41  1   
 33  13  42  1   
 34  14  15  1   
 35  14  43  1   
 36  15  16  1   
 37  15  44  1   
 38  15  45  1   
 39  16  17  ar  
 40  16  18  ar  
 41  17  19  ar  
 42  17  46  1   
 43  18  20  ar  
 44  18  47  1   
 45  19  21  ar  
 46  19  22  1   
 47  20  21  ar  
 48  20  48  1   
 49  21  23  1   
 50  22  24  1   
 51  22  49  1   
 52  22  50  1   
 53  23  24  1   
 54  24  51  1   
 55  24  52  1   
@<TRIPOS>SUBSTRUCTURE
  1 ****   1 GROUP 4 **** **** 0

# MOE 2024.06 (io_trps.svl 2023.06)
