@<TRIPOS>MOLECULE
NONAME
52 55 1 0 0 
SMALL
USER_CHARGES


@<TRIPOS>ATOM
  1 O       -2.6880     1.9230     3.0250 O.2   1 <1>  -0.5700 
  2 C       -3.1250     1.8390     1.8880 C.2   1 <1>   0.5440 
  3 N       -4.2070     0.9980     1.6760 N.am  1 <1>  -0.6600 
  4 C       -2.4950     2.6410     0.8330 C.ar  1 <1>   0.3960 
  5 C       -5.0820     1.0330     0.4740 C.3   1 <1>   0.1400 
  6 C       -4.5140    -0.1370     2.5860 C.3   1 <1>   0.1400 
  7 N       -2.3570     2.1790    -0.4120 N.ar  1 <1>  -0.6200 
  8 C       -2.0140     3.9020     1.1350 C.ar  1 <1>  -0.1500 
  9 C       -4.8620    -0.2470    -0.3340 C.3   1 <1>  -0.1600 
 10 C       -4.2960    -1.4500     1.8270 C.3   1 <1>  -0.1600 
 11 C       -1.7710     2.9720    -1.2810 C.ar  1 <1>   0.4770 
 12 C       -1.4200     4.6440     0.1470 C.ar  1 <1>   0.1660 
 13 C       -5.1060    -1.5110     0.5160 C.3   1 <1>   0.4240 
 14 N       -1.2960     4.1860    -1.0750 N.ar  1 <1>  -0.6200 
 15 C       -1.6230     2.4380    -2.6850 C.3   1 <1>  -0.0960 
 16 C       -0.8750     6.0300     0.4190 C.3   1 <1>  -0.0960 
 17 O       -6.4480    -1.4530     0.9530 O.3   1 <1>  -0.5600 
 18 C       -4.8150    -2.8210    -0.2740 C.ar  1 <1>  -0.1440 
 19 C       -7.4330    -1.9270     0.0950 C.3   1 <1>   0.1200 
 20 C       -3.5380    -3.1300    -0.7610 C.ar  1 <1>   0.0820 
 21 C       -5.8470    -3.7260    -0.5220 C.ar  1 <1>  -0.1440 
 22 C       -7.2540    -3.4300    -0.0440 C.3   1 <1>  -0.0170 
 23 O       -2.5230    -2.2510    -0.5510 O.3   1 <1>  -0.3630 
 24 C       -3.3180    -4.3200    -1.4530 C.ar  1 <1>  -0.1500 
 25 C       -5.6170    -4.9050    -1.2100 C.ar  1 <1>  -0.1500 
 26 C       -1.1970    -2.4860    -0.9680 C.3   1 <1>   0.0400 
 27 C       -4.3540    -5.2040    -1.6750 C.ar  1 <1>  -0.1500 
 28 H       -4.8760     1.8980    -0.1300 H     1 <1>   0.0800 
 29 H       -6.1090     1.0930     0.7930 H     1 <1>   0.0800 
 30 H       -5.5360    -0.0620     2.9150 H     1 <1>   0.0800 
 31 H       -3.8800    -0.1140     3.4550 H     1 <1>   0.0800 
 32 H       -2.1080     4.2800     2.1360 H     1 <1>   0.1500 
 33 H       -3.8540    -0.2290    -0.6950 H     1 <1>   0.0800 
 34 H       -5.4990    -0.2530    -1.1970 H     1 <1>   0.0800 
 35 H       -4.5730    -2.2810     2.4480 H     1 <1>   0.0800 
 36 H       -3.2460    -1.5350     1.6320 H     1 <1>   0.0800 
 37 H       -1.9460     1.4150    -2.7380 H     1 <1>   0.0800 
 38 H       -0.5930     2.4960    -2.9840 H     1 <1>   0.0800 
 39 H       -2.2180     3.0300    -3.3560 H     1 <1>   0.0800 
 40 H       -1.0230     6.3100     1.4460 H     1 <1>   0.0800 
 41 H       -1.3730     6.7430    -0.2130 H     1 <1>   0.0800 
 42 H        0.1770     6.0510     0.2010 H     1 <1>   0.0800 
 43 H       -7.3490    -1.4330    -0.8560 H     1 <1>   0.0800 
 44 H       -8.3890    -1.6990     0.5320 H     1 <1>   0.0800 
 45 H       -7.9750    -3.8070    -0.7460 H     1 <1>   0.0800 
 46 H       -7.4230    -3.9030     0.9070 H     1 <1>   0.0800 
 47 H       -2.3480    -4.5780    -1.8300 H     1 <1>   0.1500 
 48 H       -6.4220    -5.5970    -1.3880 H     1 <1>   0.1500 
 49 H       -0.6010    -1.6450    -0.6640 H     1 <1>   0.0800 
 50 H       -1.1790    -2.5800    -2.0390 H     1 <1>   0.0800 
 51 H       -0.8360    -3.3810    -0.4920 H     1 <1>   0.0800 
 52 H       -4.1780    -6.1210    -2.2090 H     1 <1>   0.1500 
@<TRIPOS>BOND
  1   1   2  2   
  2   2   3  am  
  3   2   4  1   
  4   3   5  1   
  5   3   6  1   
  6   4   7  ar  
  7   4   8  ar  
  8   5   9  1   
  9   5  28  1   
 10   5  29  1   
 11   6  10  1   
 12   6  30  1   
 13   6  31  1   
 14   7  11  ar  
 15   8  12  ar  
 16   8  32  1   
 17   9  13  1   
 18   9  33  1   
 19   9  34  1   
 20  10  13  1   
 21  10  35  1   
 22  10  36  1   
 23  11  14  ar  
 24  11  15  1   
 25  12  14  ar  
 26  12  16  1   
 27  13  17  1   
 28  13  18  1   
 29  15  37  1   
 30  15  38  1   
 31  15  39  1   
 32  16  40  1   
 33  16  41  1   
 34  16  42  1   
 35  17  19  1   
 36  18  20  ar  
 37  18  21  ar  
 38  19  22  1   
 39  19  43  1   
 40  19  44  1   
 41  20  23  1   
 42  20  24  ar  
 43  21  22  1   
 44  21  25  ar  
 45  22  45  1   
 46  22  46  1   
 47  23  26  1   
 48  24  27  ar  
 49  24  47  1   
 50  25  27  ar  
 51  25  48  1   
 52  26  49  1   
 53  26  50  1   
 54  26  51  1   
 55  27  52  1   
@<TRIPOS>SUBSTRUCTURE
  1 ****   9 GROUP 4 **** **** 0

# MOE 2024.06 (io_trps.svl 2023.06)
