@<TRIPOS>MOLECULE
NONAME
60 63 1 0 0 
SMALL
USER_CHARGES


@<TRIPOS>ATOM
  1 N        0.2650     0.4870     0.8530 N.ar  1 <1>  -0.6200 
  2 C       -1.0210     0.7290     0.5760 C.ar  1 <1>   0.7200 
  3 C        1.0650     0.5260    -0.1810 C.ar  1 <1>   0.1660 
  4 N       -1.5290     1.0040    -0.6290 N.ar  1 <1>  -0.6200 
  5 N       -1.9000     0.6990     1.6370 N.pl3 1 <1>  -0.8380 
  6 C        0.6500     0.7970    -1.4470 C.ar  1 <1>  -0.1430 
  7 C        2.5550     0.3030    -0.1100 C.3   1 <1>   0.1430 
  8 C       -0.6880     1.0340    -1.6360 C.ar  1 <1>   0.1600 
  9 C       -3.2720     1.2700     1.5280 C.3   1 <1>   0.1290 
 10 C       -1.6440    -0.1020     2.8660 C.3   1 <1>   0.1290 
 11 C        1.7990     0.7890    -2.4240 C.3   1 <1>  -0.0160 
 12 C        3.1090     1.1490     1.0490 C.3   1 <1>   0.3430 
 13 C        2.8650    -1.1920     0.1190 C.3   1 <1>  -0.1600 
 14 C        3.0350     0.7940    -1.5030 C.3   1 <1>  -0.1600 
 15 N        4.5620     0.8780     1.2790 N.4   1 <1>  -0.9590 
 16 C        4.3540    -1.4300     0.4340 C.3   1 <1>  -0.1600 
 17 C        4.8530    -0.5480     1.5820 C.3   1 <1>   0.3430 
 18 C        5.1790     1.7970     2.2670 C.3   1 <1>   0.5240 
 19 C        6.6450     1.9160     1.8770 C.2   1 <1>   0.0460 
 20 N        6.9860     1.9520     0.5690 N.2   1 <1>  -0.5650 
 21 C        7.7430     1.9770     2.6620 C.2   1 <1>  -0.3020 
 22 C        8.2770     2.0420     0.5860 C.2   1 <1>   0.0060 
 23 N        8.7990     2.0640     1.8320 N.pl3 1 <1>   0.0330 
 24 C        9.1400     2.1200    -0.6620 C.3   1 <1>   0.0200 
 25 C        9.8890     0.8020    -0.8990 C.3   1 <1>  -0.1600 
 26 C       10.7470     0.8640    -2.1680 C.3   1 <1>  -0.1600 
 27 C       11.4910    -0.4550    -2.3940 C.3   1 <1>  -0.2400 
 28 H       -1.0730     1.2520    -2.6180 H     1 <1>   0.1500 
 29 H       -3.2750     2.1160     0.8620 H     1 <1>   0.0800 
 30 H       -3.6140     1.5990     2.4940 H     1 <1>   0.0800 
 31 H       -3.9440     0.5230     1.1460 H     1 <1>   0.0800 
 32 H       -0.8390    -0.7990     2.7090 H     1 <1>   0.0800 
 33 H       -2.5250    -0.6600     3.1300 H     1 <1>   0.0800 
 34 H       -1.3860     0.5560     3.6760 H     1 <1>   0.0800 
 35 H        1.7800     1.6490    -3.0720 H     1 <1>   0.0800 
 36 H        1.7640    -0.1120    -3.0130 H     1 <1>   0.0800 
 37 H        2.5510     0.9110     1.9400 H     1 <1>   0.0800 
 38 H        2.9520     2.1920     0.8270 H     1 <1>   0.0800 
 39 H        2.5720    -1.7660    -0.7440 H     1 <1>   0.0800 
 40 H        2.2750    -1.5450     0.9490 H     1 <1>   0.0800 
 41 H        3.8250     0.1920    -1.9140 H     1 <1>   0.0800 
 42 H        3.3890     1.8090    -1.4290 H     1 <1>   0.0800 
 43 H        5.1030     1.1110     0.4240 H     1 <1>   0.4500 
 44 H        4.9570    -1.2460    -0.4370 H     1 <1>   0.0800 
 45 H        4.4960    -2.4620     0.7030 H     1 <1>   0.0800 
 46 H        4.3590    -0.8340     2.4970 H     1 <1>   0.0800 
 47 H        5.9160    -0.6880     1.7080 H     1 <1>   0.0800 
 48 H        5.0720     1.4270     3.2720 H     1 <1>   0.0800 
 49 H        4.7270     2.7720     2.1950 H     1 <1>   0.0800 
 50 H        7.8420     1.9680     3.7340 H     1 <1>   0.1500 
 51 H        9.7930     2.1340     2.0790 H     1 <1>   0.2700 
 52 H        9.8390     2.9310    -0.5630 H     1 <1>   0.0800 
 53 H        8.5090     2.3300    -1.5080 H     1 <1>   0.0800 
 54 H        9.1720     0.0040    -0.9900 H     1 <1>   0.0800 
 55 H       10.5200     0.5890    -0.0530 H     1 <1>   0.0800 
 56 H       11.4650     1.6630    -2.0860 H     1 <1>   0.0800 
 57 H       10.1210     1.0650    -3.0220 H     1 <1>   0.0800 
 58 H       12.1430    -0.6680    -1.5650 H     1 <1>   0.0800 
 59 H       12.0860    -0.3930    -3.2880 H     1 <1>   0.0800 
 60 H       10.7940    -1.2670    -2.5050 H     1 <1>   0.0800 
@<TRIPOS>BOND
  1   1   2  ar  
  2   1   3  ar  
  3   2   4  ar  
  4   2   5  1   
  5   3   6  ar  
  6   3   7  1   
  7   4   8  ar  
  8   5   9  1   
  9   5  10  1   
 10   6   8  ar  
 11   6  11  1   
 12   7  12  1   
 13   7  13  1   
 14   7  14  1   
 15   8  28  1   
 16   9  29  1   
 17   9  30  1   
 18   9  31  1   
 19  10  32  1   
 20  10  33  1   
 21  10  34  1   
 22  11  14  1   
 23  11  35  1   
 24  11  36  1   
 25  12  15  1   
 26  12  37  1   
 27  12  38  1   
 28  13  16  1   
 29  13  39  1   
 30  13  40  1   
 31  14  41  1   
 32  14  42  1   
 33  15  17  1   
 34  15  18  1   
 35  15  43  1   
 36  16  17  1   
 37  16  44  1   
 38  16  45  1   
 39  17  46  1   
 40  17  47  1   
 41  18  19  1   
 42  18  48  1   
 43  18  49  1   
 44  19  20  1   
 45  19  21  2   
 46  20  22  2   
 47  21  23  1   
 48  21  50  1   
 49  22  23  1   
 50  22  24  1   
 51  23  51  1   
 52  24  25  1   
 53  24  52  1   
 54  24  53  1   
 55  25  26  1   
 56  25  54  1   
 57  25  55  1   
 58  26  27  1   
 59  26  56  1   
 60  26  57  1   
 61  27  58  1   
 62  27  59  1   
 63  27  60  1   
@<TRIPOS>SUBSTRUCTURE
  1 ****  12 GROUP 4 **** **** 0

# MOE 2024.06 (io_trps.svl 2023.06)
