@<TRIPOS>MOLECULE
NONAME
47 49 1 0 0 
SMALL
USER_CHARGES


@<TRIPOS>ATOM
  1 F       -0.0350    -0.6320    -0.2870 F     1 <1>  -0.1900 
  2 C       -0.6730    -1.7720    -0.3730 C.ar  1 <1>   0.1900 
  3 C       -0.0430    -2.9440    -0.8070 C.ar  1 <1>   0.0830 
  4 C       -2.0070    -1.7590    -0.0140 C.ar  1 <1>  -0.1500 
  5 O        1.2610    -3.0830    -1.1860 O.3   1 <1>  -0.3630 
  6 C       -0.8070    -4.0990    -0.8660 C.ar  1 <1>  -0.1500 
  7 C       -2.7390    -2.9290    -0.0870 C.ar  1 <1>  -0.1500 
  8 C        2.1930    -2.0260    -1.1350 C.3   1 <1>   0.0400 
  9 C       -2.1580    -4.1270    -0.5100 C.ar  1 <1>   0.0530 
 10 C       -2.9170    -5.3530    -0.5850 C.2   1 <1>   0.0870 
 11 O       -2.5200    -6.3380    -1.3590 O.3   1 <1>  -0.0190 
 12 C       -4.0590    -5.7720     0.0150 C.2   1 <1>  -0.2330 
 13 N       -3.3220    -7.3720    -1.3210 N.2   1 <1>  -0.4100 
 14 C       -4.2590    -7.0490    -0.5020 C.2   1 <1>   0.3720 
 15 C       -4.9190    -5.1460     0.9600 C.2   1 <1>   1.0330 
 16 N       -5.3290    -7.8950    -0.1940 N.pl3 1 <1>  -0.8210 
 17 O       -5.8060    -4.3640     0.5760 O.co2 1 <1>  -0.9000 
 18 O       -4.8250    -5.3990     2.1720 O.co2 1 <1>  -0.9000 
 19 C       -5.2850    -8.3500     1.2200 C.3   1 <1>   0.2090 
 20 C       -6.6440    -7.2930    -0.5380 C.3   1 <1>   0.2090 
 21 C       -5.7700    -9.7950     1.3290 C.3   1 <1>  -0.1600 
 22 C       -7.5980    -8.3420    -1.1190 C.3   1 <1>  -0.1600 
 23 C       -7.2100   -10.0740     0.8560 C.3   1 <1>   0.2800 
 24 C       -7.4100    -9.8050    -0.6540 C.3   1 <1>  -0.1600 
 25 O       -8.0720    -9.2540     1.5690 O.3   1 <1>  -0.6800 
 26 C       -7.5740   -11.5420     1.1930 C.3   1 <1>   0.1200 
 27 O       -8.9480   -11.7330     1.1180 O.3   1 <1>  -0.6800 
 28 H       -2.4700    -0.8470     0.3160 H     1 <1>   0.1500 
 29 H       -0.3330    -5.0060    -1.1950 H     1 <1>   0.1500 
 30 H       -3.7800    -2.9080     0.1870 H     1 <1>   0.1500 
 31 H        3.1460    -2.4060    -1.4560 H     1 <1>   0.0800 
 32 H        2.2640    -1.6710    -0.1220 H     1 <1>   0.0800 
 33 H        1.8710    -1.2430    -1.7980 H     1 <1>   0.0800 
 34 H       -5.8760    -7.7060     1.8510 H     1 <1>   0.0800 
 35 H       -4.2710    -8.2950     1.5820 H     1 <1>   0.0800 
 36 H       -6.5100    -6.5030    -1.2600 H     1 <1>   0.0800 
 37 H       -7.0830    -6.8380     0.3350 H     1 <1>   0.0800 
 38 H       -5.6810   -10.0890     2.3580 H     1 <1>   0.0800 
 39 H       -5.0910   -10.4100     0.7670 H     1 <1>   0.0800 
 40 H       -7.4890    -8.3200    -2.1880 H     1 <1>   0.0800 
 41 H       -8.6040    -8.0280    -0.9060 H     1 <1>   0.0800 
 42 H       -6.5590   -10.2110    -1.1730 H     1 <1>   0.0800 
 43 H       -8.2610   -10.3630    -1.0010 H     1 <1>   0.0800 
 44 H       -7.8230    -8.3260     1.3890 H     1 <1>   0.4000 
 45 H       -7.2690   -11.7780     2.1970 H     1 <1>   0.0800 
 46 H       -7.0960   -12.2270     0.5150 H     1 <1>   0.0800 
 47 H       -9.3570   -10.9000     1.4440 H     1 <1>   0.4000 
@<TRIPOS>BOND
  1   1   2  1   
  2   2   3  ar  
  3   2   4  ar  
  4   3   5  1   
  5   3   6  ar  
  6   4   7  ar  
  7   4  28  1   
  8   5   8  1   
  9   6   9  ar  
 10   6  29  1   
 11   7   9  ar  
 12   7  30  1   
 13   8  31  1   
 14   8  32  1   
 15   8  33  1   
 16   9  10  1   
 17  10  11  1   
 18  10  12  2   
 19  11  13  1   
 20  12  14  1   
 21  12  15  1   
 22  13  14  2   
 23  14  16  1   
 24  15  17  ar  
 25  15  18  ar  
 26  16  19  1   
 27  16  20  1   
 28  19  21  1   
 29  19  34  1   
 30  19  35  1   
 31  20  22  1   
 32  20  36  1   
 33  20  37  1   
 34  21  23  1   
 35  21  38  1   
 36  21  39  1   
 37  22  24  1   
 38  22  40  1   
 39  22  41  1   
 40  23  24  1   
 41  23  25  1   
 42  23  26  1   
 43  24  42  1   
 44  24  43  1   
 45  25  44  1   
 46  26  27  1   
 47  26  45  1   
 48  26  46  1   
 49  27  47  1   
@<TRIPOS>SUBSTRUCTURE
  1 ****  12 GROUP 4 **** **** 0

# MOE 2024.06 (io_trps.svl 2023.06)
