@<TRIPOS>MOLECULE
NONAME
52 54 1 0 0 
SMALL
USER_CHARGES


@<TRIPOS>ATOM
  1 O       -0.7730     0.3070    -0.5020 O.3   1 <1>  -0.3630 
  2 C       -0.5660     1.6330    -0.3080 C.ar  1 <1>   0.0830 
  3 C       -1.9010    -0.3440     0.0290 C.3   1 <1>   0.1200 
  4 C        0.5750     2.1750    -0.8790 C.ar  1 <1>  -0.1500 
  5 C       -1.4230     2.4550     0.4210 C.ar  1 <1>  -0.1500 
  6 C       -1.8170    -1.8160    -0.3780 C.3   1 <1>  -0.1600 
  7 C        0.8640     3.5200    -0.7300 C.ar  1 <1>  -0.1500 
  8 C       -1.1320     3.8000     0.5680 C.ar  1 <1>  -0.1500 
  9 C       -3.0150    -2.6220     0.1440 C.3   1 <1>  -0.1600 
 10 C        0.0090     4.3330    -0.0060 C.ar  1 <1>  -0.1500 
 11 C       -2.8900    -4.0900    -0.2670 C.3   1 <1>   0.3430 
 12 N       -4.0090    -4.8820     0.3030 N.4   1 <1>  -0.9590 
 13 C       -5.3660    -4.5930    -0.2380 C.3   1 <1>   0.3430 
 14 C       -3.8270    -6.3570     0.1580 C.3   1 <1>   0.3430 
 15 C       -6.1920    -5.7990     0.2060 C.3   1 <1>   0.2000 
 16 C       -5.2250    -6.9620    -0.0340 C.3   1 <1>  -0.0800 
 17 O       -6.4380    -5.6600     1.5690 O.3   1 <1>  -0.6800 
 18 C       -5.4470    -8.2250     0.8210 C.3   1 <1>   0.0210 
 19 C       -4.5030    -9.3410     0.4120 C.2   1 <1>   0.1080 
 20 N       -3.2160    -9.1880     0.3210 N.2   1 <1>  -0.7070 
 21 C       -4.9030   -10.6340     0.0950 C.2   1 <1>  -0.1500 
 22 N       -2.7560   -10.4030    -0.0500 N.pl3 1 <1>   0.3000 
 23 C       -3.7610   -11.2900    -0.1980 C.2   1 <1>  -0.3320 
 24 C       -3.5640   -12.7370    -0.6110 C.3   1 <1>  -0.0600 
 25 H       -1.8800    -0.2360     1.1000 H     1 <1>   0.0800 
 26 H       -2.7820     0.1220    -0.3790 H     1 <1>   0.0800 
 27 H        1.2330     1.5370    -1.4390 H     1 <1>   0.1500 
 28 H       -2.3150     2.0710     0.8770 H     1 <1>   0.1500 
 29 H       -1.7820    -1.8710    -1.4530 H     1 <1>   0.0800 
 30 H       -0.9030    -2.2260     0.0160 H     1 <1>   0.0800 
 31 H        1.7510     3.9320    -1.1770 H     1 <1>   0.1500 
 32 H       -1.7940     4.4360     1.1310 H     1 <1>   0.1500 
 33 H       -3.9190    -2.2010    -0.2600 H     1 <1>   0.0800 
 34 H       -3.0440    -2.5500     1.2170 H     1 <1>   0.0800 
 35 H        0.2330     5.3800     0.1110 H     1 <1>   0.1500 
 36 H       -1.9530    -4.4780     0.1010 H     1 <1>   0.0800 
 37 H       -2.8880    -4.1730    -1.3420 H     1 <1>   0.0800 
 38 H       -4.0820    -4.7110     1.3180 H     1 <1>   0.4500 
 39 H       -5.7730    -3.6750     0.1540 H     1 <1>   0.0800 
 40 H       -5.3340    -4.5490    -1.3140 H     1 <1>   0.0800 
 41 H       -3.2110    -6.5960    -0.6950 H     1 <1>   0.0800 
 42 H       -3.3590    -6.7650     1.0400 H     1 <1>   0.0800 
 43 H       -7.1280    -5.8860    -0.3200 H     1 <1>   0.0800 
 44 H       -5.3020    -7.2510    -1.0680 H     1 <1>   0.0800 
 45 H       -7.1180    -6.2960     1.8780 H     1 <1>   0.4000 
 46 H       -6.4600    -8.5670     0.7080 H     1 <1>   0.0800 
 47 H       -5.2800    -8.0120     1.8630 H     1 <1>   0.0800 
 48 H       -5.9100   -11.0120     0.0930 H     1 <1>   0.1500 
 49 H       -1.7570   -10.5990    -0.1900 H     1 <1>   0.2700 
 50 H       -4.5140   -13.2420    -0.6560 H     1 <1>   0.0800 
 51 H       -2.9410   -13.2470     0.1030 H     1 <1>   0.0800 
 52 H       -3.1030   -12.7900    -1.5810 H     1 <1>   0.0800 
@<TRIPOS>BOND
  1   1   2  1   
  2   1   3  1   
  3   2   4  ar  
  4   2   5  ar  
  5   3   6  1   
  6   3  25  1   
  7   3  26  1   
  8   4   7  ar  
  9   4  27  1   
 10   5   8  ar  
 11   5  28  1   
 12   6   9  1   
 13   6  29  1   
 14   6  30  1   
 15   7  10  ar  
 16   7  31  1   
 17   8  10  ar  
 18   8  32  1   
 19   9  11  1   
 20   9  33  1   
 21   9  34  1   
 22  10  35  1   
 23  11  12  1   
 24  11  36  1   
 25  11  37  1   
 26  12  13  1   
 27  12  14  1   
 28  12  38  1   
 29  13  15  1   
 30  13  39  1   
 31  13  40  1   
 32  14  16  1   
 33  14  41  1   
 34  14  42  1   
 35  15  16  1   
 36  15  17  1   
 37  15  43  1   
 38  16  18  1   
 39  16  44  1   
 40  17  45  1   
 41  18  19  1   
 42  18  46  1   
 43  18  47  1   
 44  19  20  2   
 45  19  21  1   
 46  20  22  1   
 47  21  23  2   
 48  21  48  1   
 49  22  23  1   
 50  22  49  1   
 51  23  24  1   
 52  24  50  1   
 53  24  51  1   
 54  24  52  1   
@<TRIPOS>SUBSTRUCTURE
  1 ****  11 GROUP 4 **** **** 0

# MOE 2024.06 (io_trps.svl 2023.06)
