@<TRIPOS>MOLECULE
NONAME
46 49 1 0 0 
SMALL
USER_CHARGES


@<TRIPOS>ATOM
  1 S        0.9210    -0.4550    -0.4960 S.3   1 <1>  -0.0800 
  2 C        0.3970    -2.1390    -0.4340 C.ar  1 <1>   0.2970 
  3 C       -0.7110     0.1180    -0.1360 C.2   1 <1>  -0.1100 
  4 N        1.2040    -3.1600    -0.6250 N.ar  1 <1>  -0.5670 
  5 C       -0.9440    -2.2090    -0.1610 C.ar  1 <1>   0.0000 
  6 C       -1.5560    -0.9180     0.0110 C.2   1 <1>  -0.1500 
  7 C        0.5890    -4.3220    -0.5280 C.ar  1 <1>   0.4770 
  8 C       -1.4630    -3.4990    -0.0950 C.ar  1 <1>   0.4100 
  9 N       -0.6920    -4.5620    -0.2730 N.ar  1 <1>  -0.6200 
 10 C        1.4540    -5.5440    -0.7330 C.3   1 <1>  -0.0960 
 11 N       -2.8010    -3.7220     0.1260 N.pl3 1 <1>  -0.8380 
 12 C       -3.1760    -4.8220     1.0760 C.3   1 <1>   0.2090 
 13 C       -3.6970    -3.5470    -1.0650 C.3   1 <1>   0.2090 
 14 C       -3.6500    -6.0130     0.2240 C.3   1 <1>   0.4230 
 15 C       -5.0710    -4.2100    -0.8710 C.3   1 <1>  -0.1600 
 16 N       -3.6350    -7.3810     0.8420 N.4   1 <1>  -0.9590 
 17 C       -5.0420    -5.6830    -0.3460 C.3   1 <1>  -0.1060 
 18 C       -3.9160    -8.4260    -0.1800 C.3   1 <1>   0.3430 
 19 C       -2.4260    -7.6790     1.6510 C.3   1 <1>   0.2630 
 20 C       -6.1130    -5.8270     0.7500 C.2   1 <1>   0.9060 
 21 C       -5.3090    -6.6980    -1.4810 C.3   1 <1>  -0.1600 
 22 C       -5.2180    -8.1390    -0.9420 C.3   1 <1>  -0.1600 
 23 O       -7.2750    -5.5260     0.4830 O.co2 1 <1>  -0.9000 
 24 O       -5.7980    -6.2900     1.8580 O.co2 1 <1>  -0.9000 
 25 H       -0.8520     1.1830    -0.0710 H     1 <1>   0.1500 
 26 H       -2.6050    -0.8500     0.2410 H     1 <1>   0.1500 
 27 H        0.9440    -6.2510    -1.3590 H     1 <1>   0.0800 
 28 H        1.6630    -5.9950     0.2190 H     1 <1>   0.0800 
 29 H        2.3820    -5.2730    -1.2020 H     1 <1>   0.0800 
 30 H       -2.3200    -5.0800     1.6700 H     1 <1>   0.0800 
 31 H       -3.9560    -4.4810     1.7350 H     1 <1>   0.0800 
 32 H       -3.8340    -2.4950    -1.2520 H     1 <1>   0.0800 
 33 H       -3.2170    -3.9750    -1.9290 H     1 <1>   0.0800 
 34 H       -2.9620    -6.0460    -0.6020 H     1 <1>   0.0800 
 35 H       -5.6060    -3.5960    -0.1650 H     1 <1>   0.0800 
 36 H       -5.6320    -4.1540    -1.7870 H     1 <1>   0.0800 
 37 H       -4.4740    -7.3180     1.4810 H     1 <1>   0.4500 
 38 H       -3.1000    -8.4600    -0.8820 H     1 <1>   0.0800 
 39 H       -3.9920    -9.3900     0.2970 H     1 <1>   0.0800 
 40 H       -1.5410    -7.5930     1.0440 H     1 <1>   0.0800 
 41 H       -2.4860    -8.6780     2.0510 H     1 <1>   0.0800 
 42 H       -2.3540    -6.9890     2.4750 H     1 <1>   0.0800 
 43 H       -6.2950    -6.5330    -1.8850 H     1 <1>   0.0800 
 44 H       -4.5960    -6.5580    -2.2750 H     1 <1>   0.0800 
 45 H       -5.3050    -8.8310    -1.7610 H     1 <1>   0.0800 
 46 H       -6.0500    -8.3290    -0.2840 H     1 <1>   0.0800 
@<TRIPOS>BOND
  1   1   2  1   
  2   1   3  1   
  3   2   4  ar  
  4   2   5  ar  
  5   3   6  2   
  6   3  25  1   
  7   4   7  ar  
  8   5   6  1   
  9   5   8  ar  
 10   6  26  1   
 11   7   9  ar  
 12   7  10  1   
 13   8   9  ar  
 14   8  11  1   
 15  10  27  1   
 16  10  28  1   
 17  10  29  1   
 18  11  12  1   
 19  11  13  1   
 20  12  14  1   
 21  12  30  1   
 22  12  31  1   
 23  13  15  1   
 24  13  32  1   
 25  13  33  1   
 26  14  16  1   
 27  14  17  1   
 28  14  34  1   
 29  15  17  1   
 30  15  35  1   
 31  15  36  1   
 32  16  18  1   
 33  16  19  1   
 34  16  37  1   
 35  17  20  1   
 36  17  21  1   
 37  18  22  1   
 38  18  38  1   
 39  18  39  1   
 40  19  40  1   
 41  19  41  1   
 42  19  42  1   
 43  20  23  ar  
 44  20  24  ar  
 45  21  22  1   
 46  21  43  1   
 47  21  44  1   
 48  22  45  1   
 49  22  46  1   
@<TRIPOS>SUBSTRUCTURE
  1 ****  11 GROUP 4 **** **** 0

# MOE 2024.06 (io_trps.svl 2023.06)
