@<TRIPOS>MOLECULE
NONAME
60 63 1 0 0 
SMALL
USER_CHARGES


@<TRIPOS>ATOM
  1 S        0.9750     0.5450    -1.5090 S.o2  1 <1>   1.5760 
  2 O        1.7480    -0.5920    -1.9570 O.2   1 <1>  -0.6500 
  3 O        0.6660     1.6260    -2.4170 O.2   1 <1>  -0.6500 
  4 N        1.7010     1.1940    -0.1300 N.am  1 <1>  -0.8490 
  5 N       -0.4630    -0.0300    -0.8440 N.am  1 <1>  -0.8490 
  6 C        3.1340     1.4370    -0.3830 C.3   1 <1>   0.1960 
  7 C        1.0080     2.4080     0.3100 C.3   1 <1>   0.1960 
  8 C       -1.3780    -0.5330    -1.8490 C.3   1 <1>   0.1960 
  9 C       -0.2790    -1.1210     0.0950 C.3   1 <1>   0.1960 
 10 C        3.9330     1.9090     0.8420 C.3   1 <1>   0.2090 
 11 C        1.2900     2.6740     1.7910 C.3   1 <1>  -0.1600 
 12 C       -2.3890    -1.3590    -1.0620 C.3   1 <1>  -0.1600 
 13 C       -1.6660    -1.7360     0.2320 C.3   1 <1>  -0.1600 
 14 N        3.6520     3.3440     1.1710 N.pl3 1 <1>  -0.8380 
 15 C        2.4830     3.5980     2.0510 C.3   1 <1>   0.2090 
 16 C        4.7290     4.1800     1.3960 C.ar  1 <1>   0.4100 
 17 N        5.7580     3.6810     2.0700 N.ar  1 <1>  -0.6200 
 18 C        4.6810     5.4910     0.9420 C.ar  1 <1>  -0.1500 
 19 C        6.7520     4.5180     2.3070 C.ar  1 <1>   0.1600 
 20 C        5.7230     6.3660     1.1780 C.ar  1 <1>   0.0860 
 21 C        6.7850     5.8340     1.8970 C.ar  1 <1>  -0.1500 
 22 C        5.6980     7.7410     0.7230 C.2   1 <1>   0.5440 
 23 O        4.7630     8.4470     1.0510 O.2   1 <1>  -0.5700 
 24 N        6.7010     8.2690    -0.0660 N.am  1 <1>  -0.6600 
 25 C        7.6740     7.4410    -0.8330 C.3   1 <1>   0.1400 
 26 C        6.7670     9.7260    -0.3750 C.3   1 <1>   0.1400 
 27 C        7.4570     7.6470    -2.3360 C.3   1 <1>  -0.1600 
 28 C        6.5350     9.9470    -1.8730 C.3   1 <1>  -0.1600 
 29 C        7.5190     9.1310    -2.7230 C.3   1 <1>  -0.1600 
 30 H        3.2530     2.1550    -1.1770 H     1 <1>   0.0800 
 31 H        3.5820     0.5150    -0.7100 H     1 <1>   0.0800 
 32 H       -0.0550     2.2660     0.2040 H     1 <1>   0.0800 
 33 H        1.2850     3.2530    -0.3010 H     1 <1>   0.0800 
 34 H       -0.8500    -1.1670    -2.5430 H     1 <1>   0.0800 
 35 H       -1.8440     0.2780    -2.3850 H     1 <1>   0.0800 
 36 H        0.1010    -0.7600     1.0360 H     1 <1>   0.0800 
 37 H        0.4020    -1.8540    -0.3080 H     1 <1>   0.0800 
 38 H        4.9770     1.7990     0.6050 H     1 <1>   0.0800 
 39 H        3.7270     1.2790     1.6890 H     1 <1>   0.0800 
 40 H        1.4200     1.7420     2.3110 H     1 <1>   0.0800 
 41 H        0.4250     3.1480     2.2180 H     1 <1>   0.0800 
 42 H       -2.6930    -2.2240    -1.6240 H     1 <1>   0.0800 
 43 H       -3.2550    -0.7590    -0.8440 H     1 <1>   0.0800 
 44 H       -2.1690    -1.3040     1.0790 H     1 <1>   0.0800 
 45 H       -1.6010    -2.8010     0.3660 H     1 <1>   0.0800 
 46 H        2.7910     3.5030     3.0800 H     1 <1>   0.0800 
 47 H        2.1660     4.6160     1.9000 H     1 <1>   0.0800 
 48 H        3.8150     5.8240     0.4030 H     1 <1>   0.1500 
 49 H        7.5890     4.1280     2.8630 H     1 <1>   0.1500 
 50 H        7.6280     6.4570     2.1350 H     1 <1>   0.1500 
 51 H        7.5610     6.3960    -0.6040 H     1 <1>   0.0800 
 52 H        8.6740     7.7380    -0.5650 H     1 <1>   0.0800 
 53 H        7.7370    10.0980    -0.0960 H     1 <1>   0.0800 
 54 H        6.0290    10.2710     0.1900 H     1 <1>   0.0800 
 55 H        6.4960     7.2440    -2.6050 H     1 <1>   0.0800 
 56 H        8.2050     7.1000    -2.8820 H     1 <1>   0.0800 
 57 H        6.6420    10.9930    -2.0980 H     1 <1>   0.0800 
 58 H        5.5240     9.6640    -2.1090 H     1 <1>   0.0800 
 59 H        7.2790     9.2460    -3.7660 H     1 <1>   0.0800 
 60 H        8.5180     9.5000    -2.5670 H     1 <1>   0.0800 
@<TRIPOS>BOND
  1   1   2  2   
  2   1   3  2   
  3   1   4  am  
  4   1   5  am  
  5   4   6  1   
  6   4   7  1   
  7   5   8  1   
  8   5   9  1   
  9   6  10  1   
 10   6  30  1   
 11   6  31  1   
 12   7  11  1   
 13   7  32  1   
 14   7  33  1   
 15   8  12  1   
 16   8  34  1   
 17   8  35  1   
 18   9  13  1   
 19   9  36  1   
 20   9  37  1   
 21  10  14  1   
 22  10  38  1   
 23  10  39  1   
 24  11  15  1   
 25  11  40  1   
 26  11  41  1   
 27  12  13  1   
 28  12  42  1   
 29  12  43  1   
 30  13  44  1   
 31  13  45  1   
 32  14  15  1   
 33  14  16  1   
 34  15  46  1   
 35  15  47  1   
 36  16  17  ar  
 37  16  18  ar  
 38  17  19  ar  
 39  18  20  ar  
 40  18  48  1   
 41  19  21  ar  
 42  19  49  1   
 43  20  21  ar  
 44  20  22  1   
 45  21  50  1   
 46  22  23  2   
 47  22  24  am  
 48  24  25  1   
 49  24  26  1   
 50  25  27  1   
 51  25  51  1   
 52  25  52  1   
 53  26  28  1   
 54  26  53  1   
 55  26  54  1   
 56  27  29  1   
 57  27  55  1   
 58  27  56  1   
 59  28  29  1   
 60  28  57  1   
 61  28  58  1   
 62  29  59  1   
 63  29  60  1   
@<TRIPOS>SUBSTRUCTURE
  1 ****  14 GROUP 4 **** **** 0

# MOE 2024.06 (io_trps.svl 2023.06)
