@<TRIPOS>MOLECULE
NONAME
56 58 1 0 0 
SMALL
USER_CHARGES


@<TRIPOS>ATOM
  1 O        1.5850    -0.2160     0.8200 O.2   1 <1>  -0.5700 
  2 C        2.0890    -0.6520    -0.1870 C.2   1 <1>   0.5690 
  3 N        2.7480     0.1910    -1.0560 N.am  1 <1>  -0.6600 
  4 C        1.9300    -2.1690    -0.4350 C.3   1 <1>   0.4040 
  5 C        3.7880    -0.2310    -2.0520 C.3   1 <1>   0.1400 
  6 C        2.3160     1.6210    -1.1360 C.3   1 <1>   0.1400 
  7 N        0.7050    -2.7550     0.2320 N.4   1 <1>  -0.9590 
  8 C        5.0520     0.6650    -2.0370 C.3   1 <1>   0.3430 
  9 C        3.1680     2.5050    -0.2220 C.3   1 <1>  -0.1600 
 10 C        0.8020    -4.2340     0.3780 C.3   1 <1>   0.3430 
 11 C       -0.5510    -2.2780    -0.4200 C.3   1 <1>   0.3430 
 12 N        5.2970     1.3160    -0.7000 N.4   1 <1>  -0.9590 
 13 C        4.6270     2.6510    -0.6490 C.3   1 <1>   0.3430 
 14 C       -0.2720    -4.7950     1.3120 C.3   1 <1>  -0.1600 
 15 C       -1.6610    -2.1690     0.6230 C.3   1 <1>  -0.1600 
 16 C        6.7710     1.4020    -0.4070 C.3   1 <1>   0.3430 
 17 C       -1.6780    -4.7830     0.6960 C.3   1 <1>  -0.1600 
 18 C       -2.4440    -3.4660     0.8890 C.3   1 <1>  -0.1600 
 19 C        7.0780     1.7730     1.0530 C.3   1 <1>   0.0960 
 20 N        8.5380     1.7930     1.2300 N.pl3 1 <1>   0.0480 
 21 C        9.3900     2.7940     1.0040 C.2   1 <1>   0.0360 
 22 C        9.3470     0.7960     1.5950 C.2   1 <1>   0.0360 
 23 N       10.6090     2.4350     1.1990 N.2   1 <1>  -0.3380 
 24 N       10.5810     1.1560     1.5760 N.2   1 <1>  -0.3380 
 25 H        2.8070    -2.6560    -0.0480 H     1 <1>   0.0800 
 26 H        1.8830    -2.3490    -1.4950 H     1 <1>   0.0800 
 27 H        3.3630    -0.2180    -3.0430 H     1 <1>   0.0800 
 28 H        4.0940    -1.2420    -1.8500 H     1 <1>   0.0800 
 29 H        1.2850     1.6980    -0.8240 H     1 <1>   0.0800 
 30 H        2.3650     1.9700    -2.1540 H     1 <1>   0.0800 
 31 H        0.6850    -2.3390     1.1790 H     1 <1>   0.4500 
 32 H        4.9520     1.4250    -2.7940 H     1 <1>   0.0800 
 33 H        5.8980     0.0560    -2.3140 H     1 <1>   0.0800 
 34 H        3.1090     2.1450     0.7910 H     1 <1>   0.0800 
 35 H        2.7310     3.4880    -0.2200 H     1 <1>   0.0800 
 36 H        1.7670    -4.4860     0.7890 H     1 <1>   0.0800 
 37 H        0.7190    -4.7060    -0.5870 H     1 <1>   0.0800 
 38 H       -0.8460    -2.9350    -1.2230 H     1 <1>   0.0800 
 39 H       -0.3880    -1.2940    -0.8290 H     1 <1>   0.0800 
 40 H        4.8190     0.7310     0.0040 H     1 <1>   0.4500 
 41 H        5.1220     3.2890     0.0650 H     1 <1>   0.0800 
 42 H        4.6830     3.1330    -1.6130 H     1 <1>   0.0800 
 43 H       -0.2600    -4.2920     2.2630 H     1 <1>   0.0800 
 44 H       -0.0140    -5.8230     1.5010 H     1 <1>   0.0800 
 45 H       -2.3680    -1.4330     0.2790 H     1 <1>   0.0800 
 46 H       -1.2560    -1.7880     1.5440 H     1 <1>   0.0800 
 47 H        7.2240     2.1320    -1.0600 H     1 <1>   0.0800 
 48 H        7.2270     0.4470    -0.6110 H     1 <1>   0.0800 
 49 H       -2.2600    -5.5640     1.1580 H     1 <1>   0.0800 
 50 H       -1.6220    -5.0250    -0.3520 H     1 <1>   0.0800 
 51 H       -3.3040    -3.4910     0.2410 H     1 <1>   0.0800 
 52 H       -2.8240    -3.4280     1.8970 H     1 <1>   0.0800 
 53 H        6.6610     1.0460     1.7260 H     1 <1>   0.0800 
 54 H        6.6960     2.7470     1.2970 H     1 <1>   0.0800 
 55 H        9.0940     3.7810     0.6950 H     1 <1>   0.1500 
 56 H        9.0090    -0.1870     1.8680 H     1 <1>   0.1500 
@<TRIPOS>BOND
  1   1   2  2   
  2   2   3  am  
  3   2   4  1   
  4   3   5  1   
  5   3   6  1   
  6   4   7  1   
  7   4  25  1   
  8   4  26  1   
  9   5   8  1   
 10   5  27  1   
 11   5  28  1   
 12   6   9  1   
 13   6  29  1   
 14   6  30  1   
 15   7  10  1   
 16   7  11  1   
 17   7  31  1   
 18   8  12  1   
 19   8  32  1   
 20   8  33  1   
 21   9  13  1   
 22   9  34  1   
 23   9  35  1   
 24  10  14  1   
 25  10  36  1   
 26  10  37  1   
 27  11  15  1   
 28  11  38  1   
 29  11  39  1   
 30  12  13  1   
 31  12  16  1   
 32  12  40  1   
 33  13  41  1   
 34  13  42  1   
 35  14  17  1   
 36  14  43  1   
 37  14  44  1   
 38  15  18  1   
 39  15  45  1   
 40  15  46  1   
 41  16  19  1   
 42  16  47  1   
 43  16  48  1   
 44  17  18  1   
 45  17  49  1   
 46  17  50  1   
 47  18  51  1   
 48  18  52  1   
 49  19  20  1   
 50  19  53  1   
 51  19  54  1   
 52  20  21  1   
 53  20  22  1   
 54  21  23  2   
 55  21  55  1   
 56  22  24  2   
 57  22  56  1   
 58  23  24  1   
@<TRIPOS>SUBSTRUCTURE
  1 ****   3 GROUP 4 **** **** 0

# MOE 2024.06 (io_trps.svl 2023.06)
