@<TRIPOS>MOLECULE
NONAME
46 48 1 0 0 
SMALL
USER_CHARGES


@<TRIPOS>ATOM
  1 O       -1.1310     0.6470    -1.1920 O.2   1 <1>  -0.5700 
  2 C       -2.2490     0.9420    -0.8600 C.2   1 <1>   0.4230 
  3 C       -3.1600    -0.0100    -0.2870 C.ar  1 <1>   0.0860 
  4 C       -2.6850     2.3660    -1.1430 C.3   1 <1>  -0.1790 
  5 C       -4.0180     0.2110     0.7890 C.ar  1 <1>   0.1660 
  6 C       -3.2240    -1.2830    -0.8300 C.ar  1 <1>   0.1600 
  7 N       -4.8650    -0.6950     1.2060 N.ar  1 <1>  -0.6200 
  8 C       -4.0280     1.5050     1.5850 C.3   1 <1>  -0.0960 
  9 N       -4.0560    -2.2080    -0.4250 N.ar  1 <1>  -0.6200 
 10 C       -4.8530    -1.8610     0.5790 C.ar  1 <1>   0.7200 
 11 N       -5.7520    -2.7500     1.0310 N.pl3 1 <1>  -0.8690 
 12 C       -6.2250    -3.9360     0.2930 C.3   1 <1>   0.2890 
 13 C       -7.7160    -4.1980     0.5930 C.3   1 <1>   0.0630 
 14 C       -5.3690    -5.1450     0.6870 C.3   1 <1>  -0.1600 
 15 C       -8.6090    -3.0070     0.2380 C.ar  1 <1>  -0.1440 
 16 C       -8.2010    -5.4680    -0.1280 C.3   1 <1>  -0.1600 
 17 C       -5.8490    -6.4210    -0.0210 C.3   1 <1>  -0.1600 
 18 C       -9.4590    -2.4730     1.1960 C.ar  1 <1>  -0.1500 
 19 C       -8.5880    -2.4440    -1.0300 C.ar  1 <1>  -0.1500 
 20 C       -7.3390    -6.6840     0.2430 C.3   1 <1>  -0.1600 
 21 C      -10.2710    -1.3940     0.8940 C.ar  1 <1>  -0.1500 
 22 C       -9.4000    -1.3650    -1.3350 C.ar  1 <1>  -0.1500 
 23 C      -10.2420    -0.8390    -0.3730 C.ar  1 <1>  -0.1500 
 24 H       -3.7560     2.4410    -1.1750 H     1 <1>   0.0800 
 25 H       -2.2950     2.6730    -2.0970 H     1 <1>   0.0800 
 26 H       -2.2960     3.0250    -0.3900 H     1 <1>   0.0800 
 27 H       -2.5570    -1.5310    -1.6390 H     1 <1>   0.1500 
 28 H       -3.0390     1.9190     1.6610 H     1 <1>   0.0800 
 29 H       -4.3820     1.3180     2.5830 H     1 <1>   0.0800 
 30 H       -4.6870     2.2170     1.1230 H     1 <1>   0.0800 
 31 H       -6.4490    -2.3260     1.6410 H     1 <1>   0.4000 
 32 H       -6.1070    -3.7630    -0.7640 H     1 <1>   0.0800 
 33 H       -7.7970    -4.3830     1.6500 H     1 <1>   0.0800 
 34 H       -4.3450    -4.9540     0.4190 H     1 <1>   0.0800 
 35 H       -5.4190    -5.2850     1.7520 H     1 <1>   0.0800 
 36 H       -9.2260    -5.6590     0.1380 H     1 <1>   0.0800 
 37 H       -8.1610    -5.3150    -1.1930 H     1 <1>   0.0800 
 38 H       -5.6890    -6.3190    -1.0810 H     1 <1>   0.0800 
 39 H       -5.2680    -7.2610     0.3190 H     1 <1>   0.0800 
 40 H       -9.4960    -2.8930     2.1860 H     1 <1>   0.1500 
 41 H       -7.9390    -2.8390    -1.7910 H     1 <1>   0.1500 
 42 H       -7.4780    -6.9140     1.2860 H     1 <1>   0.0800 
 43 H       -7.6600    -7.5400    -0.3260 H     1 <1>   0.0800 
 44 H      -10.9260    -0.9870     1.6440 H     1 <1>   0.1500 
 45 H       -9.3740    -0.9350    -2.3210 H     1 <1>   0.1500 
 46 H      -10.8740     0.0000    -0.6080 H     1 <1>   0.1500 
@<TRIPOS>BOND
  1   1   2  2   
  2   2   3  1   
  3   2   4  1   
  4   3   5  ar  
  5   3   6  ar  
  6   4  24  1   
  7   4  25  1   
  8   4  26  1   
  9   5   7  ar  
 10   5   8  1   
 11   6   9  ar  
 12   6  27  1   
 13   7  10  ar  
 14   8  28  1   
 15   8  29  1   
 16   8  30  1   
 17   9  10  ar  
 18  10  11  1   
 19  11  12  1   
 20  11  31  1   
 21  12  13  1   
 22  12  14  1   
 23  12  32  1   
 24  13  15  1   
 25  13  16  1   
 26  13  33  1   
 27  14  17  1   
 28  14  34  1   
 29  14  35  1   
 30  15  18  ar  
 31  15  19  ar  
 32  16  20  1   
 33  16  36  1   
 34  16  37  1   
 35  17  20  1   
 36  17  38  1   
 37  17  39  1   
 38  18  21  ar  
 39  18  40  1   
 40  19  22  ar  
 41  19  41  1   
 42  20  42  1   
 43  20  43  1   
 44  21  23  ar  
 45  21  44  1   
 46  22  23  ar  
 47  22  45  1   
 48  23  46  1   
@<TRIPOS>SUBSTRUCTURE
  1 ****  11 GROUP 4 **** **** 0

# MOE 2024.06 (io_trps.svl 2023.06)
