@<TRIPOS>MOLECULE
NONAME
44 46 1 0 0 
SMALL
USER_CHARGES


@<TRIPOS>ATOM
  1 O        0.2060    -0.2020    -1.1300 O.2   1 <1>  -0.5700 
  2 C        1.2680    -0.6270    -0.7320 C.2   1 <1>   0.5690 
  3 N        2.3300     0.1730    -0.4360 N.am  1 <1>  -0.4930 
  4 C        1.3790    -2.1500    -0.5480 C.3   1 <1>   0.4040 
  5 C        2.4350     1.5810    -0.5830 C.2   1 <1>   0.0630 
  6 N        0.0350    -2.8250    -0.3810 N.4   1 <1>  -0.9590 
  7 C        3.4850     2.3140    -0.1450 C.2   1 <1>  -0.0680 
  8 C        1.5850     2.4980    -1.2090 C.2   1 <1>   0.1390 
  9 C       -0.5840    -2.4750     0.9310 C.3   1 <1>   0.3430 
 10 C        0.1100    -4.2800    -0.6780 C.3   1 <1>   0.3430 
 11 N        3.2420     3.5890    -0.5470 N.pl3 1 <1>   0.3140 
 12 N        4.6380     1.9140     0.5760 N.pl3 1 <1>  -0.8530 
 13 N        2.0590     3.7090    -1.1930 N.2   1 <1>  -0.7070 
 14 C       -2.1060    -2.4610     0.7940 C.3   1 <1>  -0.1600 
 15 C       -1.2750    -4.9200    -0.7950 C.3   1 <1>  -0.1600 
 16 C        4.1820     4.6970    -0.3240 C.3   1 <1>   0.0960 
 17 C        5.5860     3.0010     0.9620 C.3   1 <1>   0.2090 
 18 C       -2.7950    -3.8230     0.9790 C.3   1 <1>  -0.1600 
 19 C       -1.9930    -5.0620     0.5550 C.3   1 <1>  -0.1600 
 20 C        5.5930     4.1350    -0.0760 C.3   1 <1>  -0.1600 
 21 H        3.2240    -0.2250    -0.1410 H     1 <1>   0.3700 
 22 H        2.0000    -2.3590     0.3050 H     1 <1>   0.0800 
 23 H        1.8670    -2.5420    -1.4240 H     1 <1>   0.0800 
 24 H       -0.5710    -2.3760    -1.0890 H     1 <1>   0.4500 
 25 H        0.6440     2.2400    -1.6640 H     1 <1>   0.1500 
 26 H       -0.2740    -1.4820     1.2170 H     1 <1>   0.0800 
 27 H       -0.2770    -3.1620     1.7030 H     1 <1>   0.0800 
 28 H        0.6730    -4.7850     0.0910 H     1 <1>   0.0800 
 29 H        0.6260    -4.4230    -1.6140 H     1 <1>   0.0800 
 30 H        4.4070     1.3530     1.4040 H     1 <1>   0.4000 
 31 H       -2.3780    -2.0350    -0.1560 H     1 <1>   0.0800 
 32 H       -2.4990    -1.7970     1.5450 H     1 <1>   0.0800 
 33 H       -1.1270    -5.9130    -1.1850 H     1 <1>   0.0800 
 34 H       -1.8860    -4.3940    -1.5080 H     1 <1>   0.0800 
 35 H        3.8410     5.2530     0.5290 H     1 <1>   0.0800 
 36 H        4.1720     5.3370    -1.1870 H     1 <1>   0.0800 
 37 H        6.5770     2.5870     1.0480 H     1 <1>   0.0800 
 38 H        5.3000     3.3930     1.9240 H     1 <1>   0.0800 
 39 H       -3.7240    -3.8060     0.4330 H     1 <1>   0.0800 
 40 H       -3.0560    -3.9430     2.0180 H     1 <1>   0.0800 
 41 H       -1.2830    -5.3200     1.3220 H     1 <1>   0.0800 
 42 H       -2.6840    -5.8860     0.4900 H     1 <1>   0.0800 
 43 H        6.2400     4.9260     0.2570 H     1 <1>   0.0800 
 44 H        5.9920     3.7570    -1.0010 H     1 <1>   0.0800 
@<TRIPOS>BOND
  1   1   2  2   
  2   2   3  am  
  3   2   4  1   
  4   3   5  1   
  5   3  21  1   
  6   4   6  1   
  7   4  22  1   
  8   4  23  1   
  9   5   7  2   
 10   5   8  1   
 11   6   9  1   
 12   6  10  1   
 13   6  24  1   
 14   7  11  1   
 15   7  12  1   
 16   8  13  2   
 17   8  25  1   
 18   9  14  1   
 19   9  26  1   
 20   9  27  1   
 21  10  15  1   
 22  10  28  1   
 23  10  29  1   
 24  11  13  1   
 25  11  16  1   
 26  12  17  1   
 27  12  30  1   
 28  14  18  1   
 29  14  31  1   
 30  14  32  1   
 31  15  19  1   
 32  15  33  1   
 33  15  34  1   
 34  16  20  1   
 35  16  35  1   
 36  16  36  1   
 37  17  20  1   
 38  17  37  1   
 39  17  38  1   
 40  18  19  1   
 41  18  39  1   
 42  18  40  1   
 43  19  41  1   
 44  19  42  1   
 45  20  43  1   
 46  20  44  1   
@<TRIPOS>SUBSTRUCTURE
  1 ****   2 GROUP 4 **** **** 0

# MOE 2024.06 (io_trps.svl 2023.06)
