@<TRIPOS>MOLECULE
NONAME
46 48 1 0 0 
SMALL
USER_CHARGES


@<TRIPOS>ATOM
  1 S        1.6240    -0.4290    -0.2790 S.o2  1 <1>   1.4470 
  2 O        1.7130    -0.4810    -1.7160 O.2   1 <1>  -0.6500 
  3 O        2.8050    -0.5150     0.5430 O.2   1 <1>  -0.6500 
  4 N        1.1030     1.1170    -0.0100 N.am  1 <1>  -0.9780 
  5 C        0.2770    -1.4650     0.3610 C.ar  1 <1>  -0.0090 
  6 C       -0.7390    -1.9190    -0.4730 C.ar  1 <1>  -0.1500 
  7 C        0.2210    -1.8050     1.7110 C.ar  1 <1>  -0.1500 
  8 C       -1.8010    -2.6960    -0.0110 C.ar  1 <1>   0.0860 
  9 C       -0.8110    -2.5820     2.2080 C.ar  1 <1>  -0.1500 
 10 C       -1.7970    -3.0140     1.3430 C.ar  1 <1>   0.1900 
 11 C       -2.8350    -3.1510    -0.9130 C.2   1 <1>   0.5440 
 12 F       -2.7530    -3.7500     1.8370 F     1 <1>  -0.1900 
 13 O       -2.5320    -3.9490    -1.7790 O.2   1 <1>  -0.5700 
 14 N       -4.1320    -2.6830    -0.8470 N.am  1 <1>  -0.6600 
 15 C       -4.5880    -1.5790     0.0430 C.3   1 <1>   0.1400 
 16 C       -5.2120    -3.2290    -1.7150 C.3   1 <1>   0.1400 
 17 C       -5.7200    -2.0860     0.9390 C.3   1 <1>  -0.1600 
 18 C       -6.3470    -3.7540    -0.8330 C.3   1 <1>  -0.1600 
 19 C       -6.8740    -2.6710     0.1180 C.3   1 <1>   0.4180 
 20 O       -7.3990    -1.6010    -0.6320 O.3   1 <1>  -0.5600 
 21 C       -7.9370    -3.2350     1.0560 C.2   1 <1>  -0.2880 
 22 C       -8.6980    -1.7450    -1.1340 C.3   1 <1>   0.1200 
 23 C       -9.2230    -2.8750     1.0360 C.2   1 <1>  -0.2760 
 24 C       -9.7110    -1.8660     0.0120 C.3   1 <1>  -0.0220 
 25 C      -10.2800    -3.4010     1.9910 C.3   1 <1>  -0.1020 
 26 H        1.0800     1.5180    -0.9450 H     1 <1>   0.4200 
 27 H        1.8960     1.5490     0.4600 H     1 <1>   0.4200 
 28 H       -0.7130    -1.6700    -1.5220 H     1 <1>   0.1500 
 29 H        0.9970    -1.4610     2.3760 H     1 <1>   0.1500 
 30 H       -0.8510    -2.8510     3.2490 H     1 <1>   0.1500 
 31 H       -4.9470    -0.7660    -0.5660 H     1 <1>   0.0800 
 32 H       -3.7830    -1.2070     0.6500 H     1 <1>   0.0800 
 33 H       -4.8410    -4.0260    -2.3360 H     1 <1>   0.0800 
 34 H       -5.5770    -2.4460    -2.3590 H     1 <1>   0.0800 
 35 H       -6.0940    -1.2830     1.5470 H     1 <1>   0.0800 
 36 H       -5.3300    -2.8400     1.5980 H     1 <1>   0.0800 
 37 H       -5.9700    -4.5780    -0.2550 H     1 <1>   0.0800 
 38 H       -7.1430    -4.1340    -1.4430 H     1 <1>   0.0800 
 39 H       -7.5390    -3.9540     1.7490 H     1 <1>   0.1500 
 40 H       -8.7310    -2.6180    -1.7610 H     1 <1>   0.0800 
 41 H       -8.9160    -0.8790    -1.7350 H     1 <1>   0.0800 
 42 H      -10.6550    -2.1770    -0.3970 H     1 <1>   0.0800 
 43 H       -9.8460    -0.9080     0.4810 H     1 <1>   0.0800 
 44 H      -10.7140    -2.5880     2.5450 H     1 <1>   0.0800 
 45 H       -9.8450    -4.0950     2.6880 H     1 <1>   0.0800 
 46 H      -11.0560    -3.9060     1.4450 H     1 <1>   0.0800 
@<TRIPOS>BOND
  1   1   2  2   
  2   1   3  2   
  3   1   4  am  
  4   1   5  1   
  5   4  26  1   
  6   4  27  1   
  7   5   6  ar  
  8   5   7  ar  
  9   6   8  ar  
 10   6  28  1   
 11   7   9  ar  
 12   7  29  1   
 13   8  10  ar  
 14   8  11  1   
 15   9  10  ar  
 16   9  30  1   
 17  10  12  1   
 18  11  13  2   
 19  11  14  am  
 20  14  15  1   
 21  14  16  1   
 22  15  17  1   
 23  15  31  1   
 24  15  32  1   
 25  16  18  1   
 26  16  33  1   
 27  16  34  1   
 28  17  19  1   
 29  17  35  1   
 30  17  36  1   
 31  18  19  1   
 32  18  37  1   
 33  18  38  1   
 34  19  20  1   
 35  19  21  1   
 36  20  22  1   
 37  21  23  2   
 38  21  39  1   
 39  22  24  1   
 40  22  40  1   
 41  22  41  1   
 42  23  24  1   
 43  23  25  1   
 44  24  42  1   
 45  24  43  1   
 46  25  44  1   
 47  25  45  1   
 48  25  46  1   
@<TRIPOS>SUBSTRUCTURE
  1 ****  15 GROUP 4 **** **** 0

# MOE 2024.06 (io_trps.svl 2023.06)
