@<TRIPOS>MOLECULE
NONAME
59 62 1 0 0 
SMALL
USER_CHARGES


@<TRIPOS>ATOM
  1 O       -1.8930    -0.1230     2.3450 O.2   1 <1>  -0.5700 
  2 C       -1.7810     0.6680     1.4240 C.2   1 <1>   0.5440 
  3 N       -2.2400     0.2600     0.1890 N.am  1 <1>  -0.6600 
  4 C       -1.2210     1.9910     1.6480 C.ar  1 <1>   0.0860 
  5 C       -2.4260    -1.1910    -0.0670 C.3   1 <1>   0.1400 
  6 C       -3.1470     1.1270    -0.6100 C.3   1 <1>   0.1400 
  7 C       -0.5160     2.6660     0.6530 C.ar  1 <1>  -0.1500 
  8 C       -1.3640     2.6340     2.8780 C.ar  1 <1>  -0.1500 
  9 C       -3.8650    -1.5790     0.3370 C.3   1 <1>   0.4230 
 10 C       -4.5960     0.7640    -0.2520 C.3   1 <1>  -0.1600 
 11 C        0.0200     3.9320     0.8460 C.ar  1 <1>   0.0000 
 12 C       -0.8390     3.8940     3.0950 C.ar  1 <1>  -0.1500 
 13 N       -4.1250    -3.0790     0.3410 N.4   1 <1>  -0.9590 
 14 C       -4.9330    -0.7460    -0.4360 C.3   1 <1>   0.0000 
 15 C        0.7390     4.6000    -0.2150 C.ar  1 <1>   0.0000 
 16 C       -0.1540     4.5390     2.0840 C.ar  1 <1>  -0.1500 
 17 C       -5.5780    -3.4480     0.3220 C.3   1 <1>   0.3430 
 18 C       -3.3790    -3.8700    -0.6920 C.3   1 <1>   0.2630 
 19 C       -6.3390    -1.0230     0.1760 C.3   1 <1>  -0.1600 
 20 C       -4.9130    -1.1210    -1.9460 C.3   1 <1>   0.1200 
 21 C        2.0630     4.2830    -0.5310 C.ar  1 <1>  -0.1440 
 22 C        0.1000     5.5910    -0.9530 C.ar  1 <1>  -0.1500 
 23 C       -6.4300    -2.3500     0.9540 C.3   1 <1>  -0.1600 
 24 O       -5.7150    -0.2770    -2.6960 O.3   1 <1>  -0.6800 
 25 C        2.7070     4.9440    -1.5650 C.ar  1 <1>  -0.1500 
 26 C        2.8150     3.2170     0.2540 C.3   1 <1>  -0.0970 
 27 C        0.7460     6.2480    -1.9830 C.ar  1 <1>  -0.1500 
 28 C        2.0530     5.9230    -2.2910 C.ar  1 <1>  -0.1500 
 29 H       -2.2330    -1.3880    -1.1050 H     1 <1>   0.0800 
 30 H       -1.7180    -1.7470     0.5230 H     1 <1>   0.0800 
 31 H       -2.9720     2.1660    -0.3870 H     1 <1>   0.0800 
 32 H       -2.9630     0.9790    -1.6610 H     1 <1>   0.0800 
 33 H       -0.3710     2.1940    -0.3030 H     1 <1>   0.1500 
 34 H       -1.8920     2.1340     3.6720 H     1 <1>   0.1500 
 35 H       -3.9520    -1.2610     1.3640 H     1 <1>   0.0800 
 36 H       -4.7460     1.0470     0.7760 H     1 <1>   0.0800 
 37 H       -5.2600     1.3770    -0.8360 H     1 <1>   0.0800 
 38 H       -0.9630     4.3720     4.0520 H     1 <1>   0.1500 
 39 H       -3.7690    -3.3850     1.2610 H     1 <1>   0.4500 
 40 H        0.2570     5.5200     2.2490 H     1 <1>   0.1500 
 41 H       -5.9040    -3.5900    -0.6960 H     1 <1>   0.0800 
 42 H       -5.7270    -4.3760     0.8510 H     1 <1>   0.0800 
 43 H       -3.6700    -3.5660    -1.6840 H     1 <1>   0.0800 
 44 H       -3.5890    -4.9220    -0.5800 H     1 <1>   0.0800 
 45 H       -2.3160    -3.7260    -0.5840 H     1 <1>   0.0800 
 46 H       -6.6180    -0.2350     0.8560 H     1 <1>   0.0800 
 47 H       -7.0860    -1.0220    -0.5990 H     1 <1>   0.0800 
 48 H       -5.2650    -2.1240    -2.1080 H     1 <1>   0.0800 
 49 H       -3.9240    -1.0380    -2.3580 H     1 <1>   0.0800 
 50 H       -0.9180     5.8460    -0.7150 H     1 <1>   0.1500 
 51 H       -7.4580    -2.6710     0.9830 H     1 <1>   0.0800 
 52 H       -6.1180    -2.2040     1.9740 H     1 <1>   0.0800 
 53 H       -6.6570    -0.3340    -2.4400 H     1 <1>   0.4000 
 54 H        3.7250     4.7010    -1.8130 H     1 <1>   0.1500 
 55 H        3.8500     3.1820    -0.0340 H     1 <1>   0.0800 
 56 H        2.3780     2.2520     0.0750 H     1 <1>   0.0800 
 57 H        2.7650     3.4310     1.3070 H     1 <1>   0.0800 
 58 H        0.2340     7.0110    -2.5430 H     1 <1>   0.1500 
 59 H        2.5620     6.4310    -3.0920 H     1 <1>   0.1500 
@<TRIPOS>BOND
  1   1   2  2   
  2   2   3  am  
  3   2   4  1   
  4   3   5  1   
  5   3   6  1   
  6   4   7  ar  
  7   4   8  ar  
  8   5   9  1   
  9   5  29  1   
 10   5  30  1   
 11   6  10  1   
 12   6  31  1   
 13   6  32  1   
 14   7  11  ar  
 15   7  33  1   
 16   8  12  ar  
 17   8  34  1   
 18   9  13  1   
 19   9  14  1   
 20   9  35  1   
 21  10  14  1   
 22  10  36  1   
 23  10  37  1   
 24  11  15  1   
 25  11  16  ar  
 26  12  16  ar  
 27  12  38  1   
 28  13  17  1   
 29  13  18  1   
 30  13  39  1   
 31  14  19  1   
 32  14  20  1   
 33  15  21  ar  
 34  15  22  ar  
 35  16  40  1   
 36  17  23  1   
 37  17  41  1   
 38  17  42  1   
 39  18  43  1   
 40  18  44  1   
 41  18  45  1   
 42  19  23  1   
 43  19  46  1   
 44  19  47  1   
 45  20  24  1   
 46  20  48  1   
 47  20  49  1   
 48  21  25  ar  
 49  21  26  1   
 50  22  27  ar  
 51  22  50  1   
 52  23  51  1   
 53  23  52  1   
 54  24  53  1   
 55  25  28  ar  
 56  25  54  1   
 57  26  55  1   
 58  26  56  1   
 59  26  57  1   
 60  27  28  ar  
 61  27  58  1   
 62  28  59  1   
@<TRIPOS>SUBSTRUCTURE
  1 ****   3 GROUP 4 **** **** 0

# MOE 2024.06 (io_trps.svl 2023.06)
