@<TRIPOS>MOLECULE
NONAME
44 45 1 0 0 
SMALL
USER_CHARGES


@<TRIPOS>ATOM
  1 CL       1.3450     0.8200     1.0190 Cl    1 <1>  -0.1770 
  2 C        2.0700    -0.7130     0.6130 C.ar  1 <1>   0.1770 
  3 C        1.6540    -1.8530     1.2660 C.ar  1 <1>  -0.1500 
  4 C        3.0490    -0.7610    -0.3600 C.ar  1 <1>  -0.1500 
  5 C        2.2120    -3.0900     0.9530 C.ar  1 <1>   0.0860 
  6 C        3.6220    -1.9800    -0.6750 C.ar  1 <1>  -0.1500 
  7 C        3.2150    -3.1370    -0.0260 C.ar  1 <1>  -0.1440 
  8 C        1.7370    -4.2790     1.6330 C.2   1 <1>   0.5440 
  9 C        3.8820    -4.4610    -0.3780 C.3   1 <1>  -0.0960 
 10 O        2.1310    -4.5420     2.7510 O.2   1 <1>  -0.5700 
 11 N        0.8270    -5.1180     1.0350 N.am  1 <1>  -0.6600 
 12 C        0.0380    -4.7910    -0.1790 C.3   1 <1>   0.1400 
 13 C        0.2940    -6.3330     1.6980 C.3   1 <1>   0.1400 
 14 C       -1.2290    -5.6350    -0.0400 C.3   1 <1>   0.2000 
 15 C       -0.7800    -6.8740     0.7400 C.3   1 <1>  -0.0800 
 16 O       -2.1330    -4.9380     0.7440 O.3   1 <1>  -0.6800 
 17 C       -0.2030    -7.9340    -0.2220 C.3   1 <1>  -0.0550 
 18 S        0.0360    -9.5440     0.5320 S.o2  1 <1>   1.3330 
 19 O        1.1050    -9.4760     1.5030 O.2   1 <1>  -0.6500 
 20 O       -1.2630   -10.0370     0.9270 O.2   1 <1>  -0.6500 
 21 N        0.5840   -10.4780    -0.7760 N.am  1 <1>  -0.8490 
 22 C        2.0330   -10.3890    -0.9880 C.3   1 <1>   0.1160 
 23 C        0.1850   -11.8840    -0.6610 C.3   1 <1>   0.1160 
 24 H        0.8950    -1.7860     2.0240 H     1 <1>   0.1500 
 25 H        3.3560     0.1420    -0.8560 H     1 <1>   0.1500 
 26 H        4.3920    -2.0180    -1.4270 H     1 <1>   0.1500 
 27 H        4.6980    -4.3150    -1.0630 H     1 <1>   0.0800 
 28 H        3.1710    -5.1270    -0.8320 H     1 <1>   0.0800 
 29 H        4.2700    -4.9250     0.5120 H     1 <1>   0.0800 
 30 H       -0.1910    -3.7410    -0.2450 H     1 <1>   0.0800 
 31 H        0.5920    -5.0950    -1.0490 H     1 <1>   0.0800 
 32 H        1.0880    -7.0340     1.8880 H     1 <1>   0.0800 
 33 H       -0.1490    -6.0530     2.6390 H     1 <1>   0.0800 
 34 H       -1.7010    -5.8530    -0.9830 H     1 <1>   0.0800 
 35 H       -1.6060    -7.3070     1.2790 H     1 <1>   0.0800 
 36 H       -1.6910    -4.6610     1.5720 H     1 <1>   0.4000 
 37 H        0.7280    -7.5850    -0.6250 H     1 <1>   0.0800 
 38 H       -0.8860    -8.0590    -1.0400 H     1 <1>   0.0800 
 39 H        2.3100   -10.9220    -1.8810 H     1 <1>   0.0800 
 40 H        2.5630   -10.8120    -0.1490 H     1 <1>   0.0800 
 41 H        2.3310    -9.3610    -1.1000 H     1 <1>   0.0800 
 42 H        0.5370   -12.4440    -1.5100 H     1 <1>   0.0800 
 43 H       -0.8900   -11.9610    -0.6310 H     1 <1>   0.0800 
 44 H        0.5870   -12.3150     0.2410 H     1 <1>   0.0800 
@<TRIPOS>BOND
  1   1   2  1   
  2   2   3  ar  
  3   2   4  ar  
  4   3   5  ar  
  5   3  24  1   
  6   4   6  ar  
  7   4  25  1   
  8   5   7  ar  
  9   5   8  1   
 10   6   7  ar  
 11   6  26  1   
 12   7   9  1   
 13   8  10  2   
 14   8  11  am  
 15   9  27  1   
 16   9  28  1   
 17   9  29  1   
 18  11  12  1   
 19  11  13  1   
 20  12  14  1   
 21  12  30  1   
 22  12  31  1   
 23  13  15  1   
 24  13  32  1   
 25  13  33  1   
 26  14  15  1   
 27  14  16  1   
 28  14  34  1   
 29  15  17  1   
 30  15  35  1   
 31  16  36  1   
 32  17  18  1   
 33  17  37  1   
 34  17  38  1   
 35  18  19  2   
 36  18  20  2   
 37  18  21  am  
 38  21  22  1   
 39  21  23  1   
 40  22  39  1   
 41  22  40  1   
 42  22  41  1   
 43  23  42  1   
 44  23  43  1   
 45  23  44  1   
@<TRIPOS>SUBSTRUCTURE
  1 ****  11 GROUP 4 **** **** 0

# MOE 2024.06 (io_trps.svl 2023.06)
