@<TRIPOS>MOLECULE
NONAME
51 53 1 0 0 
SMALL
USER_CHARGES


@<TRIPOS>ATOM
  1 O       -0.8790    -1.5770     0.8790 O.3   1 <1>  -0.5600 
  2 C       -2.1080    -1.2560     1.4240 C.3   1 <1>   0.1200 
  3 C        0.1370    -1.7550     1.8140 C.3   1 <1>   0.0400 
  4 C       -3.0720    -1.1020     0.2510 C.3   1 <1>  -0.1600 
  5 C       -4.4750    -0.7520     0.7390 C.3   1 <1>   0.3430 
  6 N       -5.3740    -0.4970    -0.4210 N.4   1 <1>  -0.9590 
  7 C       -6.6280     0.2000     0.0350 C.3   1 <1>   0.3430 
  8 C       -5.7090    -1.7510    -1.1650 C.3   1 <1>   0.3430 
  9 C       -7.5440     0.5820    -1.1420 C.3   1 <1>   0.1430 
 10 C       -6.5690    -1.4210    -2.3890 C.3   1 <1>  -0.1600 
 11 C       -8.8220     1.1530    -0.5790 C.ar  1 <1>   0.1670 
 12 C       -7.8490    -0.6580    -2.0080 C.3   1 <1>  -0.1600 
 13 C       -6.9940     1.7630    -1.9880 C.3   1 <1>  -0.1600 
 14 N       -9.5050     0.6100     0.3940 N.ar  1 <1>  -0.6200 
 15 C       -9.1730     2.3150    -1.1920 C.ar  1 <1>  -0.1430 
 16 C       -8.1870     2.6990    -2.2670 C.3   1 <1>  -0.0170 
 17 C      -10.6040     1.2840     0.7520 C.ar  1 <1>   0.7200 
 18 C      -10.3150     2.9380    -0.7570 C.ar  1 <1>   0.1600 
 19 N      -11.0340     2.4310     0.2160 N.ar  1 <1>  -0.6200 
 20 N      -11.3560     0.7480     1.7750 N.pl3 1 <1>  -0.8380 
 21 C      -12.3810     1.5550     2.4940 C.3   1 <1>   0.1290 
 22 C      -11.3700    -0.7100     2.0760 C.3   1 <1>   0.1290 
 23 H       -2.0100    -0.3360     1.9770 H     1 <1>   0.0800 
 24 H       -2.4110    -2.0560     2.0810 H     1 <1>   0.0800 
 25 H        1.0410    -1.9990     1.2840 H     1 <1>   0.0800 
 26 H       -0.1230    -2.5640     2.4750 H     1 <1>   0.0800 
 27 H        0.2790    -0.8420     2.3670 H     1 <1>   0.0800 
 28 H       -3.0840    -2.0300    -0.2900 H     1 <1>   0.0800 
 29 H       -2.7020    -0.3190    -0.3860 H     1 <1>   0.0800 
 30 H       -4.4180     0.1340     1.3510 H     1 <1>   0.0800 
 31 H       -4.8680    -1.5540     1.3440 H     1 <1>   0.0800 
 32 H       -4.8840     0.1300    -1.0720 H     1 <1>   0.4500 
 33 H       -6.3820     1.0920     0.5870 H     1 <1>   0.0800 
 34 H       -7.1820    -0.4500     0.6940 H     1 <1>   0.0800 
 35 H       -6.2500    -2.4240    -0.5190 H     1 <1>   0.0800 
 36 H       -4.8070    -2.2450    -1.4890 H     1 <1>   0.0800 
 37 H       -6.8420    -2.3410    -2.8770 H     1 <1>   0.0800 
 38 H       -5.9860    -0.8530    -3.0930 H     1 <1>   0.0800 
 39 H       -8.3880    -0.3690    -2.8940 H     1 <1>   0.0800 
 40 H       -8.4920    -1.3200    -1.4490 H     1 <1>   0.0800 
 41 H       -6.5300     1.4470    -2.9050 H     1 <1>   0.0800 
 42 H       -6.2710     2.3150    -1.4120 H     1 <1>   0.0800 
 43 H       -8.6150     2.4990    -3.2350 H     1 <1>   0.0800 
 44 H       -7.9070     3.7370    -2.2000 H     1 <1>   0.0800 
 45 H      -10.6430     3.8600    -1.2070 H     1 <1>   0.1500 
 46 H      -12.0840     2.5890     2.5360 H     1 <1>   0.0800 
 47 H      -12.4980     1.1940     3.5000 H     1 <1>   0.0800 
 48 H      -13.3230     1.4830     1.9770 H     1 <1>   0.0800 
 49 H      -10.9320    -1.2720     1.2700 H     1 <1>   0.0800 
 50 H      -12.3830    -1.0460     2.2090 H     1 <1>   0.0800 
 51 H      -10.8140    -0.8960     2.9780 H     1 <1>   0.0800 
@<TRIPOS>BOND
  1   1   2  1   
  2   1   3  1   
  3   2   4  1   
  4   2  23  1   
  5   2  24  1   
  6   3  25  1   
  7   3  26  1   
  8   3  27  1   
  9   4   5  1   
 10   4  28  1   
 11   4  29  1   
 12   5   6  1   
 13   5  30  1   
 14   5  31  1   
 15   6   7  1   
 16   6   8  1   
 17   6  32  1   
 18   7   9  1   
 19   7  33  1   
 20   7  34  1   
 21   8  10  1   
 22   8  35  1   
 23   8  36  1   
 24   9  11  1   
 25   9  12  1   
 26   9  13  1   
 27  10  12  1   
 28  10  37  1   
 29  10  38  1   
 30  11  14  ar  
 31  11  15  ar  
 32  12  39  1   
 33  12  40  1   
 34  13  16  1   
 35  13  41  1   
 36  13  42  1   
 37  14  17  ar  
 38  15  16  1   
 39  15  18  ar  
 40  16  43  1   
 41  16  44  1   
 42  17  19  ar  
 43  17  20  1   
 44  18  19  ar  
 45  18  45  1   
 46  20  21  1   
 47  20  22  1   
 48  21  46  1   
 49  21  47  1   
 50  21  48  1   
 51  22  49  1   
 52  22  50  1   
 53  22  51  1   
@<TRIPOS>SUBSTRUCTURE
  1 ****   7 GROUP 4 **** **** 0

# MOE 2024.06 (io_trps.svl 2023.06)
