@<TRIPOS>MOLECULE
NONAME
36 37 1 0 0 
SMALL
USER_CHARGES


@<TRIPOS>ATOM
  1 CL       0.2750     0.5610    -0.1600 Cl    1 <1>  -0.1770 
  2 C       -1.3140     1.2930     0.0180 C.ar  1 <1>   0.1770 
  3 C       -1.4640     2.6760    -0.2510 C.ar  1 <1>   0.4100 
  4 C       -2.3940     0.5620     0.4060 C.ar  1 <1>   0.2170 
  5 N       -2.6330     3.2830    -0.1360 N.ar  1 <1>  -0.6200 
  6 N       -0.4140     3.4250    -0.6400 N.pl3 1 <1>  -0.8690 
  7 N       -3.5740     1.2310     0.5090 N.ar  1 <1>  -0.1790 
  8 C       -2.3870    -0.9270     0.7290 C.3   1 <1>  -0.0970 
  9 C       -3.6610     2.5490     0.2410 C.ar  1 <1>   0.7710 
 10 C       -0.3790     4.8790    -0.9070 C.3   1 <1>   0.3890 
 11 N       -4.8280     3.1770     0.3490 N.pl3 1 <1>  -0.9000 
 12 C        1.0690     5.3540    -0.9630 C.2   1 <1>   0.0060 
 13 N        2.0970     4.5770    -1.0620 N.2   1 <1>  -0.3380 
 14 N        1.4360     6.6410    -0.9170 N.pl3 1 <1>   0.0480 
 15 N        3.1790     5.3540    -1.0820 N.2   1 <1>  -0.3380 
 16 C        2.7660     6.5690    -0.9950 C.2   1 <1>   0.0360 
 17 C        0.6150     7.8650    -0.8080 C.3   1 <1>   0.0960 
 18 C        0.3390     8.2000     0.6640 C.3   1 <1>  -0.1600 
 19 C       -0.5310     9.4550     0.7930 C.3   1 <1>  -0.2400 
 20 H        0.5360     3.0250    -0.7270 H     1 <1>   0.4000 
 21 H       -4.4290     0.7620     0.7920 H     1 <1>   0.4570 
 22 H       -1.4050    -1.3510     0.6150 H     1 <1>   0.0800 
 23 H       -3.0520    -1.4580     0.0700 H     1 <1>   0.0800 
 24 H       -2.6980    -1.0920     1.7460 H     1 <1>   0.0800 
 25 H       -0.9070     5.3980    -0.1260 H     1 <1>   0.0800 
 26 H       -0.8600     5.0790    -1.8480 H     1 <1>   0.0800 
 27 H       -5.7400     2.8050     0.6220 H     1 <1>   0.4000 
 28 H       -4.8480     4.1790     0.1320 H     1 <1>   0.4000 
 29 H        3.4060     7.4330    -0.9840 H     1 <1>   0.1500 
 30 H       -0.3100     7.7160    -1.3370 H     1 <1>   0.0800 
 31 H        1.1430     8.6770    -1.2750 H     1 <1>   0.0800 
 32 H        1.2720     8.3660     1.1750 H     1 <1>   0.0800 
 33 H       -0.1640     7.3750     1.1400 H     1 <1>   0.0800 
 34 H       -0.0410    10.3040     0.3480 H     1 <1>   0.0800 
 35 H       -0.7070     9.6730     1.8320 H     1 <1>   0.0800 
 36 H       -1.4820     9.3110     0.3110 H     1 <1>   0.0800 
@<TRIPOS>BOND
  1   1   2  1   
  2   2   3  ar  
  3   2   4  ar  
  4   3   5  ar  
  5   3   6  1   
  6   4   7  ar  
  7   4   8  1   
  8   5   9  ar  
  9   6  10  1   
 10   6  20  1   
 11   7   9  ar  
 12   7  21  1   
 13   8  22  1   
 14   8  23  1   
 15   8  24  1   
 16   9  11  1   
 17  10  12  1   
 18  10  25  1   
 19  10  26  1   
 20  11  27  1   
 21  11  28  1   
 22  12  13  2   
 23  12  14  1   
 24  13  15  1   
 25  14  16  1   
 26  14  17  1   
 27  15  16  2   
 28  16  29  1   
 29  17  18  1   
 30  17  30  1   
 31  17  31  1   
 32  18  19  1   
 33  18  32  1   
 34  18  33  1   
 35  19  34  1   
 36  19  35  1   
 37  19  36  1   
@<TRIPOS>SUBSTRUCTURE
  1 ****   6 GROUP 4 **** **** 0

# MOE 2024.06 (io_trps.svl 2023.06)
