@<TRIPOS>MOLECULE
NONAME
49 52 1 0 0 
SMALL
USER_CHARGES


@<TRIPOS>ATOM
  1 CL      -0.8330    -0.5600     0.8140 Cl    1 <1>  -0.1770 
  2 C       -0.0690    -1.9500     0.0750 C.ar  1 <1>   0.1770 
  3 C        0.3610    -1.8780    -1.2570 C.ar  1 <1>  -0.1440 
  4 C        0.0830    -3.0860     0.8390 C.ar  1 <1>  -0.1500 
  5 C        0.9600    -2.9880    -1.8250 C.ar  1 <1>  -0.1500 
  6 C        0.1760    -0.6040    -2.0680 C.3   1 <1>  -0.0960 
  7 C        0.6770    -4.2070     0.2590 C.ar  1 <1>   0.0000 
  8 C        1.1080    -4.1360    -1.0560 C.ar  1 <1>   0.1400 
  9 C        0.9740    -5.5280     0.6630 C.2   1 <1>  -0.1810 
 10 O        1.6420    -5.2980    -1.4330 O.3   1 <1>  -0.2800 
 11 C        1.5550    -6.1240    -0.3960 C.2   1 <1>  -0.0100 
 12 C        0.6560    -6.1310     2.0250 C.3   1 <1>   0.0820 
 13 C       -0.2360    -7.3670     1.9340 C.2   1 <1>   0.5690 
 14 O        0.2550    -8.4070     2.3100 O.2   1 <1>  -0.5700 
 15 N       -1.5330    -7.3150     1.4650 N.am  1 <1>  -0.6600 
 16 C       -2.1860    -6.0530     0.9990 C.3   1 <1>   0.2200 
 17 C       -2.3360    -8.5770     1.3850 C.3   1 <1>   0.0600 
 18 C       -2.3140    -5.9780    -0.5180 C.3   1 <1>  -0.1600 
 19 C       -3.6120    -5.8360     1.4990 C.3   1 <1>  -0.1600 
 20 C       -3.3160    -4.8410    -0.7460 C.3   1 <1>  -0.0800 
 21 C       -4.1870    -4.7860     0.5360 C.3   1 <1>  -0.0800 
 22 C       -4.0800    -4.9760    -2.0780 C.3   1 <1>   0.1400 
 23 C       -5.6970    -4.9610     0.2820 C.3   1 <1>  -0.0990 
 24 N       -5.3340    -4.1960    -2.0160 N.am  1 <1>  -0.7300 
 25 C       -6.1290    -4.1600    -0.9270 C.2   1 <1>   0.5690 
 26 O       -7.1500    -3.5240    -0.9130 O.2   1 <1>  -0.5700 
 27 H       -0.2510    -3.1070     1.8590 H     1 <1>   0.1500 
 28 H        1.3130    -2.9920    -2.8400 H     1 <1>   0.1500 
 29 H        0.5590    -0.7230    -3.0660 H     1 <1>   0.0800 
 30 H        0.6970     0.2100    -1.5980 H     1 <1>   0.0800 
 31 H       -0.8690    -0.3560    -2.1320 H     1 <1>   0.0800 
 32 H        1.9300    -7.1280    -0.5120 H     1 <1>   0.1500 
 33 H        0.1840    -5.4080     2.6610 H     1 <1>   0.0800 
 34 H        1.5810    -6.4100     2.4960 H     1 <1>   0.0800 
 35 H       -1.6190    -5.2030     1.3260 H     1 <1>   0.0800 
 36 H       -2.9390    -8.5900     0.4960 H     1 <1>   0.0800 
 37 H       -2.9740    -8.6530     2.2480 H     1 <1>   0.0800 
 38 H       -1.6920    -9.4390     1.3610 H     1 <1>   0.0800 
 39 H       -1.3710    -5.7740    -0.9930 H     1 <1>   0.0800 
 40 H       -2.7110    -6.9000    -0.9000 H     1 <1>   0.0800 
 41 H       -4.1860    -6.7410     1.4240 H     1 <1>   0.0800 
 42 H       -3.6240    -5.4880     2.5170 H     1 <1>   0.0800 
 43 H       -2.7570    -3.9200    -0.7920 H     1 <1>   0.0800 
 44 H       -4.0440    -3.8110     0.9720 H     1 <1>   0.0800 
 45 H       -4.3330    -6.0070    -2.2610 H     1 <1>   0.0800 
 46 H       -3.4680    -4.6250    -2.8910 H     1 <1>   0.0800 
 47 H       -6.2580    -4.6450     1.1420 H     1 <1>   0.0800 
 48 H       -5.9310    -5.9910     0.0850 H     1 <1>   0.0800 
 49 H       -5.6410    -3.6820    -2.8450 H     1 <1>   0.3700 
@<TRIPOS>BOND
  1   1   2  1   
  2   2   3  ar  
  3   2   4  ar  
  4   3   5  ar  
  5   3   6  1   
  6   4   7  ar  
  7   4  27  1   
  8   5   8  ar  
  9   5  28  1   
 10   6  29  1   
 11   6  30  1   
 12   6  31  1   
 13   7   8  ar  
 14   7   9  1   
 15   8  10  1   
 16   9  11  2   
 17   9  12  1   
 18  10  11  1   
 19  11  32  1   
 20  12  13  1   
 21  12  33  1   
 22  12  34  1   
 23  13  14  2   
 24  13  15  am  
 25  15  16  1   
 26  15  17  1   
 27  16  18  1   
 28  16  19  1   
 29  16  35  1   
 30  17  36  1   
 31  17  37  1   
 32  17  38  1   
 33  18  20  1   
 34  18  39  1   
 35  18  40  1   
 36  19  21  1   
 37  19  41  1   
 38  19  42  1   
 39  20  21  1   
 40  20  22  1   
 41  20  43  1   
 42  21  23  1   
 43  21  44  1   
 44  22  24  1   
 45  22  45  1   
 46  22  46  1   
 47  23  25  1   
 48  23  47  1   
 49  23  48  1   
 50  24  25  am  
 51  24  49  1   
 52  25  26  2   
@<TRIPOS>SUBSTRUCTURE
  1 ****  18 GROUP 4 **** **** 0

# MOE 2024.06 (io_trps.svl 2023.06)
