@<TRIPOS>MOLECULE
NONAME
51 54 1 0 0 
SMALL
USER_CHARGES


@<TRIPOS>ATOM
  1 O        0.4850     2.2740     0.4920 O.2   1 <1>  -0.5700 
  2 C        1.4060     2.1140    -0.2930 C.2   1 <1>   0.7670 
  3 N        2.1970     1.0080    -0.0890 N.2   1 <1>  -0.6610 
  4 C        1.6670     3.0150    -1.3720 C.2   1 <1>   0.0290 
  5 C        3.1450     0.7720    -0.9130 C.2   1 <1>   0.4390 
  6 C        0.8690     4.1920    -1.5580 C.2   1 <1>   0.6160 
  7 C        2.6870     2.6950    -2.2210 C.2   1 <1>  -0.0500 
  8 N        3.4190     1.5720    -1.9830 N.pl3 1 <1>  -0.5500 
  9 C        4.0250    -0.4380    -0.7260 C.3   1 <1>  -0.1790 
 10 O        0.6030     4.5370    -2.6950 O.2   1 <1>  -0.5700 
 11 N        0.4720     5.0070    -0.5220 N.am  1 <1>  -0.6600 
 12 C       -0.9780     5.1850    -0.1560 C.3   1 <1>   0.2200 
 13 C        1.4510     5.3910     0.5420 C.3   1 <1>   0.1400 
 14 C       -1.3110     6.5970     0.4100 C.3   1 <1>   0.1380 
 15 C       -2.0120     4.7760    -1.2200 C.3   1 <1>  -0.1600 
 16 C        0.7740     5.9610     1.7980 C.3   1 <1>  -0.1600 
 17 C       -1.4250     7.7060    -0.6800 C.2   1 <1>  -0.2760 
 18 C       -2.6600     6.3680     1.1590 C.3   1 <1>   0.1200 
 19 C       -0.2400     7.0600     1.4400 C.3   1 <1>  -0.1600 
 20 C       -3.4110     5.2990    -0.8540 C.3   1 <1>   0.1200 
 21 C       -2.4170     8.6020    -0.8070 C.2   1 <1>  -0.2880 
 22 C       -0.2820     7.7720    -1.6980 C.3   1 <1>  -0.0220 
 23 O       -3.5290     5.4480     0.5310 O.3   1 <1>  -0.5600 
 24 C       -2.4890     9.6550    -1.9070 C.3   1 <1>   0.2580 
 25 C       -0.2810     9.0980    -2.4670 C.3   1 <1>   0.1200 
 26 O       -1.5680     9.3810    -2.9190 O.3   1 <1>  -0.5600 
 27 H        2.9280     3.3060    -3.0780 H     1 <1>   0.1500 
 28 H        4.1870     1.2970    -2.6040 H     1 <1>   0.4000 
 29 H        3.9480    -1.0840    -1.5810 H     1 <1>   0.0800 
 30 H        3.7150    -0.9870     0.1460 H     1 <1>   0.0800 
 31 H        5.0460    -0.1340    -0.5950 H     1 <1>   0.0800 
 32 H       -1.1420     4.4920     0.6530 H     1 <1>   0.0800 
 33 H        2.0460     4.5410     0.8250 H     1 <1>   0.0800 
 34 H        2.1120     6.1360     0.1330 H     1 <1>   0.0800 
 35 H       -2.0410     3.7050    -1.2920 H     1 <1>   0.0800 
 36 H       -1.7630     5.1730    -2.1850 H     1 <1>   0.0800 
 37 H        0.2870     5.1630     2.3320 H     1 <1>   0.0800 
 38 H        1.5280     6.3650     2.4500 H     1 <1>   0.0800 
 39 H       -3.1940     7.2800     1.3290 H     1 <1>   0.0800 
 40 H       -2.4540     5.9440     2.1260 H     1 <1>   0.0800 
 41 H        0.3100     7.8940     1.0420 H     1 <1>   0.0800 
 42 H       -0.7110     7.4180     2.3380 H     1 <1>   0.0800 
 43 H       -4.1690     4.6090    -1.1820 H     1 <1>   0.0800 
 44 H       -3.6000     6.2540    -1.3130 H     1 <1>   0.0800 
 45 H       -3.2670     8.6780    -0.1570 H     1 <1>   0.1500 
 46 H       -0.3750     6.9720    -2.4080 H     1 <1>   0.0800 
 47 H        0.6720     7.6690    -1.2170 H     1 <1>   0.0800 
 48 H       -2.2820    10.6350    -1.5130 H     1 <1>   0.0800 
 49 H       -3.4650     9.6560    -2.3590 H     1 <1>   0.0800 
 50 H        0.3660     9.0330    -3.3250 H     1 <1>   0.0800 
 51 H        0.0460     9.9070    -1.8370 H     1 <1>   0.0800 
@<TRIPOS>BOND
  1   1   2  2   
  2   2   3  1   
  3   2   4  1   
  4   3   5  2   
  5   4   6  1   
  6   4   7  2   
  7   5   8  1   
  8   5   9  1   
  9   6  10  2   
 10   6  11  am  
 11   7   8  1   
 12   7  27  1   
 13   8  28  1   
 14   9  29  1   
 15   9  30  1   
 16   9  31  1   
 17  11  12  1   
 18  11  13  1   
 19  12  14  1   
 20  12  15  1   
 21  12  32  1   
 22  13  16  1   
 23  13  33  1   
 24  13  34  1   
 25  14  17  1   
 26  14  18  1   
 27  14  19  1   
 28  15  20  1   
 29  15  35  1   
 30  15  36  1   
 31  16  19  1   
 32  16  37  1   
 33  16  38  1   
 34  17  21  2   
 35  17  22  1   
 36  18  23  1   
 37  18  39  1   
 38  18  40  1   
 39  19  41  1   
 40  19  42  1   
 41  20  23  1   
 42  20  43  1   
 43  20  44  1   
 44  21  24  1   
 45  21  45  1   
 46  22  25  1   
 47  22  46  1   
 48  22  47  1   
 49  24  26  1   
 50  24  48  1   
 51  24  49  1   
 52  25  26  1   
 53  25  50  1   
 54  25  51  1   
@<TRIPOS>SUBSTRUCTURE
  1 ****  11 GROUP 4 **** **** 0

# MOE 2024.06 (io_trps.svl 2023.06)
