@<TRIPOS>MOLECULE
NONAME
55 57 1 0 0 
SMALL
USER_CHARGES


@<TRIPOS>ATOM
  1 F        0.5740    -0.9340    -0.2460 F     1 <1>  -0.1900 
  2 C       -0.1700    -1.9820    -0.0200 C.ar  1 <1>   0.1900 
  3 C        0.2600    -3.2100    -0.4760 C.ar  1 <1>  -0.1500 
  4 C       -1.3560    -1.8170     0.6640 C.ar  1 <1>  -0.1500 
  5 C       -0.5260    -4.3310    -0.2390 C.ar  1 <1>   0.0730 
  6 C       -2.1670    -2.9230     0.9050 C.ar  1 <1>   0.0860 
  7 C       -0.1110    -5.6270    -0.6960 C.1   1 <1>   0.4840 
  8 C       -1.7230    -4.1660     0.4500 C.ar  1 <1>  -0.1500 
  9 C       -3.4250    -2.8020     1.6150 C.2   1 <1>   0.5440 
 10 N        0.2190    -6.6520    -1.0690 N.1   1 <1>  -0.5570 
 11 O       -3.6280    -3.5290     2.5680 O.2   1 <1>  -0.5700 
 12 N       -4.3990    -1.9050     1.2290 N.am  1 <1>  -0.6600 
 13 C       -5.5910    -1.6290     2.0740 C.3   1 <1>   0.1400 
 14 C       -4.4930    -1.2980    -0.1230 C.3   1 <1>   0.1400 
 15 C       -6.8360    -2.1880     1.3830 C.3   1 <1>  -0.1600 
 16 C       -5.7240    -1.8600    -0.8360 C.3   1 <1>  -0.1600 
 17 C       -7.0360    -1.6300    -0.0430 C.3   1 <1>   0.2800 
 18 O       -7.2080    -0.2370     0.1080 O.3   1 <1>  -0.5600 
 19 C       -8.3030    -2.2860    -0.7060 C.3   1 <1>   0.2000 
 20 C       -7.8100     0.4620    -0.9350 C.3   1 <1>   0.1200 
 21 O       -8.0860    -2.5650    -2.0660 O.3   1 <1>  -0.6800 
 22 C       -9.5730    -1.3940    -0.5590 C.3   1 <1>   0.3000 
 23 C       -9.2640     0.0040    -1.1350 C.3   1 <1>  -0.1600 
 24 N       -9.9130    -1.1820     0.8670 N.am  1 <1>  -0.7300 
 25 C      -10.8060    -1.9610    -1.2850 C.3   1 <1>  -0.2400 
 26 C      -10.4520    -1.9410     1.8510 C.2   1 <1>   0.5690 
 27 O      -10.5320    -1.4640     2.9540 O.2   1 <1>  -0.5700 
 28 C      -10.9360    -3.3690     1.6210 C.3   1 <1>  -0.0990 
 29 C      -11.0190    -4.2240     2.8990 C.3   1 <1>  -0.2400 
 30 H        1.1940    -3.2880    -1.0060 H     1 <1>   0.1500 
 31 H       -1.6500    -0.8420     1.0100 H     1 <1>   0.1500 
 32 H       -2.3410    -5.0270     0.6510 H     1 <1>   0.1500 
 33 H       -5.4820    -2.0770     3.0470 H     1 <1>   0.0800 
 34 H       -5.6920    -0.5650     2.2090 H     1 <1>   0.0800 
 35 H       -4.5790    -0.2280    -0.0240 H     1 <1>   0.0800 
 36 H       -3.6170    -1.5130    -0.7070 H     1 <1>   0.0800 
 37 H       -7.6860    -1.9660     1.9960 H     1 <1>   0.0800 
 38 H       -6.7410    -3.2580     1.3430 H     1 <1>   0.0800 
 39 H       -5.5810    -2.9170    -0.9750 H     1 <1>   0.0800 
 40 H       -5.7870    -1.4190    -1.8120 H     1 <1>   0.0800 
 41 H       -8.4820    -3.2420    -0.2500 H     1 <1>   0.0800 
 42 H       -7.7790     1.5090    -0.6870 H     1 <1>   0.0800 
 43 H       -7.2280     0.3100    -1.8280 H     1 <1>   0.0800 
 44 H       -7.9280    -1.7380    -2.5580 H     1 <1>   0.4000 
 45 H       -9.9350     0.7320    -0.7130 H     1 <1>   0.0800 
 46 H       -9.4470     0.0140    -2.1940 H     1 <1>   0.0800 
 47 H       -9.5080    -0.3110     1.2210 H     1 <1>   0.3700 
 48 H      -10.6710    -1.9180    -2.3500 H     1 <1>   0.0800 
 49 H      -11.6850    -1.3930    -1.0360 H     1 <1>   0.0800 
 50 H      -10.9650    -2.9930    -1.0410 H     1 <1>   0.0800 
 51 H      -11.9110    -3.3230     1.1710 H     1 <1>   0.0800 
 52 H      -10.2700    -3.8620     0.9420 H     1 <1>   0.0800 
 53 H      -11.7170    -3.7880     3.5930 H     1 <1>   0.0800 
 54 H      -10.0550    -4.2770     3.3730 H     1 <1>   0.0800 
 55 H      -11.3460    -5.2200     2.6620 H     1 <1>   0.0800 
@<TRIPOS>BOND
  1   1   2  1   
  2   2   3  ar  
  3   2   4  ar  
  4   3   5  ar  
  5   3  30  1   
  6   4   6  ar  
  7   4  31  1   
  8   5   7  1   
  9   5   8  ar  
 10   6   8  ar  
 11   6   9  1   
 12   7  10  3   
 13   8  32  1   
 14   9  11  2   
 15   9  12  am  
 16  12  13  1   
 17  12  14  1   
 18  13  15  1   
 19  13  33  1   
 20  13  34  1   
 21  14  16  1   
 22  14  35  1   
 23  14  36  1   
 24  15  17  1   
 25  15  37  1   
 26  15  38  1   
 27  16  17  1   
 28  16  39  1   
 29  16  40  1   
 30  17  18  1   
 31  17  19  1   
 32  18  20  1   
 33  19  21  1   
 34  19  22  1   
 35  19  41  1   
 36  20  23  1   
 37  20  42  1   
 38  20  43  1   
 39  21  44  1   
 40  22  23  1   
 41  22  24  1   
 42  22  25  1   
 43  23  45  1   
 44  23  46  1   
 45  24  26  am  
 46  24  47  1   
 47  25  48  1   
 48  25  49  1   
 49  25  50  1   
 50  26  27  2   
 51  26  28  1   
 52  28  29  1   
 53  28  51  1   
 54  28  52  1   
 55  29  53  1   
 56  29  54  1   
 57  29  55  1   
@<TRIPOS>SUBSTRUCTURE
  1 ****  16 GROUP 4 **** **** 0

# MOE 2024.06 (io_trps.svl 2023.06)
