@<TRIPOS>MOLECULE
NONAME
56 59 1 0 0 
SMALL
USER_CHARGES


@<TRIPOS>ATOM
  1 F       -1.6740    -0.5560    -2.3770 F     1 <1>  -0.1900 
  2 C       -1.2590    -1.7570    -2.0750 C.ar  1 <1>   0.1900 
  3 C       -1.8110    -2.4270    -0.9810 C.ar  1 <1>   0.0530 
  4 C       -0.2870    -2.3070    -2.8900 C.ar  1 <1>  -0.1500 
  5 C       -2.8200    -1.8530    -0.1200 C.2   1 <1>   0.4250 
  6 C       -1.3330    -3.7200    -0.7500 C.ar  1 <1>  -0.1500 
  7 C        0.1660    -3.5870    -2.6250 C.ar  1 <1>  -0.1500 
  8 O       -2.8350    -0.5580     0.1350 O.3   1 <1>  -0.2800 
  9 N       -3.7730    -2.4890     0.4940 N.2   1 <1>  -0.5650 
 10 C       -0.3610    -4.2910    -1.5550 C.ar  1 <1>  -0.1500 
 11 C       -3.8340    -0.3400     0.9370 C.2   1 <1>  -0.0400 
 12 C       -4.4280    -1.5210     1.1660 C.2   1 <1>   0.0460 
 13 C       -4.0900     1.0810     1.3960 C.3   1 <1>  -0.0600 
 14 C       -5.6420    -1.8330     2.0310 C.3   1 <1>   0.5240 
 15 N       -6.8750    -2.0000     1.2020 N.4   1 <1>  -0.9590 
 16 C       -8.1230    -2.0420     2.0110 C.3   1 <1>   0.3430 
 17 C       -6.8060    -3.1300     0.2420 C.3   1 <1>   0.3430 
 18 C       -9.3460    -2.3330     1.1320 C.3   1 <1>  -0.1600 
 19 C       -7.9240    -2.9790    -0.7930 C.3   1 <1>  -0.1600 
 20 C       -9.0980    -2.0590    -0.3700 C.3   1 <1>   0.2800 
 21 O       -8.6200    -0.7370    -0.5260 O.3   1 <1>  -0.5600 
 22 C      -10.3410    -2.2880    -1.2960 C.3   1 <1>   0.2000 
 23 C       -9.5290     0.3150    -0.3230 C.3   1 <1>   0.1200 
 24 O       -9.9050    -2.3920    -2.6240 O.3   1 <1>  -0.6800 
 25 C      -11.3990    -1.1520    -1.1990 C.3   1 <1>   0.2800 
 26 C      -10.7040     0.2100    -1.3010 C.3   1 <1>  -0.1600 
 27 O      -12.0230    -1.2080     0.0310 O.3   1 <1>  -0.6800 
 28 C      -12.5290    -1.2820    -2.2270 C.3   1 <1>  -0.2400 
 29 H        0.1030    -1.7430    -3.7170 H     1 <1>   0.1500 
 30 H       -1.7290    -4.2840     0.0770 H     1 <1>   0.1500 
 31 H        0.9230    -4.0340    -3.2480 H     1 <1>   0.1500 
 32 H       -0.0110    -5.2890    -1.3490 H     1 <1>   0.1500 
 33 H       -4.9400     1.1310     2.0500 H     1 <1>   0.0800 
 34 H       -4.2680     1.7110     0.5420 H     1 <1>   0.0800 
 35 H       -3.2260     1.4530     1.9180 H     1 <1>   0.0800 
 36 H       -5.7840    -1.0210     2.7240 H     1 <1>   0.0800 
 37 H       -5.4490    -2.7300     2.5950 H     1 <1>   0.0800 
 38 H       -6.9700    -1.1700     0.5880 H     1 <1>   0.4500 
 39 H       -8.0490    -2.7950     2.7780 H     1 <1>   0.0800 
 40 H       -8.2620    -1.0860     2.4910 H     1 <1>   0.0800 
 41 H       -5.8590    -3.1430    -0.2730 H     1 <1>   0.0800 
 42 H       -6.9160    -4.0630     0.7710 H     1 <1>   0.0800 
 43 H      -10.1750    -1.7730     1.5170 H     1 <1>   0.0800 
 44 H       -9.6140    -3.3680     1.2500 H     1 <1>   0.0800 
 45 H       -8.3000    -3.9650    -1.0050 H     1 <1>   0.0800 
 46 H       -7.4940    -2.6160    -1.7100 H     1 <1>   0.0800 
 47 H      -10.8100    -3.2270    -1.0590 H     1 <1>   0.0800 
 48 H       -9.8760     0.2960     0.6950 H     1 <1>   0.0800 
 49 H       -9.0010     1.2390    -0.4850 H     1 <1>   0.0800 
 50 H       -9.4120    -1.5820    -2.8650 H     1 <1>   0.4000 
 51 H      -10.3310     0.3550    -2.2990 H     1 <1>   0.0800 
 52 H      -11.4080     1.0000    -1.1090 H     1 <1>   0.0800 
 53 H      -12.8560    -0.7000    -0.0080 H     1 <1>   0.4000 
 54 H      -12.1390    -1.2030    -3.2260 H     1 <1>   0.0800 
 55 H      -13.2620    -0.5060    -2.0990 H     1 <1>   0.0800 
 56 H      -13.0050    -2.2430    -2.1360 H     1 <1>   0.0800 
@<TRIPOS>BOND
  1   1   2  1   
  2   2   3  ar  
  3   2   4  ar  
  4   3   5  1   
  5   3   6  ar  
  6   4   7  ar  
  7   4  29  1   
  8   5   8  1   
  9   5   9  2   
 10   6  10  ar  
 11   6  30  1   
 12   7  10  ar  
 13   7  31  1   
 14   8  11  1   
 15   9  12  1   
 16  10  32  1   
 17  11  12  2   
 18  11  13  1   
 19  12  14  1   
 20  13  33  1   
 21  13  34  1   
 22  13  35  1   
 23  14  15  1   
 24  14  36  1   
 25  14  37  1   
 26  15  16  1   
 27  15  17  1   
 28  15  38  1   
 29  16  18  1   
 30  16  39  1   
 31  16  40  1   
 32  17  19  1   
 33  17  41  1   
 34  17  42  1   
 35  18  20  1   
 36  18  43  1   
 37  18  44  1   
 38  19  20  1   
 39  19  45  1   
 40  19  46  1   
 41  20  21  1   
 42  20  22  1   
 43  21  23  1   
 44  22  24  1   
 45  22  25  1   
 46  22  47  1   
 47  23  26  1   
 48  23  48  1   
 49  23  49  1   
 50  24  50  1   
 51  25  26  1   
 52  25  27  1   
 53  25  28  1   
 54  26  51  1   
 55  26  52  1   
 56  27  53  1   
 57  28  54  1   
 58  28  55  1   
 59  28  56  1   
@<TRIPOS>SUBSTRUCTURE
  1 ****  17 GROUP 4 **** **** 0

# MOE 2024.06 (io_trps.svl 2023.06)
