@<TRIPOS>MOLECULE
NONAME
38 40 1 0 0 
SMALL
USER_CHARGES


@<TRIPOS>ATOM
  1 O       -1.2660    -0.3060    -0.5250 O.co2 1 <1>  -0.9000 
  2 C       -2.4130    -0.6910    -0.2050 C.2   1 <1>   0.9790 
  3 O       -2.5720    -1.9210    -0.0580 O.co2 1 <1>  -0.9000 
  4 C       -3.4930     0.2870    -0.0220 C.ar  1 <1>   0.1310 
  5 N       -4.7430    -0.0990     0.3110 N.ar  1 <1>  -0.3100 
  6 C       -3.2200     1.6400    -0.1930 C.ar  1 <1>  -0.1500 
  7 N       -5.7070     0.7750     0.4740 N.ar  1 <1>  -0.3100 
  8 C       -4.2280     2.5530    -0.0230 C.ar  1 <1>  -0.1500 
  9 C       -5.4870     2.0850     0.3100 C.ar  1 <1>   0.4100 
 10 N       -6.5500     2.9710     0.4830 N.pl3 1 <1>  -0.8380 
 11 C       -7.7800     2.5570     1.2260 C.3   1 <1>   0.2090 
 12 C       -6.6870     4.1810    -0.3780 C.3   1 <1>   0.2090 
 13 C       -8.9560     2.2630     0.2620 C.3   1 <1>   0.0000 
 14 C       -8.1590     4.5150    -0.6730 C.3   1 <1>  -0.1600 
 15 C      -10.2790     2.2740     1.0520 C.3   1 <1>   0.2000 
 16 C       -8.9610     3.2370    -0.9600 C.3   1 <1>  -0.1600 
 17 C       -8.9440     0.8120    -0.2480 C.3   1 <1>  -0.1600 
 18 O      -10.7840     3.5500     1.2280 O.3   1 <1>  -0.6800 
 19 C      -11.2620     1.4090     0.2610 C.3   1 <1>  -0.1600 
 20 C      -10.3960     0.5030    -0.6260 C.3   1 <1>  -0.1600 
 21 H       -2.2230     1.9530    -0.4520 H     1 <1>   0.1500 
 22 H       -4.0450     3.6010    -0.1360 H     1 <1>   0.1500 
 23 H       -7.5800     1.7050     1.8520 H     1 <1>   0.0800 
 24 H       -8.0550     3.3660     1.8810 H     1 <1>   0.0800 
 25 H       -6.2130     5.0180     0.1060 H     1 <1>   0.0800 
 26 H       -6.1810     3.9980    -1.3110 H     1 <1>   0.0800 
 27 H       -8.5820     5.0370     0.1680 H     1 <1>   0.0800 
 28 H       -8.2050     5.1770    -1.5190 H     1 <1>   0.0800 
 29 H      -10.1310     1.8400     2.0270 H     1 <1>   0.0800 
 30 H       -8.4890     2.7570    -1.8000 H     1 <1>   0.0800 
 31 H       -9.9620     3.4800    -1.2680 H     1 <1>   0.0800 
 32 H       -8.2600     0.6590    -1.0660 H     1 <1>   0.0800 
 33 H       -8.6460     0.1520     0.5490 H     1 <1>   0.0800 
 34 H      -10.8470     3.9910     0.3610 H     1 <1>   0.4000 
 35 H      -11.8580     0.8230     0.9370 H     1 <1>   0.0800 
 36 H      -11.9070     2.0120    -0.3540 H     1 <1>   0.0800 
 37 H      -10.6220    -0.5390    -0.4740 H     1 <1>   0.0800 
 38 H      -10.5600     0.7470    -1.6620 H     1 <1>   0.0800 
@<TRIPOS>BOND
  1   1   2  ar  
  2   2   3  ar  
  3   2   4  1   
  4   4   5  ar  
  5   4   6  ar  
  6   5   7  ar  
  7   6   8  ar  
  8   6  21  1   
  9   7   9  ar  
 10   8   9  ar  
 11   8  22  1   
 12   9  10  1   
 13  10  11  1   
 14  10  12  1   
 15  11  13  1   
 16  11  23  1   
 17  11  24  1   
 18  12  14  1   
 19  12  25  1   
 20  12  26  1   
 21  13  15  1   
 22  13  16  1   
 23  13  17  1   
 24  14  16  1   
 25  14  27  1   
 26  14  28  1   
 27  15  18  1   
 28  15  19  1   
 29  15  29  1   
 30  16  30  1   
 31  16  31  1   
 32  17  20  1   
 33  17  32  1   
 34  17  33  1   
 35  18  34  1   
 36  19  20  1   
 37  19  35  1   
 38  19  36  1   
 39  20  37  1   
 40  20  38  1   
@<TRIPOS>SUBSTRUCTURE
  1 ****   9 GROUP 4 **** **** 0

# MOE 2024.06 (io_trps.svl 2023.06)
