@<TRIPOS>MOLECULE
NONAME
40 41 1 0 0 
SMALL
USER_CHARGES


@<TRIPOS>ATOM
  1 S       -2.5270    -3.6390    -2.1010 S.3   1 <1>  -0.0800 
  2 C       -3.0290    -2.0080    -2.5050 C.2   1 <1>  -0.1100 
  3 C       -2.4920    -3.2510    -0.3920 C.2   1 <1>  -0.1100 
  4 C       -3.1630    -1.2570    -1.3940 C.2   1 <1>  -0.1810 
  5 C       -2.8450    -1.9690    -0.1870 C.2   1 <1>  -0.1500 
  6 C       -3.6120     0.1900    -1.3630 C.3   1 <1>   0.5240 
  7 N       -4.9240     0.2850    -0.6700 N.4   1 <1>  -0.9590 
  8 C       -5.9470    -0.6780    -1.1760 C.3   1 <1>   0.5240 
  9 C       -5.4510     1.6520    -0.5240 C.3   1 <1>   0.4810 
 10 C       -6.1030    -1.7710    -0.1330 C.2   1 <1>   0.1080 
 11 C       -4.4850     2.4190     0.3480 C.2   1 <1>  -0.2880 
 12 N       -6.0590    -1.5390     1.1330 N.2   1 <1>  -0.4100 
 13 C       -6.2580    -3.1330    -0.3820 C.2   1 <1>  -0.1500 
 14 C       -4.6280     2.6080     1.6640 C.2   1 <1>  -0.3000 
 15 O       -6.1800    -2.6970     1.7130 O.3   1 <1>  -0.0190 
 16 C       -6.2960    -3.6710     0.8470 C.2   1 <1>  -0.0400 
 17 C       -6.4330    -5.1040     1.3450 C.3   1 <1>   0.1000 
 18 C       -5.1380    -5.5460     2.0350 C.3   1 <1>  -0.2400 
 19 C       -6.7710    -6.0660     0.2010 C.3   1 <1>  -0.2400 
 20 H       -3.1710    -1.7980    -3.5520 H     1 <1>   0.1500 
 21 H       -2.2030    -4.0340     0.2870 H     1 <1>   0.1500 
 22 H       -2.8930    -1.5050     0.7840 H     1 <1>   0.1500 
 23 H       -3.6980     0.5620    -2.3710 H     1 <1>   0.0800 
 24 H       -2.8720     0.7790    -0.8440 H     1 <1>   0.0800 
 25 H       -4.7630    -0.0480     0.2960 H     1 <1>   0.4500 
 26 H       -5.6390    -1.1100    -2.1130 H     1 <1>   0.0800 
 27 H       -6.8970    -0.1880    -1.3110 H     1 <1>   0.0800 
 28 H       -6.4100     1.6160    -0.0300 H     1 <1>   0.0800 
 29 H       -5.5720     2.1350    -1.4810 H     1 <1>   0.0800 
 30 H       -3.6470     2.8220    -0.1960 H     1 <1>   0.1500 
 31 H       -6.3190    -3.6210    -1.3390 H     1 <1>   0.1500 
 32 H       -3.9300     3.1650     2.2700 H     1 <1>   0.1500 
 33 H       -5.4460     2.2330     2.2590 H     1 <1>   0.1500 
 34 H       -7.2360    -5.1340     2.0630 H     1 <1>   0.0800 
 35 H       -4.3150    -5.5130     1.3440 H     1 <1>   0.0800 
 36 H       -5.2370    -6.5500     2.4090 H     1 <1>   0.0800 
 37 H       -4.9180    -4.8960     2.8630 H     1 <1>   0.0800 
 38 H       -5.9820    -6.0790    -0.5300 H     1 <1>   0.0800 
 39 H       -7.6860    -5.7660    -0.2780 H     1 <1>   0.0800 
 40 H       -6.9010    -7.0640     0.5810 H     1 <1>   0.0800 
@<TRIPOS>BOND
  1   1   2  1   
  2   1   3  1   
  3   2   4  2   
  4   2  20  1   
  5   3   5  2   
  6   3  21  1   
  7   4   5  1   
  8   4   6  1   
  9   5  22  1   
 10   6   7  1   
 11   6  23  1   
 12   6  24  1   
 13   7   8  1   
 14   7   9  1   
 15   7  25  1   
 16   8  10  1   
 17   8  26  1   
 18   8  27  1   
 19   9  11  1   
 20   9  28  1   
 21   9  29  1   
 22  10  12  2   
 23  10  13  1   
 24  11  14  2   
 25  11  30  1   
 26  12  15  1   
 27  13  16  2   
 28  13  31  1   
 29  14  32  1   
 30  14  33  1   
 31  15  16  1   
 32  16  17  1   
 33  17  18  1   
 34  17  19  1   
 35  17  34  1   
 36  18  35  1   
 37  18  36  1   
 38  18  37  1   
 39  19  38  1   
 40  19  39  1   
 41  19  40  1   
@<TRIPOS>SUBSTRUCTURE
  1 ****  10 GROUP 4 **** **** 0

# MOE 2024.06 (io_trps.svl 2023.06)
