@<TRIPOS>MOLECULE
NONAME
44 46 1 0 0 
SMALL
USER_CHARGES


@<TRIPOS>ATOM
  1 O       -0.9260     0.4410     0.7720 O.2   1 <1>  -0.5700 
  2 C       -2.0780     0.7800     0.8370 C.2   1 <1>   0.4230 
  3 C       -3.1480    -0.0130     0.2990 C.ar  1 <1>   0.0860 
  4 C       -2.3640     2.0680     1.5860 C.3   1 <1>  -0.1790 
  5 C       -4.2450     0.4550    -0.4190 C.ar  1 <1>   0.1660 
  6 C       -3.1290    -1.3840     0.4920 C.ar  1 <1>   0.1600 
  7 N       -5.2090    -0.3340    -0.8180 N.ar  1 <1>  -0.6200 
  8 C       -4.4030     1.9110    -0.8260 C.3   1 <1>  -0.0960 
  9 N       -4.0770    -2.1900     0.0920 N.ar  1 <1>  -0.6200 
 10 C       -5.1060    -1.6350    -0.5460 C.ar  1 <1>   0.7200 
 11 N       -6.1270    -2.4600    -0.9590 N.pl3 1 <1>  -0.8380 
 12 C       -6.0650    -3.9470    -0.8520 C.3   1 <1>   0.2090 
 13 C       -7.3830    -1.9520    -1.5820 C.3   1 <1>   0.2090 
 14 C       -7.2520    -4.4450    -0.0270 C.3   1 <1>  -0.1600 
 15 C       -8.5850    -2.4350    -0.7680 C.3   1 <1>  -0.1600 
 16 C       -8.5820    -3.9630    -0.6220 C.3   1 <1>   0.0630 
 17 C       -9.7690    -4.4440     0.2080 C.ar  1 <1>  -0.1440 
 18 C      -10.7170    -5.2780    -0.3650 C.ar  1 <1>  -0.1500 
 19 C       -9.9260    -4.0630     1.5350 C.ar  1 <1>  -0.1500 
 20 C      -11.7980    -5.7210     0.3770 C.ar  1 <1>   0.0820 
 21 C      -11.0090    -4.5070     2.2770 C.ar  1 <1>  -0.1500 
 22 O      -12.7000    -6.5270    -0.2020 O.3   1 <1>  -0.5330 
 23 C      -11.9510    -5.3390     1.6990 C.ar  1 <1>  -0.1500 
 24 H       -3.3860     2.1020     1.9150 H     1 <1>   0.0800 
 25 H       -2.1550     2.9110     0.9550 H     1 <1>   0.0800 
 26 H       -1.7270     2.1230     2.4500 H     1 <1>   0.0800 
 27 H       -2.2880    -1.8180     1.0070 H     1 <1>   0.1500 
 28 H       -3.4510     2.3550    -1.0490 H     1 <1>   0.0800 
 29 H       -4.8880     2.4620    -0.0410 H     1 <1>   0.0800 
 30 H       -5.0110     1.9800    -1.7100 H     1 <1>   0.0800 
 31 H       -5.1500    -4.2800    -0.3930 H     1 <1>   0.0800 
 32 H       -6.1030    -4.3680    -1.8410 H     1 <1>   0.0800 
 33 H       -7.4480    -2.3240    -2.5900 H     1 <1>   0.0800 
 34 H       -7.4020    -0.8770    -1.6280 H     1 <1>   0.0800 
 35 H       -7.1390    -4.0870     0.9800 H     1 <1>   0.0800 
 36 H       -7.2390    -5.5200     0.0020 H     1 <1>   0.0800 
 37 H       -9.4920    -2.1220    -1.2520 H     1 <1>   0.0800 
 38 H       -8.5490    -1.9670     0.1990 H     1 <1>   0.0800 
 39 H       -8.6660    -4.3830    -1.6100 H     1 <1>   0.0800 
 40 H      -10.6320    -5.5950    -1.3880 H     1 <1>   0.1500 
 41 H       -9.2030    -3.4160     2.0000 H     1 <1>   0.1500 
 42 H      -11.1150    -4.2020     3.3030 H     1 <1>   0.1500 
 43 H      -13.4200    -6.7830     0.4000 H     1 <1>   0.4500 
 44 H      -12.7900    -5.6820     2.2760 H     1 <1>   0.1500 
@<TRIPOS>BOND
  1   1   2  2   
  2   2   3  1   
  3   2   4  1   
  4   3   5  ar  
  5   3   6  ar  
  6   4  24  1   
  7   4  25  1   
  8   4  26  1   
  9   5   7  ar  
 10   5   8  1   
 11   6   9  ar  
 12   6  27  1   
 13   7  10  ar  
 14   8  28  1   
 15   8  29  1   
 16   8  30  1   
 17   9  10  ar  
 18  10  11  1   
 19  11  12  1   
 20  11  13  1   
 21  12  14  1   
 22  12  31  1   
 23  12  32  1   
 24  13  15  1   
 25  13  33  1   
 26  13  34  1   
 27  14  16  1   
 28  14  35  1   
 29  14  36  1   
 30  15  16  1   
 31  15  37  1   
 32  15  38  1   
 33  16  17  1   
 34  16  39  1   
 35  17  18  ar  
 36  17  19  ar  
 37  18  20  ar  
 38  18  40  1   
 39  19  21  ar  
 40  19  41  1   
 41  20  22  1   
 42  20  23  ar  
 43  21  23  ar  
 44  21  42  1   
 45  22  43  1   
 46  23  44  1   
@<TRIPOS>SUBSTRUCTURE
  1 ****  11 GROUP 4 **** **** 0

# MOE 2024.06 (io_trps.svl 2023.06)
