@<TRIPOS>MOLECULE
NONAME
37 38 1 0 0 
SMALL
USER_CHARGES


@<TRIPOS>ATOM
  1 O       -0.1670     0.9240     0.2400 O.co2 1 <1>  -0.9000 
  2 C       -1.0800     0.3720     0.8770 C.2   1 <1>   0.9060 
  3 O       -0.9100    -0.5530     1.6670 O.co2 1 <1>  -0.9000 
  4 C       -2.4780     0.9960     0.6960 C.3   1 <1>   0.3170 
  5 N       -2.3710     2.3400     0.0380 N.4   1 <1>  -0.9590 
  6 C       -3.4010     0.2140    -0.2380 C.3   1 <1>  -0.1600 
  7 C       -3.5370     2.5590    -0.8600 C.3   1 <1>   0.3430 
  8 C       -2.0260     3.4440     0.9610 C.3   1 <1>   0.5230 
  9 C       -4.3580     1.2620    -0.7950 C.3   1 <1>   0.2000 
 10 C       -1.5850     4.6400     0.1400 C.2   1 <1>   0.0060 
 11 O       -5.4010     1.4180     0.1070 O.3   1 <1>  -0.6800 
 12 N       -2.4150     5.5440    -0.2790 N.2   1 <1>  -0.5650 
 13 N       -0.2980     4.8500    -0.2440 N.pl3 1 <1>   0.0480 
 14 C       -1.6380     6.3980    -0.9680 C.2   1 <1>   0.0770 
 15 C       -0.3510     5.9900    -0.9600 C.2   1 <1>  -0.3020 
 16 C        0.9170     4.0230     0.0220 C.3   1 <1>   0.1760 
 17 C        1.9930     4.8640     0.7180 C.3   1 <1>  -0.2400 
 18 C        1.4480     3.4280    -1.2860 C.3   1 <1>  -0.2400 
 19 H       -2.9360     1.0900     1.6630 H     1 <1>   0.0800 
 20 H       -1.5040     2.2020    -0.5230 H     1 <1>   0.4500 
 21 H       -3.9010    -0.5950     0.2660 H     1 <1>   0.0800 
 22 H       -2.8130    -0.2000    -1.0390 H     1 <1>   0.0800 
 23 H       -4.1310     3.4020    -0.5450 H     1 <1>   0.0800 
 24 H       -3.1870     2.7300    -1.8640 H     1 <1>   0.0800 
 25 H       -2.8850     3.7140     1.5520 H     1 <1>   0.0800 
 26 H       -1.2290     3.1410     1.6200 H     1 <1>   0.0800 
 27 H       -4.7790     0.9960    -1.7500 H     1 <1>   0.0800 
 28 H       -5.0850     1.4200     1.0300 H     1 <1>   0.4000 
 29 H       -2.0490     7.2740    -1.4420 H     1 <1>   0.1500 
 30 H        0.5100     6.4440    -1.4170 H     1 <1>   0.1500 
 31 H        0.6530     3.2140     0.6780 H     1 <1>   0.0800 
 32 H        2.3320     5.6600     0.0810 H     1 <1>   0.0800 
 33 H        2.8370     4.2430     0.9610 H     1 <1>   0.0800 
 34 H        1.6080     5.2790     1.6320 H     1 <1>   0.0800 
 35 H        1.7550     4.2010    -1.9680 H     1 <1>   0.0800 
 36 H        0.6920     2.8190    -1.7490 H     1 <1>   0.0800 
 37 H        2.2930     2.7960    -1.0790 H     1 <1>   0.0800 
@<TRIPOS>BOND
  1   1   2  ar  
  2   2   3  ar  
  3   2   4  1   
  4   4   5  1   
  5   4   6  1   
  6   4  19  1   
  7   5   7  1   
  8   5   8  1   
  9   5  20  1   
 10   6   9  1   
 11   6  21  1   
 12   6  22  1   
 13   7   9  1   
 14   7  23  1   
 15   7  24  1   
 16   8  10  1   
 17   8  25  1   
 18   8  26  1   
 19   9  11  1   
 20   9  27  1   
 21  10  12  2   
 22  10  13  1   
 23  11  28  1   
 24  12  14  1   
 25  13  15  1   
 26  13  16  1   
 27  14  15  2   
 28  14  29  1   
 29  15  30  1   
 30  16  17  1   
 31  16  18  1   
 32  16  31  1   
 33  17  32  1   
 34  17  33  1   
 35  17  34  1   
 36  18  35  1   
 37  18  36  1   
 38  18  37  1   
@<TRIPOS>SUBSTRUCTURE
  1 ****   5 GROUP 4 **** **** 0

# MOE 2024.06 (io_trps.svl 2023.06)
