@<TRIPOS>MOLECULE
NONAME
47 50 1 0 0 
SMALL
USER_CHARGES


@<TRIPOS>ATOM
  1 CL       2.8350    -1.3760     0.9320 Cl    1 <1>  -0.1770 
  2 C        1.9190    -2.7750     0.4320 C.ar  1 <1>   0.1770 
  3 C        0.6350    -2.6110    -0.0410 C.ar  1 <1>  -0.1500 
  4 C        2.4970    -4.0260     0.5200 C.ar  1 <1>  -0.1500 
  5 C       -0.1220    -3.7120    -0.4390 C.ar  1 <1>   0.0860 
  6 C        1.7690    -5.1320     0.1210 C.ar  1 <1>  -0.1500 
  7 C        0.4670    -4.9840    -0.3600 C.ar  1 <1>   0.0820 
  8 C       -1.4690    -3.4980    -0.9260 C.2   1 <1>   0.5440 
  9 O       -0.2680    -6.0480    -0.7660 O.3   1 <1>  -0.3630 
 10 O       -1.6310    -2.7640    -1.8850 O.2   1 <1>  -0.5700 
 11 N       -2.5820    -4.0330    -0.3070 N.am  1 <1>  -0.6600 
 12 C        0.2680    -7.3460    -0.8960 C.3   1 <1>   0.0400 
 13 C       -3.9530    -3.9090    -0.8910 C.3   1 <1>   0.1400 
 14 C       -2.5650    -4.6950     1.0230 C.3   1 <1>   0.1400 
 15 C       -4.8480    -3.0540     0.0260 C.3   1 <1>   0.1430 
 16 C       -3.4330    -3.8920     2.0020 C.3   1 <1>  -0.1600 
 17 C       -6.2670    -2.9930    -0.5100 C.ar  1 <1>   0.1670 
 18 C       -4.8530    -3.6450     1.4550 C.3   1 <1>  -0.1600 
 19 C       -4.4200    -1.5610     0.0150 C.3   1 <1>  -0.1600 
 20 N       -6.9870    -4.0260    -0.8800 N.ar  1 <1>  -0.6200 
 21 C       -6.7300    -1.7110    -0.5600 C.ar  1 <1>  -0.1440 
 22 C       -5.7060    -0.7200    -0.0680 C.3   1 <1>  -0.0160 
 23 C       -8.2030    -3.7130    -1.3000 C.ar  1 <1>   0.7200 
 24 C       -8.0070    -1.5090    -1.0260 C.ar  1 <1>   0.1600 
 25 N       -8.7600    -2.5150    -1.4090 N.ar  1 <1>  -0.6200 
 26 N       -8.9590    -4.7380    -1.6940 N.pl3 1 <1>  -0.9000 
 27 H        0.2130    -1.6250    -0.1080 H     1 <1>   0.1500 
 28 H        3.5010    -4.1250     0.8930 H     1 <1>   0.1500 
 29 H        2.2320    -6.0990     0.1930 H     1 <1>   0.1500 
 30 H       -0.4970    -7.9820    -1.3040 H     1 <1>   0.0800 
 31 H        0.5610    -7.7030     0.0740 H     1 <1>   0.0800 
 32 H        1.1080    -7.3110    -1.5670 H     1 <1>   0.0800 
 33 H       -4.3770    -4.8930    -0.9880 H     1 <1>   0.0800 
 34 H       -3.9160    -3.4760    -1.8760 H     1 <1>   0.0800 
 35 H       -1.5640    -4.7670     1.4090 H     1 <1>   0.0800 
 36 H       -2.9550    -5.6930     0.9190 H     1 <1>   0.0800 
 37 H       -2.9450    -2.9560     2.2040 H     1 <1>   0.0800 
 38 H       -3.4980    -4.4270     2.9330 H     1 <1>   0.0800 
 39 H       -5.3760    -4.5870     1.4290 H     1 <1>   0.0800 
 40 H       -5.3960    -2.9960     2.1190 H     1 <1>   0.0800 
 41 H       -3.8350    -1.3650    -0.8670 H     1 <1>   0.0800 
 42 H       -3.8270    -1.2900     0.8690 H     1 <1>   0.0800 
 43 H       -5.5920     0.1070    -0.7470 H     1 <1>   0.0800 
 44 H       -5.9880    -0.3600     0.9060 H     1 <1>   0.0800 
 45 H       -8.4130    -0.5140    -1.0860 H     1 <1>   0.1500 
 46 H       -9.7380    -4.4880    -2.2960 H     1 <1>   0.4000 
 47 H       -8.4480    -5.5830    -1.9270 H     1 <1>   0.4000 
@<TRIPOS>BOND
  1   1   2  1   
  2   2   3  ar  
  3   2   4  ar  
  4   3   5  ar  
  5   3  27  1   
  6   4   6  ar  
  7   4  28  1   
  8   5   7  ar  
  9   5   8  1   
 10   6   7  ar  
 11   6  29  1   
 12   7   9  1   
 13   8  10  2   
 14   8  11  am  
 15   9  12  1   
 16  11  13  1   
 17  11  14  1   
 18  12  30  1   
 19  12  31  1   
 20  12  32  1   
 21  13  15  1   
 22  13  33  1   
 23  13  34  1   
 24  14  16  1   
 25  14  35  1   
 26  14  36  1   
 27  15  17  1   
 28  15  18  1   
 29  15  19  1   
 30  16  18  1   
 31  16  37  1   
 32  16  38  1   
 33  17  20  ar  
 34  17  21  ar  
 35  18  39  1   
 36  18  40  1   
 37  19  22  1   
 38  19  41  1   
 39  19  42  1   
 40  20  23  ar  
 41  21  22  1   
 42  21  24  ar  
 43  22  43  1   
 44  22  44  1   
 45  23  25  ar  
 46  23  26  1   
 47  24  25  ar  
 48  24  45  1   
 49  26  46  1   
 50  26  47  1   
@<TRIPOS>SUBSTRUCTURE
  1 ****  11 GROUP 4 **** **** 0

# MOE 2024.06 (io_trps.svl 2023.06)
