@<TRIPOS>MOLECULE
NONAME
47 49 1 0 0 
SMALL
USER_CHARGES


@<TRIPOS>ATOM
  1 N       -1.1130    -0.4200    -0.6020 N.2   1 <1>  -0.5650 
  2 C       -1.3870    -0.6970     0.6370 C.2   1 <1>   0.0060 
  3 C       -0.2560     0.6170    -0.5230 C.2   1 <1>   0.0770 
  4 N       -0.7510     0.1090     1.5210 N.pl3 1 <1>   0.0330 
  5 C       -2.3310    -1.8200     1.0510 C.3   1 <1>   0.5230 
  6 C       -0.0260     0.9510     0.7650 C.2   1 <1>  -0.3020 
  7 N       -2.8000    -2.4820    -0.2010 N.4   1 <1>  -0.9590 
  8 C       -4.1990    -2.2220    -0.6300 C.3   1 <1>   0.4230 
  9 C       -2.4320    -3.9270    -0.2530 C.3   1 <1>   0.2630 
 10 C       -4.5120    -0.7420    -0.8370 C.3   1 <1>  -0.1600 
 11 C       -5.2620    -2.6920     0.3620 C.3   1 <1>  -0.1600 
 12 C       -6.0460    -0.6730    -0.8130 C.3   1 <1>  -0.0800 
 13 C       -6.5230    -1.9030    -0.0330 C.3   1 <1>  -0.0800 
 14 C       -6.6450     0.5600    -0.1150 C.3   1 <1>  -0.1600 
 15 C       -7.3810    -1.3820     1.1320 C.3   1 <1>  -0.1600 
 16 C       -7.7720     0.0590     0.7970 C.3   1 <1>   0.4230 
 17 N       -9.1290     0.1270     0.1660 N.4   1 <1>  -0.9590 
 18 C       -9.2600    -0.5050    -1.1870 C.3   1 <1>   0.2630 
 19 C       -9.6210     1.5400     0.1170 C.3   1 <1>   0.2630 
 20 H        0.1590     1.0780    -1.4060 H     1 <1>   0.1500 
 21 H       -0.7880     0.1040     2.5470 H     1 <1>   0.2700 
 22 H       -3.1610    -1.4160     1.6040 H     1 <1>   0.0800 
 23 H       -1.8020    -2.5230     1.6720 H     1 <1>   0.0800 
 24 H        0.6030     1.7260     1.1680 H     1 <1>   0.1500 
 25 H       -2.2040    -1.9830    -0.8970 H     1 <1>   0.4500 
 26 H       -4.3760    -2.7230    -1.5690 H     1 <1>   0.0800 
 27 H       -2.9850    -4.4840     0.4850 H     1 <1>   0.0800 
 28 H       -1.3770    -4.0500    -0.0650 H     1 <1>   0.0800 
 29 H       -2.6510    -4.3320    -1.2280 H     1 <1>   0.0800 
 30 H       -4.1030    -0.1490    -0.0410 H     1 <1>   0.0800 
 31 H       -4.1200    -0.3870    -1.7750 H     1 <1>   0.0800 
 32 H       -5.4330    -3.7510     0.2820 H     1 <1>   0.0800 
 33 H       -4.9740    -2.4530     1.3690 H     1 <1>   0.0800 
 34 H       -6.4170    -0.7380    -1.8240 H     1 <1>   0.0800 
 35 H       -7.1270    -2.5130    -0.6860 H     1 <1>   0.0800 
 36 H       -6.9690     1.3040    -0.8210 H     1 <1>   0.0800 
 37 H       -5.9040     1.0150     0.5180 H     1 <1>   0.0800 
 38 H       -6.7910    -1.3500     2.0310 H     1 <1>   0.0800 
 39 H       -8.2340    -2.0110     1.3220 H     1 <1>   0.0800 
 40 H       -7.7880     0.6420     1.7050 H     1 <1>   0.0800 
 41 H       -9.7620    -0.3850     0.8000 H     1 <1>   0.4500 
 42 H       -8.6170    -0.0110    -1.8960 H     1 <1>   0.0800 
 43 H      -10.2770    -0.4300    -1.5370 H     1 <1>   0.0800 
 44 H       -8.9930    -1.5480    -1.1420 H     1 <1>   0.0800 
 45 H       -9.0060     2.1320    -0.5400 H     1 <1>   0.0800 
 46 H       -9.5970     1.9810     1.1010 H     1 <1>   0.0800 
 47 H      -10.6370     1.5710    -0.2440 H     1 <1>   0.0800 
@<TRIPOS>BOND
  1   1   2  2   
  2   1   3  1   
  3   2   4  1   
  4   2   5  1   
  5   3   6  2   
  6   3  20  1   
  7   4   6  1   
  8   4  21  1   
  9   5   7  1   
 10   5  22  1   
 11   5  23  1   
 12   6  24  1   
 13   7   8  1   
 14   7   9  1   
 15   7  25  1   
 16   8  10  1   
 17   8  11  1   
 18   8  26  1   
 19   9  27  1   
 20   9  28  1   
 21   9  29  1   
 22  10  12  1   
 23  10  30  1   
 24  10  31  1   
 25  11  13  1   
 26  11  32  1   
 27  11  33  1   
 28  12  13  1   
 29  12  14  1   
 30  12  34  1   
 31  13  15  1   
 32  13  35  1   
 33  14  16  1   
 34  14  36  1   
 35  14  37  1   
 36  15  16  1   
 37  15  38  1   
 38  15  39  1   
 39  16  17  1   
 40  16  40  1   
 41  17  18  1   
 42  17  19  1   
 43  17  41  1   
 44  18  42  1   
 45  18  43  1   
 46  18  44  1   
 47  19  45  1   
 48  19  46  1   
 49  19  47  1   
@<TRIPOS>SUBSTRUCTURE
  1 ****  10 GROUP 4 **** **** 0

# MOE 2024.06 (io_trps.svl 2023.06)
