@<TRIPOS>MOLECULE
NONAME
50 53 1 0 0 
SMALL
USER_CHARGES


@<TRIPOS>ATOM
  1 S        2.0470     0.6150     1.1070 S.3   1 <1>  -0.0800 
  2 C        2.4970     1.4080    -0.3940 C.2   1 <1>  -0.1400 
  3 C        2.6340    -0.9290     0.5180 C.2   1 <1>  -0.1400 
  4 C        3.0410     0.5240    -1.2520 C.2   1 <1>  -0.1500 
  5 C        2.2380     2.8930    -0.5000 C.3   1 <1>   0.5230 
  6 C        3.1190    -0.8060    -0.7310 C.2   1 <1>  -0.1500 
  7 C        2.5120    -2.1200     1.4460 C.3   1 <1>  -0.0600 
  8 N        3.5300     3.5790    -0.2990 N.4   1 <1>  -0.9590 
  9 C        4.1080     3.4040     1.0970 C.3   1 <1>   0.4230 
 10 C        3.5390     4.9670    -0.8510 C.3   1 <1>   0.3430 
 11 C        3.6470     4.4670     2.1290 C.3   1 <1>   0.1200 
 12 C        5.6560     3.2920     1.0390 C.3   1 <1>   0.1400 
 13 C        4.7970     5.7610    -0.4500 C.3   1 <1>  -0.0800 
 14 O        3.5780     5.7760     1.6310 O.3   1 <1>  -0.5600 
 15 N        6.1900     3.6100    -0.3240 N.am  1 <1>  -0.6600 
 16 C        4.7160     6.2810     1.0010 C.3   1 <1>   0.1200 
 17 C        6.1260     5.0390    -0.7680 C.3   1 <1>   0.1400 
 18 C        6.3190     2.6030    -1.2420 C.2   1 <1>   0.5690 
 19 O        5.6230     2.6350    -2.2290 O.2   1 <1>  -0.5700 
 20 C        7.2000     1.3860    -1.0190 C.3   1 <1>   0.1570 
 21 N        8.3290     1.6970    -0.1320 N.pl3 1 <1>   0.3140 
 22 N        8.2920     1.4150     1.1860 N.2   1 <1>  -0.7070 
 23 C        9.5040     2.2610    -0.4770 C.2   1 <1>  -0.3020 
 24 C        9.4460     1.8010     1.6410 C.2   1 <1>   0.1390 
 25 C       10.2480     2.3430     0.6450 C.2   1 <1>  -0.1500 
 26 H        3.4030     0.7400    -2.2450 H     1 <1>   0.1500 
 27 H        1.5140     3.2100     0.2340 H     1 <1>   0.0800 
 28 H        1.8570     3.1120    -1.4840 H     1 <1>   0.0800 
 29 H        3.5330    -1.6070    -1.3200 H     1 <1>   0.1500 
 30 H        2.8980    -3.0030     0.9710 H     1 <1>   0.0800 
 31 H        1.4790    -2.2850     1.6970 H     1 <1>   0.0800 
 32 H        3.0670    -1.9420     2.3500 H     1 <1>   0.0800 
 33 H        4.2040     3.0800    -0.9090 H     1 <1>   0.4500 
 34 H        3.7800     2.4570     1.4880 H     1 <1>   0.0800 
 35 H        3.4870     4.9160    -1.9270 H     1 <1>   0.0800 
 36 H        2.6710     5.5030    -0.5020 H     1 <1>   0.0800 
 37 H        4.2940     4.4680     2.9890 H     1 <1>   0.0800 
 38 H        2.6590     4.2150     2.4720 H     1 <1>   0.0800 
 39 H        5.9100     2.2810     1.3020 H     1 <1>   0.0800 
 40 H        6.1300     3.9210     1.7720 H     1 <1>   0.0800 
 41 H        4.8000     6.6460    -1.0600 H     1 <1>   0.0800 
 42 H        4.6130     7.3530     0.9940 H     1 <1>   0.0800 
 43 H        5.5880     6.0410     1.5860 H     1 <1>   0.0800 
 44 H        6.9450     5.5760    -0.3170 H     1 <1>   0.0800 
 45 H        6.2860     5.0730    -1.8340 H     1 <1>   0.0800 
 46 H        7.5870     1.0470    -1.9610 H     1 <1>   0.0800 
 47 H        6.6210     0.5980    -0.5780 H     1 <1>   0.0800 
 48 H        9.7450     2.5640    -1.4800 H     1 <1>   0.1500 
 49 H        9.7420     1.7060     2.6730 H     1 <1>   0.1500 
 50 H       11.2440     2.7310     0.7720 H     1 <1>   0.1500 
@<TRIPOS>BOND
  1   1   2  1   
  2   1   3  1   
  3   2   4  2   
  4   2   5  1   
  5   3   6  2   
  6   3   7  1   
  7   4   6  1   
  8   4  26  1   
  9   5   8  1   
 10   5  27  1   
 11   5  28  1   
 12   6  29  1   
 13   7  30  1   
 14   7  31  1   
 15   7  32  1   
 16   8   9  1   
 17   8  10  1   
 18   8  33  1   
 19   9  11  1   
 20   9  12  1   
 21   9  34  1   
 22  10  13  1   
 23  10  35  1   
 24  10  36  1   
 25  11  14  1   
 26  11  37  1   
 27  11  38  1   
 28  12  15  1   
 29  12  39  1   
 30  12  40  1   
 31  13  16  1   
 32  13  17  1   
 33  13  41  1   
 34  14  16  1   
 35  15  17  1   
 36  15  18  am  
 37  16  42  1   
 38  16  43  1   
 39  17  44  1   
 40  17  45  1   
 41  18  19  2   
 42  18  20  1   
 43  20  21  1   
 44  20  46  1   
 45  20  47  1   
 46  21  22  1   
 47  21  23  1   
 48  22  24  2   
 49  23  25  2   
 50  23  48  1   
 51  24  25  1   
 52  24  49  1   
 53  25  50  1   
@<TRIPOS>SUBSTRUCTURE
  1 ****  12 GROUP 4 **** **** 0

# MOE 2024.06 (io_trps.svl 2023.06)
