@<TRIPOS>MOLECULE
NONAME
46 49 1 0 0 
SMALL
USER_CHARGES


@<TRIPOS>ATOM
  1 CL       0.7370     1.0670    -1.6110 Cl    1 <1>  -0.1770 
  2 C        2.0630     0.0310    -1.1390 C.ar  1 <1>   0.1770 
  3 C        3.0320     0.4910    -0.2580 C.ar  1 <1>  -0.1440 
  4 C        2.1140    -1.2440    -1.6700 C.ar  1 <1>  -0.1500 
  5 C        4.0820    -0.3600     0.0860 C.ar  1 <1>  -0.1440 
  6 C        2.9470     1.9160     0.3020 C.3   1 <1>  -0.0160 
  7 C        3.1540    -2.0840    -1.3200 C.ar  1 <1>  -0.1500 
  8 C        4.1320    -1.6430    -0.4440 C.ar  1 <1>  -0.1500 
  9 C        5.1660     0.0950     1.0510 C.3   1 <1>   0.3530 
 10 C        3.9980     2.2140     1.3800 C.3   1 <1>   0.2090 
 11 N        5.2880     1.5780     0.9730 N.pl3 1 <1>  -0.8380 
 12 C        6.3080     2.3000     0.4490 C.ar  1 <1>   0.7710 
 13 N        6.3750     3.5990     0.6990 N.ar  1 <1>  -0.6200 
 14 N        7.2150     1.6840    -0.3320 N.ar  1 <1>  -0.1790 
 15 C        7.3830     4.2940     0.2040 C.ar  1 <1>   0.4100 
 16 C        8.2500     2.3610    -0.8850 C.ar  1 <1>   0.2110 
 17 N        7.4530     5.6160     0.5130 N.pl3 1 <1>  -0.8380 
 18 C        8.3480     3.6840    -0.6210 C.ar  1 <1>  -0.1500 
 19 C        8.7280     6.3990     0.6280 C.3   1 <1>   0.2090 
 20 C        6.2470     6.4220     0.8780 C.3   1 <1>   0.2090 
 21 C        8.6750     7.6420    -0.2770 C.3   1 <1>   0.2000 
 22 C        6.1650     7.6600    -0.0260 C.3   1 <1>  -0.1600 
 23 O        9.8100     8.4090    -0.0830 O.3   1 <1>  -0.6800 
 24 C        7.4480     8.5090     0.0240 C.3   1 <1>  -0.1600 
 25 H        1.3450    -1.5700    -2.3490 H     1 <1>   0.1500 
 26 H        1.9700     2.0890     0.7180 H     1 <1>   0.0800 
 27 H        3.0800     2.6130    -0.5060 H     1 <1>   0.0800 
 28 H        3.1980    -3.0810    -1.7260 H     1 <1>   0.1500 
 29 H        4.9270    -2.3190    -0.1780 H     1 <1>   0.1500 
 30 H        6.0980    -0.3910     0.8290 H     1 <1>   0.0800 
 31 H        4.8850    -0.1870     2.0530 H     1 <1>   0.0800 
 32 H        3.6760     1.7980     2.3210 H     1 <1>   0.0800 
 33 H        4.0900     3.2790     1.5120 H     1 <1>   0.0800 
 34 H        7.0300     0.7090    -0.5350 H     1 <1>   0.4570 
 35 H        8.9490     1.8360    -1.5160 H     1 <1>   0.1500 
 36 H        9.1340     4.2790    -1.0440 H     1 <1>   0.1500 
 37 H        9.5810     5.8010     0.3700 H     1 <1>   0.0800 
 38 H        8.8400     6.7120     1.6510 H     1 <1>   0.0800 
 39 H        6.3200     6.7220     1.9100 H     1 <1>   0.0800 
 40 H        5.3460     5.8450     0.7620 H     1 <1>   0.0800 
 41 H        8.6690     7.3290    -1.3070 H     1 <1>   0.0800 
 42 H        5.3250     8.2610     0.2740 H     1 <1>   0.0800 
 43 H        5.9860     7.3350    -1.0360 H     1 <1>   0.0800 
 44 H        9.7520     8.8980     0.7600 H     1 <1>   0.4000 
 45 H        7.3810     9.3030    -0.6990 H     1 <1>   0.0800 
 46 H        7.5380     8.9390     1.0060 H     1 <1>   0.0800 
@<TRIPOS>BOND
  1   1   2  1   
  2   2   3  ar  
  3   2   4  ar  
  4   3   5  ar  
  5   3   6  1   
  6   4   7  ar  
  7   4  25  1   
  8   5   8  ar  
  9   5   9  1   
 10   6  10  1   
 11   6  26  1   
 12   6  27  1   
 13   7   8  ar  
 14   7  28  1   
 15   8  29  1   
 16   9  11  1   
 17   9  30  1   
 18   9  31  1   
 19  10  11  1   
 20  10  32  1   
 21  10  33  1   
 22  11  12  1   
 23  12  13  ar  
 24  12  14  ar  
 25  13  15  ar  
 26  14  16  ar  
 27  14  34  1   
 28  15  17  1   
 29  15  18  ar  
 30  16  18  ar  
 31  16  35  1   
 32  17  19  1   
 33  17  20  1   
 34  18  36  1   
 35  19  21  1   
 36  19  37  1   
 37  19  38  1   
 38  20  22  1   
 39  20  39  1   
 40  20  40  1   
 41  21  23  1   
 42  21  24  1   
 43  21  41  1   
 44  22  24  1   
 45  22  42  1   
 46  22  43  1   
 47  23  44  1   
 48  24  45  1   
 49  24  46  1   
@<TRIPOS>SUBSTRUCTURE
  1 ****  12 GROUP 4 **** **** 0

# MOE 2024.06 (io_trps.svl 2023.06)
