@<TRIPOS>MOLECULE
NONAME
51 54 1 0 0 
SMALL
USER_CHARGES


@<TRIPOS>ATOM
  1 O       -1.2390     0.1930    -0.5640 O.2   1 <1>  -0.5700 
  2 C       -2.0860     1.0670    -0.4430 C.2   1 <1>   0.5440 
  3 N       -3.4090     0.6590    -0.5850 N.am  1 <1>  -0.6600 
  4 C       -1.6520     2.4420    -0.1540 C.ar  1 <1>   0.3960 
  5 C       -3.7380    -0.6870    -1.1140 C.3   1 <1>   0.1400 
  6 C       -4.5070     1.2240     0.2590 C.3   1 <1>   0.1400 
  7 N       -2.4440     3.2780     0.5860 N.ar  1 <1>  -0.6200 
  8 C       -0.4330     2.8820    -0.6190 C.ar  1 <1>  -0.1500 
  9 C       -4.4120    -1.4100     0.0670 C.3   1 <1>   0.4230 
 10 C       -5.8170     0.3660     0.2090 C.3   1 <1>  -0.1600 
 11 C       -2.0160     4.4810     0.8220 C.ar  1 <1>   0.1600 
 12 C        0.0450     4.1770    -0.3740 C.ar  1 <1>   0.0000 
 13 N       -3.6720    -2.6480     0.5000 N.4   1 <1>  -0.9590 
 14 C       -5.9900    -1.2380    -0.0610 C.3   1 <1>   0.0000 
 15 C       -0.7870     5.0150     0.3810 C.ar  1 <1>   0.0000 
 16 C        1.2820     4.6670    -0.8330 C.ar  1 <1>  -0.1500 
 17 C       -3.9040    -3.7460    -0.4180 C.3   1 <1>   0.3430 
 18 C       -2.2110    -2.3980     0.7430 C.3   1 <1>   0.2630 
 19 C       -6.2620    -2.8020    -0.4000 C.3   1 <1>  -0.1600 
 20 C       -7.5820    -0.9940    -0.1190 C.3   1 <1>   0.1200 
 21 C       -0.3570     6.3270     0.6570 C.ar  1 <1>  -0.1500 
 22 C        1.6780     5.9460    -0.5520 C.ar  1 <1>  -0.1500 
 23 C       -5.3560    -4.0340    -0.1860 C.3   1 <1>  -0.1600 
 24 O       -8.1000    -1.2140     1.1560 O.3   1 <1>  -0.6800 
 25 C        0.8500     6.7860     0.2010 C.ar  1 <1>  -0.1500 
 26 H       -4.4240    -0.5810    -1.9380 H     1 <1>   0.0800 
 27 H       -2.8700    -1.2020    -1.4820 H     1 <1>   0.0800 
 28 H       -4.1610     1.2850     1.2780 H     1 <1>   0.0800 
 29 H       -4.7250     2.2300    -0.0660 H     1 <1>   0.0800 
 30 H        0.1880     2.2190    -1.1940 H     1 <1>   0.1500 
 31 H       -4.1830    -0.8090     0.9270 H     1 <1>   0.0800 
 32 H       -6.3510     0.6460     1.1050 H     1 <1>   0.0800 
 33 H       -6.2810     0.8860    -0.6140 H     1 <1>   0.0800 
 34 H       -2.6450     5.1330     1.4030 H     1 <1>   0.1500 
 35 H       -4.0990    -2.9180     1.3970 H     1 <1>   0.4500 
 36 H        1.9140     4.0160    -1.4110 H     1 <1>   0.1500 
 37 H       -3.7150    -3.4510    -1.4380 H     1 <1>   0.0800 
 38 H       -3.3010    -4.6030    -0.1630 H     1 <1>   0.0800 
 39 H       -1.7000    -2.1830    -0.1810 H     1 <1>   0.0800 
 40 H       -1.7520    -3.2610     1.1960 H     1 <1>   0.0800 
 41 H       -2.0800    -1.5520     1.4000 H     1 <1>   0.0800 
 42 H       -7.1530    -3.1820     0.0800 H     1 <1>   0.0800 
 43 H       -6.4660    -2.8210    -1.4600 H     1 <1>   0.0800 
 44 H       -8.1230    -1.6300    -0.8050 H     1 <1>   0.0800 
 45 H       -7.9470    -0.0230    -0.4100 H     1 <1>   0.0800 
 46 H       -0.9940     6.9710     1.2370 H     1 <1>   0.1500 
 47 H        2.6250     6.3210    -0.9030 H     1 <1>   0.1500 
 48 H       -5.6650    -4.8240    -0.8480 H     1 <1>   0.0800 
 49 H       -5.4830    -4.4070     0.8170 H     1 <1>   0.0800 
 50 H       -9.0700    -1.0780     1.1730 H     1 <1>   0.4000 
 51 H        1.1770     7.7890     0.4130 H     1 <1>   0.1500 
@<TRIPOS>BOND
  1   1   2  2   
  2   2   3  am  
  3   2   4  1   
  4   3   5  1   
  5   3   6  1   
  6   4   7  ar  
  7   4   8  ar  
  8   5   9  1   
  9   5  26  1   
 10   5  27  1   
 11   6  10  1   
 12   6  28  1   
 13   6  29  1   
 14   7  11  ar  
 15   8  12  ar  
 16   8  30  1   
 17   9  13  1   
 18   9  14  1   
 19   9  31  1   
 20  10  14  1   
 21  10  32  1   
 22  10  33  1   
 23  11  15  ar  
 24  11  34  1   
 25  12  15  ar  
 26  12  16  ar  
 27  13  17  1   
 28  13  18  1   
 29  13  35  1   
 30  14  19  1   
 31  14  20  1   
 32  15  21  ar  
 33  16  22  ar  
 34  16  36  1   
 35  17  23  1   
 36  17  37  1   
 37  17  38  1   
 38  18  39  1   
 39  18  40  1   
 40  18  41  1   
 41  19  23  1   
 42  19  42  1   
 43  19  43  1   
 44  20  24  1   
 45  20  44  1   
 46  20  45  1   
 47  21  25  ar  
 48  21  46  1   
 49  22  25  ar  
 50  22  47  1   
 51  23  48  1   
 52  23  49  1   
 53  24  50  1   
 54  25  51  1   
@<TRIPOS>SUBSTRUCTURE
  1 ****   3 GROUP 4 **** **** 0

# MOE 2024.06 (io_trps.svl 2023.06)
