@<TRIPOS>MOLECULE
NONAME
52 54 1 0 0 
SMALL
USER_CHARGES


@<TRIPOS>ATOM
  1 O       -0.7670     2.4050     3.2670 O.2   1 <1>  -0.5700 
  2 C       -0.6980     3.3160     2.4830 C.2   1 <1>   0.5690 
  3 N       -1.7600     3.6540     1.7210 N.am  1 <1>  -0.7300 
  4 C        0.6100     4.0880     2.3100 C.3   1 <1>   0.1810 
  5 C       -1.7450     4.7410     0.7090 C.3   1 <1>   0.3640 
  6 O        0.4020     5.3720     1.7670 O.3   1 <1>  -0.5600 
  7 C       -2.2300     4.1480    -0.6100 C.ar  1 <1>  -0.1440 
  8 C       -0.3430     5.4000     0.5530 C.3   1 <1>   0.2610 
  9 C       -1.6890     2.9690    -1.1070 C.ar  1 <1>   0.1600 
 10 C       -3.2180     4.7770    -1.3440 C.ar  1 <1>  -0.1500 
 11 C       -0.4660     6.8470     0.0500 C.2   1 <1>   0.5690 
 12 N       -2.0380     2.3890    -2.2430 N.ar  1 <1>  -0.6200 
 13 C       -3.5990     4.1840    -2.5290 C.ar  1 <1>  -0.1500 
 14 O       -1.3560     7.1570    -0.7060 O.2   1 <1>  -0.5700 
 15 N        0.4490     7.7600     0.4570 N.am  1 <1>  -0.7300 
 16 C       -2.9860     3.0090    -2.9270 C.ar  1 <1>   0.1600 
 17 C        0.5900     9.1320    -0.0480 C.3   1 <1>   0.3210 
 18 C        2.0610     9.3670    -0.3240 C.2   1 <1>  -0.1810 
 19 C        2.7320     8.9940    -1.4830 C.2   1 <1>   0.1080 
 20 C        3.0050     9.9510     0.4500 C.2   1 <1>  -0.3320 
 21 N        3.9830     9.3160    -1.4480 N.2   1 <1>  -0.7070 
 22 C        2.1220     8.2960    -2.6790 C.3   1 <1>  -0.0590 
 23 N        4.1650     9.9140    -0.2520 N.pl3 1 <1>   0.3140 
 24 C        2.8610    10.5490     1.8420 C.3   1 <1>  -0.0600 
 25 C        5.4980    10.4480     0.1680 C.3   1 <1>   0.1760 
 26 C        5.9580    11.5640    -0.7810 C.3   1 <1>  -0.2400 
 27 C        6.5400     9.3220     0.2300 C.3   1 <1>  -0.2400 
 28 H       -2.6280     3.1250     1.8330 H     1 <1>   0.3700 
 29 H        1.2710     3.5430     1.6630 H     1 <1>   0.0800 
 30 H        1.0800     4.2090     3.2690 H     1 <1>   0.0800 
 31 H       -2.4410     5.4970     1.0310 H     1 <1>   0.0800 
 32 H        0.2240     4.8550    -0.1790 H     1 <1>   0.0800 
 33 H       -0.9240     2.4670    -0.5390 H     1 <1>   0.1500 
 34 H       -3.6710     5.6990    -1.0180 H     1 <1>   0.1500 
 35 H       -4.3610     4.6290    -3.1420 H     1 <1>   0.1500 
 36 H        1.1950     7.4600     1.0920 H     1 <1>   0.3700 
 37 H       -3.2910     2.5560    -3.8550 H     1 <1>   0.1500 
 38 H        0.0150     9.2660    -0.9480 H     1 <1>   0.0800 
 39 H        0.2320     9.8250     0.6920 H     1 <1>   0.0800 
 40 H        1.3830     7.5840    -2.3630 H     1 <1>   0.0800 
 41 H        2.8900     7.7790    -3.2250 H     1 <1>   0.0800 
 42 H        1.6660     9.0220    -3.3240 H     1 <1>   0.0800 
 43 H        1.8550    10.4410     2.2040 H     1 <1>   0.0800 
 44 H        3.1030    11.5970     1.8210 H     1 <1>   0.0800 
 45 H        3.5200    10.0490     2.5300 H     1 <1>   0.0800 
 46 H        5.3940    10.8640     1.1520 H     1 <1>   0.0800 
 47 H        6.0850    11.1760    -1.7760 H     1 <1>   0.0800 
 48 H        6.8940    11.9750    -0.4480 H     1 <1>   0.0800 
 49 H        5.2250    12.3510    -0.8040 H     1 <1>   0.0800 
 50 H        6.6790     8.8890    -0.7460 H     1 <1>   0.0800 
 51 H        6.2140     8.5550     0.9090 H     1 <1>   0.0800 
 52 H        7.4840     9.7060     0.5730 H     1 <1>   0.0800 
@<TRIPOS>BOND
  1   1   2  2   
  2   2   3  am  
  3   2   4  1   
  4   3   5  1   
  5   3  28  1   
  6   4   6  1   
  7   4  29  1   
  8   4  30  1   
  9   5   7  1   
 10   5   8  1   
 11   5  31  1   
 12   6   8  1   
 13   7   9  ar  
 14   7  10  ar  
 15   8  11  1   
 16   8  32  1   
 17   9  12  ar  
 18   9  33  1   
 19  10  13  ar  
 20  10  34  1   
 21  11  14  2   
 22  11  15  am  
 23  12  16  ar  
 24  13  16  ar  
 25  13  35  1   
 26  15  17  1   
 27  15  36  1   
 28  16  37  1   
 29  17  18  1   
 30  17  38  1   
 31  17  39  1   
 32  18  19  1   
 33  18  20  2   
 34  19  21  2   
 35  19  22  1   
 36  20  23  1   
 37  20  24  1   
 38  21  23  1   
 39  22  40  1   
 40  22  41  1   
 41  22  42  1   
 42  23  25  1   
 43  24  43  1   
 44  24  44  1   
 45  24  45  1   
 46  25  26  1   
 47  25  27  1   
 48  25  46  1   
 49  26  47  1   
 50  26  48  1   
 51  26  49  1   
 52  27  50  1   
 53  27  51  1   
 54  27  52  1   
@<TRIPOS>SUBSTRUCTURE
  1 ****  11 GROUP 4 **** **** 0

# MOE 2024.06 (io_trps.svl 2023.06)
