@<TRIPOS>MOLECULE
NONAME
50 52 1 0 0 
SMALL
USER_CHARGES


@<TRIPOS>ATOM
  1 O       -1.5560     2.1820    -2.1070 O.2   1 <1>  -0.5700 
  2 C       -1.7600     1.4920    -1.1350 C.2   1 <1>   0.6300 
  3 N       -2.7220     0.5130    -1.1710 N.am  1 <1>  -0.6600 
  4 C       -0.9400     1.7670     0.1320 C.3   1 <1>  -0.1000 
  5 C       -2.8000    -0.6390    -0.2030 C.3   1 <1>   0.3640 
  6 C       -3.9350     0.7710    -2.0100 C.3   1 <1>   0.1400 
  7 C       -1.5490     2.2770     1.4260 C.3   1 <1>  -0.1900 
  8 C       -0.6310     3.1600     0.6380 C.3   1 <1>  -0.1900 
  9 C       -1.4190    -1.2380     0.0760 C.ar  1 <1>  -0.1440 
 10 C       -3.7260    -1.7840    -0.7060 C.3   1 <1>   0.2000 
 11 C       -4.7120    -0.4990    -2.3710 C.3   1 <1>   0.1200 
 12 C       -1.0660     1.6800     2.7570 C.3   1 <1>  -0.1450 
 13 C       -3.0510     2.6040     1.5080 C.3   1 <1>  -0.1450 
 14 C        0.8060     3.4300     1.1130 C.3   1 <1>  -0.1450 
 15 C       -1.1720     4.4080    -0.0820 C.3   1 <1>  -0.1450 
 16 C       -0.5530    -1.5480    -0.9640 C.ar  1 <1>  -0.1500 
 17 C       -1.0230    -1.4980     1.3820 C.ar  1 <1>  -0.1500 
 18 O       -4.9180    -1.2710    -1.2300 O.3   1 <1>  -0.5600 
 19 C       -4.1020    -2.7890     0.3950 C.3   1 <1>   0.1200 
 20 C        0.6860    -2.1060    -0.7030 C.ar  1 <1>  -0.1500 
 21 C        0.2150    -2.0560     1.6430 C.ar  1 <1>  -0.1500 
 22 O       -3.0560    -3.6740     0.6470 O.3   1 <1>  -0.6800 
 23 C        1.0700    -2.3610     0.6010 C.ar  1 <1>  -0.1500 
 24 H       -0.1150     1.0810     0.1870 H     1 <1>   0.1000 
 25 H       -3.2100    -0.2630     0.7160 H     1 <1>   0.0800 
 26 H       -4.5900     1.4320    -1.4710 H     1 <1>   0.0800 
 27 H       -3.6520     1.2700    -2.9220 H     1 <1>   0.0800 
 28 H       -3.2390    -2.3270    -1.4980 H     1 <1>   0.0800 
 29 H       -4.1780    -1.0810    -3.1020 H     1 <1>   0.0800 
 30 H       -5.6750    -0.2410    -2.7750 H     1 <1>   0.0800 
 31 H       -1.7410     0.9150     3.0940 H     1 <1>   0.0800 
 32 H       -1.0260     2.4500     3.5070 H     1 <1>   0.0800 
 33 H       -0.0920     1.2380     2.6640 H     1 <1>   0.0800 
 34 H       -3.6040     1.7520     1.8560 H     1 <1>   0.0800 
 35 H       -3.4570     2.8840     0.5550 H     1 <1>   0.0800 
 36 H       -3.2070     3.4150     2.1960 H     1 <1>   0.0800 
 37 H        1.4060     3.7760     0.2900 H     1 <1>   0.0800 
 38 H        1.2760     2.5460     1.5040 H     1 <1>   0.0800 
 39 H        0.8050     4.1850     1.8790 H     1 <1>   0.0800 
 40 H       -0.5040     4.6900    -0.8770 H     1 <1>   0.0800 
 41 H       -1.2500     5.2280     0.6090 H     1 <1>   0.0800 
 42 H       -2.1350     4.2440    -0.5240 H     1 <1>   0.0800 
 43 H       -0.8380    -1.3500    -1.9830 H     1 <1>   0.1500 
 44 H       -1.6770    -1.2700     2.2060 H     1 <1>   0.1500 
 45 H       -4.9450    -3.3790     0.0800 H     1 <1>   0.0800 
 46 H       -4.3460    -2.2820     1.3120 H     1 <1>   0.0800 
 47 H        1.3510    -2.3400    -1.5170 H     1 <1>   0.1500 
 48 H        0.5150    -2.2540     2.6580 H     1 <1>   0.1500 
 49 H       -2.1980    -3.2020     0.7420 H     1 <1>   0.4000 
 50 H        2.0340    -2.7950     0.8020 H     1 <1>   0.1500 
@<TRIPOS>BOND
  1   1   2  2   
  2   2   3  am  
  3   2   4  1   
  4   3   5  1   
  5   3   6  1   
  6   4   7  1   
  7   4   8  1   
  8   4  24  1   
  9   5   9  1   
 10   5  10  1   
 11   5  25  1   
 12   6  11  1   
 13   6  26  1   
 14   6  27  1   
 15   7   8  1   
 16   7  12  1   
 17   7  13  1   
 18   8  14  1   
 19   8  15  1   
 20   9  16  ar  
 21   9  17  ar  
 22  10  18  1   
 23  10  19  1   
 24  10  28  1   
 25  11  18  1   
 26  11  29  1   
 27  11  30  1   
 28  12  31  1   
 29  12  32  1   
 30  12  33  1   
 31  13  34  1   
 32  13  35  1   
 33  13  36  1   
 34  14  37  1   
 35  14  38  1   
 36  14  39  1   
 37  15  40  1   
 38  15  41  1   
 39  15  42  1   
 40  16  20  ar  
 41  16  43  1   
 42  17  21  ar  
 43  17  44  1   
 44  19  22  1   
 45  19  45  1   
 46  19  46  1   
 47  20  23  ar  
 48  20  47  1   
 49  21  23  ar  
 50  21  48  1   
 51  22  49  1   
 52  23  50  1   
@<TRIPOS>SUBSTRUCTURE
  1 ****   5 GROUP 4 **** **** 0

# MOE 2024.06 (io_trps.svl 2023.06)
