@<TRIPOS>MOLECULE
NONAME
51 54 1 0 0 
SMALL
USER_CHARGES


@<TRIPOS>ATOM
  1 O       -1.1230    -1.4150    -0.3530 O.2   1 <1>  -0.5700 
  2 C       -0.1860    -2.1460    -0.1450 C.2   1 <1>   0.5690 
  3 N       -0.3170    -3.4530     0.2400 N.am  1 <1>  -0.6600 
  4 C        1.2190    -1.6050    -0.3110 C.3   1 <1>  -0.0990 
  5 C        0.8800    -4.2910     0.4910 C.3   1 <1>   0.1400 
  6 C       -1.6430    -4.0860     0.4770 C.3   1 <1>   0.0600 
  7 C        2.0930    -2.6070    -1.0890 C.3   1 <1>  -0.0800 
  8 C        1.9170    -4.0740    -0.6300 C.3   1 <1>  -0.0800 
  9 C        3.5950    -2.3000    -1.0080 C.3   1 <1>  -0.1600 
 10 C        3.3220    -4.5750    -0.2650 C.3   1 <1>  -0.1600 
 11 C        4.2590    -3.6710    -1.0660 C.3   1 <1>   0.4230 
 12 N        5.6770    -3.6760    -0.5950 N.4   1 <1>  -0.9590 
 13 C        5.9070    -3.2080     0.8040 C.3   1 <1>   0.4810 
 14 C        6.3190    -5.0050    -0.8390 C.3   1 <1>   0.2630 
 15 C        6.6300    -1.8690     0.7190 C.2   1 <1>  -0.0380 
 16 N        7.8720    -1.8150     0.1150 N.pl3 1 <1>  -0.6000 
 17 C        6.0800    -0.7280     1.2040 C.2   1 <1>  -0.1360 
 18 C        8.5690    -0.6170    -0.0310 C.ar  1 <1>   0.1000 
 19 C        6.7290     0.5290     1.0970 C.2   1 <1>   0.4690 
 20 C        8.0150     0.5790     0.4550 C.ar  1 <1>   0.0860 
 21 C        9.8170    -0.6000    -0.6530 C.ar  1 <1>  -0.1500 
 22 O        6.1780     1.5270     1.5370 O.2   1 <1>  -0.5700 
 23 C        8.7400     1.7640     0.2910 C.ar  1 <1>  -0.1500 
 24 C       10.5120     0.5800    -0.8010 C.ar  1 <1>  -0.1500 
 25 C        9.9710     1.7680    -0.3280 C.ar  1 <1>  -0.1500 
 26 H        1.1800    -0.6640    -0.8310 H     1 <1>   0.0800 
 27 H        1.6150    -1.4280     0.6720 H     1 <1>   0.0800 
 28 H        1.2890    -4.0120     1.4460 H     1 <1>   0.0800 
 29 H        0.6000    -5.3310     0.5330 H     1 <1>   0.0800 
 30 H       -1.7710    -4.9240    -0.1850 H     1 <1>   0.0800 
 31 H       -2.4370    -3.3810     0.2930 H     1 <1>   0.0800 
 32 H       -1.7120    -4.4210     1.4970 H     1 <1>   0.0800 
 33 H        1.7880    -2.5590    -2.1230 H     1 <1>   0.0800 
 34 H        1.5750    -4.6370    -1.4850 H     1 <1>   0.0800 
 35 H        3.7990    -1.8060    -0.0780 H     1 <1>   0.0800 
 36 H        3.9050    -1.6710    -1.8250 H     1 <1>   0.0800 
 37 H        3.4380    -5.6100    -0.5320 H     1 <1>   0.0800 
 38 H        3.4800    -4.4530     0.7910 H     1 <1>   0.0800 
 39 H        4.2300    -3.9990    -2.0940 H     1 <1>   0.0800 
 40 H        6.1670    -2.9690    -1.1670 H     1 <1>   0.4500 
 41 H        4.9720    -3.0860     1.3260 H     1 <1>   0.0800 
 42 H        6.5150    -3.9110     1.3490 H     1 <1>   0.0800 
 43 H        5.8450    -5.7670    -0.2410 H     1 <1>   0.0800 
 44 H        7.3660    -4.9710    -0.5870 H     1 <1>   0.0800 
 45 H        6.2270    -5.2790    -1.8790 H     1 <1>   0.0800 
 46 H        8.3940    -2.6600    -0.1450 H     1 <1>   0.4000 
 47 H        5.1230    -0.7020     1.6930 H     1 <1>   0.1500 
 48 H       10.2460    -1.5130    -1.0220 H     1 <1>   0.1500 
 49 H        8.3210     2.6850     0.6610 H     1 <1>   0.1500 
 50 H       11.4760     0.5910    -1.2830 H     1 <1>   0.1500 
 51 H       10.5170     2.6890    -0.4460 H     1 <1>   0.1500 
@<TRIPOS>BOND
  1   1   2  2   
  2   2   3  am  
  3   2   4  1   
  4   3   5  1   
  5   3   6  1   
  6   4   7  1   
  7   4  26  1   
  8   4  27  1   
  9   5   8  1   
 10   5  28  1   
 11   5  29  1   
 12   6  30  1   
 13   6  31  1   
 14   6  32  1   
 15   7   8  1   
 16   7   9  1   
 17   7  33  1   
 18   8  10  1   
 19   8  34  1   
 20   9  11  1   
 21   9  35  1   
 22   9  36  1   
 23  10  11  1   
 24  10  37  1   
 25  10  38  1   
 26  11  12  1   
 27  11  39  1   
 28  12  13  1   
 29  12  14  1   
 30  12  40  1   
 31  13  15  1   
 32  13  41  1   
 33  13  42  1   
 34  14  43  1   
 35  14  44  1   
 36  14  45  1   
 37  15  16  1   
 38  15  17  2   
 39  16  18  1   
 40  16  46  1   
 41  17  19  1   
 42  17  47  1   
 43  18  20  ar  
 44  18  21  ar  
 45  19  20  1   
 46  19  22  2   
 47  20  23  ar  
 48  21  24  ar  
 49  21  48  1   
 50  23  25  ar  
 51  23  49  1   
 52  24  25  ar  
 53  24  50  1   
 54  25  51  1   
@<TRIPOS>SUBSTRUCTURE
  1 ****   9 GROUP 4 **** **** 0

# MOE 2024.06 (io_trps.svl 2023.06)
