@<TRIPOS>MOLECULE
NONAME
47 50 1 0 0 
SMALL
USER_CHARGES


@<TRIPOS>ATOM
  1 O        1.2220     0.3790     1.6010 O.3   1 <1>  -0.6800 
  2 C        1.4230    -0.2220     0.3600 C.3   1 <1>   0.2000 
  3 C        2.1070    -1.5680     0.5890 C.3   1 <1>  -0.0800 
  4 C        2.4850     0.5770    -0.3990 C.3   1 <1>   0.3430 
  5 C        3.5720    -1.1790     0.8420 C.3   1 <1>   0.3430 
  6 C        1.9490    -2.4950    -0.6350 C.3   1 <1>  -0.0160 
  7 N        3.7910     0.1350     0.1710 N.4   1 <1>  -0.9590 
  8 C        2.7240    -3.7900    -0.4590 C.ar  1 <1>   0.1670 
  9 C        4.3330     1.1680     1.0900 C.3   1 <1>   0.5230 
 10 N        3.9740    -3.7770    -0.8060 N.ar  1 <1>  -0.6200 
 11 C        2.0720    -4.9160     0.0680 C.ar  1 <1>  -0.1500 
 12 C        4.9050     2.3000     0.2460 C.2   1 <1>   0.0060 
 13 C        4.6830    -4.9270    -0.6580 C.ar  1 <1>   0.3100 
 14 C        2.7610    -6.0770     0.2380 C.ar  1 <1>  -0.1500 
 15 N        5.1540     3.5360     0.7380 N.pl3 1 <1>   0.0330 
 16 N        5.2030     2.1760    -1.0120 N.2   1 <1>  -0.5650 
 17 C        4.1170    -6.1070    -0.1280 C.ar  1 <1>   0.0000 
 18 C        6.0340    -4.9470    -1.0400 C.ar  1 <1>  -0.1500 
 19 C        5.6460     4.2350    -0.3000 C.2   1 <1>  -0.3320 
 20 C        5.6700     3.3920    -1.3550 C.2   1 <1>   0.0770 
 21 C        4.9250    -7.2530     0.0090 C.ar  1 <1>  -0.1500 
 22 C        6.8030    -6.0720    -0.9010 C.ar  1 <1>  -0.1500 
 23 C        6.0700     5.6900    -0.2110 C.3   1 <1>  -0.0600 
 24 C        6.2410    -7.2370    -0.3680 C.ar  1 <1>  -0.1500 
 25 H        0.4270     0.0130     2.0450 H     1 <1>   0.4000 
 26 H        0.4830    -0.2760    -0.1630 H     1 <1>   0.0800 
 27 H        1.7030    -2.0740     1.4490 H     1 <1>   0.0800 
 28 H        2.3310     1.6390    -0.2990 H     1 <1>   0.0800 
 29 H        2.4490     0.3170    -1.4440 H     1 <1>   0.0800 
 30 H        4.2620    -1.9200     0.4750 H     1 <1>   0.0800 
 31 H        3.7220    -1.0710     1.9040 H     1 <1>   0.0800 
 32 H        2.3040    -2.0120    -1.5290 H     1 <1>   0.0800 
 33 H        0.9090    -2.7250    -0.7870 H     1 <1>   0.0800 
 34 H        4.4810     0.0900    -0.6000 H     1 <1>   0.4500 
 35 H        3.5530     1.5320     1.7380 H     1 <1>   0.0800 
 36 H        5.1230     0.7480     1.6890 H     1 <1>   0.0800 
 37 H        1.0310    -4.8550     0.3320 H     1 <1>   0.1500 
 38 H        2.2990    -6.9630     0.6380 H     1 <1>   0.1500 
 39 H        5.0110     3.8910     1.6900 H     1 <1>   0.2700 
 40 H        6.4500    -4.0460    -1.4510 H     1 <1>   0.1500 
 41 H        6.0060     3.6020    -2.3590 H     1 <1>   0.1500 
 42 H        4.4880    -8.1470     0.4160 H     1 <1>   0.1500 
 43 H        7.8380    -6.0760    -1.1970 H     1 <1>   0.1500 
 44 H        6.4290     6.0310    -1.1660 H     1 <1>   0.0800 
 45 H        6.8600     5.8070     0.5100 H     1 <1>   0.0800 
 46 H        5.2370     6.3070     0.0790 H     1 <1>   0.0800 
 47 H        6.8560    -8.1140    -0.2630 H     1 <1>   0.1500 
@<TRIPOS>BOND
  1   1   2  1   
  2   1  25  1   
  3   2   3  1   
  4   2   4  1   
  5   2  26  1   
  6   3   5  1   
  7   3   6  1   
  8   3  27  1   
  9   4   7  1   
 10   4  28  1   
 11   4  29  1   
 12   5   7  1   
 13   5  30  1   
 14   5  31  1   
 15   6   8  1   
 16   6  32  1   
 17   6  33  1   
 18   7   9  1   
 19   7  34  1   
 20   8  10  ar  
 21   8  11  ar  
 22   9  12  1   
 23   9  35  1   
 24   9  36  1   
 25  10  13  ar  
 26  11  14  ar  
 27  11  37  1   
 28  12  15  1   
 29  12  16  2   
 30  13  17  ar  
 31  13  18  ar  
 32  14  17  ar  
 33  14  38  1   
 34  15  19  1   
 35  15  39  1   
 36  16  20  1   
 37  17  21  ar  
 38  18  22  ar  
 39  18  40  1   
 40  19  20  2   
 41  19  23  1   
 42  20  41  1   
 43  21  24  ar  
 44  21  42  1   
 45  22  24  ar  
 46  22  43  1   
 47  23  44  1   
 48  23  45  1   
 49  23  46  1   
 50  24  47  1   
@<TRIPOS>SUBSTRUCTURE
  1 ****   5 GROUP 4 **** **** 0

# MOE 2024.06 (io_trps.svl 2023.06)
