@<TRIPOS>MOLECULE
NONAME
37 38 1 0 0 
SMALL
USER_CHARGES


@<TRIPOS>ATOM
  1 CL      -1.2150    -1.9760     3.0540 Cl    1 <1>  -0.1770 
  2 C       -1.0220    -3.1280     1.7430 C.ar  1 <1>   0.1770 
  3 C       -1.8750    -3.0890     0.6420 C.ar  1 <1>   0.0820 
  4 C       -0.0090    -4.0650     1.8070 C.ar  1 <1>   0.1770 
  5 O       -2.8570    -2.1590     0.5970 O.3   1 <1>  -0.3630 
  6 C       -1.7340    -4.0140    -0.3960 C.ar  1 <1>  -0.0090 
  7 CL       1.0930    -4.1100     3.1650 Cl    1 <1>  -0.1770 
  8 C        0.1620    -4.9760     0.7830 C.ar  1 <1>  -0.1500 
  9 C       -2.5000    -0.8660     0.1580 C.3   1 <1>   0.0400 
 10 S       -2.8710    -4.0710    -1.8170 S.o2  1 <1>   1.4470 
 11 C       -0.6970    -4.9420    -0.3030 C.ar  1 <1>  -0.1500 
 12 O       -2.2390    -4.8540    -2.8600 O.2   1 <1>  -0.6500 
 13 O       -3.3290    -2.7440    -2.1780 O.2   1 <1>  -0.6500 
 14 N       -4.2170    -4.9630    -1.2950 N.am  1 <1>  -0.8490 
 15 C       -3.8900    -6.3920    -1.0850 C.3   1 <1>   0.1960 
 16 C       -4.9190    -4.3300    -0.1740 C.3   1 <1>   0.1960 
 17 C       -4.7140    -7.0770     0.0140 C.3   1 <1>  -0.1860 
 18 C       -6.2440    -5.0440     0.1190 C.3   1 <1>  -0.1600 
 19 C       -4.0880    -6.8900     1.3870 C.2   1 <1>   0.9060 
 20 C       -6.1530    -6.5630    -0.0680 C.3   1 <1>   0.2000 
 21 O       -2.9390    -6.4430     1.4840 O.co2 1 <1>  -0.9000 
 22 O       -4.7550    -7.1910     2.3840 O.co2 1 <1>  -0.9000 
 23 O       -6.9070    -7.1810     0.9050 O.3   1 <1>  -0.6800 
 24 H        0.9460    -5.7090     0.8440 H     1 <1>   0.1500 
 25 H       -3.3970    -0.2770     0.0960 H     1 <1>   0.0800 
 26 H       -2.0450    -0.9380    -0.8140 H     1 <1>   0.0800 
 27 H       -1.8180    -0.4270     0.8630 H     1 <1>   0.0800 
 28 H       -0.5670    -5.6680    -1.0870 H     1 <1>   0.1500 
 29 H       -4.0760    -6.8990    -2.0160 H     1 <1>   0.0800 
 30 H       -2.8420    -6.5240    -0.8750 H     1 <1>   0.0800 
 31 H       -4.3000    -4.3590     0.7070 H     1 <1>   0.0800 
 32 H       -5.1210    -3.2960    -0.4010 H     1 <1>   0.0800 
 33 H       -4.7090    -8.1320    -0.1770 H     1 <1>   0.0800 
 34 H       -6.9990    -4.6600    -0.5410 H     1 <1>   0.0800 
 35 H       -6.5300    -4.8070     1.1280 H     1 <1>   0.0800 
 36 H       -6.5750    -6.8290    -1.0220 H     1 <1>   0.0800 
 37 H       -6.3050    -7.2580     1.7060 H     1 <1>   0.4000 
@<TRIPOS>BOND
  1   1   2  1   
  2   2   3  ar  
  3   2   4  ar  
  4   3   5  1   
  5   3   6  ar  
  6   4   7  1   
  7   4   8  ar  
  8   5   9  1   
  9   6  10  1   
 10   6  11  ar  
 11   8  11  ar  
 12   8  24  1   
 13   9  25  1   
 14   9  26  1   
 15   9  27  1   
 16  10  12  2   
 17  10  13  2   
 18  10  14  am  
 19  11  28  1   
 20  14  15  1   
 21  14  16  1   
 22  15  17  1   
 23  15  29  1   
 24  15  30  1   
 25  16  18  1   
 26  16  31  1   
 27  16  32  1   
 28  17  19  1   
 29  17  20  1   
 30  17  33  1   
 31  18  20  1   
 32  18  34  1   
 33  18  35  1   
 34  19  21  ar  
 35  19  22  ar  
 36  20  23  1   
 37  20  36  1   
 38  23  37  1   
@<TRIPOS>SUBSTRUCTURE
  1 ****   6 GROUP 4 **** **** 0

# MOE 2024.06 (io_trps.svl 2023.06)
