@<TRIPOS>MOLECULE
NONAME
52 55 1 0 0 
SMALL
USER_CHARGES


@<TRIPOS>ATOM
  1 S        1.4180    -0.8990     1.9470 S.o2  1 <1>   1.4470 
  2 O        2.3010    -2.0430     1.8880 O.2   1 <1>  -0.6500 
  3 O        1.2330    -0.1830     3.1850 O.2   1 <1>  -0.6500 
  4 N       -0.1200    -1.4420     1.5590 N.am  1 <1>  -0.9140 
  5 C        1.7680     0.2570     0.5960 C.ar  1 <1>  -0.0090 
  6 C       -0.1630    -2.6680     0.7730 C.3   1 <1>   0.2760 
  7 C        0.9980     1.4030     0.4360 C.ar  1 <1>  -0.1500 
  8 C        2.7900     0.0190    -0.3150 C.ar  1 <1>  -0.1500 
  9 C       -1.5420    -2.8350     0.1490 C.3   1 <1>  -0.0800 
 10 C       -0.1440    -3.8810     1.7030 C.3   1 <1>   0.1200 
 11 C        1.1990     2.2940    -0.6120 C.ar  1 <1>   0.1170 
 12 C        3.0500     0.9130    -1.3380 C.ar  1 <1>  -0.1500 
 13 C       -2.3570    -3.4800     1.2780 C.3   1 <1>   0.1200 
 14 C       -2.1730    -1.5590    -0.4370 C.3   1 <1>  -0.0160 
 15 O       -1.4360    -3.9450     2.2220 O.3   1 <1>  -0.5600 
 16 N        0.3680     3.4250    -0.8300 N.am  1 <1>  -0.4770 
 17 C        2.2790     2.0510    -1.4670 C.ar  1 <1>   0.0820 
 18 C       -3.5160    -1.8630    -1.0810 C.ar  1 <1>  -0.1430 
 19 C       -0.9910     3.5210    -0.6140 C.2   1 <1>   0.5690 
 20 C        0.9640     4.5510    -1.6180 C.3   1 <1>   0.1400 
 21 O        2.6150     2.9550    -2.4160 O.3   1 <1>  -0.3630 
 22 C       -4.7090    -1.6030    -0.4380 C.ar  1 <1>  -0.1500 
 23 C       -3.6090    -2.4180    -2.3410 C.ar  1 <1>  -0.1500 
 24 O       -1.5640     4.5840    -0.6470 O.2   1 <1>  -0.5700 
 25 C       -1.8510     2.2970    -0.3840 C.3   1 <1>  -0.1790 
 26 C        2.4200     4.3050    -2.0430 C.3   1 <1>   0.1200 
 27 C       -5.9050    -1.9090    -1.0660 C.ar  1 <1>   0.1600 
 28 C       -4.8560    -2.6860    -2.8790 C.ar  1 <1>   0.1600 
 29 N       -6.0060    -2.4470    -2.2700 N.ar  1 <1>  -0.6200 
 30 H       -0.5360    -1.6840     2.4610 H     1 <1>   0.4200 
 31 H        0.6210    -2.6920     0.0320 H     1 <1>   0.0800 
 32 H        0.2280     1.5990     1.1590 H     1 <1>   0.1500 
 33 H        3.3980    -0.8660    -0.2190 H     1 <1>   0.1500 
 34 H       -1.4610    -3.5620    -0.6400 H     1 <1>   0.0800 
 35 H        0.5660    -3.8000     2.5070 H     1 <1>   0.0800 
 36 H        0.0380    -4.7860     1.1490 H     1 <1>   0.0800 
 37 H        3.8570     0.7400    -2.0290 H     1 <1>   0.1500 
 38 H       -2.9460    -4.3080     0.9230 H     1 <1>   0.0800 
 39 H       -2.9930    -2.7650     1.7710 H     1 <1>   0.0800 
 40 H       -1.5120    -1.1390    -1.1750 H     1 <1>   0.0800 
 41 H       -2.3120    -0.8190     0.3320 H     1 <1>   0.0800 
 42 H        0.3710     4.7000    -2.5040 H     1 <1>   0.0800 
 43 H        0.9100     5.4560    -1.0380 H     1 <1>   0.0800 
 44 H       -4.7240    -1.1660     0.5440 H     1 <1>   0.1500 
 45 H       -2.7260    -2.6460    -2.9100 H     1 <1>   0.1500 
 46 H       -1.4410     1.4450    -0.8900 H     1 <1>   0.0800 
 47 H       -2.8350     2.4790    -0.7750 H     1 <1>   0.0800 
 48 H       -1.9350     2.1010     0.6680 H     1 <1>   0.0800 
 49 H        3.0860     4.5210    -1.2270 H     1 <1>   0.0800 
 50 H        2.6820     4.9270    -2.8800 H     1 <1>   0.0800 
 51 H       -6.8270    -1.7000    -0.5510 H     1 <1>   0.1500 
 52 H       -4.9130    -3.1210    -3.8630 H     1 <1>   0.1500 
@<TRIPOS>BOND
  1   1   2  2   
  2   1   3  2   
  3   1   4  am  
  4   1   5  1   
  5   4   6  1   
  6   4  30  1   
  7   5   7  ar  
  8   5   8  ar  
  9   6   9  1   
 10   6  10  1   
 11   6  31  1   
 12   7  11  ar  
 13   7  32  1   
 14   8  12  ar  
 15   8  33  1   
 16   9  13  1   
 17   9  14  1   
 18   9  34  1   
 19  10  15  1   
 20  10  35  1   
 21  10  36  1   
 22  11  16  1   
 23  11  17  ar  
 24  12  17  ar  
 25  12  37  1   
 26  13  15  1   
 27  13  38  1   
 28  13  39  1   
 29  14  18  1   
 30  14  40  1   
 31  14  41  1   
 32  16  19  am  
 33  16  20  1   
 34  17  21  1   
 35  18  22  ar  
 36  18  23  ar  
 37  19  24  2   
 38  19  25  1   
 39  20  26  1   
 40  20  42  1   
 41  20  43  1   
 42  21  26  1   
 43  22  27  ar  
 44  22  44  1   
 45  23  28  ar  
 46  23  45  1   
 47  25  46  1   
 48  25  47  1   
 49  25  48  1   
 50  26  49  1   
 51  26  50  1   
 52  27  29  ar  
 53  27  51  1   
 54  28  29  ar  
 55  28  52  1   
@<TRIPOS>SUBSTRUCTURE
  1 ****  14 GROUP 4 **** **** 0

# MOE 2024.06 (io_trps.svl 2023.06)
