@<TRIPOS>MOLECULE
NONAME
14 14 1 0 0 
SMALL
USER_CHARGES


@<TRIPOS>ATOM
  1 O       -0.1810     0.3580     0.4610 O.2   1 <1>  -0.5700 
  2 C       -0.8530     1.3020     0.1590 C.2   1 <1>   0.4480 
  3 C       -2.3130     1.2680    -0.2120 C.3   1 <1>   0.1810 
  4 C       -0.4020     2.7230     0.1330 C.3   1 <1>  -0.0990 
  5 O       -2.6880     2.5940    -0.4410 O.3   1 <1>  -0.5600 
  6 C       -1.7310     3.4840     0.1210 C.3   1 <1>   0.0940 
  7 C       -1.6230     4.8650    -0.5580 C.2   1 <1>   0.9060 
  8 O       -1.0900     4.9670    -1.6730 O.co2 1 <1>  -0.9000 
  9 O       -1.9990     5.8610     0.0760 O.co2 1 <1>  -0.9000 
 10 H       -2.9030     0.8780     0.5970 H     1 <1>   0.0800 
 11 H       -2.4760     0.7040    -1.1110 H     1 <1>   0.0800 
 12 H        0.1540     2.9110    -0.7680 H     1 <1>   0.0800 
 13 H        0.1940     2.9800     0.9880 H     1 <1>   0.0800 
 14 H       -2.0420     3.6590     1.1340 H     1 <1>   0.0800 
@<TRIPOS>BOND
  1   1   2  2   
  2   2   3  1   
  3   2   4  1   
  4   3   5  1   
  5   3  10  1   
  6   3  11  1   
  7   4   6  1   
  8   4  12  1   
  9   4  13  1   
 10   5   6  1   
 11   6   7  1   
 12   6  14  1   
 13   7   8  ar  
 14   7   9  ar  
@<TRIPOS>SUBSTRUCTURE
  1 ****   6 GROUP 4 **** **** 0

# MOE 2024.06 (io_trps.svl 2023.06)
