@<TRIPOS>MOLECULE
NONAME
52 54 1 0 0 
SMALL
USER_CHARGES


@<TRIPOS>ATOM
  1 F        2.1800    -1.4950    -2.5940 F     1 <1>  -0.1900 
  2 C        2.7020    -1.1770    -1.4380 C.ar  1 <1>   0.1900 
  3 C        1.9810    -1.4140    -0.2770 C.ar  1 <1>  -0.1440 
  4 C        3.9640    -0.6130    -1.4300 C.ar  1 <1>  -0.1500 
  5 C        2.5680    -1.0650     0.9290 C.ar  1 <1>  -0.1500 
  6 C        0.5930    -2.0370    -0.3190 C.3   1 <1>  -0.0960 
  7 C        4.5410    -0.2690    -0.2170 C.ar  1 <1>  -0.1430 
  8 C        3.8340    -0.4980     0.9560 C.ar  1 <1>  -0.1500 
  9 C        5.9320     0.3520    -0.1620 C.3   1 <1>   0.1270 
 10 C        6.9870    -0.5590     0.4780 C.ar  1 <1>  -0.1430 
 11 C        8.1110     0.0010     1.1030 C.ar  1 <1>   0.0860 
 12 C        6.8370    -1.9390     0.4420 C.ar  1 <1>  -0.1500 
 13 C        8.3710     1.4300     1.1250 C.2   1 <1>   0.5440 
 14 C        9.0250    -0.8570     1.7130 C.ar  1 <1>  -0.1500 
 15 C        7.7670    -2.7710     1.0390 C.ar  1 <1>  -0.1500 
 16 O        8.4040     2.0070     2.1940 O.2   1 <1>  -0.5700 
 17 N        8.6040     2.1200    -0.0510 N.am  1 <1>  -0.6600 
 18 C        8.8620    -2.2280     1.6820 C.ar  1 <1>  -0.1500 
 19 C        8.5960     3.6090    -0.1970 C.3   1 <1>   0.2200 
 20 C        9.3040     1.4310    -1.1830 C.3   1 <1>   0.1400 
 21 C       10.0400     4.1210    -0.0340 C.3   1 <1>  -0.1600 
 22 C        7.5800     4.3400     0.6920 C.3   1 <1>  -0.0990 
 23 C       10.4500     2.2890    -1.7540 C.3   1 <1>  -0.1600 
 24 C       11.0860     3.1860    -0.6780 C.3   1 <1>  -0.1600 
 25 C        7.4320     5.7780     0.2590 C.2   1 <1>   0.5690 
 26 O        7.0370     6.0360    -0.8470 O.2   1 <1>  -0.5700 
 27 N        7.7470     6.7670     1.1140 N.am  1 <1>  -0.8000 
 28 H        4.4760    -0.4530    -2.3610 H     1 <1>   0.1500 
 29 H        2.0460    -1.2320     1.8550 H     1 <1>   0.1500 
 30 H       -0.0690    -1.4150    -0.8940 H     1 <1>   0.0800 
 31 H        0.1890    -2.1460     0.6710 H     1 <1>   0.0800 
 32 H        0.6420    -3.0080    -0.7790 H     1 <1>   0.0800 
 33 H        4.2750    -0.2370     1.9040 H     1 <1>   0.1500 
 34 H        5.8500     1.2670     0.3980 H     1 <1>   0.0800 
 35 H        6.2540     0.6130    -1.1540 H     1 <1>   0.0800 
 36 H        5.9890    -2.3880    -0.0470 H     1 <1>   0.1500 
 37 H        9.8760    -0.4320     2.2160 H     1 <1>   0.1500 
 38 H        7.6340    -3.8390     1.0060 H     1 <1>   0.1500 
 39 H        9.5820    -2.8710     2.1580 H     1 <1>   0.1500 
 40 H        8.2960     3.8100    -1.2120 H     1 <1>   0.0800 
 41 H        8.5940     1.2050    -1.9610 H     1 <1>   0.0800 
 42 H        9.7220     0.5020    -0.8350 H     1 <1>   0.0800 
 43 H       10.2670     4.2340     1.0120 H     1 <1>   0.0800 
 44 H       10.1060     5.0940    -0.4870 H     1 <1>   0.0800 
 45 H        7.8860     4.3200     1.7190 H     1 <1>   0.0800 
 46 H        6.6210     3.8650     0.6040 H     1 <1>   0.0800 
 47 H       10.0690     2.9050    -2.5500 H     1 <1>   0.0800 
 48 H       11.1960     1.6430    -2.1830 H     1 <1>   0.0800 
 49 H       11.5020     2.5540     0.0890 H     1 <1>   0.0800 
 50 H       11.8890     3.7660    -1.0980 H     1 <1>   0.0800 
 51 H        7.6350     7.7370     0.8190 H     1 <1>   0.3700 
 52 H        8.0740     6.6090     2.0670 H     1 <1>   0.3700 
@<TRIPOS>BOND
  1   1   2  1   
  2   2   3  ar  
  3   2   4  ar  
  4   3   5  ar  
  5   3   6  1   
  6   4   7  ar  
  7   4  28  1   
  8   5   8  ar  
  9   5  29  1   
 10   6  30  1   
 11   6  31  1   
 12   6  32  1   
 13   7   8  ar  
 14   7   9  1   
 15   8  33  1   
 16   9  10  1   
 17   9  34  1   
 18   9  35  1   
 19  10  11  ar  
 20  10  12  ar  
 21  11  13  1   
 22  11  14  ar  
 23  12  15  ar  
 24  12  36  1   
 25  13  16  2   
 26  13  17  am  
 27  14  18  ar  
 28  14  37  1   
 29  15  18  ar  
 30  15  38  1   
 31  17  19  1   
 32  17  20  1   
 33  18  39  1   
 34  19  21  1   
 35  19  22  1   
 36  19  40  1   
 37  20  23  1   
 38  20  41  1   
 39  20  42  1   
 40  21  24  1   
 41  21  43  1   
 42  21  44  1   
 43  22  25  1   
 44  22  45  1   
 45  22  46  1   
 46  23  24  1   
 47  23  47  1   
 48  23  48  1   
 49  24  49  1   
 50  24  50  1   
 51  25  26  2   
 52  25  27  am  
 53  27  51  1   
 54  27  52  1   
@<TRIPOS>SUBSTRUCTURE
  1 ****   9 GROUP 4 **** **** 0

# MOE 2024.06 (io_trps.svl 2023.06)
