@<TRIPOS>MOLECULE
NONAME
43 44 1 0 0 
SMALL
USER_CHARGES


@<TRIPOS>ATOM
  1 CL      -0.0420     2.6700    -2.9180 Cl    1 <1>  -0.1770 
  2 C       -1.4800     2.6720    -1.9230 C.ar  1 <1>   0.1770 
  3 C       -1.3870     2.8340    -0.5440 C.ar  1 <1>  -0.1440 
  4 C       -2.6960     2.5170    -2.5600 C.ar  1 <1>  -0.1500 
  5 C       -2.5600     2.8570     0.2120 C.ar  1 <1>  -0.1440 
  6 C       -0.0140     2.9910     0.1000 C.3   1 <1>   0.2840 
  7 C       -3.8410     2.5330    -1.7930 C.ar  1 <1>   0.1770 
  8 C       -3.7850     2.7020    -0.4230 C.ar  1 <1>  -0.1500 
  9 C       -2.5430     3.0530     1.7230 C.3   1 <1>  -0.0960 
 10 N        0.3850     4.4070     0.0090 N.am  1 <1>  -0.7300 
 11 CL      -5.3910     2.3400    -2.5690 Cl    1 <1>  -0.1770 
 12 C        0.6350     5.2170     1.0670 C.2   1 <1>   0.5690 
 13 O        0.6000     4.8100     2.2030 O.2   1 <1>  -0.5700 
 14 C        0.9480     6.6900     0.8160 C.3   1 <1>  -0.0190 
 15 C       -0.2020     7.4020     0.0760 C.3   1 <1>  -0.1600 
 16 C        2.2970     6.8800     0.0800 C.3   1 <1>  -0.1600 
 17 C        0.0340     8.9220    -0.0380 C.3   1 <1>   0.2000 
 18 C        2.4120     8.2270    -0.6620 C.3   1 <1>  -0.1600 
 19 O       -0.5350     9.3600    -1.2480 O.3   1 <1>  -0.5600 
 20 C        1.5390     9.3040    -0.0140 C.3   1 <1>   0.2000 
 21 C       -1.9120     9.5720    -1.2110 C.3   1 <1>   0.0400 
 22 O        1.7190    10.4780    -0.7160 O.3   1 <1>  -0.6800 
 23 H       -2.7490     2.3900    -3.6240 H     1 <1>   0.1500 
 24 H        0.7150     2.3830    -0.4050 H     1 <1>   0.0800 
 25 H       -0.0310     2.6750     1.1280 H     1 <1>   0.0800 
 26 H       -4.7040     2.7120     0.1360 H     1 <1>   0.1500 
 27 H       -3.5400     3.1490     2.1140 H     1 <1>   0.0800 
 28 H       -2.0000     3.9470     1.9770 H     1 <1>   0.0800 
 29 H       -2.0730     2.2130     2.2020 H     1 <1>   0.0800 
 30 H        0.3940     4.7900    -0.9370 H     1 <1>   0.3700 
 31 H        1.0360     7.1520     1.7850 H     1 <1>   0.0800 
 32 H       -1.1250     7.2260     0.6000 H     1 <1>   0.0800 
 33 H       -0.2880     6.9820    -0.9110 H     1 <1>   0.0800 
 34 H        3.0880     6.8040     0.8070 H     1 <1>   0.0800 
 35 H        2.4500     6.0900    -0.6350 H     1 <1>   0.0800 
 36 H       -0.4450     9.4350     0.7790 H     1 <1>   0.0800 
 37 H        2.0890     8.0940    -1.6800 H     1 <1>   0.0800 
 38 H        3.4400     8.5460    -0.6720 H     1 <1>   0.0800 
 39 H        1.8670     9.4700     0.9970 H     1 <1>   0.0800 
 40 H       -2.2240     9.9090    -2.1840 H     1 <1>   0.0800 
 41 H       -2.1360    10.3290    -0.4790 H     1 <1>   0.0800 
 42 H       -2.4140     8.6510    -0.9720 H     1 <1>   0.0800 
 43 H        1.0200    10.4840    -1.4090 H     1 <1>   0.4000 
@<TRIPOS>BOND
  1   1   2  1   
  2   2   3  ar  
  3   2   4  ar  
  4   3   5  ar  
  5   3   6  1   
  6   4   7  ar  
  7   4  23  1   
  8   5   8  ar  
  9   5   9  1   
 10   6  10  1   
 11   6  24  1   
 12   6  25  1   
 13   7   8  ar  
 14   7  11  1   
 15   8  26  1   
 16   9  27  1   
 17   9  28  1   
 18   9  29  1   
 19  10  12  am  
 20  10  30  1   
 21  12  13  2   
 22  12  14  1   
 23  14  15  1   
 24  14  16  1   
 25  14  31  1   
 26  15  17  1   
 27  15  32  1   
 28  15  33  1   
 29  16  18  1   
 30  16  34  1   
 31  16  35  1   
 32  17  19  1   
 33  17  20  1   
 34  17  36  1   
 35  18  20  1   
 36  18  37  1   
 37  18  38  1   
 38  19  21  1   
 39  20  22  1   
 40  20  39  1   
 41  21  40  1   
 42  21  41  1   
 43  21  42  1   
 44  22  43  1   
@<TRIPOS>SUBSTRUCTURE
  1 ****  10 GROUP 4 **** **** 0

# MOE 2024.06 (io_trps.svl 2023.06)
