@<TRIPOS>MOLECULE
NONAME
53 56 1 0 0 
SMALL
USER_CHARGES


@<TRIPOS>ATOM
  1 O        1.3290    -5.0750    -1.7480 O.2   1 <1>  -0.5700 
  2 C        1.6910    -4.2370    -0.9510 C.2   1 <1>   0.6900 
  3 N        1.7100    -4.4950     0.4040 N.am  1 <1>  -0.4200 
  4 N        2.0300    -2.9910    -1.3970 N.am  1 <1>  -0.5390 
  5 C        1.9730    -3.4680     1.2940 C.2   1 <1>   0.6160 
  6 C        1.5690    -5.8930     0.9140 C.3   1 <1>   0.1400 
  7 C        2.3530    -1.9540    -0.5470 C.2   1 <1>  -0.0290 
  8 O        1.8670    -3.6750     2.4890 O.2   1 <1>  -0.5700 
  9 C        2.3230    -2.1840     0.7830 C.2   1 <1>  -0.1360 
 10 C        0.2910    -6.0990     1.7540 C.3   1 <1>   0.3430 
 11 C        2.7160    -0.6270    -1.1830 C.3   1 <1>  -0.1020 
 12 N       -0.9770    -6.1560     0.9550 N.4   1 <1>  -0.9590 
 13 C       -1.3010    -4.9760     0.0970 C.3   1 <1>   0.3430 
 14 C       -2.1900    -6.4360     1.7610 C.3   1 <1>   0.3430 
 15 C       -2.8310    -4.9060     0.0130 C.3   1 <1>   0.2000 
 16 C       -3.3690    -6.0680     0.8590 C.3   1 <1>  -0.0800 
 17 O       -3.2680    -3.7070     0.5660 O.3   1 <1>  -0.6800 
 18 C       -3.8840    -7.2560     0.0040 C.3   1 <1>  -0.0170 
 19 C       -2.8200    -8.2280    -0.5010 C.ar  1 <1>   0.1670 
 20 N       -1.8580    -7.7550    -1.2360 N.ar  1 <1>  -0.6200 
 21 C       -2.9200    -9.5840    -0.1460 C.ar  1 <1>  -0.1500 
 22 C       -0.9190    -8.6240    -1.6990 C.ar  1 <1>   0.3100 
 23 C       -1.9800   -10.4710    -0.5730 C.ar  1 <1>  -0.1500 
 24 C       -0.9290    -9.9970    -1.3740 C.ar  1 <1>   0.0000 
 25 C        0.1150    -8.1370    -2.5140 C.ar  1 <1>  -0.1500 
 26 C        0.1010   -10.8240    -1.8610 C.ar  1 <1>  -0.1500 
 27 C        1.1090    -8.9580    -2.9770 C.ar  1 <1>  -0.1500 
 28 C        1.1020   -10.3160    -2.6450 C.ar  1 <1>  -0.1500 
 29 H        2.0280    -2.8770    -2.4130 H     1 <1>   0.3700 
 30 H        1.5930    -6.6050     0.1070 H     1 <1>   0.0800 
 31 H        2.4190    -6.0980     1.5420 H     1 <1>   0.0800 
 32 H        2.5550    -1.4300     1.5110 H     1 <1>   0.1500 
 33 H        0.2270    -5.3150     2.4910 H     1 <1>   0.0800 
 34 H        0.3980    -7.0290     2.2870 H     1 <1>   0.0800 
 35 H        3.5740    -0.7450    -1.8210 H     1 <1>   0.0800 
 36 H        2.9490     0.1040    -0.4300 H     1 <1>   0.0800 
 37 H        1.8930    -0.2600    -1.7710 H     1 <1>   0.0800 
 38 H       -0.9200    -6.9350     0.2640 H     1 <1>   0.4500 
 39 H       -0.9150    -4.0670     0.5260 H     1 <1>   0.0800 
 40 H       -0.8860    -5.1170    -0.8890 H     1 <1>   0.0800 
 41 H       -2.2320    -7.4700     2.0670 H     1 <1>   0.0800 
 42 H       -2.1970    -5.8050     2.6350 H     1 <1>   0.0800 
 43 H       -3.1670    -4.9370    -1.0100 H     1 <1>   0.0800 
 44 H       -4.1970    -5.7330     1.4600 H     1 <1>   0.0800 
 45 H       -3.0570    -3.6220     1.5160 H     1 <1>   0.4000 
 46 H       -4.4310    -6.8800    -0.8430 H     1 <1>   0.0800 
 47 H       -4.5930    -7.8050     0.5980 H     1 <1>   0.0800 
 48 H       -3.7440    -9.9210     0.4580 H     1 <1>   0.1500 
 49 H       -2.0260   -11.5170    -0.3210 H     1 <1>   0.1500 
 50 H        0.1070    -7.0940    -2.7740 H     1 <1>   0.1500 
 51 H        0.0880   -11.8700    -1.6100 H     1 <1>   0.1500 
 52 H        1.8980    -8.5710    -3.6000 H     1 <1>   0.1500 
 53 H        1.8880   -10.9510    -3.0190 H     1 <1>   0.1500 
@<TRIPOS>BOND
  1   1   2  2   
  2   2   3  am  
  3   2   4  am  
  4   3   5  am  
  5   3   6  1   
  6   4   7  1   
  7   4  29  1   
  8   5   8  2   
  9   5   9  1   
 10   6  10  1   
 11   6  30  1   
 12   6  31  1   
 13   7   9  2   
 14   7  11  1   
 15   9  32  1   
 16  10  12  1   
 17  10  33  1   
 18  10  34  1   
 19  11  35  1   
 20  11  36  1   
 21  11  37  1   
 22  12  13  1   
 23  12  14  1   
 24  12  38  1   
 25  13  15  1   
 26  13  39  1   
 27  13  40  1   
 28  14  16  1   
 29  14  41  1   
 30  14  42  1   
 31  15  16  1   
 32  15  17  1   
 33  15  43  1   
 34  16  18  1   
 35  16  44  1   
 36  17  45  1   
 37  18  19  1   
 38  18  46  1   
 39  18  47  1   
 40  19  20  ar  
 41  19  21  ar  
 42  20  22  ar  
 43  21  23  ar  
 44  21  48  1   
 45  22  24  ar  
 46  22  25  ar  
 47  23  24  ar  
 48  23  49  1   
 49  24  26  ar  
 50  25  27  ar  
 51  25  50  1   
 52  26  28  ar  
 53  26  51  1   
 54  27  28  ar  
 55  27  52  1   
 56  28  53  1   
@<TRIPOS>SUBSTRUCTURE
  1 ****  12 GROUP 4 **** **** 0

# MOE 2024.06 (io_trps.svl 2023.06)
