@<TRIPOS>MOLECULE
NONAME
51 52 1 0 0 
SMALL
USER_CHARGES


@<TRIPOS>ATOM
  1 O        0.0930    -0.0190     0.1880 O.2   1 <1>  -0.5700 
  2 C        1.2210    -0.3910    -0.0290 C.2   1 <1>   0.5690 
  3 N        2.2800     0.4540    -0.2120 N.am  1 <1>  -0.4940 
  4 C        1.4950    -1.8880    -0.1070 C.3   1 <1>  -0.0990 
  5 C        2.3040     1.8720    -0.1750 C.2   1 <1>  -0.0880 
  6 C        0.2280    -2.7460     0.1270 C.3   1 <1>  -0.1600 
  7 N        3.4000     2.6430    -0.4160 N.pl3 1 <1>   0.3140 
  8 C        1.2990     2.7360     0.0990 C.2   1 <1>  -0.1500 
  9 C        0.3860    -4.2630    -0.0970 C.3   1 <1>   0.4230 
 10 N        3.1200     3.9590    -0.3020 N.2   1 <1>  -0.7070 
 11 C        4.7570     2.1900    -0.7810 C.3   1 <1>   0.0960 
 12 C        1.8630     4.0010     0.0050 C.2   1 <1>   0.1080 
 13 N       -0.8820    -4.9700     0.2670 N.4   1 <1>  -0.9590 
 14 C        1.5300    -4.8310     0.7530 C.3   1 <1>  -0.2400 
 15 C        5.5290     1.7030     0.4540 C.3   1 <1>  -0.1600 
 16 C        1.1280     5.3010     0.2290 C.3   1 <1>  -0.0590 
 17 C       -0.8260    -6.4550    -0.0140 C.3   1 <1>   0.3430 
 18 C       -2.1110    -4.3930    -0.4020 C.3   1 <1>   0.3430 
 19 C        6.9170     1.1780     0.0740 C.3   1 <1>  -0.2400 
 20 C       -2.1590    -7.1590     0.3040 C.3   1 <1>   0.1200 
 21 C       -3.3870    -5.1900    -0.0680 C.3   1 <1>   0.1200 
 22 O       -3.2080    -6.5400    -0.3770 O.3   1 <1>  -0.5600 
 23 H        3.1790     0.0080    -0.3830 H     1 <1>   0.3700 
 24 H        2.2380    -2.1140     0.6350 H     1 <1>   0.0800 
 25 H        1.9020    -2.1020    -1.0790 H     1 <1>   0.0800 
 26 H       -0.5110    -2.3730    -0.5590 H     1 <1>   0.0800 
 27 H       -0.1200    -2.5620     1.1290 H     1 <1>   0.0800 
 28 H        0.2750     2.5140     0.3410 H     1 <1>   0.1500 
 29 H        0.6050    -4.4370    -1.1390 H     1 <1>   0.0800 
 30 H        5.2750     3.0180    -1.2310 H     1 <1>   0.0800 
 31 H        4.6710     1.4080    -1.5110 H     1 <1>   0.0800 
 32 H       -1.0110    -4.8540     1.2790 H     1 <1>   0.4500 
 33 H        1.3510    -4.6640     1.8010 H     1 <1>   0.0800 
 34 H        2.4580    -4.3560     0.4930 H     1 <1>   0.0800 
 35 H        1.6810    -5.8790     0.5770 H     1 <1>   0.0800 
 36 H        4.9780     0.9210     0.9480 H     1 <1>   0.0800 
 37 H        5.6380     2.5240     1.1430 H     1 <1>   0.0800 
 38 H        0.0990     5.1130     0.4730 H     1 <1>   0.0800 
 39 H        1.1760     5.8970    -0.6640 H     1 <1>   0.0800 
 40 H        1.5910     5.8400     1.0340 H     1 <1>   0.0800 
 41 H       -0.0510    -6.9160     0.5730 H     1 <1>   0.0800 
 42 H       -0.5970    -6.6200    -1.0540 H     1 <1>   0.0800 
 43 H       -1.9800    -4.3970    -1.4710 H     1 <1>   0.0800 
 44 H       -2.2590    -3.3720    -0.0910 H     1 <1>   0.0800 
 45 H        6.8400     0.3440    -0.6020 H     1 <1>   0.0800 
 46 H        7.4420     0.8540     0.9560 H     1 <1>   0.0800 
 47 H        7.4960     1.9540    -0.3980 H     1 <1>   0.0800 
 48 H       -2.3700    -7.1410     1.3600 H     1 <1>   0.0800 
 49 H       -2.1220    -8.1850    -0.0190 H     1 <1>   0.0800 
 50 H       -4.2130    -4.8280    -0.6560 H     1 <1>   0.0800 
 51 H       -3.6430    -5.1010     0.9730 H     1 <1>   0.0800 
@<TRIPOS>BOND
  1   1   2  2   
  2   2   3  am  
  3   2   4  1   
  4   3   5  1   
  5   3  23  1   
  6   4   6  1   
  7   4  24  1   
  8   4  25  1   
  9   5   7  1   
 10   5   8  2   
 11   6   9  1   
 12   6  26  1   
 13   6  27  1   
 14   7  10  1   
 15   7  11  1   
 16   8  12  1   
 17   8  28  1   
 18   9  13  1   
 19   9  14  1   
 20   9  29  1   
 21  10  12  2   
 22  11  15  1   
 23  11  30  1   
 24  11  31  1   
 25  12  16  1   
 26  13  17  1   
 27  13  18  1   
 28  13  32  1   
 29  14  33  1   
 30  14  34  1   
 31  14  35  1   
 32  15  19  1   
 33  15  36  1   
 34  15  37  1   
 35  16  38  1   
 36  16  39  1   
 37  16  40  1   
 38  17  20  1   
 39  17  41  1   
 40  17  42  1   
 41  18  21  1   
 42  18  43  1   
 43  18  44  1   
 44  19  45  1   
 45  19  46  1   
 46  19  47  1   
 47  20  22  1   
 48  20  48  1   
 49  20  49  1   
 50  21  22  1   
 51  21  50  1   
 52  21  51  1   
@<TRIPOS>SUBSTRUCTURE
  1 ****   2 GROUP 4 **** **** 0

# MOE 2024.06 (io_trps.svl 2023.06)
