@<TRIPOS>MOLECULE
NONAME
43 44 1 0 0 
SMALL
USER_CHARGES


@<TRIPOS>ATOM
  1 S        0.1540     0.1890     0.9540 S.o2  1 <1>   1.3330 
  2 O       -1.1050     0.2340     1.6630 O.2   1 <1>  -0.6500 
  3 O        1.3840     0.4290     1.6740 O.2   1 <1>  -0.6500 
  4 N        0.2850    -1.3190     0.1870 N.am  1 <1>  -0.8490 
  5 C        0.0460     1.3350    -0.4180 C.3   1 <1>  -0.0550 
  6 C        1.6530    -1.6420    -0.2340 C.3   1 <1>   0.1160 
  7 C       -0.2550    -2.4070     1.0070 C.3   1 <1>   0.1160 
  8 C       -0.1340     2.7940     0.0300 C.3   1 <1>  -0.0800 
  9 C       -0.3150     3.7400    -1.1480 C.3   1 <1>   0.2000 
 10 C        1.0690     3.3690     0.7830 C.3   1 <1>   0.2090 
 11 O       -1.6380     3.7250    -1.5710 O.3   1 <1>  -0.6800 
 12 C        0.1140     5.1050    -0.6190 C.3   1 <1>   0.2090 
 13 N        1.1340     4.8110     0.4250 N.pl3 1 <1>  -0.8380 
 14 C        2.3950     5.3300     0.2340 C.ar  1 <1>   0.4100 
 15 N        3.0020     5.0200    -0.8940 N.ar  1 <1>  -0.6200 
 16 C        3.0020     6.1320     1.1890 C.ar  1 <1>  -0.1440 
 17 C        4.2080     5.5270    -1.0530 C.ar  1 <1>   0.4770 
 18 C        4.2600     6.5930     0.9010 C.ar  1 <1>   0.1600 
 19 C        2.3040     6.4840     2.4970 C.3   1 <1>  -0.0970 
 20 N        4.8830     6.2990    -0.2230 N.ar  1 <1>  -0.6200 
 21 C        4.9110     5.1790    -2.3430 C.3   1 <1>  -0.0970 
 22 H        0.9280     1.2560    -1.0230 H     1 <1>   0.0800 
 23 H       -0.7940     1.0590    -1.0280 H     1 <1>   0.0800 
 24 H        1.6610    -2.5650    -0.7880 H     1 <1>   0.0800 
 25 H        2.2970    -1.7430     0.6250 H     1 <1>   0.0800 
 26 H        2.0410    -0.8630    -0.8670 H     1 <1>   0.0800 
 27 H       -0.1720    -3.3450     0.4860 H     1 <1>   0.0800 
 28 H       -1.2970    -2.2300     1.2150 H     1 <1>   0.0800 
 29 H        0.2780    -2.4710     1.9420 H     1 <1>   0.0800 
 30 H       -0.9860     2.8690     0.6840 H     1 <1>   0.0800 
 31 H        0.3150     3.4650    -1.9770 H     1 <1>   0.0800 
 32 H        1.9810     2.8810     0.4770 H     1 <1>   0.0800 
 33 H        0.9540     3.2520     1.8470 H     1 <1>   0.0800 
 34 H       -2.2360     3.9460    -0.8310 H     1 <1>   0.4000 
 35 H       -0.7130     5.6160    -0.1600 H     1 <1>   0.0800 
 36 H        0.5230     5.7110    -1.4100 H     1 <1>   0.0800 
 37 H        4.7810     7.2210     1.6030 H     1 <1>   0.1500 
 38 H        2.9020     7.1520     3.0900 H     1 <1>   0.0800 
 39 H        2.1200     5.5880     3.0610 H     1 <1>   0.0800 
 40 H        1.3610     6.9570     2.2880 H     1 <1>   0.0800 
 41 H        5.4550     6.0320    -2.7030 H     1 <1>   0.0800 
 42 H        4.1980     4.8800    -3.0890 H     1 <1>   0.0800 
 43 H        5.5960     4.3720    -2.1650 H     1 <1>   0.0800 
@<TRIPOS>BOND
  1   1   2  2   
  2   1   3  2   
  3   1   4  am  
  4   1   5  1   
  5   4   6  1   
  6   4   7  1   
  7   5   8  1   
  8   5  22  1   
  9   5  23  1   
 10   6  24  1   
 11   6  25  1   
 12   6  26  1   
 13   7  27  1   
 14   7  28  1   
 15   7  29  1   
 16   8   9  1   
 17   8  10  1   
 18   8  30  1   
 19   9  11  1   
 20   9  12  1   
 21   9  31  1   
 22  10  13  1   
 23  10  32  1   
 24  10  33  1   
 25  11  34  1   
 26  12  13  1   
 27  12  35  1   
 28  12  36  1   
 29  13  14  1   
 30  14  15  ar  
 31  14  16  ar  
 32  15  17  ar  
 33  16  18  ar  
 34  16  19  1   
 35  17  20  ar  
 36  17  21  1   
 37  18  20  ar  
 38  18  37  1   
 39  19  38  1   
 40  19  39  1   
 41  19  40  1   
 42  21  41  1   
 43  21  42  1   
 44  21  43  1   
@<TRIPOS>SUBSTRUCTURE
  1 ****  10 GROUP 4 **** **** 0

# MOE 2024.06 (io_trps.svl 2023.06)
