@<TRIPOS>MOLECULE
NONAME
60 64 1 0 0 
SMALL
USER_CHARGES


@<TRIPOS>ATOM
  1 O       -2.1880     0.9960     1.7150 O.2   1 <1>  -0.5700 
  2 C       -2.1850     0.3970     0.6680 C.2   1 <1>   0.5690 
  3 N       -1.6950     0.9490    -0.4790 N.am  1 <1>  -0.7300 
  4 C       -2.7280    -1.0250     0.6330 C.3   1 <1>   0.0440 
  5 C       -0.9800     2.2560    -0.6070 C.3   1 <1>   0.2200 
  6 C       -1.6220    -2.0500     0.8680 C.ar  1 <1>  -0.1440 
  7 C        0.1760     2.4130     0.3940 C.3   1 <1>   0.2000 
  8 C       -1.9090     3.4520    -0.3390 C.3   1 <1>   0.1100 
  9 C       -0.5120    -2.0610     0.0420 C.ar  1 <1>  -0.1500 
 10 C       -1.6920    -2.9620     1.9110 C.ar  1 <1>  -0.1500 
 11 O        1.3610     2.7240    -0.3000 O.3   1 <1>  -0.5600 
 12 C       -0.2340     3.6220     1.2440 C.3   1 <1>   0.1100 
 13 N       -1.1410     4.4480     0.4310 N.3   1 <1>  -0.8100 
 14 C        0.5460    -2.9280     0.2800 C.ar  1 <1>   0.0830 
 15 C       -0.6600    -3.8620     2.1280 C.ar  1 <1>  -0.1500 
 16 C        2.4760     1.9500     0.0240 C.3   1 <1>   0.2630 
 17 C       -0.3860     5.3550    -0.4680 C.3   1 <1>   0.2900 
 18 O        1.6760    -2.8850    -0.4730 O.3   1 <1>  -0.1650 
 19 C        0.4610    -3.8440     1.3160 C.ar  1 <1>  -0.1500 
 20 C        2.4660     0.6700    -0.8000 C.ar  1 <1>  -0.1430 
 21 C       -1.3110     6.2370    -1.3000 C.2   1 <1>   0.0060 
 22 C        2.0900    -1.7020    -0.9950 C.ar  1 <1>   0.0830 
 23 C        2.1030    -0.5400    -0.2300 C.ar  1 <1>  -0.1500 
 24 C        2.8310     0.7050    -2.1380 C.ar  1 <1>  -0.1500 
 25 N       -1.3190     6.2280    -2.5970 N.2   1 <1>  -0.5650 
 26 N       -2.2010     7.1070    -0.7570 N.pl3 1 <1>   0.0480 
 27 C        2.4800    -1.6600    -2.3240 C.ar  1 <1>  -0.1500 
 28 C        2.8460    -0.4550    -2.8960 C.ar  1 <1>  -0.1500 
 29 C       -2.2570     7.1350    -2.9210 C.2   1 <1>   0.0770 
 30 C       -2.8040     7.6810    -1.8150 C.2   1 <1>  -0.3020 
 31 C       -2.4890     7.3950     0.6650 C.3   1 <1>   0.0960 
 32 C       -1.5510     8.4830     1.1980 C.3   1 <1>  -0.2400 
 33 H       -1.6970     0.3970    -1.3370 H     1 <1>   0.3700 
 34 H       -3.4840    -1.1160     1.3900 H     1 <1>   0.0800 
 35 H       -3.1920    -1.2080    -0.3180 H     1 <1>   0.0800 
 36 H       -0.5880     2.3390    -1.6060 H     1 <1>   0.0800 
 37 H        0.3120     1.5340     0.9990 H     1 <1>   0.0800 
 38 H       -2.7400     3.1350     0.2660 H     1 <1>   0.0800 
 39 H       -2.2920     3.8620    -1.2580 H     1 <1>   0.0800 
 40 H       -0.4520    -1.3840    -0.7890 H     1 <1>   0.1500 
 41 H       -2.5470    -2.9760     2.5650 H     1 <1>   0.1500 
 42 H        0.6180     4.1770     1.5960 H     1 <1>   0.0800 
 43 H       -0.7870     3.2640     2.0960 H     1 <1>   0.0800 
 44 H       -0.7260    -4.5710     2.9350 H     1 <1>   0.1500 
 45 H        3.3480     2.5290    -0.2230 H     1 <1>   0.0800 
 46 H        2.4870     1.7510     1.0820 H     1 <1>   0.0800 
 47 H        0.2530     5.9890     0.1210 H     1 <1>   0.0800 
 48 H        0.2390     4.7900    -1.1380 H     1 <1>   0.0800 
 49 H        1.2720    -4.5300     1.4860 H     1 <1>   0.1500 
 50 H        1.8210    -0.5880     0.8070 H     1 <1>   0.1500 
 51 H        3.1050     1.6420    -2.5930 H     1 <1>   0.1500 
 52 H        2.4840    -2.5650    -2.9040 H     1 <1>   0.1500 
 53 H        3.1410    -0.4170    -3.9300 H     1 <1>   0.1500 
 54 H       -2.4930     7.3510    -3.9490 H     1 <1>   0.1500 
 55 H       -3.5700     8.4280    -1.7260 H     1 <1>   0.1500 
 56 H       -3.5110     7.7190     0.7470 H     1 <1>   0.0800 
 57 H       -2.3790     6.4950     1.2410 H     1 <1>   0.0800 
 58 H       -1.6690     9.3880     0.6280 H     1 <1>   0.0800 
 59 H       -0.5290     8.1550     1.1390 H     1 <1>   0.0800 
 60 H       -1.7840     8.6910     2.2260 H     1 <1>   0.0800 
@<TRIPOS>BOND
  1   1   2  2   
  2   2   3  am  
  3   2   4  1   
  4   3   5  1   
  5   3  33  1   
  6   4   6  1   
  7   4  34  1   
  8   4  35  1   
  9   5   7  1   
 10   5   8  1   
 11   5  36  1   
 12   6   9  ar  
 13   6  10  ar  
 14   7  11  1   
 15   7  12  1   
 16   7  37  1   
 17   8  13  1   
 18   8  38  1   
 19   8  39  1   
 20   9  14  ar  
 21   9  40  1   
 22  10  15  ar  
 23  10  41  1   
 24  11  16  1   
 25  12  13  1   
 26  12  42  1   
 27  12  43  1   
 28  13  17  1   
 29  14  18  1   
 30  14  19  ar  
 31  15  19  ar  
 32  15  44  1   
 33  16  20  1   
 34  16  45  1   
 35  16  46  1   
 36  17  21  1   
 37  17  47  1   
 38  17  48  1   
 39  18  22  1   
 40  19  49  1   
 41  20  23  ar  
 42  20  24  ar  
 43  21  25  2   
 44  21  26  1   
 45  22  23  ar  
 46  22  27  ar  
 47  23  50  1   
 48  24  28  ar  
 49  24  51  1   
 50  25  29  1   
 51  26  30  1   
 52  26  31  1   
 53  27  28  ar  
 54  27  52  1   
 55  28  53  1   
 56  29  30  2   
 57  29  54  1   
 58  30  55  1   
 59  31  32  1   
 60  31  56  1   
 61  31  57  1   
 62  32  58  1   
 63  32  59  1   
 64  32  60  1   
@<TRIPOS>SUBSTRUCTURE
  1 ****   5 GROUP 4 **** **** 0

# MOE 2024.06 (io_trps.svl 2023.06)
