@<TRIPOS>MOLECULE
NONAME
46 48 1 0 0 
SMALL
USER_CHARGES


@<TRIPOS>ATOM
  1 O        2.4420     2.2280     2.7420 O.co2 1 <1>  -0.9000 
  2 C        3.5100     2.4250     2.1480 C.2   1 <1>   0.9470 
  3 O        4.2800     3.3290     2.4970 O.co2 1 <1>  -0.9000 
  4 C        3.7810     1.6930     0.8340 C.3   1 <1>  -0.2420 
  5 C        4.6480     0.4980     0.5210 C.3   1 <1>  -0.2420 
  6 C        3.9170     2.6810    -0.3050 C.3   1 <1>   0.2350 
  7 C        3.1550     0.3420     0.6130 C.3   1 <1>  -0.2000 
  8 C        5.5560    -0.3070     1.4510 C.2   1 <1>   0.9470 
  9 C        5.3010     0.7190    -0.8310 C.3   1 <1>   0.2350 
 10 N        4.8020     2.0360    -1.3220 N.am  1 <1>  -0.6600 
 11 O        5.2120    -1.4470     1.7920 O.co2 1 <1>  -0.9000 
 12 O        6.6810     0.1340     1.7230 O.co2 1 <1>  -0.9000 
 13 C        5.5010     2.6940    -2.2940 C.2   1 <1>   0.5690 
 14 O        6.1060     2.0940    -3.1540 O.2   1 <1>  -0.5700 
 15 C        5.5490     4.2180    -2.3350 C.3   1 <1>   0.0440 
 16 C        6.7090     4.8130    -1.5310 C.ar  1 <1>  -0.1440 
 17 C        7.3930     5.9140    -2.0210 C.ar  1 <1>  -0.1500 
 18 C        7.0910     4.2780    -0.3090 C.ar  1 <1>  -0.1500 
 19 C        8.4450     6.4760    -1.3160 C.ar  1 <1>   0.0820 
 20 C        8.1490     4.8160     0.4180 C.ar  1 <1>   0.0820 
 21 O        9.0250     7.5670    -1.8900 O.3   1 <1>  -0.3630 
 22 C        8.8490     5.9100    -0.1000 C.ar  1 <1>   0.0820 
 23 O        8.5270     4.3040     1.6290 O.3   1 <1>  -0.3630 
 24 C        9.3530     8.6760    -1.0810 C.3   1 <1>   0.0400 
 25 O        9.9250     6.4080     0.5720 O.3   1 <1>  -0.3630 
 26 C        7.7570     3.2940     2.2650 C.3   1 <1>   0.0400 
 27 C       11.0950     5.6270     0.4970 C.3   1 <1>   0.0400 
 28 H        4.3570     3.5950     0.0530 H     1 <1>   0.0800 
 29 H        2.9500     2.8910    -0.7250 H     1 <1>   0.0800 
 30 H        2.5830     0.1620    -0.2780 H     1 <1>   0.1000 
 31 H        2.7590    -0.1770     1.4710 H     1 <1>   0.1000 
 32 H        5.0360    -0.0670    -1.5150 H     1 <1>   0.0800 
 33 H        6.3730     0.7580    -0.7290 H     1 <1>   0.0800 
 34 H        5.6490     4.5060    -3.3650 H     1 <1>   0.0800 
 35 H        4.6230     4.6290    -1.9830 H     1 <1>   0.0800 
 36 H        7.1160     6.3550    -2.9600 H     1 <1>   0.1500 
 37 H        6.5630     3.4300     0.0840 H     1 <1>   0.1500 
 38 H        9.3800     9.5500    -1.7040 H     1 <1>   0.0800 
 39 H       10.3200     8.5120    -0.6420 H     1 <1>   0.0800 
 40 H        8.6050     8.7890    -0.3160 H     1 <1>   0.0800 
 41 H        8.1910     3.0830     3.2240 H     1 <1>   0.0800 
 42 H        7.7680     2.4020     1.6640 H     1 <1>   0.0800 
 43 H        6.7480     3.6440     2.3970 H     1 <1>   0.0800 
 44 H       11.8760     6.1380     1.0290 H     1 <1>   0.0800 
 45 H       11.3650     5.5080    -0.5380 H     1 <1>   0.0800 
 46 H       10.9100     4.6680     0.9480 H     1 <1>   0.0800 
@<TRIPOS>BOND
  1   1   2  ar  
  2   2   3  ar  
  3   2   4  1   
  4   4   5  1   
  5   4   6  1   
  6   4   7  1   
  7   5   7  1   
  8   5   8  1   
  9   5   9  1   
 10   6  10  1   
 11   6  28  1   
 12   6  29  1   
 13   7  30  1   
 14   7  31  1   
 15   8  11  ar  
 16   8  12  ar  
 17   9  10  1   
 18   9  32  1   
 19   9  33  1   
 20  10  13  am  
 21  13  14  2   
 22  13  15  1   
 23  15  16  1   
 24  15  34  1   
 25  15  35  1   
 26  16  17  ar  
 27  16  18  ar  
 28  17  19  ar  
 29  17  36  1   
 30  18  20  ar  
 31  18  37  1   
 32  19  21  1   
 33  19  22  ar  
 34  20  22  ar  
 35  20  23  1   
 36  21  24  1   
 37  22  25  1   
 38  23  26  1   
 39  24  38  1   
 40  24  39  1   
 41  24  40  1   
 42  25  27  1   
 43  26  41  1   
 44  26  42  1   
 45  26  43  1   
 46  27  44  1   
 47  27  45  1   
 48  27  46  1   
@<TRIPOS>SUBSTRUCTURE
  1 ****  18 GROUP 4 **** **** 0

# MOE 2024.06 (io_trps.svl 2023.06)
