@<TRIPOS>MOLECULE
NONAME
54 56 1 0 0 
SMALL
USER_CHARGES


@<TRIPOS>ATOM
  1 F        1.1060     0.3470     2.1980 F     1 <1>  -0.1900 
  2 C        1.9770     0.7300     1.3010 C.ar  1 <1>   0.1900 
  3 C        2.6600    -0.2210     0.5570 C.ar  1 <1>  -0.1440 
  4 C        2.1700     2.0880     1.1410 C.ar  1 <1>  -0.1500 
  5 C        3.5900     0.2300    -0.3780 C.ar  1 <1>   0.0830 
  6 C        2.4110    -1.7120     0.7650 C.3   1 <1>   0.2540 
  7 C        3.0870     2.5240     0.2020 C.ar  1 <1>  -0.1500 
  8 O        4.2790    -0.7040    -1.0850 O.3   1 <1>  -0.3630 
  9 C        3.7930     1.6000    -0.5510 C.ar  1 <1>  -0.1500 
 10 N        1.4810    -2.2590    -0.2480 N.3   1 <1>  -0.8100 
 11 C        5.1670    -0.3570    -2.1230 C.3   1 <1>   0.0400 
 12 C        1.4010    -3.7410    -0.1860 C.3   1 <1>   0.3330 
 13 C        0.1330    -1.6680    -0.1220 C.3   1 <1>   0.1100 
 14 C        2.7750    -4.3640    -0.4420 C.ar  1 <1>  -0.1430 
 15 C        0.3550    -4.2890    -1.1980 C.3   1 <1>   0.2000 
 16 C       -0.8530    -2.2880    -1.1260 C.3   1 <1>   0.1200 
 17 C        3.2620    -5.3490     0.4050 C.ar  1 <1>  -0.1500 
 18 C        3.5430    -3.9650    -1.5270 C.ar  1 <1>  -0.1500 
 19 O       -0.8900    -3.6770    -0.9770 O.3   1 <1>  -0.5600 
 20 C        0.1350    -5.8080    -1.0980 C.3   1 <1>   0.1200 
 21 C        4.4920    -5.9400     0.1690 C.ar  1 <1>   0.0830 
 22 C        4.7820    -4.5360    -1.7610 C.ar  1 <1>  -0.1500 
 23 O        1.1930    -6.5140    -1.6670 O.3   1 <1>  -0.6800 
 24 O        4.8760    -6.9320     1.0080 O.3   1 <1>  -0.3630 
 25 C        5.2720    -5.5110    -0.9100 C.ar  1 <1>   0.0830 
 26 C        4.9700    -8.2220     0.4430 C.3   1 <1>   0.0400 
 27 O        6.5080    -6.0040    -1.1690 O.3   1 <1>  -0.3630 
 28 C        7.5030    -5.7300    -0.2080 C.3   1 <1>   0.0400 
 29 H        1.6140     2.7860     1.7400 H     1 <1>   0.1500 
 30 H        2.0230    -1.8950     1.7520 H     1 <1>   0.0800 
 31 H        3.3620    -2.2120     0.7030 H     1 <1>   0.0800 
 32 H        3.2530     3.5780     0.0590 H     1 <1>   0.1500 
 33 H        4.5020     1.9680    -1.2680 H     1 <1>   0.1500 
 34 H        5.5490    -1.2670    -2.5500 H     1 <1>   0.0800 
 35 H        5.9750     0.2210    -1.7120 H     1 <1>   0.0800 
 36 H        4.6290     0.2000    -2.8700 H     1 <1>   0.0800 
 37 H        1.0760    -4.0220     0.8010 H     1 <1>   0.0800 
 38 H       -0.2440    -1.8120     0.8760 H     1 <1>   0.0800 
 39 H        0.1850    -0.6100    -0.3120 H     1 <1>   0.0800 
 40 H        0.6580    -4.0510    -2.2020 H     1 <1>   0.0800 
 41 H       -0.5610    -2.0530    -2.1350 H     1 <1>   0.0800 
 42 H       -1.8450    -1.9110    -0.9540 H     1 <1>   0.0800 
 43 H        2.6910    -5.6790     1.2540 H     1 <1>   0.1500 
 44 H        3.1770    -3.1930    -2.1850 H     1 <1>   0.1500 
 45 H       -0.7550    -6.0840    -1.6350 H     1 <1>   0.0800 
 46 H        0.0410    -6.1110    -0.0700 H     1 <1>   0.0800 
 47 H        5.3770    -4.2190    -2.5980 H     1 <1>   0.1500 
 48 H        2.0550    -6.1680    -1.3440 H     1 <1>   0.4000 
 49 H        5.1780    -8.9210     1.2320 H     1 <1>   0.0800 
 50 H        5.7660    -8.2380    -0.2800 H     1 <1>   0.0800 
 51 H        4.0330    -8.4640    -0.0280 H     1 <1>   0.0800 
 52 H        8.4470    -6.0670    -0.5950 H     1 <1>   0.0800 
 53 H        7.2730    -6.2520     0.7030 H     1 <1>   0.0800 
 54 H        7.5320    -4.6690    -0.0320 H     1 <1>   0.0800 
@<TRIPOS>BOND
  1   1   2  1   
  2   2   3  ar  
  3   2   4  ar  
  4   3   5  ar  
  5   3   6  1   
  6   4   7  ar  
  7   4  29  1   
  8   5   8  1   
  9   5   9  ar  
 10   6  10  1   
 11   6  30  1   
 12   6  31  1   
 13   7   9  ar  
 14   7  32  1   
 15   8  11  1   
 16   9  33  1   
 17  10  12  1   
 18  10  13  1   
 19  11  34  1   
 20  11  35  1   
 21  11  36  1   
 22  12  14  1   
 23  12  15  1   
 24  12  37  1   
 25  13  16  1   
 26  13  38  1   
 27  13  39  1   
 28  14  17  ar  
 29  14  18  ar  
 30  15  19  1   
 31  15  20  1   
 32  15  40  1   
 33  16  19  1   
 34  16  41  1   
 35  16  42  1   
 36  17  21  ar  
 37  17  43  1   
 38  18  22  ar  
 39  18  44  1   
 40  20  23  1   
 41  20  45  1   
 42  20  46  1   
 43  21  24  1   
 44  21  25  ar  
 45  22  25  ar  
 46  22  47  1   
 47  23  48  1   
 48  24  26  1   
 49  25  27  1   
 50  26  49  1   
 51  26  50  1   
 52  26  51  1   
 53  27  28  1   
 54  28  52  1   
 55  28  53  1   
 56  28  54  1   
@<TRIPOS>SUBSTRUCTURE
  1 ****  14 GROUP 4 **** **** 0

# MOE 2024.06 (io_trps.svl 2023.06)
