@<TRIPOS>MOLECULE
NONAME
46 49 1 0 0 
SMALL
USER_CHARGES


@<TRIPOS>ATOM
  1 O       -0.2260     0.1170     1.2110 O.2   1 <1>  -0.5700 
  2 C       -1.2160     0.7980     1.0150 C.2   1 <1>   0.5440 
  3 N       -2.3920     0.1640     0.6860 N.am  1 <1>  -0.6600 
  4 C       -1.1550     2.2380     1.1200 C.ar  1 <1>   0.0860 
  5 C       -3.5410     0.8330     0.0270 C.3   1 <1>   0.1400 
  6 C       -2.4770    -1.3070     0.5280 C.3   1 <1>   0.1400 
  7 C       -0.2930     2.9820     0.2930 C.ar  1 <1>   0.0000 
  8 C       -1.9480     2.9470     2.0110 C.ar  1 <1>  -0.1500 
  9 C       -4.2210    -0.2720    -0.7790 C.3   1 <1>   0.2000 
 10 C       -3.8620    -1.5730    -0.0650 C.3   1 <1>  -0.0800 
 11 C       -0.2640     4.3730     0.3590 C.ar  1 <1>  -0.1520 
 12 C        0.6390     2.6160    -0.6990 C.2   1 <1>  -0.1500 
 13 C       -1.9130     4.3410     2.0830 C.ar  1 <1>  -0.1500 
 14 O       -5.5970    -0.1090    -0.8160 O.3   1 <1>  -0.6800 
 15 C       -3.9080    -2.7970    -0.9910 C.3   1 <1>   0.0200 
 16 N        0.6470     4.8340    -0.5620 N.pl3 1 <1>   0.0480 
 17 C       -1.0780     5.0610     1.2610 C.ar  1 <1>  -0.1500 
 18 C        1.1840     3.7520    -1.1950 C.2   1 <1>  -0.3020 
 19 C       -3.4710    -4.0490    -0.2550 C.2   1 <1>  -0.0400 
 20 C        0.9960     6.2420    -0.8090 C.3   1 <1>   0.0160 
 21 O       -4.1660    -4.4850     0.7620 O.3   1 <1>  -0.0190 
 22 C       -2.4300    -4.8770    -0.4300 C.2   1 <1>  -0.1500 
 23 N       -3.6430    -5.5590     1.2790 N.2   1 <1>  -0.4100 
 24 C       -2.5960    -5.8190     0.5810 C.2   1 <1>   0.1080 
 25 C       -1.6750    -6.9910     0.8340 C.3   1 <1>  -0.0590 
 26 H       -4.2020     1.2210     0.7810 H     1 <1>   0.0800 
 27 H       -3.2050     1.6260    -0.6190 H     1 <1>   0.0800 
 28 H       -1.6990    -1.6310    -0.1420 H     1 <1>   0.0800 
 29 H       -2.3520    -1.7990     1.4780 H     1 <1>   0.0800 
 30 H       -2.6080     2.4070     2.6670 H     1 <1>   0.1500 
 31 H       -3.8500    -0.2620    -1.7900 H     1 <1>   0.0800 
 32 H       -4.5350    -1.7250     0.7610 H     1 <1>   0.0800 
 33 H        0.8520     1.5970    -0.9750 H     1 <1>   0.1500 
 34 H       -2.5460     4.8490     2.7910 H     1 <1>   0.1500 
 35 H       -5.9720    -0.1800     0.0830 H     1 <1>   0.4000 
 36 H       -3.2620    -2.6420    -1.8370 H     1 <1>   0.0800 
 37 H       -4.9100    -2.9370    -1.3560 H     1 <1>   0.0800 
 38 H       -1.0450     6.1350     1.3090 H     1 <1>   0.1500 
 39 H        1.9310     3.8490    -1.9630 H     1 <1>   0.1500 
 40 H        1.7390     6.3000    -1.5830 H     1 <1>   0.0800 
 41 H        1.3850     6.6730     0.0950 H     1 <1>   0.0800 
 42 H        0.1150     6.7760    -1.1150 H     1 <1>   0.0800 
 43 H       -1.6400    -4.8510    -1.1570 H     1 <1>   0.1500 
 44 H       -1.6260    -7.6120    -0.0410 H     1 <1>   0.0800 
 45 H       -2.0440    -7.5770     1.6570 H     1 <1>   0.0800 
 46 H       -0.6900    -6.6350     1.0750 H     1 <1>   0.0800 
@<TRIPOS>BOND
  1   1   2  2   
  2   2   3  am  
  3   2   4  1   
  4   3   5  1   
  5   3   6  1   
  6   4   7  ar  
  7   4   8  ar  
  8   5   9  1   
  9   5  26  1   
 10   5  27  1   
 11   6  10  1   
 12   6  28  1   
 13   6  29  1   
 14   7  11  ar  
 15   7  12  1   
 16   8  13  ar  
 17   8  30  1   
 18   9  10  1   
 19   9  14  1   
 20   9  31  1   
 21  10  15  1   
 22  10  32  1   
 23  11  16  1   
 24  11  17  ar  
 25  12  18  2   
 26  12  33  1   
 27  13  17  ar  
 28  13  34  1   
 29  14  35  1   
 30  15  19  1   
 31  15  36  1   
 32  15  37  1   
 33  16  18  1   
 34  16  20  1   
 35  17  38  1   
 36  18  39  1   
 37  19  21  1   
 38  19  22  2   
 39  20  40  1   
 40  20  41  1   
 41  20  42  1   
 42  21  23  1   
 43  22  24  1   
 44  22  43  1   
 45  23  24  2   
 46  24  25  1   
 47  25  44  1   
 48  25  45  1   
 49  25  46  1   
@<TRIPOS>SUBSTRUCTURE
  1 ****   3 GROUP 4 **** **** 0

# MOE 2024.06 (io_trps.svl 2023.06)
