@<TRIPOS>MOLECULE
NONAME
40 42 1 0 0 
SMALL
USER_CHARGES


@<TRIPOS>ATOM
  1 O        1.3510    -0.1040     1.2310 O.3   1 <1>  -0.6800 
  2 C        1.5930    -0.2090    -0.1390 C.3   1 <1>   0.2000 
  3 C        2.3550    -1.5010    -0.4500 C.3   1 <1>  -0.0800 
  4 C        2.5430     0.9120    -0.5840 C.3   1 <1>   0.2090 
  5 C        3.8270    -1.1220    -0.3050 C.3   1 <1>   0.2090 
  6 C        1.9670    -2.7380     0.3800 C.3   1 <1>   0.0210 
  7 N        3.9030     0.3070    -0.6840 N.pl3 1 <1>  -0.8380 
  8 C        2.7660    -3.9520    -0.0500 C.2   1 <1>   0.1080 
  9 C        5.0440     1.0850    -0.5210 C.ar  1 <1>   0.4100 
 10 N        2.5950    -4.5320    -1.1960 N.2   1 <1>  -0.7070 
 11 C        3.7560    -4.5660     0.7090 C.2   1 <1>  -0.1500 
 12 N        4.8830     2.4020    -0.6020 N.ar  1 <1>  -0.6200 
 13 C        6.2930     0.5000    -0.3030 C.ar  1 <1>  -0.1500 
 14 N        3.4810    -5.5460    -1.1990 N.pl3 1 <1>   0.3000 
 15 C        4.1970    -5.5870    -0.0560 C.2   1 <1>  -0.3320 
 16 C        5.9680     3.1400    -0.4490 C.ar  1 <1>   0.1600 
 17 C        7.4140     1.2810    -0.1460 C.ar  1 <1>  -0.1500 
 18 C        5.2730    -6.6160     0.2400 C.3   1 <1>  -0.0600 
 19 C        7.2430     2.6480    -0.2190 C.ar  1 <1>  -0.1430 
 20 C        8.4360     3.5730    -0.0530 C.3   1 <1>  -0.0970 
 21 H        0.6690    -0.7430     1.5080 H     1 <1>   0.4000 
 22 H        0.6490    -0.1490    -0.6510 H     1 <1>   0.0800 
 23 H        2.1950    -1.7290    -1.4890 H     1 <1>   0.0800 
 24 H        2.5250     1.7300     0.1160 H     1 <1>   0.0800 
 25 H        2.2620     1.2710    -1.5580 H     1 <1>   0.0800 
 26 H        4.4440    -1.7250    -0.9500 H     1 <1>   0.0800 
 27 H        4.1460    -1.2320     0.7180 H     1 <1>   0.0800 
 28 H        0.9230    -2.9540     0.2420 H     1 <1>   0.0800 
 29 H        2.1420    -2.5610     1.4260 H     1 <1>   0.0800 
 30 H        4.0800    -4.2710     1.6910 H     1 <1>   0.1500 
 31 H        6.3830    -0.5650    -0.2620 H     1 <1>   0.1500 
 32 H        3.5700    -6.1900    -1.9940 H     1 <1>   0.2700 
 33 H        5.8290     4.2040    -0.5110 H     1 <1>   0.1500 
 34 H        8.3820     0.8430     0.0250 H     1 <1>   0.1500 
 35 H        5.6970    -6.4400     1.2120 H     1 <1>   0.0800 
 36 H        6.0590    -6.5540    -0.4920 H     1 <1>   0.0800 
 37 H        4.8550    -7.6070     0.2230 H     1 <1>   0.0800 
 38 H        8.8920     3.4130     0.9070 H     1 <1>   0.0800 
 39 H        8.1360     4.6030    -0.1230 H     1 <1>   0.0800 
 40 H        9.1620     3.3740    -0.8210 H     1 <1>   0.0800 
@<TRIPOS>BOND
  1   1   2  1   
  2   1  21  1   
  3   2   3  1   
  4   2   4  1   
  5   2  22  1   
  6   3   5  1   
  7   3   6  1   
  8   3  23  1   
  9   4   7  1   
 10   4  24  1   
 11   4  25  1   
 12   5   7  1   
 13   5  26  1   
 14   5  27  1   
 15   6   8  1   
 16   6  28  1   
 17   6  29  1   
 18   7   9  1   
 19   8  10  2   
 20   8  11  1   
 21   9  12  ar  
 22   9  13  ar  
 23  10  14  1   
 24  11  15  2   
 25  11  30  1   
 26  12  16  ar  
 27  13  17  ar  
 28  13  31  1   
 29  14  15  1   
 30  14  32  1   
 31  15  18  1   
 32  16  19  ar  
 33  16  33  1   
 34  17  19  ar  
 35  17  34  1   
 36  18  35  1   
 37  18  36  1   
 38  18  37  1   
 39  19  20  1   
 40  20  38  1   
 41  20  39  1   
 42  20  40  1   
@<TRIPOS>SUBSTRUCTURE
  1 ****   5 GROUP 4 **** **** 0

# MOE 2024.06 (io_trps.svl 2023.06)
