@<TRIPOS>MOLECULE
NONAME
47 50 1 0 0 
SMALL
USER_CHARGES


@<TRIPOS>ATOM
  1 O        0.3970    -0.2200     1.1690 O.3   1 <1>  -0.5600 
  2 C        0.3010    -1.5570     0.7530 C.3   1 <1>   0.1200 
  3 C        1.3240     0.5260     0.4410 C.3   1 <1>   0.1200 
  4 C        1.6660    -2.2720     0.8590 C.3   1 <1>   0.3340 
  5 C        2.7270    -0.0900     0.6020 C.3   1 <1>   0.1900 
  6 N        2.7270    -1.5030     0.1530 N.3   1 <1>  -0.8100 
  7 C        1.5640    -3.6830     0.2860 C.ar  1 <1>  -0.1440 
  8 C        3.7690     0.7230    -0.1960 C.3   1 <1>   0.3430 
  9 C        4.0610    -2.1210     0.3040 C.3   1 <1>   0.1100 
 10 C        1.4120    -3.8880    -1.0790 C.ar  1 <1>  -0.1500 
 11 C        1.6280    -4.7830     1.1310 C.ar  1 <1>  -0.1500 
 12 N        5.1510     0.1170    -0.1170 N.4   1 <1>  -0.9590 
 13 C        5.1240    -1.3400    -0.4930 C.3   1 <1>   0.3430 
 14 C        1.3300    -5.1700    -1.5920 C.ar  1 <1>  -0.1500 
 15 C        1.5470    -6.0660     0.6180 C.ar  1 <1>  -0.1500 
 16 C        6.1370     0.8730    -0.9350 C.3   1 <1>   0.4860 
 17 C        1.3980    -6.2600    -0.7440 C.ar  1 <1>  -0.1500 
 18 C        6.2060     2.2980    -0.4220 C.ar  1 <1>  -0.1440 
 19 C        5.6500     3.3500    -1.1260 C.ar  1 <1>  -0.1500 
 20 C        6.8210     2.6190     0.7750 C.ar  1 <1>  -0.1500 
 21 C        5.7160     4.6320    -0.6060 C.ar  1 <1>   0.1600 
 22 C        6.8310     3.9350     1.2060 C.ar  1 <1>   0.1600 
 23 N        6.2840     4.9400     0.5460 N.ar  1 <1>  -0.6200 
 24 H       -0.4200    -2.0480     1.3830 H     1 <1>   0.0800 
 25 H       -0.0600    -1.5780    -0.2590 H     1 <1>   0.0800 
 26 H        1.0190     0.5400    -0.5910 H     1 <1>   0.0800 
 27 H        1.3020     1.5300     0.8270 H     1 <1>   0.0800 
 28 H        1.9160    -2.3380     1.9050 H     1 <1>   0.0800 
 29 H        2.9840    -0.0430     1.6470 H     1 <1>   0.0800 
 30 H        3.7890     1.7310     0.1850 H     1 <1>   0.0800 
 31 H        3.4490     0.7620    -1.2230 H     1 <1>   0.0800 
 32 H        4.3360    -2.1620     1.3450 H     1 <1>   0.0800 
 33 H        4.0380    -3.1310    -0.0700 H     1 <1>   0.0800 
 34 H        1.3610    -3.0460    -1.7470 H     1 <1>   0.1500 
 35 H        1.7400    -4.6520     2.1930 H     1 <1>   0.1500 
 36 H        5.4490     0.1870     0.8630 H     1 <1>   0.4500 
 37 H        4.8930    -1.4410    -1.5410 H     1 <1>   0.0800 
 38 H        6.0900    -1.7860    -0.3220 H     1 <1>   0.0800 
 39 H        1.2110    -5.3210    -2.6510 H     1 <1>   0.1500 
 40 H        1.5970    -6.9140     1.2780 H     1 <1>   0.1500 
 41 H        7.1120     0.4180    -0.8580 H     1 <1>   0.0800 
 42 H        5.8400     0.8690    -1.9720 H     1 <1>   0.0800 
 43 H        1.3340    -7.2580    -1.1420 H     1 <1>   0.1500 
 44 H        5.1660     3.2010    -2.0760 H     1 <1>   0.1500 
 45 H        7.2990     1.8720     1.3830 H     1 <1>   0.1500 
 46 H        5.2800     5.4460    -1.1620 H     1 <1>   0.1500 
 47 H        7.3120     4.1760     2.1400 H     1 <1>   0.1500 
@<TRIPOS>BOND
  1   1   2  1   
  2   1   3  1   
  3   2   4  1   
  4   2  24  1   
  5   2  25  1   
  6   3   5  1   
  7   3  26  1   
  8   3  27  1   
  9   4   6  1   
 10   4   7  1   
 11   4  28  1   
 12   5   6  1   
 13   5   8  1   
 14   5  29  1   
 15   6   9  1   
 16   7  10  ar  
 17   7  11  ar  
 18   8  12  1   
 19   8  30  1   
 20   8  31  1   
 21   9  13  1   
 22   9  32  1   
 23   9  33  1   
 24  10  14  ar  
 25  10  34  1   
 26  11  15  ar  
 27  11  35  1   
 28  12  13  1   
 29  12  16  1   
 30  12  36  1   
 31  13  37  1   
 32  13  38  1   
 33  14  17  ar  
 34  14  39  1   
 35  15  17  ar  
 36  15  40  1   
 37  16  18  1   
 38  16  41  1   
 39  16  42  1   
 40  17  43  1   
 41  18  19  ar  
 42  18  20  ar  
 43  19  21  ar  
 44  19  44  1   
 45  20  22  ar  
 46  20  45  1   
 47  21  23  ar  
 48  21  46  1   
 49  22  23  ar  
 50  22  47  1   
@<TRIPOS>SUBSTRUCTURE
  1 ****   5 GROUP 4 **** **** 0

# MOE 2024.06 (io_trps.svl 2023.06)
