@<TRIPOS>MOLECULE
NONAME
42 43 1 0 0 
SMALL
USER_CHARGES


@<TRIPOS>ATOM
  1 S        0.4850     0.4040    -1.5490 S.o2  1 <1>   1.3330 
  2 O        0.8730    -0.9050    -2.0250 O.2   1 <1>  -0.6500 
  3 O       -0.3740     1.2360    -2.3610 O.2   1 <1>  -0.6500 
  4 N       -0.2890     0.2000    -0.0490 N.am  1 <1>  -0.8490 
  5 C        1.9780     1.3130    -1.1410 C.3   1 <1>  -0.0550 
  6 C       -1.0690     1.3720     0.3640 C.3   1 <1>   0.1160 
  7 C       -1.1410    -0.9930    -0.0250 C.3   1 <1>   0.1160 
  8 C        3.0030     0.5060    -0.3140 C.3   1 <1>  -0.0800 
  9 C        4.3520     1.1860    -0.1290 C.3   1 <1>   0.2200 
 10 C        2.5830     0.1900     1.1280 C.3   1 <1>   0.1200 
 11 N        4.1800     2.6210     0.2020 N.am  1 <1>  -0.7300 
 12 C        4.8530     0.4630     1.1120 C.3   1 <1>   0.1200 
 13 O        3.7250     0.3370     1.9220 O.3   1 <1>  -0.5600 
 14 C        4.3610     3.6620    -0.6630 C.2   1 <1>   0.5440 
 15 O        4.5790     3.3950    -1.8280 O.2   1 <1>  -0.5700 
 16 C        4.2880     5.0440    -0.2140 C.ar  1 <1>   0.0860 
 17 C        3.7490     5.4070     1.0240 C.ar  1 <1>  -0.1500 
 18 C        4.7620     6.0820    -1.0170 C.ar  1 <1>  -0.1500 
 19 C        3.6960     6.7270     1.4330 C.ar  1 <1>  -0.1500 
 20 C        4.7100     7.4030    -0.6110 C.ar  1 <1>  -0.1500 
 21 C        4.1760     7.7500     0.6240 C.ar  1 <1>   0.0730 
 22 C        4.1220     9.1190     1.0500 C.1   1 <1>   0.4840 
 23 N        4.0770    10.2060     1.3920 N.1   1 <1>  -0.5570 
 24 H        2.4520     1.6040    -2.0590 H     1 <1>   0.0800 
 25 H        1.7160     2.2120    -0.6200 H     1 <1>   0.0800 
 26 H       -1.4600     1.2240     1.3570 H     1 <1>   0.0800 
 27 H       -1.8910     1.5360    -0.3150 H     1 <1>   0.0800 
 28 H       -0.4480     2.2500     0.3710 H     1 <1>   0.0800 
 29 H       -1.6090    -1.1000     0.9380 H     1 <1>   0.0800 
 30 H       -0.5480    -1.8740    -0.2090 H     1 <1>   0.0800 
 31 H       -1.9020    -0.9250    -0.7850 H     1 <1>   0.0800 
 32 H        3.1770    -0.4310    -0.8140 H     1 <1>   0.0800 
 33 H        5.0070     1.0590    -0.9750 H     1 <1>   0.0800 
 34 H        2.2150    -0.8180     1.2230 H     1 <1>   0.0800 
 35 H        1.8430     0.8810     1.4930 H     1 <1>   0.0800 
 36 H        4.0010     2.7840     1.1940 H     1 <1>   0.3700 
 37 H        5.6210     1.0060     1.6340 H     1 <1>   0.0800 
 38 H        5.2010    -0.5260     0.8680 H     1 <1>   0.0800 
 39 H        3.3590     4.6500     1.6810 H     1 <1>   0.1500 
 40 H        5.1810     5.8430    -1.9820 H     1 <1>   0.1500 
 41 H        3.2750     6.9700     2.3950 H     1 <1>   0.1500 
 42 H        5.0880     8.1740    -1.2620 H     1 <1>   0.1500 
@<TRIPOS>BOND
  1   1   2  2   
  2   1   3  2   
  3   1   4  am  
  4   1   5  1   
  5   4   6  1   
  6   4   7  1   
  7   5   8  1   
  8   5  24  1   
  9   5  25  1   
 10   6  26  1   
 11   6  27  1   
 12   6  28  1   
 13   7  29  1   
 14   7  30  1   
 15   7  31  1   
 16   8   9  1   
 17   8  10  1   
 18   8  32  1   
 19   9  11  1   
 20   9  12  1   
 21   9  33  1   
 22  10  13  1   
 23  10  34  1   
 24  10  35  1   
 25  11  14  am  
 26  11  36  1   
 27  12  13  1   
 28  12  37  1   
 29  12  38  1   
 30  14  15  2   
 31  14  16  1   
 32  16  17  ar  
 33  16  18  ar  
 34  17  19  ar  
 35  17  39  1   
 36  18  20  ar  
 37  18  40  1   
 38  19  21  ar  
 39  19  41  1   
 40  20  21  ar  
 41  20  42  1   
 42  21  22  1   
 43  22  23  3   
@<TRIPOS>SUBSTRUCTURE
  1 ****  11 GROUP 4 **** **** 0

# MOE 2024.06 (io_trps.svl 2023.06)
