@<TRIPOS>MOLECULE
NONAME
49 52 1 0 0 
SMALL
USER_CHARGES


@<TRIPOS>ATOM
  1 O       -0.0650     0.0030     0.0170 O.3   1 <1>  -0.6800 
  2 C        1.0740    -0.2130    -0.7500 C.3   1 <1>   0.2000 
  3 C        1.6590    -1.5660    -0.3430 C.3   1 <1>  -0.0800 
  4 C        2.1490     0.8000    -0.3160 C.3   1 <1>   0.3430 
  5 C        2.3460    -1.1940     0.9730 C.3   1 <1>   0.3430 
  6 C        2.6350    -2.0940    -1.4290 C.3   1 <1>   0.0210 
  7 N        3.0330     0.0750     0.6520 N.4   1 <1>  -0.9590 
  8 C        3.9820    -2.5550    -0.8960 C.2   1 <1>   0.1080 
  9 C        3.4590     0.8800     1.8170 C.3   1 <1>   0.4860 
 10 N        4.9310    -1.7330    -0.5530 N.2   1 <1>  -0.7070 
 11 C        4.3450    -3.8850    -0.7200 C.2   1 <1>  -0.1500 
 12 C        4.1530     2.1290     1.3080 C.ar  1 <1>  -0.1440 
 13 N        5.9490    -2.5400    -0.1700 N.pl3 1 <1>   0.3000 
 14 C        5.6090    -3.8410    -0.2520 C.2   1 <1>  -0.3320 
 15 C        5.3230     2.0420     0.5810 C.ar  1 <1>  -0.1500 
 16 C        3.5810     3.3830     1.5720 C.ar  1 <1>  -0.1500 
 17 C        6.5330    -4.9890     0.1150 C.3   1 <1>  -0.0600 
 18 C        5.9210     3.2120     0.1060 C.ar  1 <1>  -0.1520 
 19 C        4.1700     4.5350     1.1080 C.ar  1 <1>  -0.1500 
 20 N        7.0630     3.4090    -0.6360 N.pl3 1 <1>   0.0480 
 21 C        5.3500     4.4540     0.3660 C.ar  1 <1>   0.0000 
 22 C        7.2050     4.7530    -0.8350 C.2   1 <1>  -0.3020 
 23 C        7.9750     2.3660    -1.1330 C.3   1 <1>   0.0160 
 24 C        6.1840     5.4140    -0.2410 C.2   1 <1>  -0.1500 
 25 H       -0.8390    -0.4770    -0.3460 H     1 <1>   0.4000 
 26 H        0.8110    -0.1260    -1.7910 H     1 <1>   0.0800 
 27 H        0.8940    -2.3010    -0.1690 H     1 <1>   0.0800 
 28 H        1.6820     1.6580     0.1390 H     1 <1>   0.0800 
 29 H        2.7330     1.1210    -1.1630 H     1 <1>   0.0800 
 30 H        3.0400    -1.9530     1.3010 H     1 <1>   0.0800 
 31 H        1.6000    -1.0270     1.7330 H     1 <1>   0.0800 
 32 H        2.8360    -1.3360    -2.1660 H     1 <1>   0.0800 
 33 H        2.1700    -2.9120    -1.9520 H     1 <1>   0.0800 
 34 H        3.8900    -0.2200     0.1380 H     1 <1>   0.4500 
 35 H        2.6030     1.1520     2.4110 H     1 <1>   0.0800 
 36 H        4.1400     0.3120     2.4300 H     1 <1>   0.0800 
 37 H        3.7370    -4.7500    -0.9270 H     1 <1>   0.1500 
 38 H        6.8660    -2.1850     0.1320 H     1 <1>   0.2700 
 39 H        5.7870     1.0960     0.3660 H     1 <1>   0.1500 
 40 H        2.6710     3.4530     2.1440 H     1 <1>   0.1500 
 41 H        6.0350    -5.9300    -0.0410 H     1 <1>   0.0800 
 42 H        6.8200    -4.9240     1.1500 H     1 <1>   0.0800 
 43 H        7.4170    -4.9680    -0.4970 H     1 <1>   0.0800 
 44 H        3.7450     5.5040     1.3040 H     1 <1>   0.1500 
 45 H        8.0290     5.1650    -1.3910 H     1 <1>   0.1500 
 46 H        8.7690     2.8210    -1.6970 H     1 <1>   0.0800 
 47 H        7.4290     1.6890    -1.7640 H     1 <1>   0.0800 
 48 H        8.3900     1.8330    -0.2980 H     1 <1>   0.0800 
 49 H        6.0050     6.4740    -0.2130 H     1 <1>   0.1500 
@<TRIPOS>BOND
  1   1   2  1   
  2   1  25  1   
  3   2   3  1   
  4   2   4  1   
  5   2  26  1   
  6   3   5  1   
  7   3   6  1   
  8   3  27  1   
  9   4   7  1   
 10   4  28  1   
 11   4  29  1   
 12   5   7  1   
 13   5  30  1   
 14   5  31  1   
 15   6   8  1   
 16   6  32  1   
 17   6  33  1   
 18   7   9  1   
 19   7  34  1   
 20   8  10  2   
 21   8  11  1   
 22   9  12  1   
 23   9  35  1   
 24   9  36  1   
 25  10  13  1   
 26  11  14  2   
 27  11  37  1   
 28  12  15  ar  
 29  12  16  ar  
 30  13  14  1   
 31  13  38  1   
 32  14  17  1   
 33  15  18  ar  
 34  15  39  1   
 35  16  19  ar  
 36  16  40  1   
 37  17  41  1   
 38  17  42  1   
 39  17  43  1   
 40  18  20  1   
 41  18  21  ar  
 42  19  21  ar  
 43  19  44  1   
 44  20  22  1   
 45  20  23  1   
 46  21  24  1   
 47  22  24  2   
 48  22  45  1   
 49  23  46  1   
 50  23  47  1   
 51  23  48  1   
 52  24  49  1   
@<TRIPOS>SUBSTRUCTURE
  1 ****   7 GROUP 4 **** **** 0

# MOE 2024.06 (io_trps.svl 2023.06)
