@<TRIPOS>MOLECULE
NONAME
53 55 1 0 0 
SMALL
USER_CHARGES


@<TRIPOS>ATOM
  1 O        0.2950     1.0050     1.6180 O.2   1 <1>  -0.5700 
  2 C        0.0540     1.7100     0.6590 C.2   1 <1>   0.5440 
  3 N       -1.2320     1.7240     0.1960 N.am  1 <1>  -0.7300 
  4 C        1.0990     2.4780     0.0040 C.ar  1 <1>   0.0860 
  5 C       -2.3840     1.0590     0.8560 C.3   1 <1>   0.2200 
  6 C        0.8290     3.6770    -0.6620 C.ar  1 <1>  -0.1500 
  7 C        2.4230     2.0380     0.0170 C.ar  1 <1>  -0.1500 
  8 C       -2.3950    -0.4620     0.5850 C.3   1 <1>   0.2000 
  9 C       -3.6720     1.7260     0.3670 C.3   1 <1>  -0.1600 
 10 C        1.8290     4.3890    -1.2980 C.ar  1 <1>  -0.1500 
 11 C        3.4270     2.7460    -0.6160 C.ar  1 <1>  -0.1500 
 12 O       -1.3630    -1.0730     1.2730 O.3   1 <1>  -0.6800 
 13 C       -3.6960    -1.1180     1.0660 C.3   1 <1>   0.3430 
 14 C       -4.9050     1.0550     0.9730 C.3   1 <1>   0.3430 
 15 C        3.1310     3.9230    -1.2780 C.ar  1 <1>  -0.1500 
 16 N       -4.9260    -0.3850     0.5990 N.4   1 <1>  -0.9590 
 17 C       -6.1490    -1.0720     1.0910 C.3   1 <1>   0.5240 
 18 C       -6.2500    -2.3840     0.3520 C.2   1 <1>  -0.1810 
 19 C       -6.7330    -2.5790    -0.9390 C.2   1 <1>   0.1080 
 20 C       -5.8860    -3.6180     0.7700 C.2   1 <1>  -0.3020 
 21 N       -6.6560    -3.8170    -1.2970 N.2   1 <1>  -0.7070 
 22 C       -7.3000    -1.5390    -1.8830 C.3   1 <1>  -0.0590 
 23 N       -6.1410    -4.4690    -0.2430 N.pl3 1 <1>   0.3140 
 24 C       -5.9220    -5.9250    -0.2660 C.3   1 <1>   0.0960 
 25 C       -7.2660    -6.6470    -0.1750 C.3   1 <1>   0.1200 
 26 O       -7.0440    -8.0160    -0.1720 O.3   1 <1>  -0.6800 
 27 H       -1.4130     2.1940    -0.6930 H     1 <1>   0.3700 
 28 H       -2.3040     1.2110     1.9220 H     1 <1>   0.0800 
 29 H       -0.1720     4.0660    -0.6780 H     1 <1>   0.1500 
 30 H        2.6640     1.1240     0.5330 H     1 <1>   0.1500 
 31 H       -2.2520    -0.6550    -0.4640 H     1 <1>   0.0800 
 32 H       -3.6660     2.7600     0.6650 H     1 <1>   0.0800 
 33 H       -3.7360     1.6840    -0.7060 H     1 <1>   0.0800 
 34 H        1.6000     5.3110    -1.8070 H     1 <1>   0.1500 
 35 H        4.4400     2.3820    -0.5930 H     1 <1>   0.1500 
 36 H       -0.6060    -0.4310     1.3850 H     1 <1>   0.4000 
 37 H       -3.6810    -1.1380     2.1430 H     1 <1>   0.0800 
 38 H       -3.7160    -2.1350     0.7090 H     1 <1>   0.0800 
 39 H       -5.7950     1.5460     0.6100 H     1 <1>   0.0800 
 40 H       -4.8770     1.1550     2.0470 H     1 <1>   0.0800 
 41 H        3.9120     4.4760    -1.7720 H     1 <1>   0.1500 
 42 H       -4.9590    -0.4790    -0.4250 H     1 <1>   0.4500 
 43 H       -6.0840    -1.2480     2.1530 H     1 <1>   0.0800 
 44 H       -7.0270    -0.4800     0.8890 H     1 <1>   0.0800 
 45 H       -5.4680    -3.9460     1.7060 H     1 <1>   0.1500 
 46 H       -7.5250    -0.6210    -1.3760 H     1 <1>   0.0800 
 47 H       -8.2080    -1.9180    -2.3190 H     1 <1>   0.0800 
 48 H       -6.6000    -1.3520    -2.6770 H     1 <1>   0.0800 
 49 H       -5.4300    -6.1750    -1.1870 H     1 <1>   0.0800 
 50 H       -5.2990    -6.1980     0.5650 H     1 <1>   0.0800 
 51 H       -7.8980    -6.4030    -1.0120 H     1 <1>   0.0800 
 52 H       -7.7660    -6.3960     0.7450 H     1 <1>   0.0800 
 53 H       -6.8580    -8.3430    -1.0760 H     1 <1>   0.4000 
@<TRIPOS>BOND
  1   1   2  2   
  2   2   3  am  
  3   2   4  1   
  4   3   5  1   
  5   3  27  1   
  6   4   6  ar  
  7   4   7  ar  
  8   5   8  1   
  9   5   9  1   
 10   5  28  1   
 11   6  10  ar  
 12   6  29  1   
 13   7  11  ar  
 14   7  30  1   
 15   8  12  1   
 16   8  13  1   
 17   8  31  1   
 18   9  14  1   
 19   9  32  1   
 20   9  33  1   
 21  10  15  ar  
 22  10  34  1   
 23  11  15  ar  
 24  11  35  1   
 25  12  36  1   
 26  13  16  1   
 27  13  37  1   
 28  13  38  1   
 29  14  16  1   
 30  14  39  1   
 31  14  40  1   
 32  15  41  1   
 33  16  17  1   
 34  16  42  1   
 35  17  18  1   
 36  17  43  1   
 37  17  44  1   
 38  18  19  1   
 39  18  20  2   
 40  19  21  2   
 41  19  22  1   
 42  20  23  1   
 43  20  45  1   
 44  21  23  1   
 45  22  46  1   
 46  22  47  1   
 47  22  48  1   
 48  23  24  1   
 49  24  25  1   
 50  24  49  1   
 51  24  50  1   
 52  25  26  1   
 53  25  51  1   
 54  25  52  1   
 55  26  53  1   
@<TRIPOS>SUBSTRUCTURE
  1 ****   8 GROUP 4 **** **** 0

# MOE 2024.06 (io_trps.svl 2023.06)
