@<TRIPOS>MOLECULE
NONAME
39 40 1 0 0 
SMALL
USER_CHARGES


@<TRIPOS>ATOM
  1 O        0.1000    -0.5880    -1.1520 O.3   1 <1>  -0.5600 
  2 C       -0.3520    -1.8000    -0.6100 C.3   1 <1>   0.2000 
  3 C        0.0270     0.5010    -0.2850 C.3   1 <1>   0.1200 
  4 C        0.5670    -2.1840     0.5640 C.3   1 <1>  -0.1600 
  5 C       -0.3730    -2.8460    -1.7410 C.3   1 <1>   0.2090 
  6 C        0.9590     0.2670     0.9090 C.3   1 <1>  -0.1600 
  7 C        0.6310    -1.0590     1.6040 C.3   1 <1>  -0.1600 
  8 N       -0.7350    -4.2240    -1.2640 N.pl3 1 <1>  -0.8380 
  9 C       -1.9760    -4.4960    -0.7250 C.ar  1 <1>   0.7200 
 10 C        0.1300    -5.3250    -1.7560 C.3   1 <1>   0.2090 
 11 N       -2.0900    -5.6210    -0.0190 N.ar  1 <1>  -0.6200 
 12 N       -2.9470    -3.6120    -0.9500 N.ar  1 <1>  -0.6200 
 13 C        1.3410    -5.4610    -0.8400 C.3   1 <1>  -0.2400 
 14 C       -3.2710    -5.8690     0.4990 C.ar  1 <1>   0.1600 
 15 C       -4.1180    -3.8880    -0.4220 C.ar  1 <1>   0.1600 
 16 C       -4.3490    -5.0200     0.3270 C.ar  1 <1>   0.0820 
 17 O       -5.5990    -5.2230     0.8380 O.3   1 <1>  -0.3630 
 18 C       -5.8740    -6.3690     1.6150 C.3   1 <1>   0.0400 
 19 H       -1.3570    -1.6460    -0.2590 H     1 <1>   0.0800 
 20 H       -0.9950     0.6190     0.0340 H     1 <1>   0.0800 
 21 H        0.3270     1.3770    -0.8320 H     1 <1>   0.0800 
 22 H        1.5520    -2.3860     0.1850 H     1 <1>   0.0800 
 23 H        0.2000    -3.0830     1.0280 H     1 <1>   0.0800 
 24 H        0.6020    -2.8690    -2.1920 H     1 <1>   0.0800 
 25 H       -1.0830    -2.5360    -2.4880 H     1 <1>   0.0800 
 26 H        0.8630     1.0790     1.6070 H     1 <1>   0.0800 
 27 H        1.9750     0.2520     0.5550 H     1 <1>   0.0800 
 28 H        1.3740    -1.2850     2.3490 H     1 <1>   0.0800 
 29 H       -0.3240    -0.9790     2.0950 H     1 <1>   0.0800 
 30 H        0.4460    -5.1160    -2.7630 H     1 <1>   0.0800 
 31 H       -0.4170    -6.2530    -1.7720 H     1 <1>   0.0800 
 32 H        1.9380    -4.5690    -0.8720 H     1 <1>   0.0800 
 33 H        1.9450    -6.2900    -1.1600 H     1 <1>   0.0800 
 34 H        1.0150    -5.6410     0.1680 H     1 <1>   0.0800 
 35 H       -3.3710    -6.7720     1.0710 H     1 <1>   0.1500 
 36 H       -4.9250    -3.1980    -0.5850 H     1 <1>   0.1500 
 37 H       -6.9060    -6.3290     1.9140 H     1 <1>   0.0800 
 38 H       -5.2430    -6.3640     2.4860 H     1 <1>   0.0800 
 39 H       -5.7030    -7.2480     1.0180 H     1 <1>   0.0800 
@<TRIPOS>BOND
  1   1   2  1   
  2   1   3  1   
  3   2   4  1   
  4   2   5  1   
  5   2  19  1   
  6   3   6  1   
  7   3  20  1   
  8   3  21  1   
  9   4   7  1   
 10   4  22  1   
 11   4  23  1   
 12   5   8  1   
 13   5  24  1   
 14   5  25  1   
 15   6   7  1   
 16   6  26  1   
 17   6  27  1   
 18   7  28  1   
 19   7  29  1   
 20   8   9  1   
 21   8  10  1   
 22   9  11  ar  
 23   9  12  ar  
 24  10  13  1   
 25  10  30  1   
 26  10  31  1   
 27  11  14  ar  
 28  12  15  ar  
 29  13  32  1   
 30  13  33  1   
 31  13  34  1   
 32  14  16  ar  
 33  14  35  1   
 34  15  16  ar  
 35  15  36  1   
 36  16  17  1   
 37  17  18  1   
 38  18  37  1   
 39  18  38  1   
 40  18  39  1   
@<TRIPOS>SUBSTRUCTURE
  1 ****   9 GROUP 4 **** **** 0

# MOE 2024.06 (io_trps.svl 2023.06)
