@<TRIPOS>MOLECULE
NONAME
38 39 1 0 0 
SMALL
USER_CHARGES


@<TRIPOS>ATOM
  1 CL       0.7200     0.1910    -1.8730 Cl    1 <1>  -0.1770 
  2 C        1.5820    -1.0320    -0.9520 C.ar  1 <1>   0.1770 
  3 C        1.0380    -2.2870    -0.6870 C.ar  1 <1>   0.4100 
  4 C        2.8370    -0.7590    -0.4830 C.ar  1 <1>   0.1600 
  5 N        1.7380    -3.1790    -0.0040 N.ar  1 <1>  -0.6200 
  6 N       -0.2280    -2.6700    -1.0970 N.pl3 1 <1>  -0.8380 
  7 N        3.5380    -1.6440     0.2040 N.ar  1 <1>  -0.6200 
  8 C        2.9390    -2.8080     0.3970 C.ar  1 <1>   0.4770 
  9 C       -0.4910    -4.0870    -1.5100 C.3   1 <1>   0.2090 
 10 C       -1.4210    -1.9580    -0.5720 C.3   1 <1>   0.2090 
 11 C        3.7220    -3.8360     1.1770 C.3   1 <1>  -0.0960 
 12 C       -1.0940    -4.8960    -0.3500 C.3   1 <1>   0.2000 
 13 C       -2.0170    -2.7430     0.6040 C.3   1 <1>  -0.1600 
 14 O       -1.4670    -6.1510    -0.8390 O.3   1 <1>  -0.5600 
 15 C       -2.3360    -4.2000     0.2280 C.3   1 <1>  -0.1600 
 16 C       -1.4330    -7.1790     0.0960 C.3   1 <1>   0.1200 
 17 C       -1.8590    -8.4650    -0.6090 C.3   1 <1>  -0.1600 
 18 C       -1.8420    -9.6610     0.3500 C.3   1 <1>  -0.2400 
 19 H        3.2810     0.2020    -0.6750 H     1 <1>   0.1500 
 20 H        0.4260    -4.5510    -1.8290 H     1 <1>   0.0800 
 21 H       -1.1790    -4.0850    -2.3370 H     1 <1>   0.0800 
 22 H       -2.1490    -1.8610    -1.3600 H     1 <1>   0.0800 
 23 H       -1.1510    -0.9700    -0.2410 H     1 <1>   0.0800 
 24 H        3.4670    -4.8240     0.8430 H     1 <1>   0.0800 
 25 H        3.4860    -3.7440     2.2200 H     1 <1>   0.0800 
 26 H        4.7760    -3.6830     1.0390 H     1 <1>   0.0800 
 27 H       -0.3350    -5.0180     0.4050 H     1 <1>   0.0800 
 28 H       -2.9130    -2.2520     0.9380 H     1 <1>   0.0800 
 29 H       -1.3110    -2.7270     1.4160 H     1 <1>   0.0800 
 30 H       -2.6780    -4.7230     1.1020 H     1 <1>   0.0800 
 31 H       -3.1180    -4.2110    -0.5110 H     1 <1>   0.0800 
 32 H       -2.1100    -6.9470     0.9000 H     1 <1>   0.0800 
 33 H       -0.4290    -7.2710     0.4740 H     1 <1>   0.0800 
 34 H       -1.1870    -8.6560    -1.4280 H     1 <1>   0.0800 
 35 H       -2.8530    -8.3380    -1.0030 H     1 <1>   0.0800 
 36 H       -0.8530    -9.8130     0.7440 H     1 <1>   0.0800 
 37 H       -2.1430   -10.5520    -0.1720 H     1 <1>   0.0800 
 38 H       -2.5220    -9.4970     1.1680 H     1 <1>   0.0800 
@<TRIPOS>BOND
  1   1   2  1   
  2   2   3  ar  
  3   2   4  ar  
  4   3   5  ar  
  5   3   6  1   
  6   4   7  ar  
  7   4  19  1   
  8   5   8  ar  
  9   6   9  1   
 10   6  10  1   
 11   7   8  ar  
 12   8  11  1   
 13   9  12  1   
 14   9  20  1   
 15   9  21  1   
 16  10  13  1   
 17  10  22  1   
 18  10  23  1   
 19  11  24  1   
 20  11  25  1   
 21  11  26  1   
 22  12  14  1   
 23  12  15  1   
 24  12  27  1   
 25  13  15  1   
 26  13  28  1   
 27  13  29  1   
 28  14  16  1   
 29  15  30  1   
 30  15  31  1   
 31  16  17  1   
 32  16  32  1   
 33  16  33  1   
 34  17  18  1   
 35  17  34  1   
 36  17  35  1   
 37  18  36  1   
 38  18  37  1   
 39  18  38  1   
@<TRIPOS>SUBSTRUCTURE
  1 ****   6 GROUP 4 **** **** 0

# MOE 2024.06 (io_trps.svl 2023.06)
