@<TRIPOS>MOLECULE
NONAME
47 50 1 0 0 
SMALL
USER_CHARGES


@<TRIPOS>ATOM
  1 O       -0.9920     0.9120     1.6920 O.2   1 <1>  -0.5700 
  2 C       -1.8990     1.3000     0.9730 C.2   1 <1>   0.7160 
  3 N       -3.0940     0.5980     0.9980 N.am  1 <1>  -0.6600 
  4 C       -1.6680     2.4630     0.1210 C.2   1 <1>   0.1410 
  5 C       -4.1600     0.7210    -0.0350 C.3   1 <1>   0.1400 
  6 C       -3.4180    -0.3730     2.0830 C.3   1 <1>   0.1400 
  7 N       -2.5980     3.4320    -0.1630 N.2   1 <1>  -0.5650 
  8 C       -0.5210     2.8180    -0.5100 C.2   1 <1>  -0.0400 
  9 C       -4.4300    -0.6500    -0.6600 C.3   1 <1>  -0.1600 
 10 C       -3.6800    -1.7550     1.4790 C.3   1 <1>  -0.1600 
 11 C       -1.9640     4.2570    -0.9090 C.2   1 <1>   0.3280 
 12 O       -0.7200     3.9320    -1.1480 O.3   1 <1>  -0.2800 
 13 C        0.8520     2.1780    -0.5880 C.3   1 <1>  -0.0600 
 14 C       -4.7750    -1.7160     0.3990 C.3   1 <1>   0.4240 
 15 O       -5.9140    -1.2490     1.0910 O.3   1 <1>  -0.5600 
 16 C       -5.0210    -3.1210    -0.2240 C.ar  1 <1>  -0.1430 
 17 C       -7.1610    -1.4970     0.5330 C.3   1 <1>   0.1200 
 18 C       -4.0170    -3.8230    -0.9060 C.ar  1 <1>   0.0830 
 19 C       -6.2760    -3.7190    -0.1140 C.ar  1 <1>  -0.1430 
 20 C       -7.4090    -2.9960     0.5860 C.3   1 <1>  -0.0170 
 21 O       -2.7930    -3.2490    -1.0490 O.3   1 <1>  -0.3630 
 22 C       -4.2770    -5.0860    -1.4340 C.ar  1 <1>  -0.1500 
 23 C       -6.5230    -4.9750    -0.6400 C.ar  1 <1>  -0.1500 
 24 C       -1.6850    -3.9320    -1.5930 C.3   1 <1>   0.0400 
 25 C       -5.5240    -5.6610    -1.2990 C.ar  1 <1>  -0.1500 
 26 H       -3.8680     1.3980    -0.8170 H     1 <1>   0.0800 
 27 H       -5.0540     1.1050     0.4260 H     1 <1>   0.0800 
 28 H       -4.2940    -0.0290     2.6070 H     1 <1>   0.0800 
 29 H       -2.6140    -0.4380     2.7950 H     1 <1>   0.0800 
 30 H       -3.5500    -0.9380    -1.1990 H     1 <1>   0.0800 
 31 H       -5.2220    -0.5780    -1.3790 H     1 <1>   0.0800 
 32 H       -3.9760    -2.4400     2.2520 H     1 <1>   0.0800 
 33 H       -2.7530    -2.1110     1.0770 H     1 <1>   0.0800 
 34 H       -2.3530     5.1630    -1.3410 H     1 <1>   0.1500 
 35 H        0.8710     1.2430    -0.0580 H     1 <1>   0.0800 
 36 H        1.5820     2.8350    -0.1530 H     1 <1>   0.0800 
 37 H        1.1110     1.9980    -1.6150 H     1 <1>   0.0800 
 38 H       -7.1820    -1.1320    -0.4780 H     1 <1>   0.0800 
 39 H       -7.8960    -0.9710     1.1170 H     1 <1>   0.0800 
 40 H       -8.3460    -3.2160     0.1070 H     1 <1>   0.0800 
 41 H       -7.4670    -3.3150     1.6110 H     1 <1>   0.0800 
 42 H       -3.5250    -5.6420    -1.9590 H     1 <1>   0.1500 
 43 H       -7.4950    -5.4260    -0.5400 H     1 <1>   0.1500 
 44 H       -0.8310    -3.2830    -1.5310 H     1 <1>   0.0800 
 45 H       -1.8910    -4.1680    -2.6220 H     1 <1>   0.0800 
 46 H       -1.5090    -4.8240    -1.0170 H     1 <1>   0.0800 
 47 H       -5.7180    -6.6370    -1.7080 H     1 <1>   0.1500 
@<TRIPOS>BOND
  1   1   2  2   
  2   2   3  am  
  3   2   4  1   
  4   3   5  1   
  5   3   6  1   
  6   4   7  1   
  7   4   8  2   
  8   5   9  1   
  9   5  26  1   
 10   5  27  1   
 11   6  10  1   
 12   6  28  1   
 13   6  29  1   
 14   7  11  2   
 15   8  12  1   
 16   8  13  1   
 17   9  14  1   
 18   9  30  1   
 19   9  31  1   
 20  10  14  1   
 21  10  32  1   
 22  10  33  1   
 23  11  12  1   
 24  11  34  1   
 25  13  35  1   
 26  13  36  1   
 27  13  37  1   
 28  14  15  1   
 29  14  16  1   
 30  15  17  1   
 31  16  18  ar  
 32  16  19  ar  
 33  17  20  1   
 34  17  38  1   
 35  17  39  1   
 36  18  21  1   
 37  18  22  ar  
 38  19  20  1   
 39  19  23  ar  
 40  20  40  1   
 41  20  41  1   
 42  21  24  1   
 43  22  25  ar  
 44  22  42  1   
 45  23  25  ar  
 46  23  43  1   
 47  24  44  1   
 48  24  45  1   
 49  24  46  1   
 50  25  47  1   
@<TRIPOS>SUBSTRUCTURE
  1 ****   9 GROUP 4 **** **** 0

# MOE 2024.06 (io_trps.svl 2023.06)
