@<TRIPOS>MOLECULE
NONAME
49 53 1 0 0 
SMALL
USER_CHARGES


@<TRIPOS>ATOM
  1 S        0.3820     0.0440    -2.3440 S.3   1 <1>  -0.0800 
  2 C        1.2150    -1.0390    -1.2000 C.2   1 <1>  -0.0450 
  3 C        1.1740     1.4750    -1.6990 C.2   1 <1>  -0.1100 
  4 C        2.0190    -0.2800    -0.4090 C.2   1 <1>   0.0620 
  5 C        0.9790    -2.4530    -1.2680 C.2   1 <1>   0.7150 
  6 C        2.0000     1.1240    -0.6980 C.2   1 <1>   0.0620 
  7 O        2.7870    -0.7620     0.5920 O.3   1 <1>  -0.3420 
  8 O        1.9150    -3.2300    -1.1930 O.2   1 <1>  -0.5700 
  9 N       -0.2910    -2.9740    -1.4190 N.am  1 <1>  -0.6600 
 10 O        2.7740     1.9950     0.0040 O.3   1 <1>  -0.3420 
 11 C        3.3800     0.1680     1.4780 C.3   1 <1>   0.1200 
 12 C       -1.5220    -2.2960    -0.9100 C.3   1 <1>   0.1400 
 13 C       -0.5210    -4.4010    -1.8020 C.3   1 <1>   0.1400 
 14 C        3.8520     1.4170     0.7170 C.3   1 <1>   0.1200 
 15 C       -2.1880    -3.1250     0.2070 C.3   1 <1>   0.1900 
 16 C       -1.2110    -5.1710    -0.6660 C.3   1 <1>   0.1100 
 17 N       -2.4690    -4.5080    -0.2530 N.3   1 <1>  -0.8100 
 18 C       -3.4830    -2.4390     0.6840 C.3   1 <1>   0.1200 
 19 C       -3.1630    -5.2620     0.8180 C.3   1 <1>   0.3330 
 20 O       -4.0890    -3.1870     1.7000 O.3   1 <1>  -0.5600 
 21 C       -3.5800    -6.6490     0.3320 C.ar  1 <1>  -0.1430 
 22 C       -4.4110    -4.4950     1.3060 C.3   1 <1>   0.1200 
 23 C       -4.2320    -6.8120    -0.8830 C.ar  1 <1>  -0.1500 
 24 C       -3.3130    -7.7680     1.1090 C.ar  1 <1>  -0.1500 
 25 C       -4.6120    -8.0710    -1.3150 C.ar  1 <1>  -0.1500 
 26 C       -3.6930    -9.0280     0.6780 C.ar  1 <1>  -0.1500 
 27 C       -4.3430    -9.1800    -0.5340 C.ar  1 <1>  -0.1500 
 28 H        0.9450     2.4280    -2.1370 H     1 <1>   0.1500 
 29 H        2.6480     0.4370     2.2190 H     1 <1>   0.0800 
 30 H        4.2070    -0.3200     1.9610 H     1 <1>   0.0800 
 31 H       -1.2820    -1.3240    -0.5180 H     1 <1>   0.0800 
 32 H       -2.2140    -2.1690    -1.7230 H     1 <1>   0.0800 
 33 H       -1.1470    -4.4330    -2.6770 H     1 <1>   0.0800 
 34 H        0.4080    -4.8850    -2.0480 H     1 <1>   0.0800 
 35 H        4.6200     1.1560     0.0100 H     1 <1>   0.0800 
 36 H        4.2340     2.1570     1.3960 H     1 <1>   0.0800 
 37 H       -1.5080    -3.1570     1.0420 H     1 <1>   0.0800 
 38 H       -0.5370    -5.2440     0.1700 H     1 <1>   0.0800 
 39 H       -1.4200    -6.1680    -1.0130 H     1 <1>   0.0800 
 40 H       -4.1800    -2.3360    -0.1290 H     1 <1>   0.0800 
 41 H       -3.2660    -1.4650     1.0850 H     1 <1>   0.0800 
 42 H       -2.4960    -5.3720     1.6560 H     1 <1>   0.0800 
 43 H       -4.8420    -4.9970     2.1530 H     1 <1>   0.0800 
 44 H       -5.1480    -4.4460     0.5240 H     1 <1>   0.0800 
 45 H       -4.4370    -5.9520    -1.4970 H     1 <1>   0.1500 
 46 H       -2.8090    -7.6660     2.0530 H     1 <1>   0.1500 
 47 H       -5.1160    -8.1860    -2.2590 H     1 <1>   0.1500 
 48 H       -3.4820    -9.8910     1.2860 H     1 <1>   0.1500 
 49 H       -4.6380   -10.1590    -0.8690 H     1 <1>   0.1500 
@<TRIPOS>BOND
  1   1   2  1   
  2   1   3  1   
  3   2   4  2   
  4   2   5  1   
  5   3   6  2   
  6   3  28  1   
  7   4   6  1   
  8   4   7  1   
  9   5   8  2   
 10   5   9  am  
 11   6  10  1   
 12   7  11  1   
 13   9  12  1   
 14   9  13  1   
 15  10  14  1   
 16  11  14  1   
 17  11  29  1   
 18  11  30  1   
 19  12  15  1   
 20  12  31  1   
 21  12  32  1   
 22  13  16  1   
 23  13  33  1   
 24  13  34  1   
 25  14  35  1   
 26  14  36  1   
 27  15  17  1   
 28  15  18  1   
 29  15  37  1   
 30  16  17  1   
 31  16  38  1   
 32  16  39  1   
 33  17  19  1   
 34  18  20  1   
 35  18  40  1   
 36  18  41  1   
 37  19  21  1   
 38  19  22  1   
 39  19  42  1   
 40  20  22  1   
 41  21  23  ar  
 42  21  24  ar  
 43  22  43  1   
 44  22  44  1   
 45  23  25  ar  
 46  23  45  1   
 47  24  26  ar  
 48  24  46  1   
 49  25  27  ar  
 50  25  47  1   
 51  26  27  ar  
 52  26  48  1   
 53  27  49  1   
@<TRIPOS>SUBSTRUCTURE
  1 ****  12 GROUP 4 **** **** 0

# MOE 2024.06 (io_trps.svl 2023.06)
