@<TRIPOS>MOLECULE
NONAME
55 57 1 0 0 
SMALL
USER_CHARGES


@<TRIPOS>ATOM
  1 S        1.6780    -0.1480    -0.4710 S.o2  1 <1>   1.4470 
  2 O        2.7930     0.2210     0.3710 O.2   1 <1>  -0.6500 
  3 O        1.7720    -0.0330    -1.9070 O.2   1 <1>  -0.6500 
  4 N        0.4000     0.8660    -0.0840 N.am  1 <1>  -0.9140 
  5 C        1.0540    -1.7870    -0.0050 C.ar  1 <1>  -0.0090 
  6 C        0.8200     2.2270     0.1860 C.3   1 <1>   0.1960 
  7 C        0.6580    -2.0570     1.3000 C.ar  1 <1>  -0.1500 
  8 C        0.9550    -2.8170    -0.9330 C.ar  1 <1>  -0.1500 
  9 C       -0.4240     3.0940     0.3760 C.3   1 <1>  -0.1600 
 10 C        0.1750    -3.3030     1.6610 C.ar  1 <1>  -0.1500 
 11 C        0.4730    -4.0620    -0.5730 C.ar  1 <1>  -0.1500 
 12 C       -0.0490     4.5480     0.6830 C.3   1 <1>  -0.2400 
 13 C        0.0610    -4.3330     0.7310 C.ar  1 <1>   0.0860 
 14 C       -0.4580    -5.6350     1.1070 C.2   1 <1>   0.5440 
 15 O       -0.1350    -6.1320     2.1690 O.2   1 <1>  -0.5700 
 16 N       -1.3340    -6.3090     0.2910 N.am  1 <1>  -0.6600 
 17 C       -1.3740    -7.8100     0.3710 C.3   1 <1>   0.3640 
 18 C       -2.5260    -5.5950    -0.2480 C.3   1 <1>   0.1400 
 19 C       -0.0460    -8.3340    -0.1840 C.ar  1 <1>  -0.1430 
 20 C       -2.5510    -8.5010    -0.3870 C.3   1 <1>   0.2000 
 21 C       -3.3350    -6.4560    -1.2180 C.3   1 <1>   0.1200 
 22 C        0.3490    -8.0510    -1.4860 C.ar  1 <1>  -0.1500 
 23 C        0.7860    -9.1010     0.6180 C.ar  1 <1>  -0.1500 
 24 O       -3.6540    -7.6600    -0.6010 O.3   1 <1>  -0.5600 
 25 C       -3.0810    -9.7400     0.3530 C.3   1 <1>   0.1200 
 26 C        1.5480    -8.5370    -1.9800 C.ar  1 <1>  -0.1500 
 27 C        1.9860    -9.5860     0.1270 C.ar  1 <1>  -0.1500 
 28 O       -2.0600   -10.6340     0.6610 O.3   1 <1>  -0.6800 
 29 C        2.3670    -9.3060    -1.1730 C.ar  1 <1>  -0.1500 
 30 H       -0.1410     0.8930    -0.9460 H     1 <1>   0.4200 
 31 H        1.4210     2.2520     1.0810 H     1 <1>   0.0800 
 32 H        1.4110     2.6030    -0.6350 H     1 <1>   0.0800 
 33 H        0.7330    -1.2800     2.0420 H     1 <1>   0.1500 
 34 H        1.2650    -2.6420    -1.9500 H     1 <1>   0.1500 
 35 H       -1.0220     3.0690    -0.5180 H     1 <1>   0.0800 
 36 H       -1.0060     2.7030     1.1920 H     1 <1>   0.0800 
 37 H       -0.1180    -3.4910     2.6800 H     1 <1>   0.1500 
 38 H        0.4180    -4.8470    -1.3080 H     1 <1>   0.1500 
 39 H        0.5220     4.9710    -0.1260 H     1 <1>   0.0800 
 40 H        0.5350     4.6050     1.5850 H     1 <1>   0.0800 
 41 H       -0.9390     5.1370     0.8160 H     1 <1>   0.0800 
 42 H       -1.4500    -8.0840     1.4100 H     1 <1>   0.0800 
 43 H       -3.1620    -5.3130     0.5740 H     1 <1>   0.0800 
 44 H       -2.2190    -4.6950    -0.7510 H     1 <1>   0.0800 
 45 H       -2.2160    -8.8150    -1.3590 H     1 <1>   0.0800 
 46 H       -2.7850    -6.6520    -2.1220 H     1 <1>   0.0800 
 47 H       -4.2570    -5.9630    -1.4710 H     1 <1>   0.0800 
 48 H       -0.2750    -7.4470    -2.1190 H     1 <1>   0.1500 
 49 H        0.5020    -9.3190     1.6340 H     1 <1>   0.1500 
 50 H       -3.8030   -10.2550    -0.2570 H     1 <1>   0.0800 
 51 H       -3.5430    -9.4460     1.2800 H     1 <1>   0.0800 
 52 H        1.8460    -8.3160    -2.9900 H     1 <1>   0.1500 
 53 H        2.6220   -10.1780     0.7610 H     1 <1>   0.1500 
 54 H       -1.5410   -10.8730    -0.1340 H     1 <1>   0.4000 
 55 H        3.3000    -9.6820    -1.5530 H     1 <1>   0.1500 
@<TRIPOS>BOND
  1   1   2  2   
  2   1   3  2   
  3   1   4  am  
  4   1   5  1   
  5   4   6  1   
  6   4  30  1   
  7   5   7  ar  
  8   5   8  ar  
  9   6   9  1   
 10   6  31  1   
 11   6  32  1   
 12   7  10  ar  
 13   7  33  1   
 14   8  11  ar  
 15   8  34  1   
 16   9  12  1   
 17   9  35  1   
 18   9  36  1   
 19  10  13  ar  
 20  10  37  1   
 21  11  13  ar  
 22  11  38  1   
 23  12  39  1   
 24  12  40  1   
 25  12  41  1   
 26  13  14  1   
 27  14  15  2   
 28  14  16  am  
 29  16  17  1   
 30  16  18  1   
 31  17  19  1   
 32  17  20  1   
 33  17  42  1   
 34  18  21  1   
 35  18  43  1   
 36  18  44  1   
 37  19  22  ar  
 38  19  23  ar  
 39  20  24  1   
 40  20  25  1   
 41  20  45  1   
 42  21  24  1   
 43  21  46  1   
 44  21  47  1   
 45  22  26  ar  
 46  22  48  1   
 47  23  27  ar  
 48  23  49  1   
 49  25  28  1   
 50  25  50  1   
 51  25  51  1   
 52  26  29  ar  
 53  26  52  1   
 54  27  29  ar  
 55  27  53  1   
 56  28  54  1   
 57  29  55  1   
@<TRIPOS>SUBSTRUCTURE
  1 ****  13 GROUP 4 **** **** 0

# MOE 2024.06 (io_trps.svl 2023.06)
