@<TRIPOS>MOLECULE
NONAME
48 51 1 0 0 
SMALL
USER_CHARGES


@<TRIPOS>ATOM
  1 CL       0.5900    -3.6920    -0.9070 Cl    1 <1>  -0.1770 
  2 C       -0.9960    -3.3820    -0.2540 C.ar  1 <1>   0.1770 
  3 C       -2.0970    -3.3340    -1.0910 C.ar  1 <1>   0.1600 
  4 C       -1.1530    -3.1840     1.0970 C.ar  1 <1>  -0.1500 
  5 N       -3.3360    -3.1090    -0.6810 N.ar  1 <1>  -0.6200 
  6 C       -2.4400    -2.9460     1.5330 C.ar  1 <1>  -0.1500 
  7 C       -3.5180    -2.9140     0.6420 C.ar  1 <1>   0.3960 
  8 C       -4.8550    -2.6400     1.1770 C.2   1 <1>   0.5440 
  9 O       -4.9810    -1.7440     1.9960 O.2   1 <1>  -0.5700 
 10 N       -5.9920    -3.3480     0.8170 N.am  1 <1>  -0.6600 
 11 C       -7.3680    -2.8240     1.0920 C.3   1 <1>   0.1400 
 12 C       -5.9950    -4.5840    -0.0120 C.3   1 <1>   0.1400 
 13 C       -8.0870    -2.4880    -0.2290 C.3   1 <1>   0.1430 
 14 C       -6.6700    -4.2910    -1.3570 C.3   1 <1>  -0.1600 
 15 C       -9.4890    -2.0090     0.0980 C.ar  1 <1>   0.1670 
 16 C       -8.0880    -3.7220    -1.1610 C.3   1 <1>  -0.1600 
 17 C       -7.4640    -1.2410    -0.9140 C.3   1 <1>  -0.1600 
 18 N      -10.4820    -2.7720     0.4820 N.ar  1 <1>  -0.6200 
 19 C       -9.6010    -0.6590    -0.0400 C.ar  1 <1>  -0.1430 
 20 C       -8.3030    -0.0280    -0.4770 C.3   1 <1>  -0.0170 
 21 C      -11.6290    -2.1340     0.7240 C.ar  1 <1>   0.7200 
 22 C      -10.8180    -0.0900     0.2320 C.ar  1 <1>   0.1600 
 23 N      -11.8400    -0.8180     0.6140 N.ar  1 <1>  -0.6200 
 24 N      -12.7000    -2.9090     1.1270 N.pl3 1 <1>  -0.8380 
 25 C      -13.9280    -2.3100     1.7190 C.3   1 <1>   0.1290 
 26 C      -12.7040    -4.3910     0.9870 C.3   1 <1>   0.1290 
 27 H       -1.9410    -3.4890    -2.1440 H     1 <1>   0.1500 
 28 H       -0.3120    -3.2130     1.7680 H     1 <1>   0.1500 
 29 H       -2.6300    -2.7740     2.5780 H     1 <1>   0.1500 
 30 H       -7.3300    -1.9470     1.7140 H     1 <1>   0.0800 
 31 H       -7.9280    -3.5740     1.6220 H     1 <1>   0.0800 
 32 H       -6.5460    -5.3480     0.5090 H     1 <1>   0.0800 
 33 H       -4.9970    -4.9530    -0.1690 H     1 <1>   0.0800 
 34 H       -6.7240    -5.1990    -1.9310 H     1 <1>   0.0800 
 35 H       -6.0620    -3.5930    -1.9070 H     1 <1>   0.0800 
 36 H       -8.5230    -3.4680    -2.1110 H     1 <1>   0.0800 
 37 H       -8.7050    -4.4850    -0.7200 H     1 <1>   0.0800 
 38 H       -7.5490    -1.3380    -1.9820 H     1 <1>   0.0800 
 39 H       -6.4240    -1.1090    -0.6720 H     1 <1>   0.0800 
 40 H       -8.4450     0.6680    -1.2850 H     1 <1>   0.0800 
 41 H       -7.8410     0.4680     0.3600 H     1 <1>   0.0800 
 42 H      -10.9550     0.9730     0.1380 H     1 <1>   0.1500 
 43 H      -13.6910    -1.3950     2.2340 H     1 <1>   0.0800 
 44 H      -14.3690    -2.9910     2.4250 H     1 <1>   0.0800 
 45 H      -14.6360    -2.0970     0.9370 H     1 <1>   0.0800 
 46 H      -12.0790    -4.6950     0.1650 H     1 <1>   0.0800 
 47 H      -13.7030    -4.7430     0.8000 H     1 <1>   0.0800 
 48 H      -12.3320    -4.8380     1.8920 H     1 <1>   0.0800 
@<TRIPOS>BOND
  1   1   2  1   
  2   2   3  ar  
  3   2   4  ar  
  4   3   5  ar  
  5   3  27  1   
  6   4   6  ar  
  7   4  28  1   
  8   5   7  ar  
  9   6   7  ar  
 10   6  29  1   
 11   7   8  1   
 12   8   9  2   
 13   8  10  am  
 14  10  11  1   
 15  10  12  1   
 16  11  13  1   
 17  11  30  1   
 18  11  31  1   
 19  12  14  1   
 20  12  32  1   
 21  12  33  1   
 22  13  15  1   
 23  13  16  1   
 24  13  17  1   
 25  14  16  1   
 26  14  34  1   
 27  14  35  1   
 28  15  18  ar  
 29  15  19  ar  
 30  16  36  1   
 31  16  37  1   
 32  17  20  1   
 33  17  38  1   
 34  17  39  1   
 35  18  21  ar  
 36  19  20  1   
 37  19  22  ar  
 38  20  40  1   
 39  20  41  1   
 40  21  23  ar  
 41  21  24  1   
 42  22  23  ar  
 43  22  42  1   
 44  24  25  1   
 45  24  26  1   
 46  25  43  1   
 47  25  44  1   
 48  25  45  1   
 49  26  46  1   
 50  26  47  1   
 51  26  48  1   
@<TRIPOS>SUBSTRUCTURE
  1 ****  11 GROUP 4 **** **** 0

# MOE 2024.06 (io_trps.svl 2023.06)
