@<TRIPOS>MOLECULE
NONAME
49 50 1 0 0 
SMALL
USER_CHARGES


@<TRIPOS>ATOM
  1 O        0.6350     0.5980     0.2420 O.2   1 <1>  -0.5700 
  2 C        1.6230     1.1960    -0.1130 C.2   1 <1>   0.6900 
  3 N        2.7300     0.5340    -0.5350 N.am  1 <1>  -0.4900 
  4 N        1.6520     2.5640    -0.0950 N.am  1 <1>  -0.5390 
  5 C        3.8570     1.1800    -0.9410 C.2   1 <1>   0.6160 
  6 C        2.7640     3.2940    -0.4970 C.2   1 <1>  -0.0290 
  7 O        4.8210     0.5300    -1.2860 O.2   1 <1>  -0.5700 
  8 C        3.8490     2.6050    -0.9250 C.2   1 <1>  -0.1360 
  9 C        2.6770     4.8190    -0.4370 C.3   1 <1>   0.2480 
 10 N        4.0120     5.4370    -0.2940 N.3   1 <1>  -0.8100 
 11 C        3.9920     6.8870    -0.6330 C.3   1 <1>   0.1100 
 12 C        4.5970     5.2190     1.0540 C.3   1 <1>   0.1100 
 13 C        5.3280     7.6210    -0.3020 C.3   1 <1>   0.4230 
 14 C        6.0560     5.7320     1.1410 C.3   1 <1>   0.3430 
 15 N        6.3980     6.6120    -0.0270 N.4   1 <1>  -0.9590 
 16 C        5.1910     8.6230     0.8660 C.3   1 <1>  -0.1600 
 17 C        7.7670     7.1960     0.0130 C.3   1 <1>   0.3430 
 18 C        5.2390    10.0640     0.3600 C.3   1 <1>   0.1200 
 19 C        8.7210     6.4220    -0.9130 C.3   1 <1>  -0.0800 
 20 O        6.4010    10.2150    -0.3760 O.3   1 <1>  -0.6800 
 21 C        8.8370     4.9280    -0.5650 C.3   1 <1>  -0.2400 
 22 C       10.1130     7.0640    -0.8620 C.3   1 <1>  -0.2400 
 23 H        2.7140    -0.4790    -0.5490 H     1 <1>   0.3700 
 24 H        0.7790     2.9910     0.2210 H     1 <1>   0.3700 
 25 H        4.7460     3.0820    -1.2690 H     1 <1>   0.1500 
 26 H        2.0530     5.1180     0.3890 H     1 <1>   0.0800 
 27 H        2.2130     5.1610    -1.3470 H     1 <1>   0.0800 
 28 H        3.1710     7.3710    -0.1330 H     1 <1>   0.0800 
 29 H        3.8110     6.9870    -1.6900 H     1 <1>   0.0800 
 30 H        4.5870     4.1710     1.3010 H     1 <1>   0.0800 
 31 H        4.0010     5.7280     1.7930 H     1 <1>   0.0800 
 32 H        5.6110     8.1800    -1.1800 H     1 <1>   0.0800 
 33 H        6.7220     4.8850     1.1590 H     1 <1>   0.0800 
 34 H        6.1880     6.2690     2.0650 H     1 <1>   0.0800 
 35 H        6.3420     5.9820    -0.8390 H     1 <1>   0.4500 
 36 H        5.9840     8.5080     1.5820 H     1 <1>   0.0800 
 37 H        4.2670     8.4750     1.3940 H     1 <1>   0.0800 
 38 H        8.1460     7.1830     1.0210 H     1 <1>   0.0800 
 39 H        7.7330     8.2230    -0.3130 H     1 <1>   0.0800 
 40 H        5.2620    10.7600     1.1830 H     1 <1>   0.0800 
 41 H        4.4000    10.2890    -0.2780 H     1 <1>   0.0800 
 42 H        8.3600     6.5160    -1.9250 H     1 <1>   0.0800 
 43 H        6.5260    11.1540    -0.6350 H     1 <1>   0.4000 
 44 H        9.1550     4.7960     0.4550 H     1 <1>   0.0800 
 45 H        9.5660     4.4580    -1.2040 H     1 <1>   0.0800 
 46 H        7.9040     4.4150    -0.7130 H     1 <1>   0.0800 
 47 H       10.5350     6.9910     0.1250 H     1 <1>   0.0800 
 48 H       10.0620     8.1040    -1.1380 H     1 <1>   0.0800 
 49 H       10.7780     6.5720    -1.5510 H     1 <1>   0.0800 
@<TRIPOS>BOND
  1   1   2  2   
  2   2   3  am  
  3   2   4  am  
  4   3   5  am  
  5   3  23  1   
  6   4   6  1   
  7   4  24  1   
  8   5   7  2   
  9   5   8  1   
 10   6   8  2   
 11   6   9  1   
 12   8  25  1   
 13   9  10  1   
 14   9  26  1   
 15   9  27  1   
 16  10  11  1   
 17  10  12  1   
 18  11  13  1   
 19  11  28  1   
 20  11  29  1   
 21  12  14  1   
 22  12  30  1   
 23  12  31  1   
 24  13  15  1   
 25  13  16  1   
 26  13  32  1   
 27  14  15  1   
 28  14  33  1   
 29  14  34  1   
 30  15  17  1   
 31  15  35  1   
 32  16  18  1   
 33  16  36  1   
 34  16  37  1   
 35  17  19  1   
 36  17  38  1   
 37  17  39  1   
 38  18  20  1   
 39  18  40  1   
 40  18  41  1   
 41  19  21  1   
 42  19  22  1   
 43  19  42  1   
 44  20  43  1   
 45  21  44  1   
 46  21  45  1   
 47  21  46  1   
 48  22  47  1   
 49  22  48  1   
 50  22  49  1   
@<TRIPOS>SUBSTRUCTURE
  1 ****  10 GROUP 4 **** **** 0

# MOE 2024.06 (io_trps.svl 2023.06)
