@<TRIPOS>MOLECULE
NONAME
46 49 1 0 0 
SMALL
USER_CHARGES


@<TRIPOS>ATOM
  1 O       -0.5410     0.5380    -0.6780 O.2   1 <1>  -0.5700 
  2 C       -1.5490     1.0660    -0.2470 C.2   1 <1>   0.7030 
  3 N       -2.6640     0.2770    -0.0470 N.am  1 <1>  -0.6600 
  4 C       -1.5020     2.4980     0.0200 C.2   1 <1>   0.2770 
  5 C       -4.0800     0.7330    -0.0030 C.3   1 <1>   0.1400 
  6 C       -2.6160    -1.1920    -0.2880 C.3   1 <1>   0.1400 
  7 N       -0.5200     3.3390    -0.4780 N.pl3 1 <1>  -0.7000 
  8 C       -2.3070     3.2900     0.7710 C.2   1 <1>   0.2000 
  9 C       -4.9050    -0.4830    -0.4210 C.3   1 <1>   0.2000 
 10 C       -4.0460    -1.6960    -0.0770 C.3   1 <1>  -0.0800 
 11 C       -0.7320     4.5880    -0.0480 C.cat 1 <1>   0.7910 
 12 N       -1.8440     4.5860     0.7260 N.pl3 1 <1>  -0.6290 
 13 O       -6.1090    -0.5300     0.2600 O.3   1 <1>  -0.6800 
 14 C       -4.4000    -2.9280    -0.9250 C.3   1 <1>   0.0200 
 15 C       -0.0050     5.7760    -0.2800 C.2   1 <1>  -0.1290 
 16 C       -2.2890     5.7550     1.3060 C.2   1 <1>   0.2290 
 17 C       -3.5730    -4.1540    -0.5760 C.2   1 <1>  -0.0400 
 18 C       -0.4480     6.9390     0.2950 C.2   1 <1>  -0.1500 
 19 C        1.2460     5.7610    -1.1520 C.3   1 <1>  -0.1020 
 20 C       -1.6080     6.9180     1.0970 C.2   1 <1>  -0.1500 
 21 O       -3.6250    -5.1880    -1.3720 O.3   1 <1>  -0.0190 
 22 C       -2.7400    -4.4570     0.4330 C.2   1 <1>  -0.1500 
 23 N       -2.8700    -6.1630    -0.9550 N.2   1 <1>  -0.4100 
 24 C       -2.3240    -5.7510     0.1320 C.2   1 <1>   0.1080 
 25 C       -1.3610    -6.5700     0.9620 C.3   1 <1>  -0.0590 
 26 H       -4.3330     1.0180     1.0040 H     1 <1>   0.0800 
 27 H       -4.2490     1.5490    -0.6840 H     1 <1>   0.0800 
 28 H       -2.2940    -1.3740    -1.3020 H     1 <1>   0.0800 
 29 H       -1.9230    -1.6660     0.3870 H     1 <1>   0.0800 
 30 H        0.2630     3.0140    -1.0530 H     1 <1>   0.4500 
 31 H       -3.1760     3.0130     1.3430 H     1 <1>   0.1500 
 32 H       -5.1160    -0.4330    -1.4770 H     1 <1>   0.0800 
 33 H       -4.1590    -1.9320     0.9670 H     1 <1>   0.0800 
 34 H       -5.9850    -0.8130     1.1870 H     1 <1>   0.4000 
 35 H       -4.2530    -2.7030    -1.9670 H     1 <1>   0.0800 
 36 H       -5.4390    -3.1720    -0.7890 H     1 <1>   0.0800 
 37 H       -3.1780     5.7170     1.9180 H     1 <1>   0.1500 
 38 H        0.0650     7.8770     0.1530 H     1 <1>   0.1500 
 39 H        1.9880     5.1050    -0.7320 H     1 <1>   0.0800 
 40 H        1.6740     6.7460    -1.2250 H     1 <1>   0.0800 
 41 H        1.0060     5.4270    -2.1470 H     1 <1>   0.0800 
 42 H       -1.9430     7.8400     1.5430 H     1 <1>   0.1500 
 43 H       -2.4360    -3.8840     1.2880 H     1 <1>   0.1500 
 44 H       -1.7200    -6.6450     1.9710 H     1 <1>   0.0800 
 45 H       -0.3930    -6.1060     0.9610 H     1 <1>   0.0800 
 46 H       -1.2720    -7.5600     0.5500 H     1 <1>   0.0800 
@<TRIPOS>BOND
  1   1   2  2   
  2   2   3  am  
  3   2   4  1   
  4   3   5  1   
  5   3   6  1   
  6   4   7  1   
  7   4   8  2   
  8   5   9  1   
  9   5  26  1   
 10   5  27  1   
 11   6  10  1   
 12   6  28  1   
 13   6  29  1   
 14   7  11  ar  
 15   7  30  1   
 16   8  12  1   
 17   8  31  1   
 18   9  10  1   
 19   9  13  1   
 20   9  32  1   
 21  10  14  1   
 22  10  33  1   
 23  11  12  ar  
 24  11  15  1   
 25  12  16  1   
 26  13  34  1   
 27  14  17  1   
 28  14  35  1   
 29  14  36  1   
 30  15  18  2   
 31  15  19  1   
 32  16  20  2   
 33  16  37  1   
 34  17  21  1   
 35  17  22  2   
 36  18  20  1   
 37  18  38  1   
 38  19  39  1   
 39  19  40  1   
 40  19  41  1   
 41  20  42  1   
 42  21  23  1   
 43  22  24  1   
 44  22  43  1   
 45  23  24  2   
 46  24  25  1   
 47  25  44  1   
 48  25  45  1   
 49  25  46  1   
@<TRIPOS>SUBSTRUCTURE
  1 ****   3 GROUP 4 **** **** 0

# MOE 2024.06 (io_trps.svl 2023.06)
