@<TRIPOS>MOLECULE
NONAME
39 41 1 0 0 
SMALL
USER_CHARGES


@<TRIPOS>ATOM
  1 CL      -1.6570    -0.5760    -2.8260 Cl    1 <1>  -0.1770 
  2 C       -2.4300    -1.3380    -1.4590 C.ar  1 <1>   0.1770 
  3 C       -2.7300    -2.6840    -1.5150 C.ar  1 <1>  -0.1500 
  4 C       -2.7290    -0.5790    -0.3430 C.ar  1 <1>  -0.1500 
  5 C       -3.3430    -3.2920    -0.4320 C.ar  1 <1>   0.0830 
  6 C       -3.3430    -1.1840     0.7410 C.ar  1 <1>  -0.1500 
  7 O       -3.6090    -4.6160    -0.5500 O.3   1 <1>  -0.3630 
  8 C       -3.6500    -2.5360     0.6990 C.ar  1 <1>  -0.1500 
  9 C       -4.2270    -5.3390     0.4890 C.3   1 <1>   0.1200 
 10 C       -4.3840    -6.7880     0.0340 C.3   1 <1>  -0.1600 
 11 C       -4.9890    -7.6420     1.1450 C.3   1 <1>   0.2090 
 12 N       -5.1680    -9.0260     0.6390 N.pl3 1 <1>  -0.8210 
 13 C       -6.4700    -9.5080     0.4720 C.2   1 <1>   0.5990 
 14 C       -4.0970    -9.9880     1.0200 C.3   1 <1>   0.1290 
 15 N       -7.5090    -8.7880     0.2810 N.2   1 <1>  -0.4100 
 16 N       -6.7280   -10.8090     0.4960 N.2   1 <1>  -0.5650 
 17 O       -8.5210    -9.6060     0.1640 O.3   1 <1>  -0.0190 
 18 C       -7.9820   -10.7920     0.2990 C.2   1 <1>   0.3930 
 19 C       -8.8910   -12.0080     0.2140 C.3   1 <1>  -0.0150 
 20 C       -8.3850   -13.3360    -0.2630 C.3   1 <1>  -0.2000 
 21 C       -9.3240   -12.5390    -1.1190 C.3   1 <1>  -0.2000 
 22 H       -2.4910    -3.2580    -2.3900 H     1 <1>   0.1500 
 23 H       -2.4840     0.4680    -0.3270 H     1 <1>   0.1500 
 24 H       -3.5810    -0.6050     1.6170 H     1 <1>   0.1500 
 25 H       -4.1260    -2.9790     1.5530 H     1 <1>   0.1500 
 26 H       -5.1890    -4.8960     0.6850 H     1 <1>   0.0800 
 27 H       -3.6000    -5.2770     1.3610 H     1 <1>   0.0800 
 28 H       -3.4220    -7.1840    -0.2340 H     1 <1>   0.0800 
 29 H       -5.0340    -6.8200    -0.8230 H     1 <1>   0.0800 
 30 H       -5.9340    -7.2260     1.4520 H     1 <1>   0.0800 
 31 H       -4.3380    -7.6500     2.0040 H     1 <1>   0.0800 
 32 H       -3.1320    -9.5190     0.9430 H     1 <1>   0.0800 
 33 H       -4.1160   -10.8380     0.3600 H     1 <1>   0.0800 
 34 H       -4.2520   -10.3260     2.0300 H     1 <1>   0.0800 
 35 H       -9.6140   -12.0180     1.0090 H     1 <1>   0.1000 
 36 H       -8.7450   -14.2270     0.2200 H     1 <1>   0.1000 
 37 H       -7.3520   -13.4150    -0.5590 H     1 <1>   0.1000 
 38 H       -8.9370   -12.0760    -2.0110 H     1 <1>   0.1000 
 39 H      -10.3380   -12.8770    -1.2350 H     1 <1>   0.1000 
@<TRIPOS>BOND
  1   1   2  1   
  2   2   3  ar  
  3   2   4  ar  
  4   3   5  ar  
  5   3  22  1   
  6   4   6  ar  
  7   4  23  1   
  8   5   7  1   
  9   5   8  ar  
 10   6   8  ar  
 11   6  24  1   
 12   7   9  1   
 13   8  25  1   
 14   9  10  1   
 15   9  26  1   
 16   9  27  1   
 17  10  11  1   
 18  10  28  1   
 19  10  29  1   
 20  11  12  1   
 21  11  30  1   
 22  11  31  1   
 23  12  13  1   
 24  12  14  1   
 25  13  15  2   
 26  13  16  1   
 27  14  32  1   
 28  14  33  1   
 29  14  34  1   
 30  15  17  1   
 31  16  18  2   
 32  17  18  1   
 33  18  19  1   
 34  19  20  1   
 35  19  21  1   
 36  19  35  1   
 37  20  21  1   
 38  20  36  1   
 39  20  37  1   
 40  21  38  1   
 41  21  39  1   
@<TRIPOS>SUBSTRUCTURE
  1 ****  10 GROUP 4 **** **** 0

# MOE 2024.06 (io_trps.svl 2023.06)
