@<TRIPOS>MOLECULE
NONAME
46 48 1 0 0 
SMALL
USER_CHARGES


@<TRIPOS>ATOM
  1 O       -0.5780     0.3650     1.3900 O.2   1 <1>  -0.5700 
  2 C       -1.5420     1.0070     1.0100 C.2   1 <1>   0.5440 
  3 N       -2.7220     0.3450     0.7570 N.am  1 <1>  -0.6600 
  4 C       -1.4420     2.4320     0.8140 C.ar  1 <1>   0.0860 
  5 C       -3.7420     0.8400    -0.2050 C.3   1 <1>   0.1400 
  6 C       -2.9000    -1.1110     0.9630 C.3   1 <1>   0.1400 
  7 C       -0.4750     2.9740    -0.0520 C.ar  1 <1>   0.4100 
  8 C       -2.3060     3.3070     1.4570 C.ar  1 <1>  -0.1500 
  9 C       -4.5930    -0.3810    -0.5860 C.3   1 <1>   0.2000 
 10 C       -3.6930    -1.5770    -0.2580 C.3   1 <1>  -0.0800 
 11 N       -0.3620     4.2770    -0.3080 N.ar  1 <1>  -0.6200 
 12 N        0.4210     2.1490    -0.6930 N.pl3 1 <1>  -0.8690 
 13 C       -2.1780     4.6530     1.2000 C.ar  1 <1>  -0.1500 
 14 O       -5.7310    -0.4370     0.2270 O.3   1 <1>  -0.5600 
 15 C       -4.4400    -2.9040    -0.0380 C.3   1 <1>   0.0200 
 16 C       -1.2020     5.0770     0.3170 C.ar  1 <1>   0.1600 
 17 C        1.6080     2.6390    -1.4370 C.3   1 <1>   0.1290 
 18 C       -6.8250     0.2940    -0.2340 C.3   1 <1>   0.0400 
 19 C       -3.5090    -4.0970     0.1080 C.2   1 <1>  -0.0400 
 20 O       -4.0230    -5.2650     0.3870 O.3   1 <1>  -0.0190 
 21 C       -2.1780    -4.2520     0.0080 C.2   1 <1>  -0.1500 
 22 N       -3.1120    -6.1900     0.4810 N.2   1 <1>  -0.4100 
 23 C       -1.9900    -5.6080     0.2580 C.2   1 <1>   0.1080 
 24 C       -0.6500    -6.3090     0.2690 C.3   1 <1>  -0.0590 
 25 H       -4.3420     1.6140     0.2390 H     1 <1>   0.0800 
 26 H       -3.2420     1.2230    -1.0780 H     1 <1>   0.0800 
 27 H       -1.9560    -1.6210     1.0480 H     1 <1>   0.0800 
 28 H       -3.4700    -1.2640     1.8640 H     1 <1>   0.0800 
 29 H       -3.0520     2.9330     2.1380 H     1 <1>   0.1500 
 30 H       -4.8910    -0.3750    -1.6200 H     1 <1>   0.0800 
 31 H       -3.0010    -1.6980    -1.0730 H     1 <1>   0.0800 
 32 H        0.5470     1.2350    -0.2320 H     1 <1>   0.4000 
 33 H       -2.8240     5.3690     1.6760 H     1 <1>   0.1500 
 34 H       -5.0940    -3.0870    -0.8720 H     1 <1>   0.0800 
 35 H       -5.0510    -2.8360     0.8450 H     1 <1>   0.0800 
 36 H       -1.1080     6.1320     0.1170 H     1 <1>   0.1500 
 37 H        1.3100     3.3940    -2.1450 H     1 <1>   0.0800 
 38 H        2.0700     1.8260    -1.9670 H     1 <1>   0.0800 
 39 H        2.3160     3.0660    -0.7480 H     1 <1>   0.0800 
 40 H       -7.6210     0.1870     0.4810 H     1 <1>   0.0800 
 41 H       -7.1390    -0.0990    -1.1850 H     1 <1>   0.0800 
 42 H       -6.5560     1.3320    -0.3210 H     1 <1>   0.0800 
 43 H       -1.4070    -3.5380    -0.2110 H     1 <1>   0.1500 
 44 H       -0.1580    -6.1710    -0.6760 H     1 <1>   0.0800 
 45 H       -0.7880    -7.3610     0.4410 H     1 <1>   0.0800 
 46 H       -0.0350    -5.9050     1.0520 H     1 <1>   0.0800 
@<TRIPOS>BOND
  1   1   2  2   
  2   2   3  am  
  3   2   4  1   
  4   3   5  1   
  5   3   6  1   
  6   4   7  ar  
  7   4   8  ar  
  8   5   9  1   
  9   5  25  1   
 10   5  26  1   
 11   6  10  1   
 12   6  27  1   
 13   6  28  1   
 14   7  11  ar  
 15   7  12  1   
 16   8  13  ar  
 17   8  29  1   
 18   9  10  1   
 19   9  14  1   
 20   9  30  1   
 21  10  15  1   
 22  10  31  1   
 23  11  16  ar  
 24  12  17  1   
 25  12  32  1   
 26  13  16  ar  
 27  13  33  1   
 28  14  18  1   
 29  15  19  1   
 30  15  34  1   
 31  15  35  1   
 32  16  36  1   
 33  17  37  1   
 34  17  38  1   
 35  17  39  1   
 36  18  40  1   
 37  18  41  1   
 38  18  42  1   
 39  19  20  1   
 40  19  21  2   
 41  20  22  1   
 42  21  23  1   
 43  21  43  1   
 44  22  23  2   
 45  23  24  1   
 46  24  44  1   
 47  24  45  1   
 48  24  46  1   
@<TRIPOS>SUBSTRUCTURE
  1 ****   3 GROUP 4 **** **** 0

# MOE 2024.06 (io_trps.svl 2023.06)
