@<TRIPOS>MOLECULE
NONAME
44 46 1 0 0 
SMALL
USER_CHARGES


@<TRIPOS>ATOM
  1 S       -0.0820     0.1100    -0.0930 S.o2  1 <1>   1.3330 
  2 O        0.0700    -0.4890     1.2150 O.2   1 <1>  -0.6500 
  3 O       -0.8430     1.3300    -0.2340 O.2   1 <1>  -0.6500 
  4 N       -0.7560    -1.0600    -1.1210 N.am  1 <1>  -0.8490 
  5 C        1.5300     0.3890    -0.8280 C.3   1 <1>  -0.0550 
  6 C       -0.3640    -2.4320    -0.7790 C.3   1 <1>   0.1160 
  7 C       -2.2170    -0.9630    -1.1920 C.3   1 <1>   0.1160 
  8 C        2.3510     1.4870    -0.1220 C.3   1 <1>  -0.0800 
  9 C        3.5910     1.8440    -0.9240 C.3   1 <1>   0.2200 
 10 C        2.9630     0.9900     1.1920 C.3   1 <1>   0.1200 
 11 N        4.0480     3.1970    -0.5370 N.am  1 <1>  -0.7300 
 12 C        4.5950     0.8050    -0.4330 C.3   1 <1>   0.1200 
 13 O        4.2300     0.4900     0.8790 O.3   1 <1>  -0.5600 
 14 C        4.1190     4.2830    -1.3570 C.2   1 <1>   0.7150 
 15 O        3.7740     4.1600    -2.5160 O.2   1 <1>  -0.5700 
 16 C        4.5980     5.5460    -0.8590 C.2   1 <1>  -0.0450 
 17 S        5.0890     5.6760     0.8450 S.3   1 <1>  -0.0800 
 18 C        4.7690     6.7510    -1.4570 C.2   1 <1>  -0.1500 
 19 C        5.5110     7.3820     0.6780 C.ar  1 <1>   0.0400 
 20 C        5.2780     7.7980    -0.6230 C.ar  1 <1>   0.0000 
 21 C        6.0030     8.2140     1.6660 C.ar  1 <1>  -0.1500 
 22 C        5.5550     9.1250    -0.9410 C.ar  1 <1>  -0.1500 
 23 C        6.2730     9.5290     1.3300 C.ar  1 <1>  -0.1500 
 24 C        6.0480     9.9790     0.0310 C.ar  1 <1>  -0.1500 
 25 H        2.0850    -0.5290    -0.8330 H     1 <1>   0.0800 
 26 H        1.3760     0.6830    -1.8480 H     1 <1>   0.0800 
 27 H       -0.7410    -3.1200    -1.5170 H     1 <1>   0.0800 
 28 H       -0.7540    -2.7060     0.1880 H     1 <1>   0.0800 
 29 H        0.7090    -2.5170    -0.7540 H     1 <1>   0.0800 
 30 H       -2.6100    -1.7080    -1.8630 H     1 <1>   0.0800 
 31 H       -2.5060     0.0060    -1.5620 H     1 <1>   0.0800 
 32 H       -2.6490    -1.1020    -0.2140 H     1 <1>   0.0800 
 33 H        1.7250     2.3500     0.0330 H     1 <1>   0.0800 
 34 H        3.4400     1.7870    -1.9890 H     1 <1>   0.0800 
 35 H        2.3930     0.2140     1.6720 H     1 <1>   0.0800 
 36 H        3.0980     1.8060     1.8800 H     1 <1>   0.0800 
 37 H        4.3810     3.2890     0.4250 H     1 <1>   0.3700 
 38 H        5.6080     1.1680    -0.4500 H     1 <1>   0.0800 
 39 H        4.5220    -0.0970    -1.0150 H     1 <1>   0.0800 
 40 H        4.5460     6.9450    -2.4910 H     1 <1>   0.1500 
 41 H        6.1680     7.8430     2.6620 H     1 <1>   0.1500 
 42 H        5.3840     9.4780    -1.9430 H     1 <1>   0.1500 
 43 H        6.6560    10.2070     2.0720 H     1 <1>   0.1500 
 44 H        6.2630    11.0040    -0.2170 H     1 <1>   0.1500 
@<TRIPOS>BOND
  1   1   2  2   
  2   1   3  2   
  3   1   4  am  
  4   1   5  1   
  5   4   6  1   
  6   4   7  1   
  7   5   8  1   
  8   5  25  1   
  9   5  26  1   
 10   6  27  1   
 11   6  28  1   
 12   6  29  1   
 13   7  30  1   
 14   7  31  1   
 15   7  32  1   
 16   8   9  1   
 17   8  10  1   
 18   8  33  1   
 19   9  11  1   
 20   9  12  1   
 21   9  34  1   
 22  10  13  1   
 23  10  35  1   
 24  10  36  1   
 25  11  14  am  
 26  11  37  1   
 27  12  13  1   
 28  12  38  1   
 29  12  39  1   
 30  14  15  2   
 31  14  16  1   
 32  16  17  1   
 33  16  18  2   
 34  17  19  1   
 35  18  20  1   
 36  18  40  1   
 37  19  20  ar  
 38  19  21  ar  
 39  20  22  ar  
 40  21  23  ar  
 41  21  41  1   
 42  22  24  ar  
 43  22  42  1   
 44  23  24  ar  
 45  23  43  1   
 46  24  44  1   
@<TRIPOS>SUBSTRUCTURE
  1 ****  11 GROUP 4 **** **** 0

# MOE 2024.06 (io_trps.svl 2023.06)
