@<TRIPOS>MOLECULE
NONAME
55 58 1 0 0 
SMALL
USER_CHARGES


@<TRIPOS>ATOM
  1 S        0.5760    -0.2440     1.9370 S.3   1 <1>  -0.0800 
  2 C        1.6700    -0.8770     0.7210 C.2   1 <1>  -0.1400 
  3 C        0.9760     1.4070     1.5090 C.2   1 <1>  -0.1100 
  4 C        2.2640     0.1350     0.0560 C.2   1 <1>  -0.1500 
  5 C        1.7870    -2.3880     0.6260 C.3   1 <1>   0.5230 
  6 C        1.8760     1.4450     0.5030 C.2   1 <1>  -0.1810 
  7 N        0.4480    -2.9730     0.3830 N.4   1 <1>  -0.9590 
  8 C        2.5060     2.6740    -0.1460 C.3   1 <1>   0.5240 
  9 C       -0.2230    -2.5770    -0.8840 C.3   1 <1>   0.3430 
 10 C        0.4030    -4.4630     0.4290 C.3   1 <1>   0.3430 
 11 N        1.8760     3.9230     0.3540 N.4   1 <1>  -0.9590 
 12 C       -1.3450    -3.6060    -1.0270 C.3   1 <1>   0.2000 
 13 C       -0.6560    -4.9030    -0.5940 C.3   1 <1>  -0.0800 
 14 C        0.5090     4.1570    -0.1750 C.3   1 <1>   0.3430 
 15 C        2.6510     5.1440     0.0300 C.3   1 <1>   0.3430 
 16 O       -2.3400    -3.2710    -0.1120 O.3   1 <1>  -0.6800 
 17 C       -1.5730    -6.0170    -0.0530 C.3   1 <1>   0.0210 
 18 C        0.2630     5.6400     0.0630 C.3   1 <1>  -0.1600 
 19 C        1.6500     6.2780     0.1950 C.3   1 <1>  -0.1600 
 20 C       -0.7920    -7.2900     0.2220 C.2   1 <1>   0.1080 
 21 N        0.3090    -7.3190     0.9120 N.2   1 <1>  -0.7070 
 22 C       -1.1650    -8.5520    -0.2260 C.2   1 <1>  -0.1500 
 23 N        0.6630    -8.6220     0.9300 N.pl3 1 <1>   0.3000 
 24 C       -0.2120    -9.3840     0.2430 C.2   1 <1>  -0.3320 
 25 C       -0.0860   -10.8880     0.0790 C.3   1 <1>  -0.0600 
 26 H        0.4810     2.1700     2.0840 H     1 <1>   0.1500 
 27 H        2.9830     0.0090    -0.7390 H     1 <1>   0.1500 
 28 H        2.1860    -2.7690     1.5520 H     1 <1>   0.0800 
 29 H        2.4610    -2.6570    -0.1710 H     1 <1>   0.0800 
 30 H       -0.1860    -2.6420     1.1270 H     1 <1>   0.4500 
 31 H        2.3990     2.6150    -1.2170 H     1 <1>   0.0800 
 32 H        3.5590     2.6820     0.0860 H     1 <1>   0.0800 
 33 H       -0.6140    -1.5740    -0.8380 H     1 <1>   0.0800 
 34 H        0.4610    -2.6680    -1.7110 H     1 <1>   0.0800 
 35 H        1.3550    -4.8980     0.1700 H     1 <1>   0.0800 
 36 H        0.1310    -4.7990     1.4170 H     1 <1>   0.0800 
 37 H        1.8140     3.8550     1.3770 H     1 <1>   0.4500 
 38 H       -1.7660    -3.6370    -2.0180 H     1 <1>   0.0800 
 39 H       -0.1270    -5.2990    -1.4440 H     1 <1>   0.0800 
 40 H        0.4850     3.9560    -1.2350 H     1 <1>   0.0800 
 41 H       -0.2270     3.5440     0.3210 H     1 <1>   0.0800 
 42 H        3.5030     5.2660     0.6810 H     1 <1>   0.0800 
 43 H        2.9840     5.1080    -0.9960 H     1 <1>   0.0800 
 44 H       -3.1630    -3.7780    -0.2760 H     1 <1>   0.4000 
 45 H       -2.3450    -6.2310    -0.7700 H     1 <1>   0.0800 
 46 H       -2.0430    -5.7090     0.8640 H     1 <1>   0.0800 
 47 H       -0.2970     6.0640    -0.7530 H     1 <1>   0.0800 
 48 H       -0.3010     5.7760     0.9700 H     1 <1>   0.0800 
 49 H        1.7650     6.7290     1.1660 H     1 <1>   0.0800 
 50 H        1.8140     7.0360    -0.5520 H     1 <1>   0.0800 
 51 H       -2.0320    -8.7940    -0.8150 H     1 <1>   0.1500 
 52 H        1.4990    -8.9640     1.4200 H     1 <1>   0.2700 
 53 H       -0.9050   -11.2670    -0.5060 H     1 <1>   0.0800 
 54 H       -0.1010   -11.3710     1.0400 H     1 <1>   0.0800 
 55 H        0.8340   -11.1340    -0.4230 H     1 <1>   0.0800 
@<TRIPOS>BOND
  1   1   2  1   
  2   1   3  1   
  3   2   4  2   
  4   2   5  1   
  5   3   6  2   
  6   3  26  1   
  7   4   6  1   
  8   4  27  1   
  9   5   7  1   
 10   5  28  1   
 11   5  29  1   
 12   6   8  1   
 13   7   9  1   
 14   7  10  1   
 15   7  30  1   
 16   8  11  1   
 17   8  31  1   
 18   8  32  1   
 19   9  12  1   
 20   9  33  1   
 21   9  34  1   
 22  10  13  1   
 23  10  35  1   
 24  10  36  1   
 25  11  14  1   
 26  11  15  1   
 27  11  37  1   
 28  12  13  1   
 29  12  16  1   
 30  12  38  1   
 31  13  17  1   
 32  13  39  1   
 33  14  18  1   
 34  14  40  1   
 35  14  41  1   
 36  15  19  1   
 37  15  42  1   
 38  15  43  1   
 39  16  44  1   
 40  17  20  1   
 41  17  45  1   
 42  17  46  1   
 43  18  19  1   
 44  18  47  1   
 45  18  48  1   
 46  19  49  1   
 47  19  50  1   
 48  20  21  2   
 49  20  22  1   
 50  21  23  1   
 51  22  24  2   
 52  22  51  1   
 53  23  24  1   
 54  23  52  1   
 55  24  25  1   
 56  25  53  1   
 57  25  54  1   
 58  25  55  1   
@<TRIPOS>SUBSTRUCTURE
  1 ****   7 GROUP 4 **** **** 0

# MOE 2024.06 (io_trps.svl 2023.06)
