@<TRIPOS>MOLECULE
NONAME
34 36 1 0 0 
SMALL
USER_CHARGES


@<TRIPOS>ATOM
  1 S        0.2410     0.8130    -0.1700 S.3   1 <1>  -0.1570 
  2 C        2.0120     0.7120    -0.1120 C.2   1 <1>   0.2420 
  3 C        0.1080    -0.7880     0.6060 C.2   1 <1>  -0.0490 
  4 N        2.9460     1.5150    -0.4960 N.2   1 <1>  -0.5650 
  5 N        2.3920    -0.4500     0.4530 N.pl3 1 <1>   0.3340 
  6 C        1.3300    -1.2880     0.8550 C.2   1 <1>  -0.1810 
  7 C        4.0600     0.8160    -0.1500 C.2   1 <1>   0.0460 
  8 C        3.7400    -0.3740     0.4260 C.2   1 <1>  -0.3020 
  9 C        5.4530     1.3850    -0.4000 C.3   1 <1>   0.3900 
 10 N        5.5320     2.7220     0.2180 N.pl3 1 <1>  -0.8690 
 11 C        6.5710     3.5730    -0.0230 C.ar  1 <1>   0.4100 
 12 N        7.6880     3.0680    -0.5030 N.ar  1 <1>  -0.6200 
 13 C        6.4450     4.9230     0.2320 C.ar  1 <1>  -0.1500 
 14 C        8.6540     3.9410    -0.7140 C.ar  1 <1>   0.4700 
 15 C        7.5160     5.7390    -0.0290 C.ar  1 <1>   0.1670 
 16 N        8.6430     5.2480    -0.5110 N.ar  1 <1>  -0.6200 
 17 C        7.4580     7.2450     0.2240 C.3   1 <1>   0.0630 
 18 C        7.2260     7.5550     1.7090 C.3   1 <1>  -0.2400 
 19 C        6.3830     7.9160    -0.6420 C.3   1 <1>  -0.2400 
 20 H       -0.8870    -1.1590     0.7820 H     1 <1>   0.1500 
 21 H        1.5780    -2.2280     1.3130 H     1 <1>   0.1500 
 22 H        4.3720    -1.1520     0.8130 H     1 <1>   0.1500 
 23 H        5.6230     1.4680    -1.4590 H     1 <1>   0.0800 
 24 H        6.2040     0.7440     0.0270 H     1 <1>   0.0800 
 25 H        4.5910     3.1200     0.2890 H     1 <1>   0.4000 
 26 H        5.5260     5.3060     0.6260 H     1 <1>   0.1500 
 27 H        9.5730     3.5370    -1.1040 H     1 <1>   0.1500 
 28 H        8.4110     7.6650    -0.0540 H     1 <1>   0.0800 
 29 H        6.2660     7.1950     2.0320 H     1 <1>   0.0800 
 30 H        7.2730     8.6160     1.8790 H     1 <1>   0.0800 
 31 H        7.9890     7.0810     2.3010 H     1 <1>   0.0800 
 32 H        5.4010     7.5650    -0.3790 H     1 <1>   0.0800 
 33 H        6.5610     7.6940    -1.6790 H     1 <1>   0.0800 
 34 H        6.4130     8.9830    -0.5120 H     1 <1>   0.0800 
@<TRIPOS>BOND
  1   1   2  1   
  2   1   3  1   
  3   2   4  2   
  4   2   5  1   
  5   3   6  2   
  6   3  20  1   
  7   4   7  1   
  8   5   6  1   
  9   5   8  1   
 10   6  21  1   
 11   7   8  2   
 12   7   9  1   
 13   8  22  1   
 14   9  10  1   
 15   9  23  1   
 16   9  24  1   
 17  10  11  1   
 18  10  25  1   
 19  11  12  ar  
 20  11  13  ar  
 21  12  14  ar  
 22  13  15  ar  
 23  13  26  1   
 24  14  16  ar  
 25  14  27  1   
 26  15  16  ar  
 27  15  17  1   
 28  17  18  1   
 29  17  19  1   
 30  17  28  1   
 31  18  29  1   
 32  18  30  1   
 33  18  31  1   
 34  19  32  1   
 35  19  33  1   
 36  19  34  1   
@<TRIPOS>SUBSTRUCTURE
  1 ****  10 GROUP 4 **** **** 0

# MOE 2024.06 (io_trps.svl 2023.06)
