@<TRIPOS>MOLECULE
NONAME
52 56 1 0 0 
SMALL
USER_CHARGES


@<TRIPOS>ATOM
  1 S       -2.4010    -2.8790     3.8660 S.3   1 <1>  -0.1570 
  2 C       -2.3900    -3.0850     2.1030 C.2   1 <1>   0.2420 
  3 C       -1.4630    -1.3700     3.7110 C.2   1 <1>  -0.0490 
  4 N       -2.8820    -3.9860     1.3280 N.2   1 <1>  -0.5650 
  5 N       -1.7260    -2.0710     1.5210 N.pl3 1 <1>   0.3340 
  6 C       -1.2070    -1.1130     2.4180 C.2   1 <1>  -0.1810 
  7 C       -2.5150    -3.5360     0.0780 C.2   1 <1>   0.1410 
  8 C       -1.8080    -2.3680     0.2150 C.2   1 <1>  -0.3020 
  9 C       -2.8020    -4.2150    -1.1850 C.2   1 <1>   0.7160 
 10 O       -2.0890    -3.9730    -2.1460 O.2   1 <1>  -0.5700 
 11 N       -3.8380    -5.1170    -1.3640 N.am  1 <1>  -0.6600 
 12 C       -5.0470    -5.2010    -0.5030 C.3   1 <1>   0.1400 
 13 C       -3.8270    -6.1240    -2.4600 C.3   1 <1>   0.1400 
 14 C       -5.0920    -6.5820     0.1520 C.3   1 <1>  -0.1600 
 15 C       -3.8720    -7.5250    -1.8430 C.3   1 <1>  -0.1600 
 16 C       -5.0740    -7.7050    -0.9020 C.3   1 <1>   0.4240 
 17 O       -6.2090    -7.5530    -1.7240 O.3   1 <1>  -0.5600 
 18 C       -5.0350    -9.1000    -0.2380 C.ar  1 <1>  -0.1430 
 19 C       -7.4090    -8.0970    -1.2720 C.3   1 <1>   0.1200 
 20 C       -6.0750   -10.0060    -0.3990 C.ar  1 <1>  -0.1430 
 21 C       -3.9520    -9.4760     0.5460 C.ar  1 <1>  -0.1500 
 22 C       -7.2770    -9.6170    -1.2370 C.3   1 <1>  -0.0170 
 23 C       -6.0230   -11.2540     0.2000 C.ar  1 <1>  -0.1500 
 24 C       -3.8800   -10.7210     1.1480 C.ar  1 <1>   0.0830 
 25 C       -4.9370   -11.6310     0.9850 C.ar  1 <1>   0.0830 
 26 O       -2.7430   -10.9390     1.8700 O.3   1 <1>  -0.3630 
 27 O       -4.8960   -12.8480     1.6040 O.3   1 <1>  -0.3630 
 28 C       -2.1930   -12.2300     2.0060 C.3   1 <1>   0.0400 
 29 C       -5.9950   -13.7320     1.6000 C.3   1 <1>   0.0400 
 30 H       -1.2180    -0.8570     4.6260 H     1 <1>   0.1500 
 31 H       -0.6650    -0.2810     2.0060 H     1 <1>   0.1500 
 32 H       -1.3680    -1.7610    -0.5550 H     1 <1>   0.1500 
 33 H       -5.9210    -5.0620    -1.1170 H     1 <1>   0.0800 
 34 H       -5.0530    -4.4290     0.2440 H     1 <1>   0.0800 
 35 H       -2.9400    -6.0250    -3.0630 H     1 <1>   0.0800 
 36 H       -4.6830    -5.9680    -3.0940 H     1 <1>   0.0800 
 37 H       -5.9630    -6.6690     0.7730 H     1 <1>   0.0800 
 38 H       -4.2370    -6.6740     0.7960 H     1 <1>   0.0800 
 39 H       -2.9560    -7.6810    -1.3060 H     1 <1>   0.0800 
 40 H       -3.9200    -8.2650    -2.6200 H     1 <1>   0.0800 
 41 H       -8.1840    -7.8020    -1.9570 H     1 <1>   0.0800 
 42 H       -7.6330    -7.7040    -0.2960 H     1 <1>   0.0800 
 43 H       -3.1330    -8.8000     0.7040 H     1 <1>   0.1500 
 44 H       -7.1570    -9.9880    -2.2390 H     1 <1>   0.0800 
 45 H       -8.1740   -10.0390    -0.8220 H     1 <1>   0.0800 
 46 H       -6.8470   -11.9220     0.0430 H     1 <1>   0.1500 
 47 H       -1.1620   -12.1260     2.2920 H     1 <1>   0.0800 
 48 H       -2.2660   -12.7450     1.0650 H     1 <1>   0.0800 
 49 H       -2.7310   -12.7560     2.7740 H     1 <1>   0.0800 
 50 H       -5.7400   -14.5840     2.2040 H     1 <1>   0.0800 
 51 H       -6.1880   -14.0470     0.5900 H     1 <1>   0.0800 
 52 H       -6.8490   -13.2300     2.0210 H     1 <1>   0.0800 
@<TRIPOS>BOND
  1   1   2  1   
  2   1   3  1   
  3   2   4  2   
  4   2   5  1   
  5   3   6  2   
  6   3  30  1   
  7   4   7  1   
  8   5   6  1   
  9   5   8  1   
 10   6  31  1   
 11   7   8  2   
 12   7   9  1   
 13   8  32  1   
 14   9  10  2   
 15   9  11  am  
 16  11  12  1   
 17  11  13  1   
 18  12  14  1   
 19  12  33  1   
 20  12  34  1   
 21  13  15  1   
 22  13  35  1   
 23  13  36  1   
 24  14  16  1   
 25  14  37  1   
 26  14  38  1   
 27  15  16  1   
 28  15  39  1   
 29  15  40  1   
 30  16  17  1   
 31  16  18  1   
 32  17  19  1   
 33  18  20  ar  
 34  18  21  ar  
 35  19  22  1   
 36  19  41  1   
 37  19  42  1   
 38  20  22  1   
 39  20  23  ar  
 40  21  24  ar  
 41  21  43  1   
 42  22  44  1   
 43  22  45  1   
 44  23  25  ar  
 45  23  46  1   
 46  24  25  ar  
 47  24  26  1   
 48  25  27  1   
 49  26  28  1   
 50  27  29  1   
 51  28  47  1   
 52  28  48  1   
 53  28  49  1   
 54  29  50  1   
 55  29  51  1   
 56  29  52  1   
@<TRIPOS>SUBSTRUCTURE
  1 ****  14 GROUP 4 **** **** 0

# MOE 2024.06 (io_trps.svl 2023.06)
