@<TRIPOS>MOLECULE
NONAME
41 43 1 0 0 
SMALL
USER_CHARGES


@<TRIPOS>ATOM
  1 O       -1.1450    -0.8580    -1.9990 O.3   1 <1>  -0.5320 
  2 C       -1.9000    -1.2400    -0.9590 C.ar  1 <1>   0.0830 
  3 C       -1.9920    -2.5770    -0.6080 C.ar  1 <1>  -0.1500 
  4 C       -2.5830    -0.2760    -0.2410 C.ar  1 <1>  -0.1500 
  5 C       -2.7820    -2.9540     0.4700 C.ar  1 <1>  -0.1430 
  6 C       -3.3600    -0.6470     0.8410 C.ar  1 <1>  -0.1500 
  7 C       -3.4580    -1.9820     1.1970 C.ar  1 <1>  -0.1500 
  8 C       -2.9130    -4.4160     0.8450 C.3   1 <1>   0.4860 
  9 N       -3.8750    -5.0450    -0.0980 N.4   1 <1>  -0.9590 
 10 C       -5.2650    -4.5060     0.0300 C.3   1 <1>   0.3430 
 11 C       -3.9430    -6.5340     0.0220 C.3   1 <1>   0.3430 
 12 C       -6.1820    -5.6850    -0.2920 C.3   1 <1>   0.2000 
 13 C       -5.4190    -6.9130     0.1880 C.3   1 <1>  -0.0800 
 14 O       -7.4040    -5.5880     0.3530 O.3   1 <1>  -0.6800 
 15 C       -5.8170    -8.1940    -0.5720 C.3   1 <1>  -0.0170 
 16 C       -5.0720    -9.4230    -0.0660 C.ar  1 <1>   0.1670 
 17 N       -3.7560    -9.4220    -0.2240 N.ar  1 <1>  -0.6200 
 18 C       -5.7770   -10.4740     0.5190 C.ar  1 <1>   0.1600 
 19 C       -3.2030   -10.5400     0.2260 C.ar  1 <1>   0.1600 
 20 N       -5.2210   -11.5800     0.9820 N.ar  1 <1>  -0.6200 
 21 C       -3.9110   -11.5820     0.8100 C.ar  1 <1>   0.1600 
 22 H       -0.6330    -1.5730    -2.4140 H     1 <1>   0.4500 
 23 H       -1.4450    -3.3060    -1.1780 H     1 <1>   0.1500 
 24 H       -2.4990     0.7580    -0.5290 H     1 <1>   0.1500 
 25 H       -3.8850     0.1070     1.4040 H     1 <1>   0.1500 
 26 H       -4.0640    -2.2430     2.0480 H     1 <1>   0.1500 
 27 H       -3.2630    -4.5100     1.8600 H     1 <1>   0.0800 
 28 H       -1.9490    -4.8930     0.7680 H     1 <1>   0.0800 
 29 H       -3.5470    -4.8100    -1.0440 H     1 <1>   0.4500 
 30 H       -5.4430    -4.1870     1.0430 H     1 <1>   0.0800 
 31 H       -5.4310    -3.6810    -0.6440 H     1 <1>   0.0800 
 32 H       -3.5490    -6.9900    -0.8730 H     1 <1>   0.0800 
 33 H       -3.3720    -6.8940     0.8630 H     1 <1>   0.0800 
 34 H       -6.3660    -5.7180    -1.3530 H     1 <1>   0.0800 
 35 H       -5.5930    -7.0610     1.2400 H     1 <1>   0.0800 
 36 H       -7.3450    -5.7440     1.3170 H     1 <1>   0.4000 
 37 H       -5.6110    -8.0810    -1.6220 H     1 <1>   0.0800 
 38 H       -6.8780    -8.3480    -0.4700 H     1 <1>   0.0800 
 39 H       -6.8470   -10.4040     0.6110 H     1 <1>   0.1500 
 40 H       -2.1360   -10.6400     0.1280 H     1 <1>   0.1500 
 41 H       -3.3730   -12.4510     1.1480 H     1 <1>   0.1500 
@<TRIPOS>BOND
  1   1   2  1   
  2   1  22  1   
  3   2   3  ar  
  4   2   4  ar  
  5   3   5  ar  
  6   3  23  1   
  7   4   6  ar  
  8   4  24  1   
  9   5   7  ar  
 10   5   8  1   
 11   6   7  ar  
 12   6  25  1   
 13   7  26  1   
 14   8   9  1   
 15   8  27  1   
 16   8  28  1   
 17   9  10  1   
 18   9  11  1   
 19   9  29  1   
 20  10  12  1   
 21  10  30  1   
 22  10  31  1   
 23  11  13  1   
 24  11  32  1   
 25  11  33  1   
 26  12  13  1   
 27  12  14  1   
 28  12  34  1   
 29  13  15  1   
 30  13  35  1   
 31  14  36  1   
 32  15  16  1   
 33  15  37  1   
 34  15  38  1   
 35  16  17  ar  
 36  16  18  ar  
 37  17  19  ar  
 38  18  20  ar  
 39  18  39  1   
 40  19  21  ar  
 41  19  40  1   
 42  20  21  ar  
 43  21  41  1   
@<TRIPOS>SUBSTRUCTURE
  1 ****   9 GROUP 4 **** **** 0

# MOE 2024.06 (io_trps.svl 2023.06)
