@<TRIPOS>MOLECULE
NONAME
46 47 1 0 0 
SMALL
USER_CHARGES


@<TRIPOS>ATOM
  1 S        0.2960     0.3920    -0.4810 S.o2  1 <1>   1.3330 
  2 O        1.5660     0.4830    -1.1670 O.2   1 <1>  -0.6500 
  3 O       -0.9240     0.3200    -1.2530 O.2   1 <1>  -0.6500 
  4 N        0.3550    -0.9520     0.5520 N.am  1 <1>  -0.8490 
  5 C        0.1380     1.7710     0.6500 C.3   1 <1>  -0.0550 
  6 C        1.6840    -1.1910     1.1250 C.3   1 <1>   0.1160 
  7 C       -0.1340    -2.1720    -0.0980 C.3   1 <1>   0.1160 
  8 C       -0.0510     3.1210    -0.0710 C.3   1 <1>  -0.0800 
  9 C       -0.3210     4.3050     0.8520 C.3   1 <1>   0.2000 
 10 C        1.1600     3.5620    -0.9120 C.3   1 <1>   0.1100 
 11 O        0.5400     4.2410     1.9330 O.3   1 <1>  -0.6800 
 12 C        0.1200     5.4790    -0.0120 C.3   1 <1>   0.1100 
 13 N        1.3570     5.0020    -0.6600 N.3   1 <1>  -0.8100 
 14 C        1.6660     5.7490    -1.9170 C.3   1 <1>   0.1710 
 15 C        2.0730     7.2070    -1.6980 C.2   1 <1>   0.5690 
 16 O        1.8700     8.0080    -2.5790 O.2   1 <1>  -0.5700 
 17 N        2.6400     7.5090    -0.4920 N.am  1 <1>  -0.5470 
 18 C        3.1210     8.7010     0.0680 C.ar  1 <1>   0.1170 
 19 C        3.3660     9.8500    -0.6800 C.ar  1 <1>  -0.1500 
 20 C        3.3750     8.7380     1.4340 C.ar  1 <1>  -0.1500 
 21 C        3.8440    11.0000    -0.0780 C.ar  1 <1>  -0.1500 
 22 C        3.8540     9.8860     2.0400 C.ar  1 <1>  -0.1500 
 23 C        4.0890    11.0210     1.2830 C.ar  1 <1>  -0.1500 
 24 H       -0.7110     1.6010     1.2830 H     1 <1>   0.0800 
 25 H        1.0060     1.8170     1.2780 H     1 <1>   0.0800 
 26 H        1.6410    -2.0000     1.8340 H     1 <1>   0.0800 
 27 H        2.0320    -0.3110     1.6380 H     1 <1>   0.0800 
 28 H        2.3900    -1.4420     0.3490 H     1 <1>   0.0800 
 29 H       -0.1010    -3.0000     0.5890 H     1 <1>   0.0800 
 30 H        0.4670    -2.4020    -0.9630 H     1 <1>   0.0800 
 31 H       -1.1550    -2.0370    -0.4130 H     1 <1>   0.0800 
 32 H       -0.8910     3.0310    -0.7380 H     1 <1>   0.0800 
 33 H       -1.3360     4.3720     1.2040 H     1 <1>   0.0800 
 34 H        0.9710     3.3630    -1.9560 H     1 <1>   0.0800 
 35 H        2.0530     3.0340    -0.6200 H     1 <1>   0.0800 
 36 H        1.4410     4.3910     1.5780 H     1 <1>   0.4000 
 37 H        0.2840     6.3680     0.5730 H     1 <1>   0.0800 
 38 H       -0.6370     5.6770    -0.7540 H     1 <1>   0.0800 
 39 H        2.4840     5.2640    -2.4200 H     1 <1>   0.0800 
 40 H        0.8160     5.7260    -2.5760 H     1 <1>   0.0800 
 41 H        2.6400     6.6940     0.1260 H     1 <1>   0.3700 
 42 H        3.1850     9.8520    -1.7390 H     1 <1>   0.1500 
 43 H        3.1950     7.8650     2.0330 H     1 <1>   0.1500 
 44 H        4.0260    11.8790    -0.6720 H     1 <1>   0.1500 
 45 H        4.0440     9.8990     3.0990 H     1 <1>   0.1500 
 46 H        4.4610    11.9150     1.7510 H     1 <1>   0.1500 
@<TRIPOS>BOND
  1   1   2  2   
  2   1   3  2   
  3   1   4  am  
  4   1   5  1   
  5   4   6  1   
  6   4   7  1   
  7   5   8  1   
  8   5  24  1   
  9   5  25  1   
 10   6  26  1   
 11   6  27  1   
 12   6  28  1   
 13   7  29  1   
 14   7  30  1   
 15   7  31  1   
 16   8   9  1   
 17   8  10  1   
 18   8  32  1   
 19   9  11  1   
 20   9  12  1   
 21   9  33  1   
 22  10  13  1   
 23  10  34  1   
 24  10  35  1   
 25  11  36  1   
 26  12  13  1   
 27  12  37  1   
 28  12  38  1   
 29  13  14  1   
 30  14  15  1   
 31  14  39  1   
 32  14  40  1   
 33  15  16  2   
 34  15  17  am  
 35  17  18  1   
 36  17  41  1   
 37  18  19  ar  
 38  18  20  ar  
 39  19  21  ar  
 40  19  42  1   
 41  20  22  ar  
 42  20  43  1   
 43  21  23  ar  
 44  21  44  1   
 45  22  23  ar  
 46  22  45  1   
 47  23  46  1   
@<TRIPOS>SUBSTRUCTURE
  1 ****  13 GROUP 4 **** **** 0

# MOE 2024.06 (io_trps.svl 2023.06)
