@<TRIPOS>MOLECULE
NONAME
51 54 1 0 0 
SMALL
USER_CHARGES


@<TRIPOS>ATOM
  1 O        1.6570     3.1440    -1.2950 O.2   1 <1>  -0.5700 
  2 C        0.7820     3.9240    -1.0000 C.2   1 <1>   0.5690 
  3 N       -0.2180     3.6050    -0.1210 N.am  1 <1>  -0.6600 
  4 C        0.8130     5.3140    -1.6360 C.3   1 <1>   0.1810 
  5 C       -1.3090     4.5770     0.2060 C.3   1 <1>   0.3640 
  6 C       -0.3000     2.2780     0.5520 C.3   1 <1>   0.0600 
  7 O       -0.4570     5.9360    -1.6880 O.3   1 <1>  -0.5600 
  8 C       -2.7070     3.9910    -0.0650 C.ar  1 <1>  -0.1440 
  9 C       -1.1470     5.9830    -0.4440 C.3   1 <1>   0.2610 
 10 C       -3.1470     3.4600    -1.2830 C.ar  1 <1>  -0.1440 
 11 C       -3.5930     4.0120     1.0080 C.ar  1 <1>  -0.1500 
 12 C       -0.4980     7.0150     0.4900 C.2   1 <1>   0.5690 
 13 C       -4.4420     2.9710    -1.3880 C.ar  1 <1>  -0.1500 
 14 C       -2.2790     3.3810    -2.5330 C.3   1 <1>  -0.0960 
 15 C       -4.8790     3.5220     0.8920 C.ar  1 <1>  -0.1500 
 16 O       -0.5230     6.8600     1.6900 O.2   1 <1>  -0.5700 
 17 N        0.1060     8.0870    -0.0900 N.am  1 <1>  -0.5790 
 18 C       -5.3060     2.9990    -0.3110 C.ar  1 <1>  -0.1500 
 19 C        1.1190     8.9370     0.5380 C.3   1 <1>   0.1810 
 20 C        2.5050     8.3290     0.4030 C.ar  1 <1>  -0.0320 
 21 C        0.7480     9.7160     1.7580 C.3   1 <1>  -0.2000 
 22 C        0.9100    10.4140     0.4450 C.3   1 <1>  -0.2000 
 23 C        3.3670     8.7310    -0.6060 C.ar  1 <1>  -0.1500 
 24 C        2.9050     7.3340     1.2810 C.ar  1 <1>  -0.1500 
 25 C        4.6150     8.1460    -0.7350 C.ar  1 <1>  -0.1500 
 26 C        4.1510     6.7460     1.1540 C.ar  1 <1>  -0.1500 
 27 C        5.0070     7.1530     0.1450 C.ar  1 <1>  -0.1500 
 28 H        1.1720     5.2270    -2.6450 H     1 <1>   0.0800 
 29 H        1.4920     5.9400    -1.0860 H     1 <1>   0.0800 
 30 H       -1.2580     4.7080     1.2700 H     1 <1>   0.0800 
 31 H       -0.3700     2.4110     1.6170 H     1 <1>   0.0800 
 32 H        0.5730     1.6860     0.3360 H     1 <1>   0.0800 
 33 H       -1.1690     1.7460     0.2040 H     1 <1>   0.0800 
 34 H       -2.1310     6.3570    -0.6580 H     1 <1>   0.0800 
 35 H       -3.2900     4.4150     1.9600 H     1 <1>   0.1500 
 36 H       -4.7930     2.5600    -2.3180 H     1 <1>   0.1500 
 37 H       -2.8060     2.9070    -3.3410 H     1 <1>   0.0800 
 38 H       -1.3950     2.8020    -2.3460 H     1 <1>   0.0800 
 39 H       -2.0030     4.3640    -2.8610 H     1 <1>   0.0800 
 40 H       -5.5470     3.5470     1.7350 H     1 <1>   0.1500 
 41 H        0.1320     8.0980    -1.1120 H     1 <1>   0.3700 
 42 H       -6.3060     2.6160    -0.4110 H     1 <1>   0.1500 
 43 H       -0.2350     9.5760     2.1700 H     1 <1>   0.1000 
 44 H        1.4970     9.8680     2.5150 H     1 <1>   0.1000 
 45 H        1.7600    11.0650     0.3350 H     1 <1>   0.1000 
 46 H        0.0300    10.7900    -0.0440 H     1 <1>   0.1000 
 47 H        3.0660     9.5000    -1.2960 H     1 <1>   0.1500 
 48 H        2.2360     7.0160     2.0640 H     1 <1>   0.1500 
 49 H        5.2810     8.4630    -1.5180 H     1 <1>   0.1500 
 50 H        4.4530     5.9720     1.8390 H     1 <1>   0.1500 
 51 H        5.9760     6.6960     0.0460 H     1 <1>   0.1500 
@<TRIPOS>BOND
  1   1   2  2   
  2   2   3  am  
  3   2   4  1   
  4   3   5  1   
  5   3   6  1   
  6   4   7  1   
  7   4  28  1   
  8   4  29  1   
  9   5   8  1   
 10   5   9  1   
 11   5  30  1   
 12   6  31  1   
 13   6  32  1   
 14   6  33  1   
 15   7   9  1   
 16   8  10  ar  
 17   8  11  ar  
 18   9  12  1   
 19   9  34  1   
 20  10  13  ar  
 21  10  14  1   
 22  11  15  ar  
 23  11  35  1   
 24  12  16  2   
 25  12  17  am  
 26  13  18  ar  
 27  13  36  1   
 28  14  37  1   
 29  14  38  1   
 30  14  39  1   
 31  15  18  ar  
 32  15  40  1   
 33  17  19  1   
 34  17  41  1   
 35  18  42  1   
 36  19  20  1   
 37  19  21  1   
 38  19  22  1   
 39  20  23  ar  
 40  20  24  ar  
 41  21  22  1   
 42  21  43  1   
 43  21  44  1   
 44  22  45  1   
 45  22  46  1   
 46  23  25  ar  
 47  23  47  1   
 48  24  26  ar  
 49  24  48  1   
 50  25  27  ar  
 51  25  49  1   
 52  26  27  ar  
 53  26  50  1   
 54  27  51  1   
@<TRIPOS>SUBSTRUCTURE
  1 ****   9 GROUP 4 **** **** 0

# MOE 2024.06 (io_trps.svl 2023.06)
