@<TRIPOS>MOLECULE
NONAME
50 53 1 0 0 
SMALL
USER_CHARGES


@<TRIPOS>ATOM
  1 O       -3.1990     0.4240    -1.1750 O.2   1 <1>  -0.5700 
  2 C       -2.2940     0.7870    -0.4520 C.2   1 <1>   0.7160 
  3 N       -1.5460    -0.1830     0.1510 N.am  1 <1>  -0.7300 
  4 C       -1.9610     2.1650    -0.2280 C.2   1 <1>  -0.0860 
  5 C       -1.6360    -1.6390    -0.1390 C.3   1 <1>   0.2200 
  6 C       -2.7670     3.3090    -0.3510 C.2   1 <1>   0.3720 
  7 C       -0.7700     2.6760     0.1880 C.2   1 <1>   0.0870 
  8 C       -1.1070    -2.4470     1.0380 C.3   1 <1>   0.2000 
  9 C       -0.6270    -2.0070    -1.2300 C.3   1 <1>   0.1200 
 10 N       -2.1110     4.3680    -0.0170 N.2   1 <1>  -0.4100 
 11 N       -4.1090     3.3320    -0.7580 N.pl3 1 <1>  -0.8210 
 12 O       -0.9130     3.9670     0.3070 O.3   1 <1>  -0.0190 
 13 C        0.4840     2.0410     0.4850 C.ar  1 <1>   0.0530 
 14 O       -1.5260    -3.7700     0.9290 O.3   1 <1>  -0.6800 
 15 C        0.4010    -2.3950     0.8020 C.3   1 <1>   0.1200 
 16 O        0.5800    -2.3270    -0.5870 O.3   1 <1>  -0.5600 
 17 C       -4.7150     4.6330    -1.1570 C.3   1 <1>   0.2090 
 18 C       -5.0640     2.6000     0.1140 C.3   1 <1>   0.2090 
 19 C        1.0800     2.1710     1.7380 C.ar  1 <1>  -0.1500 
 20 C        1.1170     1.2330    -0.4570 C.ar  1 <1>  -0.1500 
 21 C       -5.8720     4.8480    -0.1930 C.3   1 <1>  -0.1600 
 22 C       -6.3350     3.4390     0.1460 C.3   1 <1>  -0.1600 
 23 C        2.2370     1.4830     2.0490 C.ar  1 <1>  -0.1500 
 24 C        2.2720     0.5390    -0.1510 C.ar  1 <1>  -0.1500 
 25 C        2.8350     0.6510     1.1160 C.ar  1 <1>   0.0830 
 26 O        3.9440    -0.0170     1.5080 O.3   1 <1>  -0.3620 
 27 C        4.5930    -0.9330     0.6530 C.3   1 <1>   0.0400 
 28 H       -0.6700     0.1110     0.5880 H     1 <1>   0.3700 
 29 H       -2.6460    -1.9060    -0.4000 H     1 <1>   0.0800 
 30 H       -1.4180    -2.0680     1.9960 H     1 <1>   0.0800 
 31 H       -0.4650    -1.2050    -1.9290 H     1 <1>   0.0800 
 32 H       -0.9540    -2.8840    -1.7600 H     1 <1>   0.0800 
 33 H       -1.0620    -4.1970     0.1810 H     1 <1>   0.4000 
 34 H        0.9140    -3.2560     1.1950 H     1 <1>   0.0800 
 35 H        0.8200    -1.5010     1.2300 H     1 <1>   0.0800 
 36 H       -4.0180     5.4530    -1.1210 H     1 <1>   0.0800 
 37 H       -5.0850     4.5390    -2.1630 H     1 <1>   0.0800 
 38 H       -5.2630     1.6200    -0.2860 H     1 <1>   0.0800 
 39 H       -4.6540     2.5070     1.1050 H     1 <1>   0.0800 
 40 H        0.6240     2.8120     2.4730 H     1 <1>   0.1500 
 41 H        0.6920     1.1400    -1.4420 H     1 <1>   0.1500 
 42 H       -5.4990     5.3380     0.6890 H     1 <1>   0.0800 
 43 H       -6.6510     5.4470    -0.6300 H     1 <1>   0.0800 
 44 H       -7.0060     3.0800    -0.6150 H     1 <1>   0.0800 
 45 H       -6.8250     3.3850     1.1010 H     1 <1>   0.0800 
 46 H        2.6880     1.5830     3.0210 H     1 <1>   0.1500 
 47 H        2.7130    -0.0870    -0.9050 H     1 <1>   0.1500 
 48 H        5.4220    -1.3610     1.1890 H     1 <1>   0.0800 
 49 H        4.9510    -0.4080    -0.2140 H     1 <1>   0.0800 
 50 H        3.8980    -1.7070     0.3760 H     1 <1>   0.0800 
@<TRIPOS>BOND
  1   1   2  2   
  2   2   3  am  
  3   2   4  1   
  4   3   5  1   
  5   3  28  1   
  6   4   6  1   
  7   4   7  2   
  8   5   8  1   
  9   5   9  1   
 10   5  29  1   
 11   6  10  2   
 12   6  11  1   
 13   7  12  1   
 14   7  13  1   
 15   8  14  1   
 16   8  15  1   
 17   8  30  1   
 18   9  16  1   
 19   9  31  1   
 20   9  32  1   
 21  10  12  1   
 22  11  17  1   
 23  11  18  1   
 24  13  19  ar  
 25  13  20  ar  
 26  14  33  1   
 27  15  16  1   
 28  15  34  1   
 29  15  35  1   
 30  17  21  1   
 31  17  36  1   
 32  17  37  1   
 33  18  22  1   
 34  18  38  1   
 35  18  39  1   
 36  19  23  ar  
 37  19  40  1   
 38  20  24  ar  
 39  20  41  1   
 40  21  22  1   
 41  21  42  1   
 42  21  43  1   
 43  22  44  1   
 44  22  45  1   
 45  23  25  ar  
 46  23  46  1   
 47  24  25  ar  
 48  24  47  1   
 49  25  26  1   
 50  26  27  1   
 51  27  48  1   
 52  27  49  1   
 53  27  50  1   
@<TRIPOS>SUBSTRUCTURE
  1 ****   3 GROUP 4 **** **** 0

# MOE 2024.06 (io_trps.svl 2023.06)
