@<TRIPOS>MOLECULE
NONAME
44 46 1 0 0 
SMALL
USER_CHARGES


@<TRIPOS>ATOM
  1 O       -0.6690     0.1830     1.4470 O.2   1 <1>  -0.5700 
  2 C       -1.5710     0.8160     0.9360 C.2   1 <1>   0.5440 
  3 N       -2.6990     0.1420     0.5280 N.am  1 <1>  -0.6600 
  4 C       -1.4340     2.2430     0.7580 C.ar  1 <1>   0.0860 
  5 C       -3.7640     0.6890    -0.3540 C.3   1 <1>   0.1400 
  6 C       -2.8150    -1.3370     0.6100 C.3   1 <1>   0.1400 
  7 C       -2.3520     3.1270     1.3110 C.ar  1 <1>   0.1600 
  8 C       -0.3880     2.7940     0.0340 C.ar  1 <1>  -0.1500 
  9 C       -4.8030    -0.4290    -0.4300 C.3   1 <1>   0.2000 
 10 C       -3.9650    -1.7080    -0.3340 C.3   1 <1>  -0.0800 
 11 N       -2.3360     4.4420     1.1780 N.ar  1 <1>  -0.6200 
 12 C       -0.3350     4.1650    -0.1140 C.ar  1 <1>  -0.1430 
 13 O       -5.6240    -0.3280     0.6830 O.3   1 <1>  -0.6800 
 14 C       -4.7370    -2.9720     0.0880 C.3   1 <1>  -0.0170 
 15 C       -1.3360     4.9410     0.4690 C.ar  1 <1>   0.1670 
 16 C        0.8170     4.7750    -0.9030 C.3   1 <1>  -0.0970 
 17 C       -3.8350    -4.1960     0.0570 C.ar  1 <1>  -0.1430 
 18 C       -1.3410     6.4530     0.3380 C.3   1 <1>  -0.0970 
 19 C       -3.1990    -4.6680     1.1870 C.ar  1 <1>  -0.1500 
 20 C       -3.6040    -4.8970    -1.1090 C.ar  1 <1>  -0.1500 
 21 C       -2.3830    -5.7840     1.0980 C.ar  1 <1>   0.1600 
 22 C       -2.7700    -6.0030    -1.0900 C.ar  1 <1>   0.1600 
 23 N       -2.1530    -6.4630    -0.0140 N.ar  1 <1>  -0.6200 
 24 H       -4.1940     1.5970     0.0320 H     1 <1>   0.0800 
 25 H       -3.3500     0.8730    -1.3310 H     1 <1>   0.0800 
 26 H       -1.8950    -1.8140     0.3130 H     1 <1>   0.0800 
 27 H       -3.0430    -1.6110     1.6250 H     1 <1>   0.0800 
 28 H       -3.1520     2.7140     1.9000 H     1 <1>   0.1500 
 29 H        0.3590     2.1470    -0.3920 H     1 <1>   0.1500 
 30 H       -5.4160    -0.3800    -1.3150 H     1 <1>   0.0800 
 31 H       -3.5340    -1.8860    -1.3040 H     1 <1>   0.0800 
 32 H       -5.0620    -0.2360     1.4790 H     1 <1>   0.4000 
 33 H       -5.5660    -3.1230    -0.5810 H     1 <1>   0.0800 
 34 H       -5.1430    -2.8520     1.0770 H     1 <1>   0.0800 
 35 H        1.5610     4.0340    -1.1320 H     1 <1>   0.0800 
 36 H        1.2880     5.5550    -0.3310 H     1 <1>   0.0800 
 37 H        0.4530     5.1870    -1.8270 H     1 <1>   0.0800 
 38 H       -1.0550     6.7550    -0.6520 H     1 <1>   0.0800 
 39 H       -0.6620     6.8780     1.0530 H     1 <1>   0.0800 
 40 H       -2.3260     6.8380     0.5320 H     1 <1>   0.0800 
 41 H       -3.3270    -4.1810     2.1360 H     1 <1>   0.1500 
 42 H       -4.0640    -4.5960    -2.0330 H     1 <1>   0.1500 
 43 H       -1.8940    -6.1370     1.9900 H     1 <1>   0.1500 
 44 H       -2.6020    -6.5380    -2.0090 H     1 <1>   0.1500 
@<TRIPOS>BOND
  1   1   2  2   
  2   2   3  am  
  3   2   4  1   
  4   3   5  1   
  5   3   6  1   
  6   4   7  ar  
  7   4   8  ar  
  8   5   9  1   
  9   5  24  1   
 10   5  25  1   
 11   6  10  1   
 12   6  26  1   
 13   6  27  1   
 14   7  11  ar  
 15   7  28  1   
 16   8  12  ar  
 17   8  29  1   
 18   9  10  1   
 19   9  13  1   
 20   9  30  1   
 21  10  14  1   
 22  10  31  1   
 23  11  15  ar  
 24  12  15  ar  
 25  12  16  1   
 26  13  32  1   
 27  14  17  1   
 28  14  33  1   
 29  14  34  1   
 30  15  18  1   
 31  16  35  1   
 32  16  36  1   
 33  16  37  1   
 34  17  19  ar  
 35  17  20  ar  
 36  18  38  1   
 37  18  39  1   
 38  18  40  1   
 39  19  21  ar  
 40  19  41  1   
 41  20  22  ar  
 42  20  42  1   
 43  21  23  ar  
 44  21  43  1   
 45  22  23  ar  
 46  22  44  1   
@<TRIPOS>SUBSTRUCTURE
  1 ****   3 GROUP 4 **** **** 0

# MOE 2024.06 (io_trps.svl 2023.06)
