@<TRIPOS>MOLECULE
NONAME
45 47 1 0 0 
SMALL
USER_CHARGES


@<TRIPOS>ATOM
  1 O       -0.7890     1.0390    -0.7040 O.2   1 <1>  -0.5700 
  2 C       -1.7970     1.1130    -0.0430 C.2   1 <1>   0.5690 
  3 N       -2.9660     0.4990    -0.4160 N.am  1 <1>  -0.6600 
  4 C       -1.7230     1.9150     1.2340 C.3   1 <1>  -0.1790 
  5 C       -4.2440     0.5390     0.3470 C.3   1 <1>   0.1400 
  6 C       -3.0540    -0.2990    -1.6700 C.3   1 <1>   0.1400 
  7 C       -4.6460    -0.8900     0.7210 C.3   1 <1>  -0.1600 
  8 C       -3.4530    -1.7360    -1.3280 C.3   1 <1>  -0.1600 
  9 C       -4.7570    -1.7950    -0.5190 C.3   1 <1>   0.4240 
 10 O       -5.7440    -1.2530    -1.3670 O.3   1 <1>  -0.5600 
 11 C       -5.0820    -3.2500    -0.1210 C.ar  1 <1>  -0.1440 
 12 C       -7.0730    -1.5820    -1.1060 C.3   1 <1>   0.1200 
 13 C       -6.2680    -3.8590    -0.5100 C.ar  1 <1>  -0.1440 
 14 C       -4.1890    -3.9860     0.6480 C.ar  1 <1>  -0.1500 
 15 C       -7.2660    -3.0770    -1.3410 C.3   1 <1>  -0.0170 
 16 C       -6.5460    -5.1650    -0.1410 C.ar  1 <1>  -0.1500 
 17 C       -4.4470    -5.2940     1.0210 C.ar  1 <1>   0.0820 
 18 C       -5.6510    -5.9000     0.6320 C.ar  1 <1>   0.0820 
 19 O       -3.4640    -5.8790     1.7640 O.3   1 <1>  -0.3630 
 20 O       -5.9340    -7.1760     1.0280 O.3   1 <1>  -0.3630 
 21 C       -3.2000    -7.2610     1.6670 C.3   1 <1>   0.0400 
 22 C       -7.1950    -7.7700     0.8070 C.3   1 <1>   0.0400 
 23 H       -1.9480     1.2860     2.0740 H     1 <1>   0.0800 
 24 H       -2.4160     2.7340     1.1910 H     1 <1>   0.0800 
 25 H       -0.7310     2.3100     1.3560 H     1 <1>   0.0800 
 26 H       -5.0060     0.9830    -0.2720 H     1 <1>   0.0800 
 27 H       -4.1530     1.1310     1.2380 H     1 <1>   0.0800 
 28 H       -2.1100    -0.3010    -2.1900 H     1 <1>   0.0800 
 29 H       -3.7890     0.1440    -2.3200 H     1 <1>   0.0800 
 30 H       -5.5750    -0.8840     1.2570 H     1 <1>   0.0800 
 31 H       -3.9010    -1.2840     1.3870 H     1 <1>   0.0800 
 32 H       -2.6490    -2.1790    -0.7710 H     1 <1>   0.0800 
 33 H       -3.5720    -2.3070    -2.2300 H     1 <1>   0.0800 
 34 H       -7.6920    -1.0120    -1.7760 H     1 <1>   0.0800 
 35 H       -7.3120    -1.3150    -0.0920 H     1 <1>   0.0800 
 36 H       -3.2620    -3.5510     0.9740 H     1 <1>   0.1500 
 37 H       -7.1200    -3.2960    -2.3840 H     1 <1>   0.0800 
 38 H       -8.2700    -3.3500    -1.0740 H     1 <1>   0.0800 
 39 H       -7.4720    -5.5950    -0.4680 H     1 <1>   0.1500 
 40 H       -2.2030    -7.4380     2.0240 H     1 <1>   0.0800 
 41 H       -3.2840    -7.5640     0.6380 H     1 <1>   0.0800 
 42 H       -3.9050    -7.7920     2.2800 H     1 <1>   0.0800 
 43 H       -7.1910    -8.7410     1.2690 H     1 <1>   0.0800 
 44 H       -7.3530    -7.8710    -0.2510 H     1 <1>   0.0800 
 45 H       -7.9540    -7.1560     1.2580 H     1 <1>   0.0800 
@<TRIPOS>BOND
  1   1   2  2   
  2   2   3  am  
  3   2   4  1   
  4   3   5  1   
  5   3   6  1   
  6   4  23  1   
  7   4  24  1   
  8   4  25  1   
  9   5   7  1   
 10   5  26  1   
 11   5  27  1   
 12   6   8  1   
 13   6  28  1   
 14   6  29  1   
 15   7   9  1   
 16   7  30  1   
 17   7  31  1   
 18   8   9  1   
 19   8  32  1   
 20   8  33  1   
 21   9  10  1   
 22   9  11  1   
 23  10  12  1   
 24  11  13  ar  
 25  11  14  ar  
 26  12  15  1   
 27  12  34  1   
 28  12  35  1   
 29  13  15  1   
 30  13  16  ar  
 31  14  17  ar  
 32  14  36  1   
 33  15  37  1   
 34  15  38  1   
 35  16  18  ar  
 36  16  39  1   
 37  17  18  ar  
 38  17  19  1   
 39  18  20  1   
 40  19  21  1   
 41  20  22  1   
 42  21  40  1   
 43  21  41  1   
 44  21  42  1   
 45  22  43  1   
 46  22  44  1   
 47  22  45  1   
@<TRIPOS>SUBSTRUCTURE
  1 ****  11 GROUP 4 **** **** 0

# MOE 2024.06 (io_trps.svl 2023.06)
