@<TRIPOS>MOLECULE
NONAME
51 53 1 0 0 
SMALL
USER_CHARGES


@<TRIPOS>ATOM
  1 F        0.9450     2.3550     2.4880 F     1 <1>  -0.1900 
  2 C        1.9730     2.5890     1.7170 C.ar  1 <1>   0.1900 
  3 C        3.1200     1.8390     1.8910 C.ar  1 <1>  -0.1500 
  4 C        1.8760     3.5770     0.7570 C.ar  1 <1>  -0.1500 
  5 C        4.2090     2.0900     1.0710 C.ar  1 <1>  -0.1500 
  6 C        2.9710     3.8180    -0.0550 C.ar  1 <1>  -0.1500 
  7 C        4.1390     3.0790     0.0960 C.ar  1 <1>  -0.1430 
  8 C        5.3330     3.3550    -0.8100 C.3   1 <1>   0.2540 
  9 N        5.6920     4.7840    -0.8110 N.3   1 <1>  -0.8100 
 10 C        6.6630     5.0960    -1.9010 C.3   1 <1>   0.1710 
 11 C        6.1150     5.2540     0.5150 C.3   1 <1>   0.0300 
 12 C        6.9340     6.5900    -2.1660 C.2   1 <1>   0.5690 
 13 O        6.2740     7.1230    -3.0300 O.2   1 <1>  -0.5700 
 14 N        7.9070     7.2950    -1.4910 N.am  1 <1>  -0.6600 
 15 C        8.9090     6.7270    -0.5330 C.3   1 <1>   0.1400 
 16 C        8.0560     8.7750    -1.6820 C.3   1 <1>   0.1400 
 17 C       10.3500     7.0980    -0.9320 C.3   1 <1>   0.2090 
 18 C        9.4940     9.1500    -2.0790 C.3   1 <1>   0.2090 
 19 N       10.4900     8.5770    -1.1150 N.pl3 1 <1>  -0.8380 
 20 C       11.1890     9.3560    -0.1900 C.2   1 <1>   0.1140 
 21 C       12.4970     8.9800     0.2630 C.2   1 <1>   0.3760 
 22 C       10.6610    10.5030     0.3370 C.2   1 <1>  -0.1360 
 23 N       13.1970     9.6240     1.1400 N.2   1 <1>  -0.5120 
 24 C       11.3820    11.2460     1.2850 C.2   1 <1>   0.6160 
 25 N       12.6350    10.7620     1.6570 N.am  1 <1>  -0.2980 
 26 O       10.9280    12.2790     1.7780 O.2   1 <1>  -0.5700 
 27 C       13.4340    11.5040     2.6590 C.3   1 <1>   0.0600 
 28 H        3.1560     1.0780     2.6500 H     1 <1>   0.1500 
 29 H        0.9690     4.1430     0.6510 H     1 <1>   0.1500 
 30 H        5.1080     1.5130     1.1960 H     1 <1>   0.1500 
 31 H        2.9250     4.5890    -0.8070 H     1 <1>   0.1500 
 32 H        5.0650     3.0550    -1.8090 H     1 <1>   0.0800 
 33 H        6.1800     2.7680    -0.5000 H     1 <1>   0.0800 
 34 H        6.2640     4.7030    -2.8200 H     1 <1>   0.0800 
 35 H        7.5870     4.5830    -1.7240 H     1 <1>   0.0800 
 36 H        5.3450     5.0580     1.2420 H     1 <1>   0.0800 
 37 H        6.2730     6.3180     0.4950 H     1 <1>   0.0800 
 38 H        7.0190     4.7590     0.8240 H     1 <1>   0.0800 
 39 H        8.8320     5.6590    -0.4750 H     1 <1>   0.0800 
 40 H        8.7130     7.1230     0.4480 H     1 <1>   0.0800 
 41 H        7.8040     9.2720    -0.7630 H     1 <1>   0.0800 
 42 H        7.3810     9.1330    -2.4400 H     1 <1>   0.0800 
 43 H       10.6060     6.6020    -1.8520 H     1 <1>   0.0800 
 44 H       11.0240     6.7510    -0.1690 H     1 <1>   0.0800 
 45 H        9.5920    10.2200    -2.1280 H     1 <1>   0.0800 
 46 H        9.6950     8.7630    -3.0640 H     1 <1>   0.0800 
 47 H       12.9210     8.0920    -0.1690 H     1 <1>   0.0600 
 48 H        9.6920    10.8720     0.0720 H     1 <1>   0.1500 
 49 H       14.3670    10.9970     2.8330 H     1 <1>   0.0800 
 50 H       12.8850    11.5650     3.5810 H     1 <1>   0.0800 
 51 H       13.6310    12.4960     2.2950 H     1 <1>   0.0800 
@<TRIPOS>BOND
  1   1   2  1   
  2   2   3  ar  
  3   2   4  ar  
  4   3   5  ar  
  5   3  28  1   
  6   4   6  ar  
  7   4  29  1   
  8   5   7  ar  
  9   5  30  1   
 10   6   7  ar  
 11   6  31  1   
 12   7   8  1   
 13   8   9  1   
 14   8  32  1   
 15   8  33  1   
 16   9  10  1   
 17   9  11  1   
 18  10  12  1   
 19  10  34  1   
 20  10  35  1   
 21  11  36  1   
 22  11  37  1   
 23  11  38  1   
 24  12  13  2   
 25  12  14  am  
 26  14  15  1   
 27  14  16  1   
 28  15  17  1   
 29  15  39  1   
 30  15  40  1   
 31  16  18  1   
 32  16  41  1   
 33  16  42  1   
 34  17  19  1   
 35  17  43  1   
 36  17  44  1   
 37  18  19  1   
 38  18  45  1   
 39  18  46  1   
 40  19  20  1   
 41  20  21  1   
 42  20  22  2   
 43  21  23  2   
 44  21  47  1   
 45  22  24  1   
 46  22  48  1   
 47  23  25  1   
 48  24  25  am  
 49  24  26  2   
 50  25  27  1   
 51  27  49  1   
 52  27  50  1   
 53  27  51  1   
@<TRIPOS>SUBSTRUCTURE
  1 ****  15 GROUP 4 **** **** 0

# MOE 2024.06 (io_trps.svl 2023.06)
