@<TRIPOS>MOLECULE
NONAME
43 44 1 0 0 
SMALL
USER_CHARGES


@<TRIPOS>ATOM
  1 CL      -0.5020    -0.3100    -1.1800 Cl    1 <1>  -0.1770 
  2 C        0.7770    -1.5130    -1.2470 C.ar  1 <1>   0.1770 
  3 C        0.8660    -2.5650    -0.3350 C.ar  1 <1>   0.4100 
  4 C        1.7110    -1.4360    -2.2420 C.ar  1 <1>   0.1600 
  5 N        1.8210    -3.4740    -0.4710 N.ar  1 <1>  -0.6200 
  6 N       -0.0120    -2.7350     0.7320 N.pl3 1 <1>  -0.8380 
  7 N        2.6810    -2.3260    -2.3640 N.ar  1 <1>  -0.6200 
  8 C        2.6760    -3.2920    -1.4620 C.ar  1 <1>   0.4770 
  9 C       -0.2890    -4.0850     1.2810 C.3   1 <1>   0.2090 
 10 C       -0.1920    -1.6170     1.7040 C.3   1 <1>   0.1290 
 11 C        3.7840    -4.3090    -1.5910 C.3   1 <1>  -0.0960 
 12 C       -1.1470    -4.8520     0.2730 C.3   1 <1>  -0.1600 
 13 C       -1.2760    -6.3310     0.6380 C.3   1 <1>   0.4230 
 14 N       -1.8630    -7.0520    -0.5250 N.4   1 <1>  -0.9590 
 15 C       -2.1030    -6.5460     1.9110 C.3   1 <1>  -0.2400 
 16 C       -3.2850    -6.7570    -0.8420 C.3   1 <1>   0.3430 
 17 C       -1.7550    -8.5290    -0.4580 C.3   1 <1>   0.3430 
 18 C       -3.6920    -7.8740    -1.7930 C.3   1 <1>  -0.1600 
 19 C       -2.7160    -9.0260    -1.5300 C.3   1 <1>  -0.1600 
 20 H        1.6670    -0.6330    -2.9570 H     1 <1>   0.1500 
 21 H       -0.8110    -3.9960     2.2190 H     1 <1>   0.0800 
 22 H        0.6420    -4.5970     1.4630 H     1 <1>   0.0800 
 23 H        0.3830    -0.7570     1.4060 H     1 <1>   0.0800 
 24 H        0.1400    -1.9170     2.6830 H     1 <1>   0.0800 
 25 H       -1.2310    -1.3400     1.7500 H     1 <1>   0.0800 
 26 H        3.8190    -4.9440    -0.7240 H     1 <1>   0.0800 
 27 H        4.7260    -3.8030    -1.6880 H     1 <1>   0.0800 
 28 H        3.6180    -4.9100    -2.4640 H     1 <1>   0.0800 
 29 H       -0.6740    -4.7800    -0.6890 H     1 <1>   0.0800 
 30 H       -2.1140    -4.3840     0.2220 H     1 <1>   0.0800 
 31 H       -0.2820    -6.7170     0.8070 H     1 <1>   0.0800 
 32 H       -1.3230    -6.7620    -1.3510 H     1 <1>   0.4500 
 33 H       -3.0600    -6.0590     1.8480 H     1 <1>   0.0800 
 34 H       -1.5830    -6.1290     2.7550 H     1 <1>   0.0800 
 35 H       -2.2450    -7.5900     2.1160 H     1 <1>   0.0800 
 36 H       -3.4030    -5.7840    -1.2920 H     1 <1>   0.0800 
 37 H       -3.8830    -6.8160     0.0520 H     1 <1>   0.0800 
 38 H       -2.0830    -8.8820     0.5050 H     1 <1>   0.0800 
 39 H       -0.7460    -8.8660    -0.6390 H     1 <1>   0.0800 
 40 H       -3.6070    -7.5340    -2.8100 H     1 <1>   0.0800 
 41 H       -4.7130    -8.1650    -1.6150 H     1 <1>   0.0800 
 42 H       -3.2270    -9.9120    -1.1920 H     1 <1>   0.0800 
 43 H       -2.1710    -9.2690    -2.4270 H     1 <1>   0.0800 
@<TRIPOS>BOND
  1   1   2  1   
  2   2   3  ar  
  3   2   4  ar  
  4   3   5  ar  
  5   3   6  1   
  6   4   7  ar  
  7   4  20  1   
  8   5   8  ar  
  9   6   9  1   
 10   6  10  1   
 11   7   8  ar  
 12   8  11  1   
 13   9  12  1   
 14   9  21  1   
 15   9  22  1   
 16  10  23  1   
 17  10  24  1   
 18  10  25  1   
 19  11  26  1   
 20  11  27  1   
 21  11  28  1   
 22  12  13  1   
 23  12  29  1   
 24  12  30  1   
 25  13  14  1   
 26  13  15  1   
 27  13  31  1   
 28  14  16  1   
 29  14  17  1   
 30  14  32  1   
 31  15  33  1   
 32  15  34  1   
 33  15  35  1   
 34  16  18  1   
 35  16  36  1   
 36  16  37  1   
 37  17  19  1   
 38  17  38  1   
 39  17  39  1   
 40  18  19  1   
 41  18  40  1   
 42  18  41  1   
 43  19  42  1   
 44  19  43  1   
@<TRIPOS>SUBSTRUCTURE
  1 ****  12 GROUP 4 **** **** 0

# MOE 2024.06 (io_trps.svl 2023.06)
