@<TRIPOS>MOLECULE
NONAME
56 58 1 0 0 
SMALL
USER_CHARGES


@<TRIPOS>ATOM
  1 O        2.1040    -0.2000     2.2960 O.2   1 <1>  -0.5700 
  2 C        2.1760    -0.6400     1.1730 C.2   1 <1>   0.5690 
  3 N        1.6410    -1.8610     0.8480 N.am  1 <1>  -0.6600 
  4 C        2.8850     0.1990     0.1120 C.3   1 <1>  -0.0990 
  5 C        1.7630    -2.5530    -0.4710 C.3   1 <1>   0.1400 
  6 C        0.8660    -2.6580     1.8490 C.3   1 <1>   0.1400 
  7 C        3.1500     1.6560     0.5490 C.3   1 <1>  -0.1600 
  8 C        2.2130    -4.0130    -0.2820 C.3   1 <1>   0.1200 
  9 C        1.3690    -4.1080     1.9030 C.3   1 <1>   0.1200 
 10 C        3.7780     2.5430    -0.5430 C.3   1 <1>  -0.0800 
 11 O        1.3790    -4.6760     0.6230 O.3   1 <1>  -0.5600 
 12 C        5.2010     2.0850    -0.9180 C.3   1 <1>  -0.1600 
 13 C        3.8140     4.0010    -0.0570 C.3   1 <1>  -0.1600 
 14 C        5.8810     3.0450    -1.8960 C.3   1 <1>   0.3430 
 15 C        4.5040     4.9300    -1.0540 C.3   1 <1>   0.3430 
 16 N        5.8740     4.4200    -1.3340 N.4   1 <1>  -0.9590 
 17 C        6.6830     5.3900    -2.1320 C.3   1 <1>   0.4860 
 18 C        7.0830     6.5670    -1.2440 C.ar  1 <1>   0.1670 
 19 N        7.3680     6.3000     0.0180 N.ar  1 <1>  -0.6200 
 20 C        7.1350     7.8510    -1.7380 C.ar  1 <1>  -0.1500 
 21 C        7.7120     7.3400     0.7670 C.ar  1 <1>   0.4770 
 22 C        7.4970     8.8500    -0.8690 C.ar  1 <1>   0.1600 
 23 N        7.7850     8.6040     0.3880 N.ar  1 <1>  -0.6200 
 24 C        8.0600     7.0500     2.2180 C.3   1 <1>  -0.0170 
 25 C        9.5230     6.6120     2.3880 C.3   1 <1>  -0.2400 
 26 H        2.2740     0.2120    -0.7710 H     1 <1>   0.0800 
 27 H        3.8130    -0.2900    -0.1150 H     1 <1>   0.0800 
 28 H        2.4700    -2.0550    -1.1080 H     1 <1>   0.0800 
 29 H        0.8060    -2.5440    -0.9630 H     1 <1>   0.0800 
 30 H       -0.1740    -2.6550     1.5720 H     1 <1>   0.0800 
 31 H        0.9460    -2.2220     2.8300 H     1 <1>   0.0800 
 32 H        3.7830     1.6500     1.4220 H     1 <1>   0.0800 
 33 H        2.2080     2.0850     0.8470 H     1 <1>   0.0800 
 34 H        3.2230    -4.0540     0.0880 H     1 <1>   0.0800 
 35 H        2.1660    -4.5410    -1.2180 H     1 <1>   0.0800 
 36 H        0.7210    -4.7030     2.5220 H     1 <1>   0.0800 
 37 H        2.3660    -4.1470     2.3080 H     1 <1>   0.0800 
 38 H        3.1540     2.4950    -1.4220 H     1 <1>   0.0800 
 39 H        5.1630     1.1130    -1.3750 H     1 <1>   0.0800 
 40 H        5.8060     2.0010    -0.0310 H     1 <1>   0.0800 
 41 H        4.3240     4.0650     0.8900 H     1 <1>   0.0800 
 42 H        2.8090     4.3520     0.1000 H     1 <1>   0.0800 
 43 H        5.3530     3.0330    -2.8360 H     1 <1>   0.0800 
 44 H        6.8940     2.7200    -2.0680 H     1 <1>   0.0800 
 45 H        4.5570     5.9230    -0.6360 H     1 <1>   0.0800 
 46 H        3.9310     4.9700    -1.9670 H     1 <1>   0.0800 
 47 H        6.3600     4.4120    -0.4200 H     1 <1>   0.4500 
 48 H        6.1280     5.7350    -2.9880 H     1 <1>   0.0800 
 49 H        7.5850     4.9110    -2.4750 H     1 <1>   0.0800 
 50 H        6.9070     8.0840    -2.7620 H     1 <1>   0.1500 
 51 H        7.5530     9.8730    -1.2060 H     1 <1>   0.1500 
 52 H        7.4090     6.2800     2.5900 H     1 <1>   0.0800 
 53 H        7.8850     7.9350     2.8050 H     1 <1>   0.0800 
 54 H        9.7120     5.7160     1.8250 H     1 <1>   0.0800 
 55 H        9.7360     6.4240     3.4250 H     1 <1>   0.0800 
 56 H       10.1810     7.3870     2.0360 H     1 <1>   0.0800 
@<TRIPOS>BOND
  1   1   2  2   
  2   2   3  am  
  3   2   4  1   
  4   3   5  1   
  5   3   6  1   
  6   4   7  1   
  7   4  26  1   
  8   4  27  1   
  9   5   8  1   
 10   5  28  1   
 11   5  29  1   
 12   6   9  1   
 13   6  30  1   
 14   6  31  1   
 15   7  10  1   
 16   7  32  1   
 17   7  33  1   
 18   8  11  1   
 19   8  34  1   
 20   8  35  1   
 21   9  11  1   
 22   9  36  1   
 23   9  37  1   
 24  10  12  1   
 25  10  13  1   
 26  10  38  1   
 27  12  14  1   
 28  12  39  1   
 29  12  40  1   
 30  13  15  1   
 31  13  41  1   
 32  13  42  1   
 33  14  16  1   
 34  14  43  1   
 35  14  44  1   
 36  15  16  1   
 37  15  45  1   
 38  15  46  1   
 39  16  17  1   
 40  16  47  1   
 41  17  18  1   
 42  17  48  1   
 43  17  49  1   
 44  18  19  ar  
 45  18  20  ar  
 46  19  21  ar  
 47  20  22  ar  
 48  20  50  1   
 49  21  23  ar  
 50  21  24  1   
 51  22  23  ar  
 52  22  51  1   
 53  24  25  1   
 54  24  52  1   
 55  24  53  1   
 56  25  54  1   
 57  25  55  1   
 58  25  56  1   
@<TRIPOS>SUBSTRUCTURE
  1 ****  10 GROUP 4 **** **** 0

# MOE 2024.06 (io_trps.svl 2023.06)
