@<TRIPOS>MOLECULE
NONAME
45 47 1 0 0 
SMALL
USER_CHARGES


@<TRIPOS>ATOM
  1 S        1.6330     0.3350     2.1750 S.3   1 <1>  -0.0800 
  2 C        1.1350    -0.2760     0.6080 C.2   1 <1>  -0.1400 
  3 C        2.3340     1.7660     1.4470 C.2   1 <1>  -0.1100 
  4 C        1.4970     0.5890    -0.3630 C.2   1 <1>  -0.1500 
  5 C        0.4190    -1.6110     0.6490 C.3   1 <1>   0.5230 
  6 C        2.1830     1.7580     0.1080 C.2   1 <1>   0.0190 
  7 N        0.0630    -2.0280    -0.7390 N.4   1 <1>  -0.9590 
  8 C        2.6390     2.7730    -0.7920 C.1   1 <1>  -0.0190 
  9 C       -1.3650    -1.8250    -1.1310 C.3   1 <1>   0.4230 
 10 C        0.5090    -3.4310    -1.0000 C.3   1 <1>   0.2630 
 11 C        3.0320     3.6250    -1.5250 C.1   1 <1>  -0.2000 
 12 C       -2.3690    -2.6300    -0.3070 C.3   1 <1>  -0.1600 
 13 C       -1.8460    -0.3830    -1.0010 C.3   1 <1>  -0.1600 
 14 C        3.5400     4.6990    -2.4210 C.3   1 <1>   0.3200 
 15 C       -3.7160    -1.9450    -0.5820 C.3   1 <1>  -0.0800 
 16 C       -3.3770    -0.4910    -0.9980 C.3   1 <1>  -0.0800 
 17 O        4.0510     5.6970    -1.6200 O.3   1 <1>  -0.6800 
 18 C       -4.7260    -2.0940     0.5770 C.3   1 <1>   0.1400 
 19 C       -4.0620     0.5940    -0.1420 C.3   1 <1>  -0.0990 
 20 N       -5.7660    -1.0550     0.4600 N.am  1 <1>  -0.7300 
 21 C       -5.5050     0.2260     0.1250 C.2   1 <1>   0.5690 
 22 O       -6.3770     1.0500     0.0460 O.2   1 <1>  -0.5700 
 23 H        2.7990     2.4830     2.1010 H     1 <1>   0.1500 
 24 H        1.3270     0.4910    -1.4210 H     1 <1>   0.1500 
 25 H       -0.4620    -1.5270     1.2630 H     1 <1>   0.0800 
 26 H        1.0750    -2.3370     1.1000 H     1 <1>   0.0800 
 27 H        0.6240    -1.4100    -1.3390 H     1 <1>   0.4500 
 28 H       -1.4880    -2.1130    -2.1640 H     1 <1>   0.0800 
 29 H       -0.0240    -4.1210    -0.3650 H     1 <1>   0.0800 
 30 H        1.5660    -3.5320    -0.8070 H     1 <1>   0.0800 
 31 H        0.3240    -3.6980    -2.0280 H     1 <1>   0.0800 
 32 H       -2.4000    -3.6620    -0.6080 H     1 <1>   0.0800 
 33 H       -2.1460    -2.5650     0.7420 H     1 <1>   0.0800 
 34 H       -1.5260     0.0530    -0.0720 H     1 <1>   0.0800 
 35 H       -1.5050     0.2270    -1.8190 H     1 <1>   0.0800 
 36 H        2.7440     5.1130    -3.0150 H     1 <1>   0.0800 
 37 H        4.3280     4.3410    -3.0600 H     1 <1>   0.0800 
 38 H       -4.1590    -2.4230    -1.4410 H     1 <1>   0.0800 
 39 H       -3.7290    -0.3630    -2.0100 H     1 <1>   0.0800 
 40 H        3.4630     5.8160    -0.8500 H     1 <1>   0.4000 
 41 H       -4.2360    -1.9720     1.5280 H     1 <1>   0.0800 
 42 H       -5.1820    -3.0690     0.5500 H     1 <1>   0.0800 
 43 H       -4.0250     1.5450    -0.6440 H     1 <1>   0.0800 
 44 H       -3.5770     0.6970     0.8100 H     1 <1>   0.0800 
 45 H       -6.7370    -1.2930     0.6800 H     1 <1>   0.3700 
@<TRIPOS>BOND
  1   1   2  1   
  2   1   3  1   
  3   2   4  2   
  4   2   5  1   
  5   3   6  2   
  6   3  23  1   
  7   4   6  1   
  8   4  24  1   
  9   5   7  1   
 10   5  25  1   
 11   5  26  1   
 12   6   8  1   
 13   7   9  1   
 14   7  10  1   
 15   7  27  1   
 16   8  11  3   
 17   9  12  1   
 18   9  13  1   
 19   9  28  1   
 20  10  29  1   
 21  10  30  1   
 22  10  31  1   
 23  11  14  1   
 24  12  15  1   
 25  12  32  1   
 26  12  33  1   
 27  13  16  1   
 28  13  34  1   
 29  13  35  1   
 30  14  17  1   
 31  14  36  1   
 32  14  37  1   
 33  15  16  1   
 34  15  18  1   
 35  15  38  1   
 36  16  19  1   
 37  16  39  1   
 38  17  40  1   
 39  18  20  1   
 40  18  41  1   
 41  18  42  1   
 42  19  21  1   
 43  19  43  1   
 44  19  44  1   
 45  20  21  am  
 46  20  45  1   
 47  21  22  2   
@<TRIPOS>SUBSTRUCTURE
  1 ****  13 GROUP 4 **** **** 0

# MOE 2024.06 (io_trps.svl 2023.06)
