@<TRIPOS>MOLECULE
NONAME
45 48 1 0 0 
SMALL
USER_CHARGES


@<TRIPOS>ATOM
  1 O       -0.7270     0.3280     0.9390 O.2   1 <1>  -0.5700 
  2 C       -1.5900     1.0830     0.5160 C.2   1 <1>   0.5440 
  3 N       -2.7800     0.5090     0.0790 N.am  1 <1>  -0.6600 
  4 C       -1.3250     2.5290     0.5350 C.ar  1 <1>   0.3960 
  5 C       -4.0150     1.3180    -0.1460 C.3   1 <1>   0.2200 
  6 C       -2.8660    -0.9690    -0.1370 C.3   1 <1>   0.0600 
  7 N       -1.7410     3.3250    -0.4330 N.ar  1 <1>  -0.6200 
  8 C       -0.6000     3.0500     1.6310 C.ar  1 <1>  -0.1500 
  9 C       -5.2930     0.7340     0.4500 C.3   1 <1>  -0.1600 
 10 C       -4.3420     1.4970    -1.6250 C.3   1 <1>  -0.1600 
 11 C       -1.4830     4.6490    -0.3520 C.ar  1 <1>   0.3100 
 12 C       -0.3240     4.3780     1.7380 C.ar  1 <1>  -0.1500 
 13 C       -6.4170     1.4600    -0.3020 C.3   1 <1>  -0.0800 
 14 C       -5.8110     1.9350    -1.6360 C.3   1 <1>  -0.0800 
 15 C       -0.7780     5.2310     0.7230 C.ar  1 <1>   0.0000 
 16 C       -1.9450     5.4900    -1.3780 C.ar  1 <1>  -0.1500 
 17 C       -6.9150     2.7220     0.4200 C.3   1 <1>  -0.1600 
 18 C       -5.9830     3.4610    -1.6750 C.3   1 <1>  -0.1600 
 19 C       -0.5650     6.6240     0.7320 C.ar  1 <1>  -0.1500 
 20 C       -1.7300     6.8420    -1.3520 C.ar  1 <1>  -0.1500 
 21 C       -7.1010     3.7490    -0.6860 C.3   1 <1>   0.2000 
 22 C       -1.0320     7.4140    -0.2840 C.ar  1 <1>  -0.1500 
 23 O       -6.9690     5.0220    -0.1790 O.3   1 <1>  -0.6800 
 24 H       -3.8950     2.2930     0.2920 H     1 <1>   0.0800 
 25 H       -3.5020    -1.1950    -0.9720 H     1 <1>   0.0800 
 26 H       -3.2570    -1.4390     0.7480 H     1 <1>   0.0800 
 27 H       -1.8900    -1.3760    -0.3400 H     1 <1>   0.0800 
 28 H       -0.2670     2.3590     2.3870 H     1 <1>   0.1500 
 29 H       -5.3730    -0.3150     0.2330 H     1 <1>   0.0800 
 30 H       -5.3430     0.8820     1.5140 H     1 <1>   0.0800 
 31 H       -3.6910     2.2140    -2.0940 H     1 <1>   0.0800 
 32 H       -4.2540     0.5580    -2.1390 H     1 <1>   0.0800 
 33 H        0.2270     4.7800     2.5690 H     1 <1>   0.1500 
 34 H       -7.2460     0.7960    -0.4840 H     1 <1>   0.0800 
 35 H       -6.3350     1.4880    -2.4650 H     1 <1>   0.0800 
 36 H       -2.4770     5.0320    -2.1930 H     1 <1>   0.1500 
 37 H       -6.1730     3.0700     1.1170 H     1 <1>   0.0800 
 38 H       -7.8390     2.5380     0.9390 H     1 <1>   0.0800 
 39 H       -6.2390     3.8020    -2.6620 H     1 <1>   0.0800 
 40 H       -5.0780     3.9450    -1.3500 H     1 <1>   0.0800 
 41 H       -0.0270     7.0580     1.5550 H     1 <1>   0.1500 
 42 H       -2.0900     7.4750    -2.1450 H     1 <1>   0.1500 
 43 H       -8.0680     3.6510    -1.1500 H     1 <1>   0.0800 
 44 H       -0.8690     8.4790    -0.2750 H     1 <1>   0.1500 
 45 H       -6.0850     5.1280     0.2190 H     1 <1>   0.4000 
@<TRIPOS>BOND
  1   1   2  2   
  2   2   3  am  
  3   2   4  1   
  4   3   5  1   
  5   3   6  1   
  6   4   7  ar  
  7   4   8  ar  
  8   5   9  1   
  9   5  10  1   
 10   5  24  1   
 11   6  25  1   
 12   6  26  1   
 13   6  27  1   
 14   7  11  ar  
 15   8  12  ar  
 16   8  28  1   
 17   9  13  1   
 18   9  29  1   
 19   9  30  1   
 20  10  14  1   
 21  10  31  1   
 22  10  32  1   
 23  11  15  ar  
 24  11  16  ar  
 25  12  15  ar  
 26  12  33  1   
 27  13  14  1   
 28  13  17  1   
 29  13  34  1   
 30  14  18  1   
 31  14  35  1   
 32  15  19  ar  
 33  16  20  ar  
 34  16  36  1   
 35  17  21  1   
 36  17  37  1   
 37  17  38  1   
 38  18  21  1   
 39  18  39  1   
 40  18  40  1   
 41  19  22  ar  
 42  19  41  1   
 43  20  22  ar  
 44  20  42  1   
 45  21  23  1   
 46  21  43  1   
 47  22  44  1   
 48  23  45  1   
@<TRIPOS>SUBSTRUCTURE
  1 ****   7 GROUP 4 **** **** 0

# MOE 2024.06 (io_trps.svl 2023.06)
