@<TRIPOS>MOLECULE
NONAME
47 50 1 0 0 
SMALL
USER_CHARGES


@<TRIPOS>ATOM
  1 O       -1.2960     0.7930     2.1530 O.3   1 <1>  -0.5600 
  2 C       -0.1720     1.2520     1.4520 C.3   1 <1>   0.1200 
  3 C       -2.4600     1.4020     1.6860 C.3   1 <1>   0.1200 
  4 C       -0.6530     2.3300     0.4810 C.3   1 <1>   0.2890 
  5 C       -2.1220     1.9840     0.3130 C.3   1 <1>  -0.0800 
  6 N       -0.5430     3.6720     1.1110 N.pl3 1 <1>  -0.8690 
  7 C       -2.3330     0.9620    -0.8200 C.3   1 <1>  -0.0170 
  8 C        0.5540     4.5010     0.9670 C.ar  1 <1>   0.4100 
  9 C       -3.8060     0.6260    -0.9980 C.ar  1 <1>  -0.1430 
 10 N        1.4770     4.0980     0.1030 N.ar  1 <1>  -0.6200 
 11 C        0.6620     5.6880     1.7040 C.ar  1 <1>   0.0730 
 12 C       -4.3430    -0.5690    -0.5630 C.ar  1 <1>  -0.1500 
 13 C       -4.6820     1.5020    -1.6050 C.ar  1 <1>  -0.1500 
 14 C        2.5390     4.8680    -0.0540 C.ar  1 <1>   0.1670 
 15 C       -0.3640     6.0680     2.6220 C.1   1 <1>   0.4840 
 16 C        1.7790     6.4800     1.5270 C.ar  1 <1>  -0.1500 
 17 C       -5.6920    -0.8210    -0.7470 C.ar  1 <1>   0.1600 
 18 C       -6.0160     1.1540    -1.7400 C.ar  1 <1>   0.1600 
 19 C        2.7390     6.0640     0.6270 C.ar  1 <1>  -0.1430 
 20 C        3.5530     4.3620    -1.0710 C.3   1 <1>  -0.0160 
 21 N       -1.1850     6.3530     3.3620 N.1   1 <1>  -0.5570 
 22 N       -6.5420     0.0130    -1.3240 N.ar  1 <1>  -0.6200 
 23 C        3.9830     6.9220     0.4260 C.3   1 <1>  -0.0170 
 24 C        4.9150     5.0650    -0.9870 C.3   1 <1>  -0.1600 
 25 C        4.7290     6.5800    -0.8670 C.3   1 <1>  -0.1600 
 26 H        0.5580     1.6280     2.1470 H     1 <1>   0.0800 
 27 H        0.2370     0.4160     0.9140 H     1 <1>   0.0800 
 28 H       -3.2550     0.6770     1.6600 H     1 <1>   0.0800 
 29 H       -2.7160     2.1860     2.3770 H     1 <1>   0.0800 
 30 H       -0.1170     2.3010    -0.4530 H     1 <1>   0.0800 
 31 H       -2.7080     2.8630     0.1070 H     1 <1>   0.0800 
 32 H       -1.0650     3.7370     1.9900 H     1 <1>   0.4000 
 33 H       -1.7800     0.0610    -0.6160 H     1 <1>   0.0800 
 34 H       -1.9600     1.3700    -1.7430 H     1 <1>   0.0800 
 35 H       -3.7260    -1.3070    -0.0810 H     1 <1>   0.1500 
 36 H       -4.3410     2.4530    -1.9730 H     1 <1>   0.1500 
 37 H        1.8970     7.3970     2.0780 H     1 <1>   0.1500 
 38 H       -6.0930    -1.7580    -0.4010 H     1 <1>   0.1500 
 39 H       -6.6850     1.8500    -2.2160 H     1 <1>   0.1500 
 40 H        3.6940     3.3040    -0.9350 H     1 <1>   0.0800 
 41 H        3.1360     4.5110    -2.0510 H     1 <1>   0.0800 
 42 H        3.7110     7.9630     0.4100 H     1 <1>   0.0800 
 43 H        4.6410     6.7670     1.2640 H     1 <1>   0.0800 
 44 H        5.4510     4.7010    -0.1280 H     1 <1>   0.0800 
 45 H        5.4940     4.8320    -1.8640 H     1 <1>   0.0800 
 46 H        4.1670     6.9410    -1.7120 H     1 <1>   0.0800 
 47 H        5.6880     7.0690    -0.8710 H     1 <1>   0.0800 
@<TRIPOS>BOND
  1   1   2  1   
  2   1   3  1   
  3   2   4  1   
  4   2  26  1   
  5   2  27  1   
  6   3   5  1   
  7   3  28  1   
  8   3  29  1   
  9   4   5  1   
 10   4   6  1   
 11   4  30  1   
 12   5   7  1   
 13   5  31  1   
 14   6   8  1   
 15   6  32  1   
 16   7   9  1   
 17   7  33  1   
 18   7  34  1   
 19   8  10  ar  
 20   8  11  ar  
 21   9  12  ar  
 22   9  13  ar  
 23  10  14  ar  
 24  11  15  1   
 25  11  16  ar  
 26  12  17  ar  
 27  12  35  1   
 28  13  18  ar  
 29  13  36  1   
 30  14  19  ar  
 31  14  20  1   
 32  15  21  3   
 33  16  19  ar  
 34  16  37  1   
 35  17  22  ar  
 36  17  38  1   
 37  18  22  ar  
 38  18  39  1   
 39  19  23  1   
 40  20  24  1   
 41  20  40  1   
 42  20  41  1   
 43  23  25  1   
 44  23  42  1   
 45  23  43  1   
 46  24  25  1   
 47  24  44  1   
 48  24  45  1   
 49  25  46  1   
 50  25  47  1   
@<TRIPOS>SUBSTRUCTURE
  1 ****   6 GROUP 4 **** **** 0

# MOE 2024.06 (io_trps.svl 2023.06)
