@<TRIPOS>MOLECULE
NONAME
44 47 1 0 0 
SMALL
USER_CHARGES


@<TRIPOS>ATOM
  1 O       -0.5630    -0.2060    -0.7100 O.2   1 <1>  -0.5700 
  2 C       -0.8990     0.2770     0.3540 C.2   1 <1>   0.7150 
  3 N       -1.6580    -0.4740     1.1940 N.am  1 <1>  -0.7300 
  4 C       -0.5260     1.6010     0.7590 C.2   1 <1>  -0.2370 
  5 C       -2.1310    -1.8490     0.9250 C.3   1 <1>   0.2200 
  6 N       -0.2090     2.6120    -0.1140 N.pl3 1 <1>   0.2940 
  7 C       -0.4130     2.1000     2.0350 C.2   1 <1>  -0.1500 
  8 C       -3.5620    -1.7940     0.4190 C.3   1 <1>  -0.0800 
  9 C       -2.2940    -2.6010     2.2410 C.3   1 <1>   0.1200 
 10 C        0.1030     3.7090     0.6200 C.2   1 <1>  -0.3020 
 11 C       -0.2250     2.5720    -1.5970 C.3   1 <1>  -0.0910 
 12 C       -0.0140     3.4290     1.9440 C.2   1 <1>  -0.1500 
 13 C       -4.3630    -1.7220     1.7250 C.3   1 <1>   0.1200 
 14 C       -3.9130    -3.0410    -0.4150 C.3   1 <1>  -0.0160 
 15 O       -3.5520    -2.2500     2.7360 O.3   1 <1>  -0.5600 
 16 C       -0.7230     3.7450    -2.3930 C.3   1 <1>  -0.2000 
 17 C       -1.5450     2.4980    -2.3070 C.3   1 <1>  -0.2000 
 18 C       -5.3380    -2.9760    -0.9430 C.ar  1 <1>  -0.1430 
 19 C       -6.3560    -3.7380    -0.4040 C.ar  1 <1>  -0.1500 
 20 C       -5.6860    -2.1510    -1.9930 C.ar  1 <1>  -0.1500 
 21 C       -7.6360    -3.6360    -0.9230 C.ar  1 <1>   0.1600 
 22 C       -6.9970    -2.1230    -2.4370 C.ar  1 <1>   0.1600 
 23 N       -7.9810    -2.8450    -1.9260 N.ar  1 <1>  -0.6200 
 24 H       -2.0250    -0.0430     2.0420 H     1 <1>   0.3700 
 25 H       -1.4580    -2.3510     0.2500 H     1 <1>   0.0800 
 26 H       -0.5840     1.5770     2.9600 H     1 <1>   0.1500 
 27 H       -3.7280    -0.9190    -0.1840 H     1 <1>   0.0800 
 28 H       -1.5370    -2.3470     2.9620 H     1 <1>   0.0800 
 29 H       -2.2950    -3.6640     2.0740 H     1 <1>   0.0800 
 30 H        0.3920     4.6360     0.1610 H     1 <1>   0.1500 
 31 H        0.5880     1.9840    -1.9860 H     1 <1>   0.1000 
 32 H        0.1640     4.0900     2.7760 H     1 <1>   0.1500 
 33 H       -5.2840    -2.2770     1.6890 H     1 <1>   0.0800 
 34 H       -4.5750    -0.6990     1.9820 H     1 <1>   0.0800 
 35 H       -3.7860    -3.9330     0.1730 H     1 <1>   0.0800 
 36 H       -3.2400    -3.1070    -1.2540 H     1 <1>   0.0800 
 37 H       -1.0760     4.6240    -1.8810 H     1 <1>   0.1000 
 38 H       -0.2490     3.9750    -3.3310 H     1 <1>   0.1000 
 39 H       -1.6210     1.8690    -3.1770 H     1 <1>   0.1000 
 40 H       -2.4480     2.5080    -1.7220 H     1 <1>   0.1000 
 41 H       -6.1680    -4.4090     0.4140 H     1 <1>   0.1500 
 42 H       -4.9500    -1.5290    -2.4690 H     1 <1>   0.1500 
 43 H       -8.4170    -4.2370    -0.4900 H     1 <1>   0.1500 
 44 H       -7.2500    -1.4730    -3.2570 H     1 <1>   0.1500 
@<TRIPOS>BOND
  1   1   2  2   
  2   2   3  am  
  3   2   4  1   
  4   3   5  1   
  5   3  24  1   
  6   4   6  1   
  7   4   7  2   
  8   5   8  1   
  9   5   9  1   
 10   5  25  1   
 11   6  10  1   
 12   6  11  1   
 13   7  12  1   
 14   7  26  1   
 15   8  13  1   
 16   8  14  1   
 17   8  27  1   
 18   9  15  1   
 19   9  28  1   
 20   9  29  1   
 21  10  12  2   
 22  10  30  1   
 23  11  16  1   
 24  11  17  1   
 25  11  31  1   
 26  12  32  1   
 27  13  15  1   
 28  13  33  1   
 29  13  34  1   
 30  14  18  1   
 31  14  35  1   
 32  14  36  1   
 33  16  17  1   
 34  16  37  1   
 35  16  38  1   
 36  17  39  1   
 37  17  40  1   
 38  18  19  ar  
 39  18  20  ar  
 40  19  21  ar  
 41  19  41  1   
 42  20  22  ar  
 43  20  42  1   
 44  21  23  ar  
 45  21  43  1   
 46  22  23  ar  
 47  22  44  1   
@<TRIPOS>SUBSTRUCTURE
  1 ****   8 GROUP 4 **** **** 0

# MOE 2024.06 (io_trps.svl 2023.06)
