@<TRIPOS>MOLECULE
NONAME
50 52 1 0 0 
SMALL
USER_CHARGES


@<TRIPOS>ATOM
  1 O       -2.1030    -0.4230    -1.9760 O.2   1 <1>  -0.5700 
  2 C       -1.2790    -0.1730    -1.1240 C.2   1 <1>   0.5690 
  3 N        0.0450    -0.0780    -1.4310 N.am  1 <1>  -0.7300 
  4 C       -1.7350     0.1200     0.3330 C.3   1 <1>   0.4840 
  5 C        0.6620    -0.3180    -2.7560 C.3   1 <1>   0.0600 
  6 N       -1.8590     1.5700     0.7280 N.4   1 <1>  -0.9590 
  7 C       -3.0790    -0.4970     0.7420 C.3   1 <1>  -0.1600 
  8 C       -3.1810     1.8280     1.3200 C.3   1 <1>   0.3430 
  9 C       -1.3980     2.5390    -0.3010 C.3   1 <1>   0.4860 
 10 C       -3.6490     0.4600     1.7870 C.3   1 <1>  -0.1600 
 11 C       -1.5360     3.9810     0.1660 C.ar  1 <1>  -0.1440 
 12 C       -0.9660     4.4730     1.3400 C.ar  1 <1>   0.0820 
 13 C       -2.2600     4.8490    -0.6370 C.ar  1 <1>  -0.1500 
 14 O       -0.2950     3.7000     2.2180 O.3   1 <1>  -0.3630 
 15 C       -1.1270     5.8060     1.6780 C.ar  1 <1>  -0.1500 
 16 C       -2.4400     6.1940    -0.3140 C.ar  1 <1>   0.0000 
 17 C        1.0290     3.2500     1.9140 C.3   1 <1>   0.0140 
 18 C       -1.8460     6.6550     0.8600 C.ar  1 <1>  -0.1500 
 19 C       -3.2120     7.0710    -1.1750 C.ar  1 <1>   0.3100 
 20 C        1.0230     1.7880     1.5080 C.2   1 <1>   0.9060 
 21 N       -3.0500     6.9510    -2.4950 N.ar  1 <1>  -0.6200 
 22 C       -4.0970     7.9970    -0.6220 C.ar  1 <1>  -0.1500 
 23 O        0.3710     0.9780     2.1770 O.co2 1 <1>  -0.9000 
 24 O        1.4430     1.4560     0.3970 O.co2 1 <1>  -0.9000 
 25 C       -3.7580     7.7640    -3.2590 C.ar  1 <1>   0.1600 
 26 C       -4.8310     8.8380    -1.4280 C.ar  1 <1>  -0.1500 
 27 C       -4.6470     8.7120    -2.7870 C.ar  1 <1>  -0.1500 
 28 H        0.7040     0.3010    -0.7080 H     1 <1>   0.3700 
 29 H       -0.9820    -0.3160     0.9660 H     1 <1>   0.0800 
 30 H       -0.0800    -0.6450    -3.4640 H     1 <1>   0.0800 
 31 H        1.4200    -1.0770    -2.6670 H     1 <1>   0.0800 
 32 H        1.1150     0.5900    -3.1130 H     1 <1>   0.0800 
 33 H       -1.1500     1.6270     1.4990 H     1 <1>   0.4500 
 34 H       -3.7430    -0.5400    -0.1040 H     1 <1>   0.0800 
 35 H       -2.9460    -1.4920     1.1270 H     1 <1>   0.0800 
 36 H       -3.1140     2.5350     2.1310 H     1 <1>   0.0800 
 37 H       -3.8490     2.2040     0.5630 H     1 <1>   0.0800 
 38 H       -0.3680     2.3490    -0.5520 H     1 <1>   0.0800 
 39 H       -1.9780     2.4030    -1.1980 H     1 <1>   0.0800 
 40 H       -3.2220     0.2550     2.7540 H     1 <1>   0.0800 
 41 H       -4.7220     0.4070     1.8540 H     1 <1>   0.0800 
 42 H       -2.7030     4.4930    -1.5530 H     1 <1>   0.1500 
 43 H       -0.6820     6.1700     2.5870 H     1 <1>   0.1500 
 44 H        1.4380     3.8510     1.1240 H     1 <1>   0.0800 
 45 H        1.6250     3.3600     2.7990 H     1 <1>   0.0800 
 46 H       -1.9420     7.6900     1.1360 H     1 <1>   0.1500 
 47 H       -4.2110     8.0510     0.4450 H     1 <1>   0.1500 
 48 H       -3.6220     7.6720    -4.3230 H     1 <1>   0.1500 
 49 H       -5.5160     9.5600    -1.0170 H     1 <1>   0.1500 
 50 H       -5.1870     9.3390    -3.4740 H     1 <1>   0.1500 
@<TRIPOS>BOND
  1   1   2  2   
  2   2   3  am  
  3   2   4  1   
  4   3   5  1   
  5   3  28  1   
  6   4   6  1   
  7   4   7  1   
  8   4  29  1   
  9   5  30  1   
 10   5  31  1   
 11   5  32  1   
 12   6   8  1   
 13   6   9  1   
 14   6  33  1   
 15   7  10  1   
 16   7  34  1   
 17   7  35  1   
 18   8  10  1   
 19   8  36  1   
 20   8  37  1   
 21   9  11  1   
 22   9  38  1   
 23   9  39  1   
 24  10  40  1   
 25  10  41  1   
 26  11  12  ar  
 27  11  13  ar  
 28  12  14  1   
 29  12  15  ar  
 30  13  16  ar  
 31  13  42  1   
 32  14  17  1   
 33  15  18  ar  
 34  15  43  1   
 35  16  18  ar  
 36  16  19  1   
 37  17  20  1   
 38  17  44  1   
 39  17  45  1   
 40  18  46  1   
 41  19  21  ar  
 42  19  22  ar  
 43  20  23  ar  
 44  20  24  ar  
 45  21  25  ar  
 46  22  26  ar  
 47  22  47  1   
 48  25  27  ar  
 49  25  48  1   
 50  26  27  ar  
 51  26  49  1   
 52  27  50  1   
@<TRIPOS>SUBSTRUCTURE
  1 ****  11 GROUP 4 **** **** 0

# MOE 2024.06 (io_trps.svl 2023.06)
