@<TRIPOS>MOLECULE
NONAME
51 53 1 0 0 
SMALL
USER_CHARGES


@<TRIPOS>ATOM
  1 O       -9.5890     0.6920     3.5170 O.co2 1 <1>  -0.9000 
  2 C       -8.8390     1.3750     2.8020 C.2   1 <1>   1.0320 
  3 O       -8.9520     2.6190     2.8390 O.co2 1 <1>  -0.9000 
  4 C       -7.9990     0.7570     1.7940 C.2   1 <1>  -0.0920 
  5 O       -7.4110     1.5210     0.8880 O.3   1 <1>  -0.2800 
  6 C       -7.7090    -0.5390     1.4970 C.2   1 <1>  -0.1500 
  7 C       -6.8090     0.7740    -0.0120 C.2   1 <1>  -0.0400 
  8 C       -6.9440    -0.5280     0.3230 C.2   1 <1>  -0.1500 
  9 C       -6.1590     1.4880    -1.1930 C.3   1 <1>   0.3200 
 10 N       -6.5570     2.9150    -1.1210 N.am  1 <1>  -0.7300 
 11 C       -7.8340     3.2610    -1.4360 C.2   1 <1>   0.5690 
 12 O       -8.3860     2.8300    -2.4240 O.2   1 <1>  -0.5700 
 13 C       -8.6630     4.1410    -0.4780 C.3   1 <1>   0.4040 
 14 N      -10.1330     3.8290    -0.5770 N.4   1 <1>  -0.9590 
 15 C      -10.4830     2.7570     0.4050 C.3   1 <1>   0.3430 
 16 C      -11.0140     5.0060    -0.4010 C.3   1 <1>   0.3430 
 17 C      -11.9130     2.2350     0.1940 C.3   1 <1>   0.0000 
 18 C      -12.4660     4.5880    -0.6490 C.3   1 <1>  -0.1600 
 19 C      -12.1620     1.1550     1.2650 C.3   1 <1>   0.2000 
 20 C      -12.8950     3.4280     0.2670 C.3   1 <1>  -0.1600 
 21 C      -12.0180     1.4500    -1.1240 C.3   1 <1>  -0.1600 
 22 O      -13.5390     0.9870     1.4410 O.3   1 <1>  -0.5600 
 23 C      -11.5830    -0.1430     0.6790 C.3   1 <1>  -0.1600 
 24 C      -11.3880     0.0890    -0.8260 C.3   1 <1>  -0.1600 
 25 C      -13.8860     0.4740     2.6900 C.3   1 <1>   0.0400 
 26 H       -8.0300    -1.4090     2.0430 H     1 <1>   0.1500 
 27 H       -6.5760    -1.4010    -0.1850 H     1 <1>   0.1500 
 28 H       -6.4900     1.0520    -2.1200 H     1 <1>   0.0800 
 29 H       -5.0880     1.4080    -1.1280 H     1 <1>   0.0800 
 30 H       -6.1620     3.3240    -0.2710 H     1 <1>   0.3700 
 31 H       -8.4900     5.1690    -0.7410 H     1 <1>   0.0800 
 32 H       -8.3260     3.9810     0.5350 H     1 <1>   0.0800 
 33 H      -10.2620     3.4220    -1.5170 H     1 <1>   0.4500 
 34 H       -9.7860     1.9390     0.3280 H     1 <1>   0.0800 
 35 H      -10.4200     3.1610     1.4000 H     1 <1>   0.0800 
 36 H      -10.9140     5.3840     0.6050 H     1 <1>   0.0800 
 37 H      -10.7370     5.7840    -1.0930 H     1 <1>   0.0800 
 38 H      -13.1090     5.4330    -0.4710 H     1 <1>   0.0800 
 39 H      -12.5850     4.3050    -1.6800 H     1 <1>   0.0800 
 40 H      -11.7120     1.4160     2.2110 H     1 <1>   0.0800 
 41 H      -13.8890     3.1060     0.0040 H     1 <1>   0.0800 
 42 H      -12.9330     3.7790     1.2850 H     1 <1>   0.0800 
 43 H      -13.0590     1.2960    -1.3570 H     1 <1>   0.0800 
 44 H      -11.5480     1.9330    -1.9610 H     1 <1>   0.0800 
 45 H      -10.6350    -0.3520     1.1390 H     1 <1>   0.0800 
 46 H      -12.2370    -0.9770     0.8600 H     1 <1>   0.0800 
 47 H      -10.3350     0.1110    -1.0530 H     1 <1>   0.0800 
 48 H      -11.8530    -0.6900    -1.4070 H     1 <1>   0.0800 
 49 H      -14.9520     0.3440     2.7170 H     1 <1>   0.0800 
 50 H      -13.5840     1.1710     3.4540 H     1 <1>   0.0800 
 51 H      -13.3980    -0.4730     2.8400 H     1 <1>   0.0800 
@<TRIPOS>BOND
  1   1   2  ar  
  2   2   3  ar  
  3   2   4  1   
  4   4   5  1   
  5   4   6  2   
  6   5   7  1   
  7   6   8  1   
  8   6  26  1   
  9   7   8  2   
 10   7   9  1   
 11   8  27  1   
 12   9  10  1   
 13   9  28  1   
 14   9  29  1   
 15  10  11  am  
 16  10  30  1   
 17  11  12  2   
 18  11  13  1   
 19  13  14  1   
 20  13  31  1   
 21  13  32  1   
 22  14  15  1   
 23  14  16  1   
 24  14  33  1   
 25  15  17  1   
 26  15  34  1   
 27  15  35  1   
 28  16  18  1   
 29  16  36  1   
 30  16  37  1   
 31  17  19  1   
 32  17  20  1   
 33  17  21  1   
 34  18  20  1   
 35  18  38  1   
 36  18  39  1   
 37  19  22  1   
 38  19  23  1   
 39  19  40  1   
 40  20  41  1   
 41  20  42  1   
 42  21  24  1   
 43  21  43  1   
 44  21  44  1   
 45  22  25  1   
 46  23  24  1   
 47  23  45  1   
 48  23  46  1   
 49  24  47  1   
 50  24  48  1   
 51  25  49  1   
 52  25  50  1   
 53  25  51  1   
@<TRIPOS>SUBSTRUCTURE
  1 ****  15 GROUP 4 **** **** 0

# MOE 2024.06 (io_trps.svl 2023.06)
