@<TRIPOS>MOLECULE
NONAME
45 47 1 0 0 
SMALL
USER_CHARGES


@<TRIPOS>ATOM
  1 O       -1.4160    -0.4020     0.4440 O.co2 1 <1>  -0.9000 
  2 C       -1.7600    -1.4630     1.0000 C.2   1 <1>   0.9790 
  3 O       -2.2320    -1.4010     2.1530 O.co2 1 <1>  -0.9000 
  4 C       -1.5680    -2.7350     0.3530 C.ar  1 <1>  -0.1790 
  5 C       -2.5710    -3.2640    -0.4740 C.ar  1 <1>   0.4100 
  6 C       -0.4010    -3.4700     0.5250 C.ar  1 <1>  -0.1440 
  7 N       -2.4700    -4.4280    -1.1080 N.ar  1 <1>  -0.6200 
  8 N       -3.7620    -2.6110    -0.7030 N.pl3 1 <1>  -0.8380 
  9 C       -0.3060    -4.6750    -0.1350 C.ar  1 <1>  -0.1500 
 10 C        0.7250    -2.9570     1.4080 C.3   1 <1>  -0.0970 
 11 C       -1.3550    -5.1020    -0.9290 C.ar  1 <1>   0.1670 
 12 C       -4.6990    -2.4420     0.4380 C.3   1 <1>   0.2090 
 13 C       -3.7440    -1.4550    -1.6200 C.3   1 <1>   0.2090 
 14 C       -1.2660    -6.4230    -1.6600 C.3   1 <1>  -0.0970 
 15 C       -6.1530    -2.3020    -0.0710 C.3   1 <1>   0.0000 
 16 C       -5.1500    -1.2770    -2.2010 C.3   1 <1>  -0.1600 
 17 C       -7.0780    -2.1040     1.1460 C.3   1 <1>   0.2000 
 18 C       -6.2120    -1.1360    -1.0940 C.3   1 <1>  -0.1600 
 19 C       -6.6400    -3.6410    -0.6640 C.3   1 <1>  -0.1600 
 20 O       -8.3220    -1.6450     0.7380 O.3   1 <1>  -0.6800 
 21 C       -7.2900    -3.5080     1.7080 C.3   1 <1>  -0.1600 
 22 C       -7.1910    -4.4640     0.5110 C.3   1 <1>  -0.1600 
 23 H        0.5760    -5.2770    -0.0330 H     1 <1>   0.1500 
 24 H        1.5490    -3.6460     1.4310 H     1 <1>   0.0800 
 25 H        0.3600    -2.8150     2.4110 H     1 <1>   0.0800 
 26 H        1.0720    -2.0090     1.0360 H     1 <1>   0.0800 
 27 H       -4.5960    -3.2840     1.1000 H     1 <1>   0.0800 
 28 H       -4.4310    -1.5550     0.9850 H     1 <1>   0.0800 
 29 H       -3.4480    -0.5710    -1.0800 H     1 <1>   0.0800 
 30 H       -3.0290    -1.6300    -2.4060 H     1 <1>   0.0800 
 31 H       -0.3350    -6.9180    -1.4580 H     1 <1>   0.0800 
 32 H       -1.3510    -6.2490    -2.7170 H     1 <1>   0.0800 
 33 H       -2.0760    -7.0560    -1.3480 H     1 <1>   0.0800 
 34 H       -5.1610    -0.4040    -2.8280 H     1 <1>   0.0800 
 35 H       -5.3720    -2.1300    -2.8170 H     1 <1>   0.0800 
 36 H       -6.6820    -1.4130     1.8720 H     1 <1>   0.0800 
 37 H       -7.1870    -1.0720    -1.5430 H     1 <1>   0.0800 
 38 H       -6.0360    -0.2130    -0.5680 H     1 <1>   0.0800 
 39 H       -7.4300    -3.4620    -1.3710 H     1 <1>   0.0800 
 40 H       -5.8480    -4.1650    -1.1730 H     1 <1>   0.0800 
 41 H       -8.6510    -2.2490     0.0480 H     1 <1>   0.4000 
 42 H       -6.4920    -3.7260     2.3960 H     1 <1>   0.0800 
 43 H       -8.2240    -3.5980     2.2370 H     1 <1>   0.0800 
 44 H       -6.5210    -5.2750     0.7420 H     1 <1>   0.0800 
 45 H       -8.1560    -4.8700     0.2620 H     1 <1>   0.0800 
@<TRIPOS>BOND
  1   1   2  ar  
  2   2   3  ar  
  3   2   4  1   
  4   4   5  ar  
  5   4   6  ar  
  6   5   7  ar  
  7   5   8  1   
  8   6   9  ar  
  9   6  10  1   
 10   7  11  ar  
 11   8  12  1   
 12   8  13  1   
 13   9  11  ar  
 14   9  23  1   
 15  10  24  1   
 16  10  25  1   
 17  10  26  1   
 18  11  14  1   
 19  12  15  1   
 20  12  27  1   
 21  12  28  1   
 22  13  16  1   
 23  13  29  1   
 24  13  30  1   
 25  14  31  1   
 26  14  32  1   
 27  14  33  1   
 28  15  17  1   
 29  15  18  1   
 30  15  19  1   
 31  16  18  1   
 32  16  34  1   
 33  16  35  1   
 34  17  20  1   
 35  17  21  1   
 36  17  36  1   
 37  18  37  1   
 38  18  38  1   
 39  19  22  1   
 40  19  39  1   
 41  19  40  1   
 42  20  41  1   
 43  21  22  1   
 44  21  42  1   
 45  21  43  1   
 46  22  44  1   
 47  22  45  1   
@<TRIPOS>SUBSTRUCTURE
  1 ****   8 GROUP 4 **** **** 0

# MOE 2024.06 (io_trps.svl 2023.06)
