@<TRIPOS>MOLECULE
NONAME
56 61 1 0 0 
SMALL
USER_CHARGES


@<TRIPOS>ATOM
  1 O        0.2400     0.7640    -1.3960 O.2   1 <1>  -0.5700 
  2 C        0.0030     1.6610    -0.6100 C.2   1 <1>   0.5440 
  3 N       -1.2500     1.7390    -0.0340 N.am  1 <1>  -0.6600 
  4 C        1.0340     2.6400    -0.3320 C.ar  1 <1>   0.0860 
  5 C       -1.7820     2.9660     0.6410 C.3   1 <1>   0.1400 
  6 C       -2.2790     0.6810    -0.2430 C.3   1 <1>   0.1400 
  7 C        1.6230     3.3700    -1.3610 C.ar  1 <1>  -0.1500 
  8 C        1.4790     2.8970     0.9640 C.ar  1 <1>  -0.1500 
  9 C       -2.9380     3.5820    -0.1700 C.3   1 <1>   0.1440 
 10 C       -3.4470     1.2470    -1.0610 C.3   1 <1>  -0.1600 
 11 C        2.5900     4.3240    -1.1080 C.ar  1 <1>  -0.1500 
 12 C        2.4470     3.8500     1.2170 C.ar  1 <1>  -0.1500 
 13 C       -3.4600     4.7890     0.5880 C.ar  1 <1>   0.1670 
 14 C       -4.0300     2.5180    -0.4170 C.3   1 <1>  -0.1600 
 15 C       -2.4330     4.2180    -1.4940 C.3   1 <1>  -0.1600 
 16 C        3.0280     4.5960     0.1890 C.ar  1 <1>   0.0540 
 17 N       -4.1930     4.7490     1.6790 N.ar  1 <1>  -0.6200 
 18 C       -3.0590     5.9560     0.0090 C.ar  1 <1>  -0.1430 
 19 C       -2.2120     5.7150    -1.2160 C.3   1 <1>  -0.0170 
 20 C        4.0410     5.6030     0.4490 C.2   1 <1>   0.4620 
 21 C       -4.5240     5.9390     2.1610 C.ar  1 <1>   0.4770 
 22 C       -3.4570     7.1320     0.5950 C.ar  1 <1>   0.1600 
 23 N        4.5520     6.3940    -0.4280 N.2   1 <1>  -0.4100 
 24 N        4.5570     5.8100     1.6640 N.2   1 <1>  -0.5650 
 25 N       -4.1990     7.1330     1.6830 N.ar  1 <1>  -0.6200 
 26 C       -5.3780     5.9390     3.4050 C.3   1 <1>  -0.0970 
 27 O        5.4200     7.1450     0.1740 O.3   1 <1>  -0.0190 
 28 C        5.3770     6.7480     1.4190 C.2   1 <1>   0.3930 
 29 C        6.2910     7.4290     2.4250 C.3   1 <1>  -0.0150 
 30 C        5.9280     7.5330     3.8760 C.3   1 <1>  -0.2000 
 31 C        5.9200     8.7580     3.0100 C.3   1 <1>  -0.2000 
 32 H       -1.0140     3.7060     0.7720 H     1 <1>   0.0800 
 33 H       -2.1430     2.6940     1.6180 H     1 <1>   0.0800 
 34 H       -2.6340     0.3460     0.7170 H     1 <1>   0.0800 
 35 H       -1.8570    -0.1690    -0.7520 H     1 <1>   0.0800 
 36 H        1.3120     3.1740    -2.3740 H     1 <1>   0.1500 
 37 H        1.0550     2.3340     1.7780 H     1 <1>   0.1500 
 38 H       -4.2160     0.4990    -1.1390 H     1 <1>   0.0800 
 39 H       -3.1000     1.4590    -2.0570 H     1 <1>   0.0800 
 40 H        3.0190     4.8670    -1.9330 H     1 <1>   0.1500 
 41 H        2.7620     4.0200     2.2330 H     1 <1>   0.1500 
 42 H       -4.8110     2.9240    -1.0360 H     1 <1>   0.0800 
 43 H       -4.4750     2.2530     0.5270 H     1 <1>   0.0800 
 44 H       -3.1980     4.1300    -2.2450 H     1 <1>   0.0800 
 45 H       -1.5430     3.7470    -1.8710 H     1 <1>   0.0800 
 46 H       -2.5260     6.3220    -2.0470 H     1 <1>   0.0800 
 47 H       -1.1790     5.9110    -0.9870 H     1 <1>   0.0800 
 48 H       -3.1670     8.0790     0.1730 H     1 <1>   0.1500 
 49 H       -5.2980     4.9970     3.9140 H     1 <1>   0.0800 
 50 H       -6.4010     6.1070     3.1310 H     1 <1>   0.0800 
 51 H       -5.0570     6.7210     4.0680 H     1 <1>   0.0800 
 52 H        7.3280     7.2640     2.1920 H     1 <1>   0.1000 
 53 H        6.7050     7.4170     4.6100 H     1 <1>   0.1000 
 54 H        4.9870     7.1230     4.2030 H     1 <1>   0.1000 
 55 H        4.9720     9.1950     2.7470 H     1 <1>   0.1000 
 56 H        6.6920     9.4960     3.1450 H     1 <1>   0.1000 
@<TRIPOS>BOND
  1   1   2  2   
  2   2   3  am  
  3   2   4  1   
  4   3   5  1   
  5   3   6  1   
  6   4   7  ar  
  7   4   8  ar  
  8   5   9  1   
  9   5  32  1   
 10   5  33  1   
 11   6  10  1   
 12   6  34  1   
 13   6  35  1   
 14   7  11  ar  
 15   7  36  1   
 16   8  12  ar  
 17   8  37  1   
 18   9  13  1   
 19   9  14  1   
 20   9  15  1   
 21  10  14  1   
 22  10  38  1   
 23  10  39  1   
 24  11  16  ar  
 25  11  40  1   
 26  12  16  ar  
 27  12  41  1   
 28  13  17  ar  
 29  13  18  ar  
 30  14  42  1   
 31  14  43  1   
 32  15  19  1   
 33  15  44  1   
 34  15  45  1   
 35  16  20  1   
 36  17  21  ar  
 37  18  19  1   
 38  18  22  ar  
 39  19  46  1   
 40  19  47  1   
 41  20  23  2   
 42  20  24  1   
 43  21  25  ar  
 44  21  26  1   
 45  22  25  ar  
 46  22  48  1   
 47  23  27  1   
 48  24  28  2   
 49  26  49  1   
 50  26  50  1   
 51  26  51  1   
 52  27  28  1   
 53  28  29  1   
 54  29  30  1   
 55  29  31  1   
 56  29  52  1   
 57  30  31  1   
 58  30  53  1   
 59  30  54  1   
 60  31  55  1   
 61  31  56  1   
@<TRIPOS>SUBSTRUCTURE
  1 ****   8 GROUP 4 **** **** 0

# MOE 2024.06 (io_trps.svl 2023.06)
