@<TRIPOS>MOLECULE
NONAME
47 48 1 0 0 
SMALL
USER_CHARGES


@<TRIPOS>ATOM
  1 S        0.4820     0.0460    -0.2040 S.o2  1 <1>   1.3330 
  2 O        0.4520    -0.2710     1.2070 O.2   1 <1>  -0.6500 
  3 O        0.4540    -1.0250    -1.1750 O.2   1 <1>  -0.6500 
  4 N       -0.8100     1.0980    -0.5280 N.am  1 <1>  -0.8490 
  5 C        1.9220     1.0530    -0.5430 C.3   1 <1>  -0.0550 
  6 C       -1.1230     2.0000     0.5850 C.3   1 <1>   0.1160 
  7 C       -2.0180     0.3810    -0.9470 C.3   1 <1>   0.1160 
  8 C        3.2460     0.2690    -0.4440 C.3   1 <1>  -0.0800 
  9 C        4.4920     1.0570    -0.8170 C.3   1 <1>   0.2200 
 10 C        3.5800    -0.2570     0.9600 C.3   1 <1>   0.1200 
 11 N        4.4460     2.4220    -0.2420 N.am  1 <1>  -0.7300 
 12 C        5.5540     0.2560    -0.0800 C.3   1 <1>   0.1200 
 13 O        4.9580    -0.0890     1.1320 O.3   1 <1>  -0.5600 
 14 C        4.1310     3.5450    -0.9280 C.2   1 <1>   0.5690 
 15 O        3.8000     3.5100    -2.0860 O.2   1 <1>  -0.5700 
 16 C        4.1890     4.8740    -0.2130 C.3   1 <1>  -0.0990 
 17 C        5.5290     5.5730    -0.4590 C.3   1 <1>  -0.0170 
 18 C        5.5850     6.8820     0.3100 C.ar  1 <1>  -0.1440 
 19 C        5.0470     8.0350    -0.2400 C.ar  1 <1>  -0.1500 
 20 C        6.1680     6.9350     1.5670 C.ar  1 <1>  -0.1500 
 21 C        5.0890     9.2290     0.4600 C.ar  1 <1>  -0.1500 
 22 C        6.2100     8.1280     2.2680 C.ar  1 <1>  -0.1500 
 23 C        5.6710     9.2760     1.7150 C.ar  1 <1>  -0.1500 
 24 H        1.8380     1.4530    -1.5360 H     1 <1>   0.0800 
 25 H        1.9380     1.8790     0.1390 H     1 <1>   0.0800 
 26 H       -1.8880     2.6980     0.2900 H     1 <1>   0.0800 
 27 H       -0.2480     2.5570     0.8690 H     1 <1>   0.0800 
 28 H       -1.4700     1.4390     1.4380 H     1 <1>   0.0800 
 29 H       -2.8100     1.0770    -1.1620 H     1 <1>   0.0800 
 30 H       -2.3390    -0.2960    -0.1720 H     1 <1>   0.0800 
 31 H       -1.8180    -0.1870    -1.8400 H     1 <1>   0.0800 
 32 H        3.1820    -0.5820    -1.1010 H     1 <1>   0.0800 
 33 H        4.6630     1.0950    -1.8810 H     1 <1>   0.0800 
 34 H        3.3380    -1.3010     1.0640 H     1 <1>   0.0800 
 35 H        3.0830     0.3070     1.7310 H     1 <1>   0.0800 
 36 H        4.6920     2.4580     0.7510 H     1 <1>   0.3700 
 37 H        6.4540     0.8180     0.1000 H     1 <1>   0.0800 
 38 H        5.7860    -0.6530    -0.6080 H     1 <1>   0.0800 
 39 H        3.3890     5.4940    -0.5740 H     1 <1>   0.0800 
 40 H        4.0440     4.7250     0.8410 H     1 <1>   0.0800 
 41 H        5.6480     5.7640    -1.5120 H     1 <1>   0.0800 
 42 H        6.3370     4.9340    -0.1500 H     1 <1>   0.0800 
 43 H        4.5930     8.0090    -1.2150 H     1 <1>   0.1500 
 44 H        6.5920     6.0500     2.0080 H     1 <1>   0.1500 
 45 H        4.6700    10.1200     0.0280 H     1 <1>   0.1500 
 46 H        6.6640     8.1640     3.2430 H     1 <1>   0.1500 
 47 H        5.7030    10.2030     2.2590 H     1 <1>   0.1500 
@<TRIPOS>BOND
  1   1   2  2   
  2   1   3  2   
  3   1   4  am  
  4   1   5  1   
  5   4   6  1   
  6   4   7  1   
  7   5   8  1   
  8   5  24  1   
  9   5  25  1   
 10   6  26  1   
 11   6  27  1   
 12   6  28  1   
 13   7  29  1   
 14   7  30  1   
 15   7  31  1   
 16   8   9  1   
 17   8  10  1   
 18   8  32  1   
 19   9  11  1   
 20   9  12  1   
 21   9  33  1   
 22  10  13  1   
 23  10  34  1   
 24  10  35  1   
 25  11  14  am  
 26  11  36  1   
 27  12  13  1   
 28  12  37  1   
 29  12  38  1   
 30  14  15  2   
 31  14  16  1   
 32  16  17  1   
 33  16  39  1   
 34  16  40  1   
 35  17  18  1   
 36  17  41  1   
 37  17  42  1   
 38  18  19  ar  
 39  18  20  ar  
 40  19  21  ar  
 41  19  43  1   
 42  20  22  ar  
 43  20  44  1   
 44  21  23  ar  
 45  21  45  1   
 46  22  23  ar  
 47  22  46  1   
 48  23  47  1   
@<TRIPOS>SUBSTRUCTURE
  1 ****  14 GROUP 4 **** **** 0

# MOE 2024.06 (io_trps.svl 2023.06)
