@<TRIPOS>MOLECULE
NONAME
54 56 1 0 0 
SMALL
USER_CHARGES


@<TRIPOS>ATOM
  1 F       -0.3400    -0.7120     1.1530 F     1 <1>  -0.1900 
  2 C       -1.5050    -1.2760     1.0100 C.ar  1 <1>   0.1900 
  3 C       -1.5710    -2.6430     0.8270 C.ar  1 <1>  -0.1500 
  4 C       -2.6400    -0.4920     1.0460 C.ar  1 <1>  -0.1500 
  5 C       -2.8120    -3.2370     0.6760 C.ar  1 <1>  -0.1500 
  6 C       -3.8720    -1.1030     0.8930 C.ar  1 <1>  -0.1500 
  7 C       -3.9970    -2.4860     0.7040 C.ar  1 <1>   0.0860 
  8 C       -5.3140    -3.0770     0.5480 C.2   1 <1>   0.4230 
  9 O       -6.3270    -2.4250     0.6000 O.2   1 <1>  -0.5700 
 10 C       -5.4480    -4.5790     0.3080 C.3   1 <1>  -0.0990 
 11 C       -6.9030    -5.0610     0.1190 C.3   1 <1>  -0.0990 
 12 C       -7.0240    -6.5550    -0.1440 C.2   1 <1>   0.5690 
 13 O       -6.0520    -7.2550     0.0190 O.2   1 <1>  -0.5700 
 14 N       -8.2180    -7.1040    -0.5390 N.am  1 <1>  -0.6600 
 15 C       -8.3070    -8.5480    -0.8930 C.3   1 <1>   0.1400 
 16 C       -9.5400    -6.4210    -0.4580 C.3   1 <1>   0.1400 
 17 C       -9.1420    -9.2860     0.1760 C.3   1 <1>   0.4230 
 18 C      -10.3830    -7.1330     0.6090 C.3   1 <1>  -0.1600 
 19 N       -9.1490   -10.8010     0.0160 N.4   1 <1>  -0.9590 
 20 C      -10.5590    -8.6600     0.3510 C.3   1 <1>   0.0000 
 21 C      -10.2540   -11.4910     0.7580 C.3   1 <1>   0.3430 
 22 C       -9.0910   -11.3040    -1.3970 C.3   1 <1>   0.2630 
 23 C      -11.2500    -9.2990     1.5920 C.3   1 <1>  -0.1600 
 24 C      -11.4120    -8.8960    -0.9280 C.3   1 <1>   0.1200 
 25 C      -10.6840   -10.6790     1.9790 C.3   1 <1>  -0.1600 
 26 O      -12.6000    -8.1850    -0.8920 O.3   1 <1>  -0.6800 
 27 H       -0.6660    -3.2240     0.8050 H     1 <1>   0.1500 
 28 H       -2.5560     0.5710     1.1910 H     1 <1>   0.1500 
 29 H       -2.8430    -4.3020     0.5360 H     1 <1>   0.1500 
 30 H       -4.7630    -0.4970     0.9210 H     1 <1>   0.1500 
 31 H       -4.8860    -4.8370    -0.5720 H     1 <1>   0.0800 
 32 H       -5.0200    -5.0960     1.1470 H     1 <1>   0.0800 
 33 H       -7.3340    -4.5310    -0.7110 H     1 <1>   0.0800 
 34 H       -7.4660    -4.8230     1.0020 H     1 <1>   0.0800 
 35 H       -8.7530    -8.6310    -1.8670 H     1 <1>   0.0800 
 36 H       -7.3230    -8.9800    -0.9390 H     1 <1>   0.0800 
 37 H       -9.4310    -5.3840    -0.1920 H     1 <1>   0.0800 
 38 H      -10.0300    -6.4600    -1.4170 H     1 <1>   0.0800 
 39 H       -8.6320    -9.0870     1.1050 H     1 <1>   0.0800 
 40 H       -9.8970    -6.9750     1.5570 H     1 <1>   0.0800 
 41 H      -11.3410    -6.6460     0.6730 H     1 <1>   0.0800 
 42 H       -8.2740   -11.1070     0.4700 H     1 <1>   0.4500 
 43 H      -11.1080   -11.6110     0.1110 H     1 <1>   0.0800 
 44 H       -9.9320   -12.4730     1.0660 H     1 <1>   0.0800 
 45 H       -9.9590   -10.9830    -1.9490 H     1 <1>   0.0800 
 46 H       -9.0570   -12.3820    -1.4090 H     1 <1>   0.0800 
 47 H       -8.2080   -10.9360    -1.8950 H     1 <1>   0.0800 
 48 H      -11.1490    -8.6600     2.4540 H     1 <1>   0.0800 
 49 H      -12.3080    -9.3920     1.4180 H     1 <1>   0.0800 
 50 H      -11.6650    -9.9340    -1.0490 H     1 <1>   0.0800 
 51 H      -10.8940    -8.5690    -1.8120 H     1 <1>   0.0800 
 52 H      -11.4350   -11.2280     2.5220 H     1 <1>   0.0800 
 53 H       -9.8420   -10.5640     2.6390 H     1 <1>   0.0800 
 54 H      -13.1800    -8.4650    -0.1560 H     1 <1>   0.4000 
@<TRIPOS>BOND
  1   1   2  1   
  2   2   3  ar  
  3   2   4  ar  
  4   3   5  ar  
  5   3  27  1   
  6   4   6  ar  
  7   4  28  1   
  8   5   7  ar  
  9   5  29  1   
 10   6   7  ar  
 11   6  30  1   
 12   7   8  1   
 13   8   9  2   
 14   8  10  1   
 15  10  11  1   
 16  10  31  1   
 17  10  32  1   
 18  11  12  1   
 19  11  33  1   
 20  11  34  1   
 21  12  13  2   
 22  12  14  am  
 23  14  15  1   
 24  14  16  1   
 25  15  17  1   
 26  15  35  1   
 27  15  36  1   
 28  16  18  1   
 29  16  37  1   
 30  16  38  1   
 31  17  19  1   
 32  17  20  1   
 33  17  39  1   
 34  18  20  1   
 35  18  40  1   
 36  18  41  1   
 37  19  21  1   
 38  19  22  1   
 39  19  42  1   
 40  20  23  1   
 41  20  24  1   
 42  21  25  1   
 43  21  43  1   
 44  21  44  1   
 45  22  45  1   
 46  22  46  1   
 47  22  47  1   
 48  23  25  1   
 49  23  48  1   
 50  23  49  1   
 51  24  26  1   
 52  24  50  1   
 53  24  51  1   
 54  25  52  1   
 55  25  53  1   
 56  26  54  1   
@<TRIPOS>SUBSTRUCTURE
  1 ****  12 GROUP 4 **** **** 0

# MOE 2024.06 (io_trps.svl 2023.06)
