@<TRIPOS>MOLECULE
NONAME
52 55 1 0 0 
SMALL
USER_CHARGES


@<TRIPOS>ATOM
  1 S       -1.5430     0.3040     1.2900 S.3   1 <1>  -0.4600 
  2 C       -1.2660    -1.3960     0.7010 C.3   1 <1>   0.2500 
  3 C        0.0100     0.7170     2.1280 C.3   1 <1>  -0.0100 
  4 C       -2.4860    -1.8980    -0.0520 C.2   1 <1>  -0.0400 
  5 O       -2.4680    -3.1320    -0.5020 O.3   1 <1>  -0.2800 
  6 C       -3.6540    -1.3040    -0.3780 C.2   1 <1>  -0.1500 
  7 C       -3.6130    -3.3880    -1.1300 C.2   1 <1>   0.0550 
  8 C       -4.3830    -2.2640    -1.0790 C.2   1 <1>  -0.1500 
  9 C       -3.8670    -4.6830    -1.7270 C.2   1 <1>   0.7150 
 10 O       -2.9800    -5.2530    -2.3410 O.2   1 <1>  -0.5700 
 11 N       -5.1050    -5.2940    -1.6360 N.am  1 <1>  -0.6600 
 12 C       -6.0960    -4.9980    -0.5640 C.3   1 <1>   0.1400 
 13 C       -5.4680    -6.4680    -2.4810 C.3   1 <1>   0.1400 
 14 C       -6.2500    -6.2230     0.3410 C.3   1 <1>  -0.1600 
 15 C       -5.6190    -7.7100    -1.5990 C.3   1 <1>  -0.1600 
 16 C       -6.6240    -7.4900    -0.4550 C.3   1 <1>   0.4240 
 17 O       -7.8370    -7.2050    -1.1200 O.3   1 <1>  -0.5600 
 18 C       -6.7470    -8.7510     0.4490 C.ar  1 <1>  -0.1430 
 19 C       -9.0230    -7.3920    -0.4200 C.3   1 <1>   0.1200 
 20 C       -5.6570    -9.2630     1.1680 C.ar  1 <1>   0.0830 
 21 C       -7.9720    -9.4080     0.5620 C.ar  1 <1>  -0.1430 
 22 C       -9.1910    -8.8820    -0.1680 C.3   1 <1>  -0.0170 
 23 O       -4.4600    -8.6260     1.0910 O.3   1 <1>  -0.3630 
 24 C       -5.8070   -10.4050     1.9520 C.ar  1 <1>  -0.1500 
 25 C       -8.1090   -10.5430     1.3430 C.ar  1 <1>  -0.1500 
 26 C       -3.2660    -9.1750     1.6030 C.3   1 <1>   0.0400 
 27 C       -7.0270   -11.0440     2.0370 C.ar  1 <1>  -0.1500 
 28 H       -1.0740    -2.0080     1.5640 H     1 <1>   0.0800 
 29 H       -0.4040    -1.3800     0.0590 H     1 <1>   0.0800 
 30 H       -0.0800     1.7200     2.5070 H     1 <1>   0.0800 
 31 H        0.8060     0.6510     1.4070 H     1 <1>   0.0800 
 32 H        0.1530     0.0170     2.9310 H     1 <1>   0.0800 
 33 H       -3.9780    -0.3010    -0.1600 H     1 <1>   0.1500 
 34 H       -5.3640    -2.1200    -1.4960 H     1 <1>   0.1500 
 35 H       -7.0410    -4.7510    -1.0160 H     1 <1>   0.0800 
 36 H       -5.7810    -4.1640     0.0370 H     1 <1>   0.0800 
 37 H       -4.7170    -6.6460    -3.2320 H     1 <1>   0.0800 
 38 H       -6.3960    -6.2620    -2.9870 H     1 <1>   0.0800 
 39 H       -6.9860    -6.0340     1.0970 H     1 <1>   0.0800 
 40 H       -5.3160    -6.3670     0.8480 H     1 <1>   0.0800 
 41 H       -4.6480    -7.9530    -1.2190 H     1 <1>   0.0800 
 42 H       -5.9440    -8.5420    -2.1950 H     1 <1>   0.0800 
 43 H       -9.8280    -7.0180    -1.0260 H     1 <1>   0.0800 
 44 H       -8.9850    -6.8420     0.5040 H     1 <1>   0.0800 
 45 H       -9.3040    -9.3960    -1.1060 H     1 <1>   0.0800 
 46 H      -10.0770    -9.0430     0.4180 H     1 <1>   0.0800 
 47 H       -4.9870   -10.8120     2.5100 H     1 <1>   0.1500 
 48 H       -9.0590   -11.0440     1.4140 H     1 <1>   0.1500 
 49 H       -2.4560    -8.5220     1.3290 H     1 <1>   0.0800 
 50 H       -3.1150   -10.1470     1.1690 H     1 <1>   0.0800 
 51 H       -3.3400    -9.2340     2.6740 H     1 <1>   0.0800 
 52 H       -7.1360   -11.9270     2.6430 H     1 <1>   0.1500 
@<TRIPOS>BOND
  1   1   2  1   
  2   1   3  1   
  3   2   4  1   
  4   2  28  1   
  5   2  29  1   
  6   3  30  1   
  7   3  31  1   
  8   3  32  1   
  9   4   5  1   
 10   4   6  2   
 11   5   7  1   
 12   6   8  1   
 13   6  33  1   
 14   7   8  2   
 15   7   9  1   
 16   8  34  1   
 17   9  10  2   
 18   9  11  am  
 19  11  12  1   
 20  11  13  1   
 21  12  14  1   
 22  12  35  1   
 23  12  36  1   
 24  13  15  1   
 25  13  37  1   
 26  13  38  1   
 27  14  16  1   
 28  14  39  1   
 29  14  40  1   
 30  15  16  1   
 31  15  41  1   
 32  15  42  1   
 33  16  17  1   
 34  16  18  1   
 35  17  19  1   
 36  18  20  ar  
 37  18  21  ar  
 38  19  22  1   
 39  19  43  1   
 40  19  44  1   
 41  20  23  1   
 42  20  24  ar  
 43  21  22  1   
 44  21  25  ar  
 45  22  45  1   
 46  22  46  1   
 47  23  26  1   
 48  24  27  ar  
 49  24  47  1   
 50  25  27  ar  
 51  25  48  1   
 52  26  49  1   
 53  26  50  1   
 54  26  51  1   
 55  27  52  1   
@<TRIPOS>SUBSTRUCTURE
  1 ****  14 GROUP 4 **** **** 0

# MOE 2024.06 (io_trps.svl 2023.06)
