@<TRIPOS>MOLECULE
NONAME
54 58 1 0 0 
SMALL
USER_CHARGES


@<TRIPOS>ATOM
  1 O        0.0910     0.8660    -1.7470 O.2   1 <1>  -0.5700 
  2 C       -0.4610     1.6090    -0.9600 C.2   1 <1>   0.5440 
  3 N       -1.8000     1.4240    -0.6770 N.am  1 <1>  -0.6600 
  4 C        0.2870     2.6900    -0.3840 C.ar  1 <1>   0.0860 
  5 C       -2.6630     2.4530    -0.0090 C.3   1 <1>   0.1400 
  6 C       -2.5770     0.2850    -1.2470 C.3   1 <1>   0.1400 
  7 C        0.9020     3.6460    -1.1690 C.ar  1 <1>   0.1600 
  8 C        0.4230     2.8700     0.9790 C.ar  1 <1>   0.1600 
  9 C       -3.6880     3.0370    -0.9990 C.3   1 <1>   0.1440 
 10 C       -3.6170     0.8130    -2.2450 C.3   1 <1>  -0.1600 
 11 N        1.5250     4.6890    -0.6750 N.ar  1 <1>  -0.6200 
 12 N        1.0420     3.8960     1.5090 N.ar  1 <1>  -0.6200 
 13 C       -4.5330     4.0500    -0.2500 C.ar  1 <1>   0.1670 
 14 C       -4.5200     1.8930    -1.6190 C.3   1 <1>  -0.1600 
 15 C       -3.0080     3.9190    -2.0820 C.3   1 <1>  -0.1600 
 16 C        1.5590     4.7680     0.6480 C.ar  1 <1>   0.7200 
 17 N       -5.4740     3.7640     0.6170 N.ar  1 <1>  -0.6200 
 18 C       -4.1770     5.3260    -0.5620 C.ar  1 <1>  -0.1440 
 19 C       -3.0530     5.3670    -1.5680 C.3   1 <1>  -0.0170 
 20 N        2.1860     5.8600     1.1270 N.pl3 1 <1>  -0.8690 
 21 C       -6.0920     4.8130     1.1770 C.ar  1 <1>   0.6200 
 22 C       -4.8510     6.3450     0.0570 C.ar  1 <1>   0.1600 
 23 C        2.4710     6.1970     2.5440 C.3   1 <1>   0.1290 
 24 N       -5.8070     6.0990     0.9230 N.ar  1 <1>  -0.6200 
 25 C       -7.1530     4.5340     2.1370 C.ar  1 <1>   0.0000 
 26 C       -7.1870     3.3440     2.8710 C.ar  1 <1>  -0.1500 
 27 C       -8.1900     5.4440     2.3700 C.ar  1 <1>  -0.1500 
 28 C       -8.1930     3.0760     3.7820 C.ar  1 <1>  -0.1500 
 29 C       -9.1990     5.1840     3.2800 C.ar  1 <1>  -0.1500 
 30 C       -9.2030     3.9970     3.9890 C.ar  1 <1>  -0.1500 
 31 H       -2.0800     3.2560     0.4000 H     1 <1>   0.0800 
 32 H       -3.1890     1.9870     0.8060 H     1 <1>   0.0800 
 33 H       -3.0730    -0.2350    -0.4450 H     1 <1>   0.0800 
 34 H       -1.9250    -0.4160    -1.7400 H     1 <1>   0.0800 
 35 H        0.8630     3.5380    -2.2400 H     1 <1>   0.1500 
 36 H       -0.0060     2.1400     1.6440 H     1 <1>   0.1500 
 37 H       -4.2240    -0.0080    -2.5860 H     1 <1>   0.0800 
 38 H       -3.1020     1.2110    -3.1020 H     1 <1>   0.0800 
 39 H       -5.1990     2.2840    -2.3570 H     1 <1>   0.0800 
 40 H       -5.1150     1.4390    -0.8460 H     1 <1>   0.0800 
 41 H       -3.5860     3.8730    -2.9890 H     1 <1>   0.0800 
 42 H       -2.0060     3.6060    -2.3130 H     1 <1>   0.0800 
 43 H       -3.2510     6.0650    -2.3630 H     1 <1>   0.0800 
 44 H       -2.1320     5.6260    -1.0730 H     1 <1>   0.0800 
 45 H        2.5910     6.4570     0.4070 H     1 <1>   0.4000 
 46 H       -4.6050     7.3720    -0.1570 H     1 <1>   0.1500 
 47 H        1.9940     5.4970     3.2100 H     1 <1>   0.0800 
 48 H        2.1030     7.1840     2.7630 H     1 <1>   0.0800 
 49 H        3.5330     6.1680     2.7160 H     1 <1>   0.0800 
 50 H       -6.4110     2.6130     2.7260 H     1 <1>   0.1500 
 51 H       -8.2060     6.3730     1.8280 H     1 <1>   0.1500 
 52 H       -8.1900     2.1500     4.3300 H     1 <1>   0.1500 
 53 H       -9.9810     5.9060     3.4360 H     1 <1>   0.1500 
 54 H       -9.9870     3.7920     4.6970 H     1 <1>   0.1500 
@<TRIPOS>BOND
  1   1   2  2   
  2   2   3  am  
  3   2   4  1   
  4   3   5  1   
  5   3   6  1   
  6   4   7  ar  
  7   4   8  ar  
  8   5   9  1   
  9   5  31  1   
 10   5  32  1   
 11   6  10  1   
 12   6  33  1   
 13   6  34  1   
 14   7  11  ar  
 15   7  35  1   
 16   8  12  ar  
 17   8  36  1   
 18   9  13  1   
 19   9  14  1   
 20   9  15  1   
 21  10  14  1   
 22  10  37  1   
 23  10  38  1   
 24  11  16  ar  
 25  12  16  ar  
 26  13  17  ar  
 27  13  18  ar  
 28  14  39  1   
 29  14  40  1   
 30  15  19  1   
 31  15  41  1   
 32  15  42  1   
 33  16  20  1   
 34  17  21  ar  
 35  18  19  1   
 36  18  22  ar  
 37  19  43  1   
 38  19  44  1   
 39  20  23  1   
 40  20  45  1   
 41  21  24  ar  
 42  21  25  1   
 43  22  24  ar  
 44  22  46  1   
 45  23  47  1   
 46  23  48  1   
 47  23  49  1   
 48  25  26  ar  
 49  25  27  ar  
 50  26  28  ar  
 51  26  50  1   
 52  27  29  ar  
 53  27  51  1   
 54  28  30  ar  
 55  28  52  1   
 56  29  30  ar  
 57  29  53  1   
 58  30  54  1   
@<TRIPOS>SUBSTRUCTURE
  1 ****   5 GROUP 4 **** **** 0

# MOE 2024.06 (io_trps.svl 2023.06)
