@<TRIPOS>MOLECULE
NONAME
45 46 1 0 0 
SMALL
USER_CHARGES


@<TRIPOS>ATOM
  1 O       -0.0470     0.0650    -1.0960 O.2   1 <1>  -0.5700 
  2 C        0.9330    -0.4070    -0.5760 C.2   1 <1>   0.5690 
  3 N        1.9910     0.3310    -0.1230 N.am  1 <1>  -0.4940 
  4 C        1.0050    -1.9070    -0.4150 C.3   1 <1>  -0.0990 
  5 C        2.2630     1.7180    -0.1050 C.2   1 <1>  -0.0880 
  6 C        0.5060    -2.3330     0.9700 C.3   1 <1>   0.2200 
  7 N        1.4020     2.7730    -0.1390 N.pl3 1 <1>   0.3140 
  8 C        3.5170     2.2430    -0.0080 C.2   1 <1>  -0.0540 
  9 N        0.8730    -3.7410     1.2320 N.am  1 <1>  -0.7300 
 10 C       -0.9930    -2.1080     1.1810 C.3   1 <1>  -0.2400 
 11 N        2.0640     3.9490    -0.0670 N.2   1 <1>  -0.7070 
 12 C       -0.0670     2.7870    -0.1710 C.3   1 <1>   0.0160 
 13 C        4.7670     1.5310     0.0670 C.ar  1 <1>   0.0540 
 14 C        3.3120     3.6250     0.0040 C.2   1 <1>   0.1080 
 15 C        0.4270    -4.9300     0.7600 C.2   1 <1>   0.5690 
 16 C        5.1800     0.7090    -0.9770 C.ar  1 <1>  -0.1500 
 17 C        5.5860     1.6310     1.1870 C.ar  1 <1>  -0.1500 
 18 C        4.4050     4.6680     0.0850 C.3   1 <1>  -0.0590 
 19 O        0.9560    -5.9390     1.1460 O.2   1 <1>  -0.5700 
 20 C       -0.7080    -5.0540    -0.2270 C.3   1 <1>  -0.1790 
 21 C        6.3690     0.0060    -0.9050 C.ar  1 <1>  -0.1500 
 22 C        6.7760     0.9310     1.2660 C.ar  1 <1>  -0.1500 
 23 C        7.1690     0.1160     0.2190 C.ar  1 <1>  -0.1500 
 24 H        2.7950    -0.2240     0.1770 H     1 <1>   0.3700 
 25 H        2.0230    -2.2230    -0.5480 H     1 <1>   0.0800 
 26 H        0.4100    -2.3580    -1.1850 H     1 <1>   0.0800 
 27 H        1.0220    -1.7390     1.7060 H     1 <1>   0.0800 
 28 H        1.6220    -3.8540     1.9180 H     1 <1>   0.3700 
 29 H       -1.5700    -2.5180     0.3740 H     1 <1>   0.0800 
 30 H       -1.2000    -1.0540     1.2220 H     1 <1>   0.0800 
 31 H       -1.3100    -2.5460     2.1100 H     1 <1>   0.0800 
 32 H       -0.4450     2.0390     0.4990 H     1 <1>   0.0800 
 33 H       -0.3970     2.5850    -1.1730 H     1 <1>   0.0800 
 34 H       -0.4180     3.7540     0.1340 H     1 <1>   0.0800 
 35 H        4.5620     0.6310    -1.8540 H     1 <1>   0.1500 
 36 H        5.2810     2.2630     2.0030 H     1 <1>   0.1500 
 37 H        5.3000     4.3100    -0.3890 H     1 <1>   0.0800 
 38 H        4.6120     4.8940     1.1140 H     1 <1>   0.0800 
 39 H        4.0840     5.5660    -0.4110 H     1 <1>   0.0800 
 40 H       -0.5910    -4.3630    -1.0360 H     1 <1>   0.0800 
 41 H       -1.6410    -4.8800     0.2740 H     1 <1>   0.0800 
 42 H       -0.7200    -6.0500    -0.6310 H     1 <1>   0.0800 
 43 H        6.6750    -0.6240    -1.7230 H     1 <1>   0.1500 
 44 H        7.3990     1.0200     2.1400 H     1 <1>   0.1500 
 45 H        8.0960    -0.4290     0.2770 H     1 <1>   0.1500 
@<TRIPOS>BOND
  1   1   2  2   
  2   2   3  am  
  3   2   4  1   
  4   3   5  1   
  5   3  24  1   
  6   4   6  1   
  7   4  25  1   
  8   4  26  1   
  9   5   7  1   
 10   5   8  2   
 11   6   9  1   
 12   6  10  1   
 13   6  27  1   
 14   7  11  1   
 15   7  12  1   
 16   8  13  1   
 17   8  14  1   
 18   9  15  am  
 19   9  28  1   
 20  10  29  1   
 21  10  30  1   
 22  10  31  1   
 23  11  14  2   
 24  12  32  1   
 25  12  33  1   
 26  12  34  1   
 27  13  16  ar  
 28  13  17  ar  
 29  14  18  1   
 30  15  19  2   
 31  15  20  1   
 32  16  21  ar  
 33  16  35  1   
 34  17  22  ar  
 35  17  36  1   
 36  18  37  1   
 37  18  38  1   
 38  18  39  1   
 39  20  40  1   
 40  20  41  1   
 41  20  42  1   
 42  21  23  ar  
 43  21  43  1   
 44  22  23  ar  
 45  22  44  1   
 46  23  45  1   
@<TRIPOS>SUBSTRUCTURE
  1 ****   3 GROUP 4 **** **** 0

# MOE 2024.06 (io_trps.svl 2023.06)
