@<TRIPOS>MOLECULE
NONAME
48 49 1 0 0 
SMALL
USER_CHARGES


@<TRIPOS>ATOM
  1 S       -0.4030     0.2060     1.6770 S.o2  1 <1>   1.4470 
  2 O       -1.0040     1.2650     2.4510 O.2   1 <1>  -0.6500 
  3 O       -0.2520    -1.1020     2.2710 O.2   1 <1>  -0.6500 
  4 N       -1.4440     0.0540     0.3650 N.am  1 <1>  -0.9140 
  5 C        1.1520     0.7720     0.9380 C.ar  1 <1>  -0.0090 
  6 C       -1.5060    -1.1980    -0.3960 C.3   1 <1>   0.2760 
  7 C        1.1730     1.8310     0.0400 C.ar  1 <1>  -0.1500 
  8 C        2.3600     0.1610     1.2460 C.ar  1 <1>  -0.1500 
  9 C       -2.2230    -2.3350     0.3390 C.3   1 <1>  -0.0800 
 10 C       -0.1700    -1.8110    -0.8370 C.3   1 <1>   0.1200 
 11 C        2.3500     2.2710    -0.5470 C.ar  1 <1>  -0.1430 
 12 C        3.5420     0.5870     0.6690 C.ar  1 <1>  -0.1500 
 13 C       -1.1890    -3.4640     0.3070 C.3   1 <1>   0.1200 
 14 C       -3.5190    -2.7310    -0.3960 C.3   1 <1>  -0.0550 
 15 O       -0.3860    -3.1830    -0.7920 O.3   1 <1>  -0.5600 
 16 C        3.5470     1.6410    -0.2300 C.ar  1 <1>  -0.1430 
 17 C        2.2990     3.4370    -1.5240 C.3   1 <1>  -0.0970 
 18 S       -4.5920    -3.8010     0.5620 S.o2  1 <1>   1.3330 
 19 C        4.8680     2.0820    -0.8460 C.3   1 <1>  -0.0960 
 20 O       -3.9580    -5.0830     0.7700 O.2   1 <1>  -0.6500 
 21 O       -5.0550    -3.0340     1.6960 O.2   1 <1>  -0.6500 
 22 N       -5.9040    -4.0360    -0.4900 N.am  1 <1>  -0.8490 
 23 C       -5.6800    -5.1070    -1.4670 C.3   1 <1>   0.1160 
 24 C       -7.1570    -4.2780     0.2330 C.3   1 <1>   0.1160 
 25 H       -2.3600     0.2410     0.7700 H     1 <1>   0.4200 
 26 H       -2.0460    -0.9800    -1.3020 H     1 <1>   0.0800 
 27 H        0.2430     2.3170    -0.1990 H     1 <1>   0.1500 
 28 H        2.3780    -0.6600     1.9440 H     1 <1>   0.1500 
 29 H       -2.4540    -2.0790     1.3590 H     1 <1>   0.0800 
 30 H        0.6390    -1.5960    -0.1650 H     1 <1>   0.0800 
 31 H        0.0940    -1.5330    -1.8410 H     1 <1>   0.0800 
 32 H        4.4610     0.0900     0.9280 H     1 <1>   0.1500 
 33 H       -1.6120    -4.4460     0.1900 H     1 <1>   0.0800 
 34 H       -0.5670    -3.4440     1.1870 H     1 <1>   0.0800 
 35 H       -3.2670    -3.2070    -1.3240 H     1 <1>   0.0800 
 36 H       -4.0720    -1.8410    -0.6250 H     1 <1>   0.0800 
 37 H        1.2930     3.7970    -1.6450 H     1 <1>   0.0800 
 38 H        2.6650     3.1280    -2.4860 H     1 <1>   0.0800 
 39 H        2.9040     4.2470    -1.1610 H     1 <1>   0.0800 
 40 H        5.6820     1.4800    -0.4860 H     1 <1>   0.0800 
 41 H        5.0680     3.1070    -0.5910 H     1 <1>   0.0800 
 42 H        4.8250     1.9870    -1.9160 H     1 <1>   0.0800 
 43 H       -6.5000    -5.1490    -2.1640 H     1 <1>   0.0800 
 44 H       -5.5950    -6.0600    -0.9700 H     1 <1>   0.0800 
 45 H       -4.7740    -4.9250    -2.0190 H     1 <1>   0.0800 
 46 H       -7.9690    -4.4070    -0.4610 H     1 <1>   0.0800 
 47 H       -7.3870    -3.4370     0.8660 H     1 <1>   0.0800 
 48 H       -7.0710    -5.1590     0.8470 H     1 <1>   0.0800 
@<TRIPOS>BOND
  1   1   2  2   
  2   1   3  2   
  3   1   4  am  
  4   1   5  1   
  5   4   6  1   
  6   4  25  1   
  7   5   7  ar  
  8   5   8  ar  
  9   6   9  1   
 10   6  10  1   
 11   6  26  1   
 12   7  11  ar  
 13   7  27  1   
 14   8  12  ar  
 15   8  28  1   
 16   9  13  1   
 17   9  14  1   
 18   9  29  1   
 19  10  15  1   
 20  10  30  1   
 21  10  31  1   
 22  11  16  ar  
 23  11  17  1   
 24  12  16  ar  
 25  12  32  1   
 26  13  15  1   
 27  13  33  1   
 28  13  34  1   
 29  14  18  1   
 30  14  35  1   
 31  14  36  1   
 32  16  19  1   
 33  17  37  1   
 34  17  38  1   
 35  17  39  1   
 36  18  20  2   
 37  18  21  2   
 38  18  22  am  
 39  19  40  1   
 40  19  41  1   
 41  19  42  1   
 42  22  23  1   
 43  22  24  1   
 44  23  43  1   
 45  23  44  1   
 46  23  45  1   
 47  24  46  1   
 48  24  47  1   
 49  24  48  1   
@<TRIPOS>SUBSTRUCTURE
  1 ****   6 GROUP 4 **** **** 0

# MOE 2024.06 (io_trps.svl 2023.06)
