@<TRIPOS>MOLECULE
NONAME
50 51 1 0 0 
SMALL
USER_CHARGES


@<TRIPOS>ATOM
  1 O       -2.8400     0.2470     1.6040 O.2   1 <1>  -0.5700 
  2 C       -2.5190     0.8550     0.6030 C.2   1 <1>   0.5440 
  3 N       -2.7950     0.2370    -0.5870 N.am  1 <1>  -0.6600 
  4 C       -2.0220     2.2220     0.6880 C.ar  1 <1>   0.0860 
  5 C       -2.3580    -1.1770    -0.8080 C.3   1 <1>   0.3210 
  6 C       -3.6130     0.8980    -1.6520 C.3   1 <1>   0.1400 
  7 C       -0.9590     2.7360    -0.0750 C.ar  1 <1>  -0.1440 
  8 C       -2.6450     3.0880     1.5900 C.ar  1 <1>  -0.1500 
  9 C       -3.5030    -2.1870    -0.7560 C.2   1 <1>   0.0460 
 10 C       -5.1160     0.5820    -1.4940 C.3   1 <1>   0.3430 
 11 C       -0.6030     4.0720     0.0440 C.ar  1 <1>  -0.1500 
 12 C       -0.1220     1.8790    -1.0260 C.3   1 <1>  -0.0170 
 13 C       -2.2830     4.4160     1.7040 C.ar  1 <1>  -0.1500 
 14 N       -4.3030    -2.3970    -1.8250 N.2   1 <1>  -0.5650 
 15 C       -3.8380    -3.0180     0.2600 C.2   1 <1>  -0.3320 
 16 N       -5.4980     0.4550    -0.0500 N.4   1 <1>  -0.9590 
 17 C       -1.2620     4.9130     0.9200 C.ar  1 <1>  -0.1500 
 18 C        0.8020     0.9390    -0.2460 C.3   1 <1>  -0.2400 
 19 C       -5.0680    -3.3720    -1.4550 C.2   1 <1>   0.0360 
 20 N       -4.8400    -3.7920    -0.1940 N.pl3 1 <1>   0.0330 
 21 C       -3.2550    -3.1700     1.6560 C.3   1 <1>  -0.0600 
 22 C       -6.5930    -0.5340     0.1350 C.3   1 <1>   0.2630 
 23 C       -5.8010     1.7630     0.5950 C.3   1 <1>   0.2630 
 24 H       -1.6330    -1.4400    -0.0580 H     1 <1>   0.0800 
 25 H       -1.8700    -1.2550    -1.7630 H     1 <1>   0.0800 
 26 H       -3.2800     0.5750    -2.6230 H     1 <1>   0.0800 
 27 H       -3.4740     1.9640    -1.6000 H     1 <1>   0.0800 
 28 H       -3.4250     2.7090     2.2270 H     1 <1>   0.1500 
 29 H       -5.3130    -0.3480    -1.9960 H     1 <1>   0.0800 
 30 H       -5.7080     1.3390    -1.9800 H     1 <1>   0.0800 
 31 H        0.2070     4.4750    -0.5410 H     1 <1>   0.1500 
 32 H        0.4880     2.5120    -1.6470 H     1 <1>   0.0800 
 33 H       -0.7460     1.3160    -1.6930 H     1 <1>   0.0800 
 34 H       -2.7840     5.0610     2.4050 H     1 <1>   0.1500 
 35 H       -4.6430     0.0540     0.4020 H     1 <1>   0.4500 
 36 H       -0.9720     5.9470     1.0000 H     1 <1>   0.1500 
 37 H        1.4570     1.5110     0.3880 H     1 <1>   0.0800 
 38 H        1.4020     0.3620    -0.9270 H     1 <1>   0.0800 
 39 H        0.2360     0.2650     0.3700 H     1 <1>   0.0800 
 40 H       -5.8190    -3.8270    -2.0810 H     1 <1>   0.1500 
 41 H       -5.3050    -4.5640     0.2960 H     1 <1>   0.2700 
 42 H       -2.4770    -2.4480     1.8300 H     1 <1>   0.0800 
 43 H       -2.8370    -4.1540     1.7800 H     1 <1>   0.0800 
 44 H       -4.0180    -3.0200     2.3990 H     1 <1>   0.0800 
 45 H       -7.4960    -0.1890    -0.3410 H     1 <1>   0.0800 
 46 H       -6.7830    -0.6850     1.1840 H     1 <1>   0.0800 
 47 H       -6.3080    -1.4780    -0.3010 H     1 <1>   0.0800 
 48 H       -6.6910     2.1950     0.1670 H     1 <1>   0.0800 
 49 H       -4.9800     2.4460     0.4530 H     1 <1>   0.0800 
 50 H       -5.9540     1.6260     1.6530 H     1 <1>   0.0800 
@<TRIPOS>BOND
  1   1   2  2   
  2   2   3  am  
  3   2   4  1   
  4   3   5  1   
  5   3   6  1   
  6   4   7  ar  
  7   4   8  ar  
  8   5   9  1   
  9   5  24  1   
 10   5  25  1   
 11   6  10  1   
 12   6  26  1   
 13   6  27  1   
 14   7  11  ar  
 15   7  12  1   
 16   8  13  ar  
 17   8  28  1   
 18   9  14  1   
 19   9  15  2   
 20  10  16  1   
 21  10  29  1   
 22  10  30  1   
 23  11  17  ar  
 24  11  31  1   
 25  12  18  1   
 26  12  32  1   
 27  12  33  1   
 28  13  17  ar  
 29  13  34  1   
 30  14  19  2   
 31  15  20  1   
 32  15  21  1   
 33  16  22  1   
 34  16  23  1   
 35  16  35  1   
 36  17  36  1   
 37  18  37  1   
 38  18  38  1   
 39  18  39  1   
 40  19  20  1   
 41  19  40  1   
 42  20  41  1   
 43  21  42  1   
 44  21  43  1   
 45  21  44  1   
 46  22  45  1   
 47  22  46  1   
 48  22  47  1   
 49  23  48  1   
 50  23  49  1   
 51  23  50  1   
@<TRIPOS>SUBSTRUCTURE
  1 ****   3 GROUP 4 **** **** 0

# MOE 2024.06 (io_trps.svl 2023.06)
